MODEL 1
REMARK VINA RESULT: -7.183960570      0.000      0.000
REMARK  3 active torsions:
REMARK  status: ('A' for Active; 'I' for Inactive)
REMARK    1  A    between atoms: N3_9  and  N4_10 
REMARK    2  A    between atoms: C9_17  and  C10_18 
REMARK    3  A    between atoms: C10_18  and  C11_19 
ROOT
HETATM    1  N4  UNL     1      15.595  -1.989  52.290  1.00  0.00    -0.298 N 
ATOM      2  H4  UNL     1      14.689  -2.267  52.665  1.00  0.00     0.187 HD
HETATM    3  C4  UNL     1      15.592  -1.068  51.406  1.00  0.00     0.009 C 
HETATM    4  C5  UNL     1      16.856  -0.615  50.820  1.00  0.00     0.054 C 
HETATM    5  C6  UNL     1      16.694   0.012  49.442  1.00  0.00     0.006 C 
HETATM    6  C7  UNL     1      15.630   1.098  49.657  1.00  0.00     0.001 C 
HETATM    7  C8  UNL     1      14.312   0.313  49.780  1.00  0.00     0.011 C 
HETATM    8  C9  UNL     1      14.281  -0.503  51.019  1.00  0.00     0.041 C 
ENDROOT
BRANCH   1   9
HETATM    9  N3  UNL     1      16.694  -2.642  52.788  1.00  0.00    -0.216 N 
HETATM   10  C2  UNL     1      17.346  -3.660  52.191  1.00  0.00     0.117 A 
HETATM   11  C1  UNL     1      17.079  -4.329  50.899  1.00  0.00     0.092 C 
HETATM   12  N1  UNL     1      18.360  -4.015  53.001  1.00  0.00    -0.285 N 
HETATM   13  N2  UNL     1      18.359  -3.247  54.086  1.00  0.00    -0.273 N 
ATOM     14  H1  UNL     1      19.030  -4.761  52.811  1.00  0.00     0.188 HD
HETATM   15  C3  UNL     1      17.323  -2.394  53.953  1.00  0.00     0.213 A 
ATOM     16  H2  UNL     1      19.013  -3.294  54.867  1.00  0.00     0.189 HD
HETATM   17  S1  UNL     1      16.957  -1.260  55.084  1.00  0.00    -0.037 SA
ENDBRANCH   1   9
BRANCH   8  18
HETATM   18  C10 UNL     1      13.222  -1.557  50.923  1.00  0.00     0.128 C 
BRANCH  18  19
HETATM   19  C11 UNL     1      12.090  -1.374  51.881  1.00  0.00     0.388 C 
HETATM   20  F1  UNL     1      12.493  -0.319  52.732  1.00  0.00    -0.171 F 
HETATM   21  F2  UNL     1      10.900  -1.052  51.301  1.00  0.00    -0.171 F 
HETATM   22  F3  UNL     1      11.906  -2.453  52.737  1.00  0.00    -0.171 F 
ENDBRANCH  18  19
ENDBRANCH   8  18
TORSDOF 3
ENDMDL
MODEL 2
REMARK VINA RESULT: -7.100260552      1.253      1.883
REMARK  3 active torsions:
REMARK  status: ('A' for Active; 'I' for Inactive)
REMARK    1  A    between atoms: N3_9  and  N4_10 
REMARK    2  A    between atoms: C9_17  and  C10_18 
REMARK    3  A    between atoms: C10_18  and  C11_19 
ROOT
HETATM    1  N4  UNL     1      15.635  -1.971  52.436  1.00  0.00    -0.298 N 
ATOM      2  H4  UNL     1      14.728  -2.235  52.818  1.00  0.00     0.187 HD
HETATM    3  C4  UNL     1      15.632  -1.109  51.495  1.00  0.00     0.009 C 
HETATM    4  C5  UNL     1      16.897  -0.679  50.895  1.00  0.00     0.054 C 
HETATM    5  C6  UNL     1      16.744  -0.144  49.477  1.00  0.00     0.006 C 
HETATM    6  C7  UNL     1      15.665   0.940  49.611  1.00  0.00     0.001 C 
HETATM    7  C8  UNL     1      14.355   0.149  49.769  1.00  0.00     0.011 C 
HETATM    8  C9  UNL     1      14.319  -0.586  51.058  1.00  0.00     0.041 C 
ENDROOT
BRANCH   1   9
HETATM    9  N3  UNL     1      16.736  -2.577  52.987  1.00  0.00    -0.216 N 
HETATM   10  C2  UNL     1      17.344  -2.219  54.136  1.00  0.00     0.117 A 
HETATM   11  C1  UNL     1      17.016  -1.131  55.083  1.00  0.00     0.092 C 
HETATM   12  N1  UNL     1      18.378  -3.060  54.320  1.00  0.00    -0.285 N 
HETATM   13  N2  UNL     1      18.432  -3.932  53.317  1.00  0.00    -0.273 N 
ATOM     14  H1  UNL     1      19.023  -3.034  55.110  1.00  0.00     0.188 HD
HETATM   15  C3  UNL     1      17.412  -3.631  52.489  1.00  0.00     0.213 A 
ATOM     16  H2  UNL     1      19.113  -4.682  53.198  1.00  0.00     0.189 HD
HETATM   17  S1  UNL     1      17.112  -4.470  51.110  1.00  0.00    -0.037 SA
ENDBRANCH   1   9
BRANCH   8  18
HETATM   18  C10 UNL     1      13.274  -1.657  51.018  1.00  0.00     0.128 C 
BRANCH  18  19
HETATM   19  C11 UNL     1      12.101  -1.399  51.908  1.00  0.00     0.388 C 
HETATM   20  F1  UNL     1      12.501  -0.332  52.745  1.00  0.00    -0.171 F 
HETATM   21  F2  UNL     1      10.957  -1.051  51.255  1.00  0.00    -0.171 F 
HETATM   22  F3  UNL     1      11.829  -2.441  52.786  1.00  0.00    -0.171 F 
ENDBRANCH  18  19
ENDBRANCH   8  18
TORSDOF 3
ENDMDL
MODEL 3
REMARK VINA RESULT: -6.965799220      3.103      4.069
REMARK  3 active torsions:
REMARK  status: ('A' for Active; 'I' for Inactive)
REMARK    1  A    between atoms: N3_9  and  N4_10 
REMARK    2  A    between atoms: C9_17  and  C10_18 
REMARK    3  A    between atoms: C10_18  and  C11_19 
ROOT
HETATM    1  N4  UNL     1      16.222  -1.445  51.156  1.00  0.00    -0.298 N 
ATOM      2  H4  UNL     1      16.868  -0.744  50.798  1.00  0.00     0.187 HD
HETATM    3  C4  UNL     1      15.001  -1.335  50.801  1.00  0.00     0.009 C 
HETATM    4  C5  UNL     1      14.013  -2.306  51.277  1.00  0.00     0.054 C 
HETATM    5  C6  UNL     1      12.588  -1.767  51.282  1.00  0.00     0.006 C 
HETATM    6  C7  UNL     1      12.386  -1.255  49.849  1.00  0.00     0.001 C 
HETATM    7  C8  UNL     1      13.195   0.053  49.800  1.00  0.00     0.011 C 
HETATM    8  C9  UNL     1      14.652  -0.208  49.910  1.00  0.00     0.041 C 
ENDROOT
BRANCH   1   9
HETATM    9  N3  UNL     1      16.753  -2.413  51.972  1.00  0.00    -0.216 N 
HETATM   10  C2  UNL     1      16.801  -2.372  53.319  1.00  0.00     0.117 A 
HETATM   11  C1  UNL     1      16.320  -1.332  54.254  1.00  0.00     0.092 C 
HETATM   12  N1  UNL     1      17.396  -3.506  53.732  1.00  0.00    -0.285 N 
HETATM   13  N2  UNL     1      17.722  -4.252  52.680  1.00  0.00    -0.273 N 
ATOM     14  H1  UNL     1      17.571  -3.756  54.705  1.00  0.00     0.188 HD
HETATM   15  C3  UNL     1      17.322  -3.572  51.587  1.00  0.00     0.213 A 
ATOM     16  H2  UNL     1      18.183  -5.161  52.697  1.00  0.00     0.189 HD
HETATM   17  S1  UNL     1      17.534  -4.141  50.061  1.00  0.00    -0.037 SA
ENDBRANCH   1   9
BRANCH   8  18
HETATM   18  C10 UNL     1      15.379   1.047  50.284  1.00  0.00     0.128 C 
BRANCH  18  19
HETATM   19  C11 UNL     1      16.414   1.471  49.291  1.00  0.00     0.388 C 
HETATM   20  F1  UNL     1      17.648   1.071  49.852  1.00  0.00    -0.171 F 
HETATM   21  F2  UNL     1      16.280   0.911  48.057  1.00  0.00    -0.171 F 
HETATM   22  F3  UNL     1      16.527   2.849  49.160  1.00  0.00    -0.171 F 
ENDBRANCH  18  19
ENDBRANCH   8  18
TORSDOF 3
ENDMDL
MODEL 4
REMARK VINA RESULT: -6.916406561      2.826      3.637
REMARK  3 active torsions:
REMARK  status: ('A' for Active; 'I' for Inactive)
REMARK    1  A    between atoms: N3_9  and  N4_10 
REMARK    2  A    between atoms: C9_17  and  C10_18 
REMARK    3  A    between atoms: C10_18  and  C11_19 
ROOT
HETATM    1  N4  UNL     1      16.242  -1.514  51.028  1.00  0.00    -0.298 N 
ATOM      2  H4  UNL     1      16.884  -0.806  50.672  1.00  0.00     0.187 HD
HETATM    3  C4  UNL     1      15.009  -1.373  50.730  1.00  0.00     0.009 C 
HETATM    4  C5  UNL     1      14.028  -2.351  51.205  1.00  0.00     0.054 C 
HETATM    5  C6  UNL     1      12.613  -1.794  51.294  1.00  0.00     0.006 C 
HETATM    6  C7  UNL     1      12.358  -1.217  49.894  1.00  0.00     0.001 C 
HETATM    7  C8  UNL     1      13.184   0.081  49.866  1.00  0.00     0.011 C 
HETATM    8  C9  UNL     1      14.640  -0.204  49.904  1.00  0.00     0.041 C 
ENDROOT
BRANCH   1   9
HETATM    9  N3  UNL     1      16.793  -2.523  51.778  1.00  0.00    -0.216 N 
HETATM   10  C2  UNL     1      17.308  -3.673  51.299  1.00  0.00     0.117 A 
HETATM   11  C1  UNL     1      17.425  -4.152  49.905  1.00  0.00     0.092 C 
HETATM   12  N1  UNL     1      17.741  -4.387  52.354  1.00  0.00    -0.285 N 
HETATM   13  N2  UNL     1      17.509  -3.714  53.478  1.00  0.00    -0.273 N 
ATOM     14  H1  UNL     1      18.181  -5.306  52.301  1.00  0.00     0.188 HD
HETATM   15  C3  UNL     1      16.919  -2.557  53.119  1.00  0.00     0.213 A 
ATOM     16  H2  UNL     1      17.733  -4.015  54.426  1.00  0.00     0.189 HD
HETATM   17  S1  UNL     1      16.460  -1.419  54.211  1.00  0.00    -0.037 SA
ENDBRANCH   1   9
BRANCH   8  18
HETATM   18  C10 UNL     1      15.401   1.024  50.299  1.00  0.00     0.128 C 
BRANCH  18  19
HETATM   19  C11 UNL     1      16.421   1.459  49.297  1.00  0.00     0.388 C 
HETATM   20  F1  UNL     1      17.666   1.090  49.854  1.00  0.00    -0.171 F 
HETATM   21  F2  UNL     1      16.291   0.886  48.068  1.00  0.00    -0.171 F 
HETATM   22  F3  UNL     1      16.506   2.839  49.153  1.00  0.00    -0.171 F 
ENDBRANCH  18  19
ENDBRANCH   8  18
TORSDOF 3
ENDMDL
MODEL 5
REMARK VINA RESULT: -6.816026676      2.356      3.570
REMARK  3 active torsions:
REMARK  status: ('A' for Active; 'I' for Inactive)
REMARK    1  A    between atoms: N3_9  and  N4_10 
REMARK    2  A    between atoms: C9_17  and  C10_18 
REMARK    3  A    between atoms: C10_18  and  C11_19 
ROOT
HETATM    1  N4  UNL     1      15.423  -2.030  51.384  1.00  0.00    -0.298 N 
ATOM      2  H4  UNL     1      14.495  -2.078  50.964  1.00  0.00     0.187 HD
HETATM    3  C4  UNL     1      15.472  -1.933  52.656  1.00  0.00     0.009 C 
HETATM    4  C5  UNL     1      16.769  -1.858  53.332  1.00  0.00     0.054 C 
HETATM    5  C6  UNL     1      16.703  -1.183  54.696  1.00  0.00     0.006 C 
HETATM    6  C7  UNL     1      15.607  -1.963  55.436  1.00  0.00     0.001 C 
HETATM    7  C8  UNL     1      14.297  -1.467  54.800  1.00  0.00     0.011 C 
HETATM    8  C9  UNL     1      14.185  -1.902  53.385  1.00  0.00     0.041 C 
ENDROOT
BRANCH   1   9
HETATM    9  N3  UNL     1      16.492  -2.076  50.525  1.00  0.00    -0.216 N 
HETATM   10  C2  UNL     1      17.225  -3.168  50.234  1.00  0.00     0.117 A 
HETATM   11  C1  UNL     1      17.096  -4.557  50.728  1.00  0.00     0.092 C 
HETATM   12  N1  UNL     1      18.173  -2.792  49.355  1.00  0.00    -0.285 N 
HETATM   13  N2  UNL     1      18.050  -1.494  49.091  1.00  0.00    -0.273 N 
ATOM     14  H1  UNL     1      18.878  -3.409  48.952  1.00  0.00     0.188 HD
HETATM   15  C3  UNL     1      17.006  -1.050  49.819  1.00  0.00     0.213 A 
ATOM     16  H2  UNL     1      18.632  -0.943  48.462  1.00  0.00     0.189 HD
HETATM   17  S1  UNL     1      16.505   0.514  49.788  1.00  0.00    -0.037 SA
ENDBRANCH   1   9
BRANCH   8  18
HETATM   18  C10 UNL     1      13.155  -1.084  52.668  1.00  0.00     0.128 C 
BRANCH  18  19
HETATM   19  C11 UNL     1      11.747  -1.504  52.941  1.00  0.00     0.388 C 
HETATM   20  F1  UNL     1      11.028  -1.165  51.771  1.00  0.00    -0.171 F 
HETATM   21  F2  UNL     1      11.588  -2.832  53.195  1.00  0.00    -0.171 F 
HETATM   22  F3  UNL     1      11.132  -0.767  53.946  1.00  0.00    -0.171 F 
ENDBRANCH  18  19
ENDBRANCH   8  18
TORSDOF 3
ENDMDL
