MODEL 1
REMARK VINA RESULT: -8.206765356      0.000      0.000
REMARK  2 active torsions:
REMARK  status: ('A' for Active; 'I' for Inactive)
REMARK    1  A    between atoms: C4_5  and  N1_6 
REMARK    2  A    between atoms: C5_7  and  C6_8 
ROOT
HETATM    1  N1  UNL     1      15.566   0.181  49.997  1.00  0.00    -0.269 N 
HETATM    2  C5  UNL     1      16.641  -0.623  50.042  1.00  0.00     0.164 A 
HETATM    3  N2  UNL     1      17.697   0.093  49.631  1.00  0.00    -0.281 N 
ATOM      4  H2  UNL     1      18.652  -0.259  49.561  1.00  0.00     0.188 HD
HETATM    5  N3  UNL     1      17.311   1.335  49.326  1.00  0.00    -0.274 N 
ATOM      6  H3  UNL     1      17.905   2.091  48.988  1.00  0.00     0.189 HD
HETATM    7  C10 UNL     1      15.985   1.397  49.552  1.00  0.00     0.199 A 
HETATM    8  S1  UNL     1      14.975   2.663  49.356  1.00  0.00    -0.039 SA
ENDROOT
BRANCH   1   9
HETATM    9  C4  UNL     1      14.258  -0.210  50.355  1.00  0.00     0.043 A 
HETATM   10  C3  UNL     1      13.291  -0.594  49.448  1.00  0.00     0.033 A 
HETATM   11  C2  UNL     1      12.036  -0.962  49.876  1.00  0.00     0.044 A 
HETATM   12  C1  UNL     1      11.696  -0.965  51.204  1.00  0.00     0.116 A 
HETATM   13  F1  UNL     1      10.479  -1.318  51.672  1.00  0.00    -0.206 F 
HETATM   14  C12 UNL     1      12.653  -0.583  52.128  1.00  0.00     0.044 A 
HETATM   15  C11 UNL     1      13.907  -0.215  51.692  1.00  0.00     0.033 A 
ENDBRANCH   1   9
BRANCH   2  16
HETATM   16  C6  UNL     1      16.684  -2.020  50.455  1.00  0.00     0.122 A 
HETATM   17  C7  UNL     1      16.949  -3.110  49.654  1.00  0.00     0.044 A 
HETATM   18  C8  UNL     1      16.889  -4.232  50.451  1.00  0.00     0.048 A 
HETATM   19  C9  UNL     1      16.587  -3.775  51.718  1.00  0.00     0.122 A 
HETATM   20 BR1  UNL     1      16.389  -4.953  53.214  1.00  0.00    -0.023 Br
HETATM   21  O1  UNL     1      16.474  -2.471  51.684  1.00  0.00    -0.299 OA
ENDBRANCH   2  16
TORSDOF 2
ENDMDL
MODEL 2
REMARK VINA RESULT: -8.102484901      0.195      1.097
REMARK  2 active torsions:
REMARK  status: ('A' for Active; 'I' for Inactive)
REMARK    1  A    between atoms: C4_5  and  N1_6 
REMARK    2  A    between atoms: C5_7  and  C6_8 
ROOT
HETATM    1  N1  UNL     1      15.598   0.141  50.133  1.00  0.00    -0.269 N 
HETATM    2  C5  UNL     1      16.676  -0.662  50.117  1.00  0.00     0.164 A 
HETATM    3  N2  UNL     1      17.697   0.045  49.613  1.00  0.00    -0.281 N 
ATOM      4  H2  UNL     1      18.645  -0.307  49.481  1.00  0.00     0.188 HD
HETATM    5  N3  UNL     1      17.286   1.279  49.308  1.00  0.00    -0.274 N 
ATOM      6  H3  UNL     1      17.853   2.027  48.909  1.00  0.00     0.189 HD
HETATM    7  C10 UNL     1      15.981   1.347  49.630  1.00  0.00     0.199 A 
HETATM    8  S1  UNL     1      14.956   2.607  49.479  1.00  0.00    -0.039 SA
ENDROOT
BRANCH   1   9
HETATM    9  C4  UNL     1      14.322  -0.242  50.596  1.00  0.00     0.043 A 
HETATM   10  C3  UNL     1      13.997  -0.392  51.929  1.00  0.00     0.033 A 
HETATM   11  C2  UNL     1      12.728  -0.770  52.303  1.00  0.00     0.044 A 
HETATM   12  C1  UNL     1      11.743  -1.011  51.380  1.00  0.00     0.116 A 
HETATM   13  F1  UNL     1      10.484  -1.383  51.697  1.00  0.00    -0.206 F 
HETATM   14  C12 UNL     1      12.050  -0.865  50.038  1.00  0.00     0.044 A 
HETATM   15  C11 UNL     1      13.323  -0.487  49.672  1.00  0.00     0.033 A 
ENDBRANCH   1   9
BRANCH   2  16
HETATM   16  C6  UNL     1      16.753  -2.049  50.558  1.00  0.00     0.122 A 
HETATM   17  C7  UNL     1      16.942  -3.159  49.763  1.00  0.00     0.044 A 
HETATM   18  C8  UNL     1      16.952  -4.261  50.589  1.00  0.00     0.048 A 
HETATM   19  C9  UNL     1      16.766  -3.773  51.867  1.00  0.00     0.122 A 
HETATM   20 BR1  UNL     1      16.699  -4.913  53.403  1.00  0.00    -0.023 Br
HETATM   21  O1  UNL     1      16.653  -2.469  51.812  1.00  0.00    -0.299 OA
ENDBRANCH   2  16
TORSDOF 2
ENDMDL
MODEL 3
REMARK VINA RESULT: -7.373787563      4.019      5.126
REMARK  2 active torsions:
REMARK  status: ('A' for Active; 'I' for Inactive)
REMARK    1  A    between atoms: C4_5  and  N1_6 
REMARK    2  A    between atoms: C5_7  and  C6_8 
ROOT
HETATM    1  N1  UNL     1      16.605  -3.187  51.429  1.00  0.00    -0.269 N 
HETATM    2  C5  UNL     1      16.680  -2.527  50.261  1.00  0.00     0.164 A 
HETATM    3  N2  UNL     1      17.116  -3.394  49.336  1.00  0.00    -0.281 N 
ATOM      4  H2  UNL     1      17.270  -3.174  48.352  1.00  0.00     0.188 HD
HETATM    5  N3  UNL     1      17.320  -4.589  49.897  1.00  0.00    -0.274 N 
ATOM      6  H3  UNL     1      17.651  -5.432  49.429  1.00  0.00     0.189 HD
HETATM    7  C10 UNL     1      17.003  -4.468  51.200  1.00  0.00     0.199 A 
HETATM    8  S1  UNL     1      17.056  -5.600  52.373  1.00  0.00    -0.039 SA
ENDROOT
BRANCH   1   9
HETATM    9  C4  UNL     1      16.185  -2.611  52.647  1.00  0.00     0.043 A 
HETATM   10  C3  UNL     1      14.889  -2.665  53.119  1.00  0.00     0.033 A 
HETATM   11  C2  UNL     1      14.556  -2.078  54.318  1.00  0.00     0.044 A 
HETATM   12  C1  UNL     1      15.484  -1.424  55.087  1.00  0.00     0.116 A 
HETATM   13  F1  UNL     1      15.205  -0.834  56.269  1.00  0.00    -0.206 F 
HETATM   14  C12 UNL     1      16.788  -1.361  54.629  1.00  0.00     0.044 A 
HETATM   15  C11 UNL     1      17.114  -1.950  53.428  1.00  0.00     0.033 A 
ENDBRANCH   1   9
BRANCH   2  16
HETATM   16  C6  UNL     1      16.355  -1.128  50.011  1.00  0.00     0.122 A 
HETATM   17  C7  UNL     1      17.207  -0.155  49.536  1.00  0.00     0.044 A 
HETATM   18  C8  UNL     1      16.488   1.017  49.451  1.00  0.00     0.048 A 
HETATM   19  C9  UNL     1      15.214   0.707  49.883  1.00  0.00     0.122 A 
HETATM   20 BR1  UNL     1      13.811   2.006  49.960  1.00  0.00    -0.023 Br
HETATM   21  O1  UNL     1      15.172  -0.562  50.204  1.00  0.00    -0.299 OA
ENDBRANCH   2  16
TORSDOF 2
ENDMDL
MODEL 4
REMARK VINA RESULT: -7.339995288      4.012      5.169
REMARK  2 active torsions:
REMARK  status: ('A' for Active; 'I' for Inactive)
REMARK    1  A    between atoms: C4_5  and  N1_6 
REMARK    2  A    between atoms: C5_7  and  C6_8 
ROOT
HETATM    1  N1  UNL     1      16.645  -3.173  51.474  1.00  0.00    -0.269 N 
HETATM    2  C5  UNL     1      16.685  -2.534  50.293  1.00  0.00     0.164 A 
HETATM    3  N2  UNL     1      17.072  -3.423  49.367  1.00  0.00    -0.281 N 
ATOM      4  H2  UNL     1      17.192  -3.222  48.374  1.00  0.00     0.188 HD
HETATM    5  N3  UNL     1      17.278  -4.612  49.940  1.00  0.00    -0.274 N 
ATOM      6  H3  UNL     1      17.578  -5.468  49.474  1.00  0.00     0.189 HD
HETATM    7  C10 UNL     1      17.013  -4.464  51.252  1.00  0.00     0.199 A 
HETATM    8  S1  UNL     1      17.093  -5.577  52.442  1.00  0.00    -0.039 SA
ENDROOT
BRANCH   1   9
HETATM    9  C4  UNL     1      16.281  -2.571  52.697  1.00  0.00     0.043 A 
HETATM   10  C3  UNL     1      17.166  -1.914  53.528  1.00  0.00     0.033 A 
HETATM   11  C2  UNL     1      16.733  -1.352  54.708  1.00  0.00     0.044 A 
HETATM   12  C1  UNL     1      15.422  -1.416  55.103  1.00  0.00     0.116 A 
HETATM   13  F1  UNL     1      14.951  -0.880  56.249  1.00  0.00    -0.206 F 
HETATM   14  C12 UNL     1      14.520  -2.071  54.281  1.00  0.00     0.044 A 
HETATM   15  C11 UNL     1      14.961  -2.632  53.103  1.00  0.00     0.033 A 
ENDBRANCH   1   9
BRANCH   2  16
HETATM   16  C6  UNL     1      16.373  -1.134  50.032  1.00  0.00     0.122 A 
HETATM   17  C7  UNL     1      17.236  -0.171  49.556  1.00  0.00     0.044 A 
HETATM   18  C8  UNL     1      16.528   1.006  49.459  1.00  0.00     0.048 A 
HETATM   19  C9  UNL     1      15.248   0.709  49.884  1.00  0.00     0.122 A 
HETATM   20 BR1  UNL     1      13.855   2.020  49.943  1.00  0.00    -0.023 Br
HETATM   21  O1  UNL     1      15.193  -0.558  50.213  1.00  0.00    -0.299 OA
ENDBRANCH   2  16
TORSDOF 2
ENDMDL
MODEL 5
REMARK VINA RESULT: -7.324944561      4.021      5.050
REMARK  2 active torsions:
REMARK  status: ('A' for Active; 'I' for Inactive)
REMARK    1  A    between atoms: C4_5  and  N1_6 
REMARK    2  A    between atoms: C5_7  and  C6_8 
ROOT
HETATM    1  N1  UNL     1      16.490  -3.227  51.368  1.00  0.00    -0.269 N 
HETATM    2  C5  UNL     1      16.511  -2.651  50.154  1.00  0.00     0.164 A 
HETATM    3  N2  UNL     1      17.121  -3.502  49.316  1.00  0.00    -0.281 N 
ATOM      4  H2  UNL     1      17.281  -3.333  48.323  1.00  0.00     0.188 HD
HETATM    5  N3  UNL     1      17.486  -4.604  49.977  1.00  0.00    -0.274 N 
ATOM      6  H3  UNL     1      17.968  -5.414  49.588  1.00  0.00     0.189 HD
HETATM    7  C10 UNL     1      17.096  -4.440  51.255  1.00  0.00     0.199 A 
HETATM    8  S1  UNL     1      17.275  -5.459  52.516  1.00  0.00    -0.039 SA
ENDROOT
BRANCH   1   9
HETATM    9  C4  UNL     1      15.929  -2.639  52.522  1.00  0.00     0.043 A 
HETATM   10  C3  UNL     1      14.610  -2.788  52.901  1.00  0.00     0.033 A 
HETATM   11  C2  UNL     1      14.137  -2.182  54.043  1.00  0.00     0.044 A 
HETATM   12  C1  UNL     1      14.943  -1.414  54.842  1.00  0.00     0.116 A 
HETATM   13  F1  UNL     1      14.525  -0.800  55.970  1.00  0.00    -0.206 F 
HETATM   14  C12 UNL     1      16.269  -1.253  54.477  1.00  0.00     0.044 A 
HETATM   15  C11 UNL     1      16.735  -1.863  53.333  1.00  0.00     0.033 A 
ENDBRANCH   1   9
BRANCH   2  16
HETATM   16  C6  UNL     1      15.979  -1.346  49.783  1.00  0.00     0.122 A 
HETATM   17  C7  UNL     1      14.652  -1.011  49.622  1.00  0.00     0.044 A 
HETATM   18  C8  UNL     1      14.601   0.320  49.272  1.00  0.00     0.048 A 
HETATM   19  C9  UNL     1      15.914   0.747  49.234  1.00  0.00     0.122 A 
HETATM   20 BR1  UNL     1      16.397   2.545  48.792  1.00  0.00    -0.023 Br
HETATM   21  O1  UNL     1      16.697  -0.258  49.540  1.00  0.00    -0.299 OA
ENDBRANCH   2  16
TORSDOF 2
ENDMDL
