MODEL 1
REMARK VINA RESULT: -7.406280616      0.000      0.000
REMARK  4 active torsions:
REMARK  status: ('A' for Active; 'I' for Inactive)
REMARK    1  A    between atoms: N1_6  and  C4_7 
REMARK    2  A    between atoms: C4_7  and  N2_9 
REMARK    3  A    between atoms: N2_9  and  C5_11 
REMARK    4  A    between atoms: C8_14  and  C9_15 
ROOT
HETATM    1  C5  UNL     1      16.384  -3.082  50.613  1.00  0.00     0.034 A 
HETATM    2  C6  UNL     1      15.339  -2.294  50.998  1.00  0.00     0.030 A 
HETATM    3  C7  UNL     1      15.238  -0.936  50.637  1.00  0.00     0.016 A 
HETATM    4  C8  UNL     1      16.189  -0.358  49.881  1.00  0.00    -0.001 A 
HETATM    5  C11 UNL     1      17.257  -1.121  49.474  1.00  0.00     0.016 A 
HETATM    6  C12 UNL     1      17.362  -2.451  49.825  1.00  0.00     0.030 A 
ENDROOT
BRANCH   1   7
HETATM    7  N2  UNL     1      16.617  -4.432  50.933  1.00  0.00    -0.333 N 
ATOM      8  H2  UNL     1      16.685  -5.061  50.133  1.00  0.00     0.168 HD
BRANCH   7   9
HETATM    9  C4  UNL     1      16.770  -5.039  52.179  1.00  0.00     0.174 C 
HETATM   10  S1  UNL     1      16.886  -6.638  52.358  1.00  0.00    -0.041 SA
BRANCH   9  11
HETATM   11  N1  UNL     1      16.801  -4.254  53.375  1.00  0.00    -0.358 N 
HETATM   12  C3  UNL     1      15.588  -4.122  54.174  1.00  0.00     0.131 C 
HETATM   13  C2  UNL     1      15.812  -3.211  55.334  1.00  0.00     0.099 C 
HETATM   14  C1  UNL     1      16.472  -1.911  54.955  1.00  0.00     0.246 C 
HETATM   15  F1  UNL     1      15.531  -1.037  54.446  1.00  0.00    -0.206 F 
HETATM   16  F2  UNL     1      16.976  -1.348  56.113  1.00  0.00    -0.206 F 
HETATM   17  C14 UNL     1      17.629  -2.108  54.005  1.00  0.00     0.099 C 
HETATM   18  C13 UNL     1      17.978  -3.576  53.845  1.00  0.00     0.131 C 
ENDBRANCH   9  11
ENDBRANCH   7   9
ENDBRANCH   1   7
BRANCH   4  19
HETATM   19  C9  UNL     1      16.080   1.051  49.510  1.00  0.00     0.100 A 
HETATM   20  N3  UNL     1      16.977   1.869  48.972  1.00  0.00    -0.293 N 
HETATM   21  N4  UNL     1      16.678   3.067  48.726  1.00  0.00    -0.304 N 
ATOM     22  H3  UNL     1      17.913   1.526  48.757  1.00  0.00     0.187 HD
HETATM   23  C10 UNL     1      15.460   3.524  49.002  1.00  0.00     0.158 A 
ATOM     24  H4  UNL     1      17.374   3.690  48.313  1.00  0.00     0.186 HD
HETATM   25  S2  UNL     1      14.731   2.120  49.653  1.00  0.00    -0.064 SA
ENDBRANCH   4  19
TORSDOF 4
ENDMDL
MODEL 2
REMARK VINA RESULT: -7.364090994      2.602      3.044
REMARK  4 active torsions:
REMARK  status: ('A' for Active; 'I' for Inactive)
REMARK    1  A    between atoms: N1_6  and  C4_7 
REMARK    2  A    between atoms: C4_7  and  N2_9 
REMARK    3  A    between atoms: N2_9  and  C5_11 
REMARK    4  A    between atoms: C8_14  and  C9_15 
ROOT
HETATM    1  C5  UNL     1      15.492  -2.384  51.136  1.00  0.00     0.034 A 
HETATM    2  C6  UNL     1      14.459  -1.647  50.635  1.00  0.00     0.030 A 
HETATM    3  C7  UNL     1      14.652  -0.408  49.992  1.00  0.00     0.016 A 
HETATM    4  C8  UNL     1      15.888   0.102  49.847  1.00  0.00    -0.001 A 
HETATM    5  C11 UNL     1      16.953  -0.613  50.340  1.00  0.00     0.016 A 
HETATM    6  C12 UNL     1      16.772  -1.827  50.970  1.00  0.00     0.030 A 
ENDROOT
BRANCH   1   7
HETATM    7  N2  UNL     1      15.431  -3.609  51.823  1.00  0.00    -0.333 N 
ATOM      8  H2  UNL     1      15.761  -4.418  51.296  1.00  0.00     0.168 HD
BRANCH   7   9
HETATM    9  C4  UNL     1      14.987  -3.885  53.116  1.00  0.00     0.174 C 
HETATM   10  S1  UNL     1      15.751  -4.914  54.096  1.00  0.00    -0.041 SA
BRANCH   9  11
HETATM   11  N1  UNL     1      13.797  -3.275  53.625  1.00  0.00    -0.358 N 
HETATM   12  C3  UNL     1      12.499  -3.823  53.250  1.00  0.00     0.131 C 
HETATM   13  C2  UNL     1      11.391  -3.005  53.825  1.00  0.00     0.099 C 
HETATM   14  C1  UNL     1      11.554  -1.526  53.590  1.00  0.00     0.246 C 
HETATM   15  F1  UNL     1      11.132  -1.204  52.315  1.00  0.00    -0.206 F 
HETATM   16  F2  UNL     1      10.722  -0.871  54.479  1.00  0.00    -0.206 F 
HETATM   17  C14 UNL     1      12.963  -1.053  53.854  1.00  0.00     0.099 C 
HETATM   18  C13 UNL     1      13.805  -2.137  54.502  1.00  0.00     0.131 C 
ENDBRANCH   9  11
ENDBRANCH   7   9
ENDBRANCH   1   7
BRANCH   4  19
HETATM   19  C9  UNL     1      16.082   1.388  49.180  1.00  0.00     0.100 A 
HETATM   20  N3  UNL     1      16.954   1.747  48.246  1.00  0.00    -0.293 N 
HETATM   21  N4  UNL     1      16.956   2.924  47.797  1.00  0.00    -0.304 N 
ATOM     22  H3  UNL     1      17.625   1.068  47.890  1.00  0.00     0.187 HD
HETATM   23  C10 UNL     1      16.084   3.817  48.256  1.00  0.00     0.158 A 
ATOM     24  H4  UNL     1      17.630   3.193  47.080  1.00  0.00     0.186 HD
HETATM   25  S2  UNL     1      15.228   2.873  49.398  1.00  0.00    -0.064 SA
ENDBRANCH   4  19
TORSDOF 4
ENDMDL
MODEL 3
REMARK VINA RESULT: -7.225655229      1.353      1.511
REMARK  4 active torsions:
REMARK  status: ('A' for Active; 'I' for Inactive)
REMARK    1  A    between atoms: N1_6  and  C4_7 
REMARK    2  A    between atoms: C4_7  and  N2_9 
REMARK    3  A    between atoms: N2_9  and  C5_11 
REMARK    4  A    between atoms: C8_14  and  C9_15 
ROOT
HETATM    1  C5  UNL     1      15.839  -2.766  50.982  1.00  0.00     0.034 A 
HETATM    2  C6  UNL     1      14.935  -1.782  51.255  1.00  0.00     0.030 A 
HETATM    3  C7  UNL     1      15.028  -0.490  50.702  1.00  0.00     0.016 A 
HETATM    4  C8  UNL     1      16.033  -0.175  49.866  1.00  0.00    -0.001 A 
HETATM    5  C11 UNL     1      16.964  -1.141  49.567  1.00  0.00     0.016 A 
HETATM    6  C12 UNL     1      16.879  -2.409  50.105  1.00  0.00     0.030 A 
ENDROOT
BRANCH   1   7
HETATM    7  N2  UNL     1      15.877  -4.076  51.491  1.00  0.00    -0.333 N 
ATOM      8  H2  UNL     1      16.170  -4.791  50.826  1.00  0.00     0.168 HD
BRANCH   7   9
HETATM    9  C4  UNL     1      15.574  -4.544  52.769  1.00  0.00     0.174 C 
HETATM   10  S1  UNL     1      14.121  -5.129  53.158  1.00  0.00    -0.041 SA
BRANCH   9  11
HETATM   11  N1  UNL     1      16.549  -4.496  53.816  1.00  0.00    -0.358 N 
HETATM   12  C3  UNL     1      16.129  -4.727  55.193  1.00  0.00     0.131 C 
HETATM   13  C2  UNL     1      17.277  -4.563  56.132  1.00  0.00     0.099 C 
HETATM   14  C1  UNL     1      18.060  -3.297  55.906  1.00  0.00     0.246 C 
HETATM   15  F1  UNL     1      17.414  -2.232  56.505  1.00  0.00    -0.206 F 
HETATM   16  F2  UNL     1      19.282  -3.446  56.535  1.00  0.00    -0.206 F 
HETATM   17  C14 UNL     1      18.330  -3.040  54.443  1.00  0.00     0.099 C 
HETATM   18  C13 UNL     1      17.942  -4.230  53.585  1.00  0.00     0.131 C 
ENDBRANCH   9  11
ENDBRANCH   7   9
ENDBRANCH   1   7
BRANCH   4  19
HETATM   19  C9  UNL     1      16.126   1.168  49.296  1.00  0.00     0.100 A 
HETATM   20  N3  UNL     1      16.979   1.667  48.409  1.00  0.00    -0.293 N 
HETATM   21  N4  UNL     1      16.886   2.868  48.045  1.00  0.00    -0.304 N 
ATOM     22  H3  UNL     1      17.713   1.075  48.022  1.00  0.00     0.187 HD
HETATM   23  C10 UNL     1      15.931   3.648  48.544  1.00  0.00     0.158 A 
ATOM     24  H4  UNL     1      17.546   3.245  47.364  1.00  0.00     0.186 HD
HETATM   25  S2  UNL     1      15.141   2.555  49.597  1.00  0.00    -0.064 SA
ENDBRANCH   4  19
TORSDOF 4
ENDMDL
MODEL 4
REMARK VINA RESULT: -7.176166077      0.824      1.316
REMARK  4 active torsions:
REMARK  status: ('A' for Active; 'I' for Inactive)
REMARK    1  A    between atoms: N1_6  and  C4_7 
REMARK    2  A    between atoms: C4_7  and  N2_9 
REMARK    3  A    between atoms: N2_9  and  C5_11 
REMARK    4  A    between atoms: C8_14  and  C9_15 
ROOT
HETATM    1  C5  UNL     1      16.028  -2.647  50.915  1.00  0.00     0.034 A 
HETATM    2  C6  UNL     1      16.988  -2.284  50.017  1.00  0.00     0.030 A 
HETATM    3  C7  UNL     1      17.041  -1.000  49.439  1.00  0.00     0.016 A 
HETATM    4  C8  UNL     1      16.126  -0.068  49.761  1.00  0.00    -0.001 A 
HETATM    5  C11 UNL     1      15.144  -0.398  50.663  1.00  0.00     0.016 A 
HETATM    6  C12 UNL     1      15.086  -1.653  51.232  1.00  0.00     0.030 A 
ENDROOT
BRANCH   1   7
HETATM    7  N2  UNL     1      15.847  -3.897  51.534  1.00  0.00    -0.333 N 
ATOM      8  H2  UNL     1      15.209  -4.530  51.053  1.00  0.00     0.168 HD
BRANCH   7   9
HETATM    9  C4  UNL     1      16.409  -4.399  52.708  1.00  0.00     0.174 C 
HETATM   10  S1  UNL     1      17.069  -5.868  52.795  1.00  0.00    -0.041 SA
BRANCH   9  11
HETATM   11  N1  UNL     1      16.395  -3.628  53.913  1.00  0.00    -0.358 N 
HETATM   12  C3  UNL     1      15.284  -3.781  54.845  1.00  0.00     0.131 C 
HETATM   13  C2  UNL     1      15.424  -2.842  55.997  1.00  0.00     0.099 C 
HETATM   14  C1  UNL     1      15.718  -1.425  55.581  1.00  0.00     0.246 C 
HETATM   15  F1  UNL     1      14.548  -0.793  55.203  1.00  0.00    -0.206 F 
HETATM   16  F2  UNL     1      16.208  -0.760  56.689  1.00  0.00    -0.206 F 
HETATM   17  C14 UNL     1      16.772  -1.348  54.503  1.00  0.00     0.099 C 
HETATM   18  C13 UNL     1      17.430  -2.695  54.266  1.00  0.00     0.131 C 
ENDBRANCH   9  11
ENDBRANCH   7   9
ENDBRANCH   1   7
BRANCH   4  19
HETATM   19  C9  UNL     1      16.185   1.262  49.158  1.00  0.00     0.100 A 
HETATM   20  N3  UNL     1      16.949   1.727  48.176  1.00  0.00    -0.293 N 
HETATM   21  N4  UNL     1      16.842   2.923  47.800  1.00  0.00    -0.304 N 
ATOM     22  H3  UNL     1      17.624   1.111  47.724  1.00  0.00     0.187 HD
HETATM   23  C10 UNL     1      15.963   3.733  48.383  1.00  0.00     0.158 A 
ATOM     24  H4  UNL     1      17.433   3.273  47.045  1.00  0.00     0.186 HD
HETATM   25  S2  UNL     1      15.268   2.677  49.536  1.00  0.00    -0.064 SA
ENDBRANCH   4  19
TORSDOF 4
ENDMDL
MODEL 5
REMARK VINA RESULT: -7.136336598      6.180      8.510
REMARK  4 active torsions:
REMARK  status: ('A' for Active; 'I' for Inactive)
REMARK    1  A    between atoms: N1_6  and  C4_7 
REMARK    2  A    between atoms: C4_7  and  N2_9 
REMARK    3  A    between atoms: N2_9  and  C5_11 
REMARK    4  A    between atoms: C8_14  and  C9_15 
ROOT
HETATM    1  C5  UNL     1      12.159  -1.489  54.744  1.00  0.00     0.034 A 
HETATM    2  C6  UNL     1      12.015  -2.578  55.554  1.00  0.00     0.030 A 
HETATM    3  C7  UNL     1      10.769  -2.977  56.075  1.00  0.00     0.016 A 
HETATM    4  C8  UNL     1       9.653  -2.284  55.786  1.00  0.00    -0.001 A 
HETATM    5  C11 UNL     1       9.760  -1.181  54.972  1.00  0.00     0.016 A 
HETATM    6  C12 UNL     1      10.977  -0.785  54.458  1.00  0.00     0.030 A 
ENDROOT
BRANCH   1   7
HETATM    7  N2  UNL     1      13.342  -0.970  54.189  1.00  0.00    -0.333 N 
ATOM      8  H2  UNL     1      13.587  -0.029  54.494  1.00  0.00     0.168 HD
BRANCH   7   9
HETATM    9  C4  UNL     1      14.231  -1.550  53.284  1.00  0.00     0.174 C 
HETATM   10  S1  UNL     1      15.539  -2.369  53.756  1.00  0.00    -0.041 SA
BRANCH   9  11
HETATM   11  N1  UNL     1      14.031  -1.414  51.874  1.00  0.00    -0.358 N 
HETATM   12  C3  UNL     1      15.031  -0.714  51.076  1.00  0.00     0.131 C 
HETATM   13  C2  UNL     1      14.602  -0.620  49.650  1.00  0.00     0.099 C 
HETATM   14  C1  UNL     1      13.189  -0.127  49.481  1.00  0.00     0.246 C 
HETATM   15  F1  UNL     1      13.155   1.250  49.584  1.00  0.00    -0.206 F 
HETATM   16  F2  UNL     1      12.784  -0.456  48.201  1.00  0.00    -0.206 F 
HETATM   17  C14 UNL     1      12.230  -0.787  50.443  1.00  0.00     0.099 C 
HETATM   18  C13 UNL     1      12.885  -1.938  51.185  1.00  0.00     0.131 C 
ENDBRANCH   9  11
ENDBRANCH   7   9
ENDBRANCH   1   7
BRANCH   4  19
HETATM   19  C9  UNL     1       8.363  -2.702  56.330  1.00  0.00     0.100 A 
HETATM   20  N3  UNL     1       7.178  -2.814  55.741  1.00  0.00    -0.293 N 
HETATM   21  N4  UNL     1       6.175  -3.197  56.398  1.00  0.00    -0.304 N 
ATOM     22  H3  UNL     1       7.080  -2.589  54.752  1.00  0.00     0.187 HD
HETATM   23  C10 UNL     1       6.294  -3.493  57.690  1.00  0.00     0.158 A 
ATOM     24  H4  UNL     1       5.268  -3.280  55.939  1.00  0.00     0.186 HD
HETATM   25  S2  UNL     1       7.960  -3.191  57.937  1.00  0.00    -0.064 SA
ENDBRANCH   4  19
TORSDOF 4
ENDMDL
