MODEL 1
REMARK VINA RESULT: -7.947196289      0.000      0.000
REMARK  5 active torsions:
REMARK  status: ('A' for Active; 'I' for Inactive)
REMARK    1  A    between atoms: N2_6  and  C4_8 
REMARK       I    between atoms: N3_11  and  C6_12 
REMARK    2  A    between atoms: C6_12  and  C7_14 
REMARK    3  A    between atoms: C7_14  and  C9_16 
REMARK    4  A    between atoms: C12_19  and  C13_20 
REMARK    5  A    between atoms: C15_25  and  C16_26 
ROOT
HETATM    1  C4  UNL     1       2.550   1.998 -14.767  1.00  0.00     0.186 C 
HETATM    2  C5  UNL     1       1.275   2.457 -14.136  1.00  0.00     0.300 C 
HETATM    3  F1  UNL     1       0.121   1.894 -14.677  1.00  0.00    -0.224 F 
HETATM    4  N3  UNL     1       1.464   3.826 -14.605  1.00  0.00    -0.302 N 
HETATM    5  C6  UNL     1       0.757   5.022 -14.330  1.00  0.00     0.227 C 
HETATM    6  O1  UNL     1      -0.240   4.921 -13.526  1.00  0.00    -0.273 OA
HETATM    7  C12 UNL     1       2.574   3.375 -15.377  1.00  0.00     0.218 C 
ENDROOT
BRANCH   1   8
HETATM    8  N2  UNL     1       2.296   0.917 -15.695  1.00  0.00    -0.214 N 
HETATM    9  C3  UNL     1       3.307   0.166 -16.005  1.00  0.00     0.681 A 
HETATM   10  N1  UNL     1       4.584   0.241 -15.588  1.00  0.00    -0.193 N 
HETATM   11  N4  UNL     1       3.253  -0.888 -16.855  1.00  0.00    -0.179 N 
HETATM   12  C2  UNL     1       5.337  -0.729 -16.143  1.00  0.00     0.057 A 
ATOM     13  H1  UNL     1       4.936   0.941 -14.935  1.00  0.00     0.184 HD
HETATM   14  C1  UNL     1       6.777  -0.946 -15.910  1.00  0.00     0.071 C 
HETATM   15  C15 UNL     1       4.473  -1.441 -16.949  1.00  0.00     0.150 A 
HETATM   16  C14 UNL     1       2.071  -1.355 -17.558  1.00  0.00     0.176 C 
ATOM     17  H2  UNL     1       1.368   0.754 -16.086  1.00  0.00     0.178 HD
BRANCH  15  18
HETATM   18  C16 UNL     1       4.895  -2.586 -17.738  1.00  0.00     0.229 C 
HETATM   19  O4  UNL     1       5.085  -3.673 -17.147  1.00  0.00    -0.643 OA
HETATM   20  O5  UNL     1       5.099  -2.538 -19.103  1.00  0.00    -0.643 OA
ENDBRANCH  15  18
ENDBRANCH   1   8
BRANCH   7  21
HETATM   21  C13 UNL     1       2.439   3.400 -16.854  1.00  0.00     0.199 C 
HETATM   22  O2  UNL     1       3.433   3.452 -17.589  1.00  0.00    -0.646 OA
HETATM   23  O3  UNL     1       1.149   3.363 -17.366  1.00  0.00    -0.646 OA
ENDBRANCH   7  21
BRANCH   5  24
HETATM   24  C7  UNL     1       1.091   6.349 -14.902  1.00  0.00     0.077 C 
HETATM   25  C8  UNL     1      -0.153   7.213 -14.840  1.00  0.00     0.020 C 
BRANCH  24  26
HETATM   26  C9  UNL     1       2.258   7.023 -14.213  1.00  0.00    -0.010 C 
HETATM   27  C10 UNL     1       1.948   8.411 -13.752  1.00  0.00     0.010 C 
HETATM   28  C11 UNL     1       3.392   7.160 -15.244  1.00  0.00     0.010 C 
ENDBRANCH  24  26
ENDBRANCH   5  24
TORSDOF 5
ENDMDL
MODEL 2
REMARK VINA RESULT: -7.761228752      1.067      1.638
REMARK  5 active torsions:
REMARK  status: ('A' for Active; 'I' for Inactive)
REMARK    1  A    between atoms: N2_6  and  C4_8 
REMARK       I    between atoms: N3_11  and  C6_12 
REMARK    2  A    between atoms: C6_12  and  C7_14 
REMARK    3  A    between atoms: C7_14  and  C9_16 
REMARK    4  A    between atoms: C12_19  and  C13_20 
REMARK    5  A    between atoms: C15_25  and  C16_26 
ROOT
HETATM    1  C4  UNL     1       2.109   2.258 -14.980  1.00  0.00     0.186 C 
HETATM    2  C5  UNL     1       0.918   3.158 -15.043  1.00  0.00     0.300 C 
HETATM    3  F1  UNL     1       0.070   2.927 -16.125  1.00  0.00    -0.224 F 
HETATM    4  N3  UNL     1       1.746   4.339 -15.265  1.00  0.00    -0.302 N 
HETATM    5  C6  UNL     1       1.427   5.719 -15.305  1.00  0.00     0.227 C 
HETATM    6  O1  UNL     1       0.192   6.023 -15.116  1.00  0.00    -0.273 OA
HETATM    7  C12 UNL     1       2.876   3.483 -15.405  1.00  0.00     0.218 C 
ENDROOT
BRANCH   1   8
HETATM    8  N2  UNL     1       2.011   1.215 -15.977  1.00  0.00    -0.214 N 
HETATM    9  C3  UNL     1       3.016   0.399 -16.069  1.00  0.00     0.681 A 
HETATM   10  N1  UNL     1       4.161   0.376 -15.363  1.00  0.00    -0.193 N 
HETATM   11  N4  UNL     1       3.095  -0.633 -16.943  1.00  0.00    -0.179 N 
HETATM   12  C2  UNL     1       4.959  -0.635 -15.760  1.00  0.00     0.057 A 
ATOM     13  H1  UNL     1       4.395   1.038 -14.623  1.00  0.00     0.184 HD
HETATM   14  C1  UNL     1       6.287  -0.958 -15.206  1.00  0.00     0.071 C 
HETATM   15  C15 UNL     1       4.265  -1.269 -16.770  1.00  0.00     0.150 A 
HETATM   16  C14 UNL     1       2.083  -1.001 -17.917  1.00  0.00     0.176 C 
ATOM     17  H2  UNL     1       1.192   1.125 -16.579  1.00  0.00     0.178 HD
BRANCH  15  18
HETATM   18  C16 UNL     1       4.785  -2.426 -17.477  1.00  0.00     0.229 C 
HETATM   19  O4  UNL     1       5.122  -2.284 -18.675  1.00  0.00    -0.643 OA
HETATM   20  O5  UNL     1       4.925  -3.673 -16.901  1.00  0.00    -0.643 OA
ENDBRANCH  15  18
ENDBRANCH   1   8
BRANCH   7  21
HETATM   21  C13 UNL     1       3.502   3.386 -16.746  1.00  0.00     0.199 C 
HETATM   22  O2  UNL     1       2.819   3.403 -17.777  1.00  0.00    -0.646 OA
HETATM   23  O3  UNL     1       4.886   3.275 -16.785  1.00  0.00    -0.646 OA
ENDBRANCH   7  21
BRANCH   5  24
HETATM   24  C7  UNL     1       2.408   6.804 -15.546  1.00  0.00     0.077 C 
HETATM   25  C8  UNL     1       2.815   6.753 -17.006  1.00  0.00     0.020 C 
BRANCH  24  26
HETATM   26  C9  UNL     1       1.890   8.176 -15.173  1.00  0.00    -0.010 C 
HETATM   27  C10 UNL     1       2.666   9.290 -15.801  1.00  0.00     0.010 C 
HETATM   28  C11 UNL     1       2.061   8.341 -13.653  1.00  0.00     0.010 C 
ENDBRANCH  24  26
ENDBRANCH   5  24
TORSDOF 5
ENDMDL
MODEL 3
REMARK VINA RESULT: -7.528920116      0.667      1.395
REMARK  5 active torsions:
REMARK  status: ('A' for Active; 'I' for Inactive)
REMARK    1  A    between atoms: N2_6  and  C4_8 
REMARK       I    between atoms: N3_11  and  C6_12 
REMARK    2  A    between atoms: C6_12  and  C7_14 
REMARK    3  A    between atoms: C7_14  and  C9_16 
REMARK    4  A    between atoms: C12_19  and  C13_20 
REMARK    5  A    between atoms: C15_25  and  C16_26 
ROOT
HETATM    1  C4  UNL     1       2.699   2.084 -14.574  1.00  0.00     0.186 C 
HETATM    2  C5  UNL     1       1.455   2.630 -13.951  1.00  0.00     0.300 C 
HETATM    3  F1  UNL     1       0.271   2.228 -14.567  1.00  0.00    -0.224 F 
HETATM    4  N3  UNL     1       1.800   4.000 -14.316  1.00  0.00    -0.302 N 
HETATM    5  C6  UNL     1       1.207   5.241 -13.978  1.00  0.00     0.227 C 
HETATM    6  O1  UNL     1       0.175   5.190 -13.214  1.00  0.00    -0.273 OA
HETATM    7  C12 UNL     1       2.886   3.489 -15.083  1.00  0.00     0.218 C 
ENDROOT
BRANCH   1   8
HETATM    8  N2  UNL     1       2.373   1.101 -15.583  1.00  0.00    -0.214 N 
HETATM    9  C3  UNL     1       3.313   0.270 -15.913  1.00  0.00     0.681 A 
HETATM   10  N1  UNL     1       4.573   0.182 -15.450  1.00  0.00    -0.193 N 
HETATM   11  N4  UNL     1       3.185  -0.713 -16.837  1.00  0.00    -0.179 N 
HETATM   12  C2  UNL     1       5.244  -0.822 -16.048  1.00  0.00     0.057 A 
ATOM     13  H1  UNL     1       4.969   0.797 -14.739  1.00  0.00     0.184 HD
HETATM   14  C1  UNL     1       6.645  -1.204 -15.785  1.00  0.00     0.071 C 
HETATM   15  C15 UNL     1       4.345  -1.383 -16.931  1.00  0.00     0.150 A 
HETATM   16  C14 UNL     1       1.990  -1.004 -17.609  1.00  0.00     0.176 C 
ATOM     17  H2  UNL     1       1.449   1.063 -16.015  1.00  0.00     0.178 HD
BRANCH  15  18
HETATM   18  C16 UNL     1       4.678  -2.510 -17.786  1.00  0.00     0.229 C 
HETATM   19  O4  UNL     1       4.662  -2.336 -19.026  1.00  0.00    -0.643 OA
HETATM   20  O5  UNL     1       5.009  -3.761 -17.304  1.00  0.00    -0.643 OA
ENDBRANCH  15  18
ENDBRANCH   1   8
BRANCH   7  21
HETATM   21  C13 UNL     1       2.811   3.628 -16.557  1.00  0.00     0.199 C 
HETATM   22  O2  UNL     1       3.834   3.656 -17.253  1.00  0.00    -0.646 OA
HETATM   23  O3  UNL     1       1.543   3.726 -17.115  1.00  0.00    -0.646 OA
ENDBRANCH   7  21
BRANCH   5  24
HETATM   24  C7  UNL     1       1.696   6.562 -14.444  1.00  0.00     0.077 C 
HETATM   25  C8  UNL     1       3.212   6.532 -14.433  1.00  0.00     0.020 C 
BRANCH  24  26
HETATM   26  C9  UNL     1       1.170   6.951 -15.808  1.00  0.00    -0.010 C 
HETATM   27  C10 UNL     1       2.251   7.294 -16.782  1.00  0.00     0.010 C 
HETATM   28  C11 UNL     1       0.329   8.229 -15.636  1.00  0.00     0.010 C 
ENDBRANCH  24  26
ENDBRANCH   5  24
TORSDOF 5
ENDMDL
MODEL 4
REMARK VINA RESULT: -7.498477576      1.377      1.584
REMARK  5 active torsions:
REMARK  status: ('A' for Active; 'I' for Inactive)
REMARK    1  A    between atoms: N2_6  and  C4_8 
REMARK       I    between atoms: N3_11  and  C6_12 
REMARK    2  A    between atoms: C6_12  and  C7_14 
REMARK    3  A    between atoms: C7_14  and  C9_16 
REMARK    4  A    between atoms: C12_19  and  C13_20 
REMARK    5  A    between atoms: C15_25  and  C16_26 
ROOT
HETATM    1  C4  UNL     1       4.043   2.059 -15.775  1.00  0.00     0.186 C 
HETATM    2  C5  UNL     1       3.522   2.367 -14.408  1.00  0.00     0.300 C 
HETATM    3  F1  UNL     1       2.519   1.509 -13.960  1.00  0.00    -0.224 F 
HETATM    4  N3  UNL     1       2.969   3.646 -14.840  1.00  0.00    -0.302 N 
HETATM    5  C6  UNL     1       2.386   4.713 -14.114  1.00  0.00     0.227 C 
HETATM    6  O1  UNL     1       2.315   4.562 -12.840  1.00  0.00    -0.273 OA
HETATM    7  C12 UNL     1       3.279   3.290 -16.185  1.00  0.00     0.218 C 
ENDROOT
BRANCH   1   8
HETATM    8  N2  UNL     1       3.499   0.807 -16.255  1.00  0.00    -0.214 N 
HETATM    9  C3  UNL     1       4.351  -0.135 -16.519  1.00  0.00     0.681 A 
HETATM   10  N1  UNL     1       5.692  -0.125 -16.413  1.00  0.00    -0.193 N 
HETATM   11  N4  UNL     1       4.022  -1.367 -16.976  1.00  0.00    -0.179 N 
HETATM   12  C2  UNL     1       6.220  -1.308 -16.786  1.00  0.00     0.057 A 
ATOM     13  H1  UNL     1       6.239   0.674 -16.093  1.00  0.00     0.184 HD
HETATM   14  C1  UNL     1       7.655  -1.650 -16.797  1.00  0.00     0.071 C 
HETATM   15  C15 UNL     1       5.141  -2.090 -17.143  1.00  0.00     0.150 A 
HETATM   16  C14 UNL     1       2.676  -1.842 -17.247  1.00  0.00     0.176 C 
ATOM     17  H2  UNL     1       2.496   0.672 -16.380  1.00  0.00     0.178 HD
BRANCH  15  18
HETATM   18  C16 UNL     1       5.280  -3.457 -17.613  1.00  0.00     0.229 C 
HETATM   19  O4  UNL     1       5.136  -3.679 -18.837  1.00  0.00    -0.643 OA
HETATM   20  O5  UNL     1       5.560  -4.524 -16.782  1.00  0.00    -0.643 OA
ENDBRANCH  15  18
ENDBRANCH   1   8
BRANCH   7  21
HETATM   21  C13 UNL     1       2.146   3.036 -17.107  1.00  0.00     0.199 C 
HETATM   22  O2  UNL     1       2.302   3.049 -18.335  1.00  0.00    -0.646 OA
HETATM   23  O3  UNL     1       0.909   2.786 -16.528  1.00  0.00    -0.646 OA
ENDBRANCH   7  21
BRANCH   5  24
HETATM   24  C7  UNL     1       1.867   5.962 -14.723  1.00  0.00     0.077 C 
HETATM   25  C8  UNL     1       0.949   6.628 -13.718  1.00  0.00     0.020 C 
BRANCH  24  26
HETATM   26  C9  UNL     1       2.959   6.909 -15.173  1.00  0.00    -0.010 C 
HETATM   27  C10 UNL     1       2.736   8.319 -14.730  1.00  0.00     0.010 C 
HETATM   28  C11 UNL     1       2.944   6.939 -16.712  1.00  0.00     0.010 C 
ENDBRANCH  24  26
ENDBRANCH   5  24
TORSDOF 5
ENDMDL
MODEL 5
REMARK VINA RESULT: -7.443054718      2.064      7.838
REMARK  5 active torsions:
REMARK  status: ('A' for Active; 'I' for Inactive)
REMARK    1  A    between atoms: N2_6  and  C4_8 
REMARK       I    between atoms: N3_11  and  C6_12 
REMARK    2  A    between atoms: C6_12  and  C7_14 
REMARK    3  A    between atoms: C7_14  and  C9_16 
REMARK    4  A    between atoms: C12_19  and  C13_20 
REMARK    5  A    between atoms: C15_25  and  C16_26 
ROOT
HETATM    1  C4  UNL     1       1.967   2.541 -16.720  1.00  0.00     0.186 C 
HETATM    2  C5  UNL     1       1.492   1.125 -16.672  1.00  0.00     0.300 C 
HETATM    3  F1  UNL     1       0.800   0.782 -15.511  1.00  0.00    -0.224 F 
HETATM    4  N3  UNL     1       2.855   0.605 -16.646  1.00  0.00    -0.302 N 
HETATM    5  C6  UNL     1       3.361  -0.714 -16.739  1.00  0.00     0.227 C 
HETATM    6  O1  UNL     1       2.490  -1.650 -16.870  1.00  0.00    -0.273 OA
HETATM    7  C12 UNL     1       3.328   1.940 -16.493  1.00  0.00     0.218 C 
ENDROOT
BRANCH   1   8
HETATM    8  N2  UNL     1       1.432   3.294 -15.607  1.00  0.00    -0.214 N 
HETATM    9  C3  UNL     1       1.608   4.579 -15.633  1.00  0.00     0.681 A 
HETATM   10  N1  UNL     1       2.227   5.335 -16.558  1.00  0.00    -0.193 N 
HETATM   11  N4  UNL     1       1.176   5.438 -14.678  1.00  0.00    -0.179 N 
HETATM   12  C2  UNL     1       2.200   6.639 -16.221  1.00  0.00     0.057 A 
ATOM     13  H1  UNL     1       2.662   4.968 -17.405  1.00  0.00     0.184 HD
HETATM   14  C1  UNL     1       2.782   7.748 -17.002  1.00  0.00     0.071 C 
HETATM   15  C15 UNL     1       1.526   6.689 -15.019  1.00  0.00     0.150 A 
HETATM   16  C14 UNL     1       0.449   5.075 -13.474  1.00  0.00     0.176 C 
ATOM     17  H2  UNL     1       0.940   2.838 -14.838  1.00  0.00     0.178 HD
BRANCH  15  18
HETATM   18  C16 UNL     1       1.279   7.929 -14.304  1.00  0.00     0.229 C 
HETATM   19  O4  UNL     1       2.246   8.486 -13.734  1.00  0.00    -0.643 OA
HETATM   20  O5  UNL     1       0.037   8.526 -14.218  1.00  0.00    -0.643 OA
ENDBRANCH  15  18
ENDBRANCH   1   8
BRANCH   7  21
HETATM   21  C13 UNL     1       3.957   2.302 -15.200  1.00  0.00     0.199 C 
HETATM   22  O2  UNL     1       4.954   3.034 -15.152  1.00  0.00    -0.646 OA
HETATM   23  O3  UNL     1       3.375   1.782 -14.052  1.00  0.00    -0.646 OA
ENDBRANCH   7  21
BRANCH   5  24
HETATM   24  C7  UNL     1       4.800  -1.070 -16.695  1.00  0.00     0.077 C 
HETATM   25  C8  UNL     1       5.296  -0.847 -15.279  1.00  0.00     0.020 C 
BRANCH  24  26
HETATM   26  C9  UNL     1       5.085  -2.484 -17.154  1.00  0.00    -0.010 C 
HETATM   27  C10 UNL     1       6.409  -3.000 -16.692  1.00  0.00     0.010 C 
HETATM   28  C11 UNL     1       5.146  -2.470 -18.692  1.00  0.00     0.010 C 
ENDBRANCH  24  26
ENDBRANCH   5  24
TORSDOF 5
ENDMDL
