MODEL 1
REMARK VINA RESULT: -6.989720586      0.000      0.000
REMARK  6 active torsions:
REMARK  status: ('A' for Active; 'I' for Inactive)
REMARK    1  A    between atoms: C2_2  and  C3_3 
REMARK    2  A    between atoms: C4_4  and  C5_5 
REMARK    3  A    between atoms: C7_12  and  C8_13 
REMARK    4  A    between atoms: C8_13  and  O4_16 
REMARK    5  A    between atoms: N2_19  and  S1_20 
REMARK    6  A    between atoms: S1_20  and  C11_23 
ROOT
HETATM    1  C3  UNL     1       0.291   5.712 -13.449  1.00  0.00     0.159 C 
HETATM    2  C4  UNL     1      -0.231   4.336 -13.377  1.00  0.00     0.210 C 
HETATM    3  N1  UNL     1      -0.023   3.652 -14.663  1.00  0.00    -0.342 N 
ATOM      4  H1  UNL     1      -0.738   2.963 -14.899  1.00  0.00     0.163 HD
HETATM    5  C6  UNL     1       0.997   3.791 -15.621  1.00  0.00     0.252 C 
HETATM    6  O3  UNL     1       0.875   3.137 -16.677  1.00  0.00    -0.270 OA
HETATM    7  C7  UNL     1       2.201   4.625 -15.517  1.00  0.00     0.272 C 
HETATM    8  O5  UNL     1       1.901   5.895 -15.045  1.00  0.00    -0.270 OA
HETATM    9  N2  UNL     1       0.584   6.100 -14.816  1.00  0.00    -0.074 NA
ENDROOT
BRANCH   7  10
HETATM   10  C8  UNL     1       2.960   4.598 -16.797  1.00  0.00     0.087 C 
HETATM   11  C9  UNL     1       3.532   5.948 -17.175  1.00  0.00     0.049 C 
HETATM   12  C10 UNL     1       4.036   3.539 -16.832  1.00  0.00     0.049 C 
BRANCH  10  13
HETATM   13  O4  UNL     1       2.057   4.272 -17.838  1.00  0.00    -0.387 OA
ATOM     14  H4  UNL     1       2.416   4.598 -18.654  1.00  0.00     0.210 HD
ENDBRANCH  10  13
ENDBRANCH   7  10
BRANCH   9  15
HETATM   15  S1  UNL     1       0.285   7.780 -15.073  1.00  0.00     0.234 S 
HETATM   16  O6  UNL     1      -0.808   8.012 -16.073  1.00  0.00    -0.209 OA
HETATM   17  O7  UNL     1      -0.141   8.396 -13.776  1.00  0.00    -0.209 OA
BRANCH  15  18
HETATM   18  C11 UNL     1       1.721   8.641 -15.637  1.00  0.00     0.155 C 
HETATM   19  C12 UNL     1       2.307   9.378 -14.449  1.00  0.00     0.022 C 
ENDBRANCH  15  18
ENDBRANCH   9  15
BRANCH   2  20
HETATM   20  C5  UNL     1       0.303   3.490 -12.322  1.00  0.00     0.198 C 
HETATM   21  O1  UNL     1      -0.240   3.450 -11.191  1.00  0.00    -0.646 OA
HETATM   22  O2  UNL     1       1.429   2.684 -12.488  1.00  0.00    -0.646 OA
ENDBRANCH   2  20
BRANCH   1  23
HETATM   23  C2  UNL     1       1.465   6.029 -12.615  1.00  0.00    -0.011 C 
HETATM   24  C1  UNL     1       1.443   6.618 -11.450  1.00  0.00     0.008 C 
ENDBRANCH   1  23
TORSDOF 6
ENDMDL
MODEL 2
REMARK VINA RESULT: -6.976587563      1.899      4.415
REMARK  6 active torsions:
REMARK  status: ('A' for Active; 'I' for Inactive)
REMARK    1  A    between atoms: C2_2  and  C3_3 
REMARK    2  A    between atoms: C4_4  and  C5_5 
REMARK    3  A    between atoms: C7_12  and  C8_13 
REMARK    4  A    between atoms: C8_13  and  O4_16 
REMARK    5  A    between atoms: N2_19  and  S1_20 
REMARK    6  A    between atoms: S1_20  and  C11_23 
ROOT
HETATM    1  C3  UNL     1       1.169   3.412 -14.136  1.00  0.00     0.159 C 
HETATM    2  C4  UNL     1       1.268   3.646 -12.685  1.00  0.00     0.210 C 
HETATM    3  N1  UNL     1       1.552   5.066 -12.423  1.00  0.00    -0.342 N 
ATOM      4  H1  UNL     1       2.116   5.241 -11.591  1.00  0.00     0.163 HD
HETATM    5  C6  UNL     1       1.175   6.222 -13.130  1.00  0.00     0.252 C 
HETATM    6  O3  UNL     1       1.636   7.309 -12.725  1.00  0.00    -0.270 OA
HETATM    7  C7  UNL     1       0.292   6.295 -14.301  1.00  0.00     0.272 C 
HETATM    8  O5  UNL     1       0.607   5.322 -15.238  1.00  0.00    -0.270 OA
HETATM    9  N2  UNL     1       1.661   4.548 -14.894  1.00  0.00    -0.074 NA
ENDROOT
BRANCH   7  10
HETATM   10  C8  UNL     1       0.253   7.684 -14.833  1.00  0.00     0.087 C 
HETATM   11  C9  UNL     1       1.508   8.063 -15.591  1.00  0.00     0.049 C 
HETATM   12  C10 UNL     1      -0.974   7.972 -15.664  1.00  0.00     0.049 C 
BRANCH  10  13
HETATM   13  O4  UNL     1       0.198   8.575 -13.734  1.00  0.00    -0.387 OA
ATOM     14  H4  UNL     1       0.427   9.442 -14.045  1.00  0.00     0.210 HD
ENDBRANCH  10  13
ENDBRANCH   7  10
BRANCH   9  15
HETATM   15  S1  UNL     1       2.417   4.047 -16.362  1.00  0.00     0.234 S 
HETATM   16  O6  UNL     1       1.423   3.827 -17.463  1.00  0.00    -0.209 OA
HETATM   17  O7  UNL     1       3.363   5.121 -16.806  1.00  0.00    -0.209 OA
BRANCH  15  18
HETATM   18  C11 UNL     1       3.344   2.556 -16.169  1.00  0.00     0.155 C 
HETATM   19  C12 UNL     1       4.809   2.936 -16.086  1.00  0.00     0.022 C 
ENDBRANCH  15  18
ENDBRANCH   9  15
BRANCH   2  20
HETATM   20  C5  UNL     1       0.119   3.258 -11.882  1.00  0.00     0.198 C 
HETATM   21  O1  UNL     1       0.041   2.109 -11.382  1.00  0.00    -0.646 OA
HETATM   22  O2  UNL     1      -0.951   4.113 -11.620  1.00  0.00    -0.646 OA
ENDBRANCH   2  20
BRANCH   1  23
HETATM   23  C2  UNL     1      -0.154   3.039 -14.668  1.00  0.00    -0.011 C 
HETATM   24  C1  UNL     1      -0.485   1.873 -15.155  1.00  0.00     0.008 C 
ENDBRANCH   1  23
TORSDOF 6
ENDMDL
MODEL 3
REMARK VINA RESULT: -6.944041245      2.093      4.486
REMARK  6 active torsions:
REMARK  status: ('A' for Active; 'I' for Inactive)
REMARK    1  A    between atoms: C2_2  and  C3_3 
REMARK    2  A    between atoms: C4_4  and  C5_5 
REMARK    3  A    between atoms: C7_12  and  C8_13 
REMARK    4  A    between atoms: C8_13  and  O4_16 
REMARK    5  A    between atoms: N2_19  and  S1_20 
REMARK    6  A    between atoms: S1_20  and  C11_23 
ROOT
HETATM    1  C3  UNL     1       0.421   2.744 -13.596  1.00  0.00     0.159 C 
HETATM    2  C4  UNL     1       0.422   2.856 -12.127  1.00  0.00     0.210 C 
HETATM    3  N1  UNL     1       1.013   4.141 -11.721  1.00  0.00    -0.342 N 
ATOM      4  H1  UNL     1       1.513   4.117 -10.832  1.00  0.00     0.163 HD
HETATM    5  C6  UNL     1       1.004   5.395 -12.357  1.00  0.00     0.252 C 
HETATM    6  O3  UNL     1       1.670   6.306 -11.822  1.00  0.00    -0.270 OA
HETATM    7  C7  UNL     1       0.292   5.758 -13.588  1.00  0.00     0.272 C 
HETATM    8  O5  UNL     1       0.457   4.797 -14.575  1.00  0.00    -0.270 OA
HETATM    9  N2  UNL     1       1.250   3.764 -14.209  1.00  0.00    -0.074 NA
ENDROOT
BRANCH   7  10
HETATM   10  C8  UNL     1       0.648   7.144 -14.001  1.00  0.00     0.087 C 
HETATM   11  C9  UNL     1       2.125   7.317 -14.282  1.00  0.00     0.049 C 
HETATM   12  C10 UNL     1      -0.174   7.651 -15.162  1.00  0.00     0.049 C 
BRANCH  10  13
HETATM   13  O4  UNL     1       0.370   8.011 -12.918  1.00  0.00    -0.387 OA
ATOM     14  H4  UNL     1       1.051   8.671 -12.885  1.00  0.00     0.210 HD
ENDBRANCH  10  13
ENDBRANCH   7  10
BRANCH   9  15
HETATM   15  S1  UNL     1       2.011   3.182 -15.644  1.00  0.00     0.234 S 
HETATM   16  O6  UNL     1       2.196   1.694 -15.622  1.00  0.00    -0.209 OA
HETATM   17  O7  UNL     1       1.143   3.519 -16.818  1.00  0.00    -0.209 OA
BRANCH  15  18
HETATM   18  C11 UNL     1       3.595   3.916 -15.913  1.00  0.00     0.155 C 
HETATM   19  C12 UNL     1       3.416   5.032 -16.923  1.00  0.00     0.022 C 
ENDBRANCH  15  18
ENDBRANCH   9  15
BRANCH   2  20
HETATM   20  C5  UNL     1      -0.864   2.718 -11.461  1.00  0.00     0.198 C 
HETATM   21  O1  UNL     1      -1.349   1.585 -11.224  1.00  0.00    -0.646 OA
HETATM   22  O2  UNL     1      -1.630   3.809 -11.052  1.00  0.00    -0.646 OA
ENDBRANCH   2  20
BRANCH   1  23
HETATM   23  C2  UNL     1      -0.891   2.746 -14.269  1.00  0.00    -0.011 C 
HETATM   24  C1  UNL     1      -1.454   1.726 -14.858  1.00  0.00     0.008 C 
ENDBRANCH   1  23
TORSDOF 6
ENDMDL
MODEL 4
REMARK VINA RESULT: -6.835349725      2.320      4.722
REMARK  6 active torsions:
REMARK  status: ('A' for Active; 'I' for Inactive)
REMARK    1  A    between atoms: C2_2  and  C3_3 
REMARK    2  A    between atoms: C4_4  and  C5_5 
REMARK    3  A    between atoms: C7_12  and  C8_13 
REMARK    4  A    between atoms: C8_13  and  O4_16 
REMARK    5  A    between atoms: N2_19  and  S1_20 
REMARK    6  A    between atoms: S1_20  and  C11_23 
ROOT
HETATM    1  C3  UNL     1       0.446   2.680 -13.456  1.00  0.00     0.159 C 
HETATM    2  C4  UNL     1       0.287   2.821 -11.998  1.00  0.00     0.210 C 
HETATM    3  N1  UNL     1       0.845   4.107 -11.553  1.00  0.00    -0.342 N 
ATOM      4  H1  UNL     1       1.244   4.096 -10.613  1.00  0.00     0.163 HD
HETATM    5  C6  UNL     1       0.921   5.349 -12.208  1.00  0.00     0.252 C 
HETATM    6  O3  UNL     1       1.536   6.263 -11.620  1.00  0.00    -0.270 OA
HETATM    7  C7  UNL     1       0.353   5.696 -13.517  1.00  0.00     0.272 C 
HETATM    8  O5  UNL     1       0.614   4.714 -14.461  1.00  0.00    -0.270 OA
HETATM    9  N2  UNL     1       1.350   3.681 -13.992  1.00  0.00    -0.074 NA
ENDROOT
BRANCH   7  10
HETATM   10  C8  UNL     1       0.769   7.069 -13.913  1.00  0.00     0.087 C 
HETATM   11  C9  UNL     1       2.262   7.199 -14.121  1.00  0.00     0.049 C 
HETATM   12  C10 UNL     1       0.020   7.598 -15.113  1.00  0.00     0.049 C 
BRANCH  10  13
HETATM   13  O4  UNL     1       0.463   7.946 -12.845  1.00  0.00    -0.387 OA
ATOM     14  H4  UNL     1      -0.243   8.516 -13.124  1.00  0.00     0.210 HD
ENDBRANCH  10  13
ENDBRANCH   7  10
BRANCH   9  15
HETATM   15  S1  UNL     1       2.256   3.063 -15.324  1.00  0.00     0.234 S 
HETATM   16  O6  UNL     1       3.714   3.401 -15.220  1.00  0.00    -0.209 OA
HETATM   17  O7  UNL     1       2.131   1.570 -15.340  1.00  0.00    -0.209 OA
BRANCH  15  18
HETATM   18  C11 UNL     1       1.673   3.672 -16.876  1.00  0.00     0.155 C 
HETATM   19  C12 UNL     1       1.021   2.514 -17.605  1.00  0.00     0.022 C 
ENDBRANCH  15  18
ENDBRANCH   9  15
BRANCH   2  20
HETATM   20  C5  UNL     1      -1.066   2.709 -11.476  1.00  0.00     0.198 C 
HETATM   21  O1  UNL     1      -1.733   3.733 -11.188  1.00  0.00    -0.646 OA
HETATM   22  O2  UNL     1      -1.702   1.486 -11.261  1.00  0.00    -0.646 OA
ENDBRANCH   2  20
BRANCH   1  23
HETATM   23  C2  UNL     1      -0.784   2.683 -14.269  1.00  0.00    -0.011 C 
HETATM   24  C1  UNL     1      -1.333   1.642 -14.834  1.00  0.00     0.008 C 
ENDBRANCH   1  23
TORSDOF 6
ENDMDL
MODEL 5
REMARK VINA RESULT: -6.827726637      3.572      6.190
REMARK  6 active torsions:
REMARK  status: ('A' for Active; 'I' for Inactive)
REMARK    1  A    between atoms: C2_2  and  C3_3 
REMARK    2  A    between atoms: C4_4  and  C5_5 
REMARK    3  A    between atoms: C7_12  and  C8_13 
REMARK    4  A    between atoms: C8_13  and  O4_16 
REMARK    5  A    between atoms: N2_19  and  S1_20 
REMARK    6  A    between atoms: S1_20  and  C11_23 
ROOT
HETATM    1  C3  UNL     1       3.602   3.416 -16.128  1.00  0.00     0.159 C 
HETATM    2  C4  UNL     1       3.170   4.265 -17.252  1.00  0.00     0.210 C 
HETATM    3  N1  UNL     1       2.118   3.582 -18.022  1.00  0.00    -0.342 N 
ATOM      4  H1  UNL     1       2.114   3.796 -19.020  1.00  0.00     0.163 HD
HETATM    5  C6  UNL     1       1.118   2.684 -17.610  1.00  0.00     0.252 C 
HETATM    6  O3  UNL     1       0.403   2.183 -18.503  1.00  0.00    -0.270 OA
HETATM    7  C7  UNL     1       0.815   2.265 -16.236  1.00  0.00     0.272 C 
HETATM    8  O5  UNL     1       1.969   1.948 -15.534  1.00  0.00    -0.270 OA
HETATM    9  N2  UNL     1       3.103   2.060 -16.262  1.00  0.00    -0.074 NA
ENDROOT
BRANCH   7  10
HETATM   10  C8  UNL     1      -0.226   1.201 -16.237  1.00  0.00     0.087 C 
HETATM   11  C9  UNL     1      -1.047   1.175 -14.965  1.00  0.00     0.049 C 
HETATM   12  C10 UNL     1      -1.128   1.248 -17.447  1.00  0.00     0.049 C 
BRANCH  10  13
HETATM   13  O4  UNL     1       0.426  -0.054 -16.285  1.00  0.00    -0.387 OA
ATOM     14  H4  UNL     1       1.182   0.028 -16.855  1.00  0.00     0.210 HD
ENDBRANCH  10  13
ENDBRANCH   7  10
BRANCH   9  15
HETATM   15  S1  UNL     1       4.222   0.910 -15.628  1.00  0.00     0.234 S 
HETATM   16  O6  UNL     1       5.647   1.321 -15.858  1.00  0.00    -0.209 OA
HETATM   17  O7  UNL     1       4.011   0.799 -14.149  1.00  0.00    -0.209 OA
BRANCH  15  18
HETATM   18  C11 UNL     1       4.007  -0.697 -16.328  1.00  0.00     0.155 C 
HETATM   19  C12 UNL     1       5.356  -1.388 -16.310  1.00  0.00     0.022 C 
ENDBRANCH  15  18
ENDBRANCH   9  15
BRANCH   2  20
HETATM   20  C5  UNL     1       2.694   5.598 -16.917  1.00  0.00     0.198 C 
HETATM   21  O1  UNL     1       3.396   6.611 -17.154  1.00  0.00    -0.646 OA
HETATM   22  O2  UNL     1       1.456   5.837 -16.322  1.00  0.00    -0.646 OA
ENDBRANCH   2  20
BRANCH   1  23
HETATM   23  C2  UNL     1       3.292   3.892 -14.768  1.00  0.00    -0.011 C 
HETATM   24  C1  UNL     1       4.159   4.286 -13.876  1.00  0.00     0.008 C 
ENDBRANCH   1  23
TORSDOF 6
ENDMDL
