MODEL 1
REMARK VINA RESULT: -4.425742744      0.000      0.000
REMARK  1 active torsions:
REMARK  status: ('A' for Active; 'I' for Inactive)
REMARK    1  A    between atoms: C4_9  and  C5_10 
ROOT
HETATM    1  C1  UNL     1      31.001  -3.031   7.467  1.00  0.00     0.034 C 
HETATM    2  C2  UNL     1      32.145  -3.075   6.526  1.00  0.00     0.103 C 
HETATM    3  N1  UNL     1      33.230  -2.278   7.118  1.00  0.00    -0.361 N 
ATOM      4  H1  UNL     1      33.709  -2.488   7.994  1.00  0.00     0.162 HD
HETATM    5  C3  UNL     1      33.503  -1.167   6.274  1.00  0.00     0.168 C 
HETATM    6  S1  UNL     1      34.786  -0.135   6.358  1.00  0.00    -0.041 SA
HETATM    7  N2  UNL     1      32.440  -1.116   5.327  1.00  0.00    -0.360 N 
ATOM      8  H2  UNL     1      32.084  -0.295   4.840  1.00  0.00     0.162 HD
HETATM    9  C4  UNL     1      31.972  -2.482   5.206  1.00  0.00     0.116 C 
ENDROOT
BRANCH   9  10
HETATM   10  C5  UNL     1      30.626  -2.529   4.579  1.00  0.00     0.112 C 
HETATM   11 BR1  UNL     1      30.612  -3.726   3.059  1.00  0.00    -0.094 Br
ENDBRANCH   9  10
TORSDOF 1
ENDMDL
MODEL 2
REMARK VINA RESULT: -4.292121591      3.634      4.634
REMARK  1 active torsions:
REMARK  status: ('A' for Active; 'I' for Inactive)
REMARK    1  A    between atoms: C4_9  and  C5_10 
ROOT
HETATM    1  C1  UNL     1      34.320  -0.125   8.903  1.00  0.00     0.034 C 
HETATM    2  C2  UNL     1      33.955   0.321   7.537  1.00  0.00     0.103 C 
HETATM    3  N1  UNL     1      32.939  -0.614   7.029  1.00  0.00    -0.361 N 
ATOM      4  H1  UNL     1      32.010  -0.753   7.427  1.00  0.00     0.162 HD
HETATM    5  C3  UNL     1      33.460  -1.292   5.893  1.00  0.00     0.168 C 
HETATM    6  S1  UNL     1      32.635  -2.236   4.823  1.00  0.00    -0.041 SA
HETATM    7  N2  UNL     1      34.853  -0.996   5.858  1.00  0.00    -0.360 N 
ATOM      8  H2  UNL     1      35.598  -1.568   5.461  1.00  0.00     0.162 HD
HETATM    9  C4  UNL     1      34.985   0.292   6.507  1.00  0.00     0.116 C 
ENDROOT
BRANCH   9  10
HETATM   10  C5  UNL     1      36.395   0.543   6.907  1.00  0.00     0.112 C 
HETATM   11 BR1  UNL     1      37.620  -0.040   5.527  1.00  0.00    -0.094 Br
ENDBRANCH   9  10
TORSDOF 1
ENDMDL
MODEL 3
REMARK VINA RESULT: -4.276298780      1.825      2.605
REMARK  1 active torsions:
REMARK  status: ('A' for Active; 'I' for Inactive)
REMARK    1  A    between atoms: C4_9  and  C5_10 
ROOT
HETATM    1  C1  UNL     1      32.069  -2.828   4.292  1.00  0.00     0.034 C 
HETATM    2  C2  UNL     1      31.912  -1.786   5.335  1.00  0.00     0.103 C 
HETATM    3  N1  UNL     1      33.008  -0.821   5.157  1.00  0.00    -0.361 N 
ATOM      4  H1  UNL     1      33.152  -0.233   4.335  1.00  0.00     0.162 HD
HETATM    5  C3  UNL     1      33.835  -0.839   6.314  1.00  0.00     0.168 C 
HETATM    6  S1  UNL     1      35.026   0.229   6.712  1.00  0.00    -0.041 SA
HETATM    7  N2  UNL     1      33.431  -1.975   7.073  1.00  0.00    -0.360 N 
ATOM      8  H2  UNL     1      33.999  -2.522   7.719  1.00  0.00     0.162 HD
HETATM    9  C4  UNL     1      32.039  -2.187   6.730  1.00  0.00     0.116 C 
ENDROOT
BRANCH   9  10
HETATM   10  C5  UNL     1      31.599  -3.552   7.119  1.00  0.00     0.112 C 
HETATM   11 BR1  UNL     1      33.103  -4.766   7.208  1.00  0.00    -0.094 Br
ENDBRANCH   9  10
TORSDOF 1
ENDMDL
MODEL 4
REMARK VINA RESULT: -4.195155030      6.956      8.192
REMARK  1 active torsions:
REMARK  status: ('A' for Active; 'I' for Inactive)
REMARK    1  A    between atoms: C4_9  and  C5_10 
ROOT
HETATM    1  C1  UNL     1      38.698   1.765  11.493  1.00  0.00     0.034 C 
HETATM    2  C2  UNL     1      37.421   2.311  10.974  1.00  0.00     0.103 C 
HETATM    3  N1  UNL     1      36.415   1.244  11.079  1.00  0.00    -0.361 N 
ATOM      4  H1  UNL     1      36.089   0.820  11.948  1.00  0.00     0.162 HD
HETATM    5  C3  UNL     1      35.968   0.899   9.774  1.00  0.00     0.168 C 
HETATM    6  S1  UNL     1      34.676  -0.044   9.373  1.00  0.00    -0.041 SA
HETATM    7  N2  UNL     1      36.865   1.532   8.866  1.00  0.00    -0.360 N 
ATOM      8  H2  UNL     1      37.106   1.230   7.923  1.00  0.00     0.162 HD
HETATM    9  C4  UNL     1      37.359   2.697   9.570  1.00  0.00     0.116 C 
ENDROOT
BRANCH   9  10
HETATM   10  C5  UNL     1      38.590   3.225   8.925  1.00  0.00     0.112 C 
HETATM   11 BR1  UNL     1      38.257   3.688   7.076  1.00  0.00    -0.094 Br
ENDBRANCH   9  10
TORSDOF 1
ENDMDL
MODEL 5
REMARK VINA RESULT: -4.165161688      2.067      2.564
REMARK  1 active torsions:
REMARK  status: ('A' for Active; 'I' for Inactive)
REMARK    1  A    between atoms: C4_9  and  C5_10 
ROOT
HETATM    1  C1  UNL     1      30.658  -2.860   4.983  1.00  0.00     0.034 C 
HETATM    2  C2  UNL     1      31.233  -2.878   6.350  1.00  0.00     0.103 C 
HETATM    3  N1  UNL     1      31.592  -1.493   6.691  1.00  0.00    -0.361 N 
ATOM      4  H1  UNL     1      30.937  -0.716   6.781  1.00  0.00     0.162 HD
HETATM    5  C3  UNL     1      33.000  -1.411   6.874  1.00  0.00     0.168 C 
HETATM    6  S1  UNL     1      33.857  -0.155   7.513  1.00  0.00    -0.041 SA
HETATM    7  N2  UNL     1      33.536  -2.640   6.393  1.00  0.00    -0.360 N 
ATOM      8  H2  UNL     1      34.467  -2.801   6.010  1.00  0.00     0.162 HD
HETATM    9  C4  UNL     1      32.474  -3.611   6.563  1.00  0.00     0.116 C 
ENDROOT
BRANCH   9  10
HETATM   10  C5  UNL     1      32.730  -4.826   5.746  1.00  0.00     0.112 C 
HETATM   11 BR1  UNL     1      34.576  -5.384   5.895  1.00  0.00    -0.094 Br
ENDBRANCH   9  10
TORSDOF 1
ENDMDL
