MODEL 1
REMARK VINA RESULT: -7.731368202      0.000      0.000
REMARK  11 active torsions:
REMARK  status: ('A' for Active; 'I' for Inactive)
REMARK    1  A    between atoms: C2_2  and  O1_3 
REMARK    2  A    between atoms: C2_2  and  O2_5 
REMARK    3  A    between atoms: O2_5  and  N1_6 
REMARK       I    between atoms: N1_6  and  C3_8 
REMARK       I    between atoms: C3_8  and  N4_13 
REMARK    4  A    between atoms: N4_13  and  C5_15 
REMARK    5  A    between atoms: C5_15  and  C6_16 
REMARK    6  A    between atoms: C7_19  and  C8_20 
REMARK    7  A    between atoms: C8_20  and  C9_21 
REMARK    8  A    between atoms: C9_21  and  C10_22 
REMARK    9  A    between atoms: C10_22  and  S1_23 
REMARK   10  A    between atoms: S1_23  and  C11_24 
REMARK   11  A    between atoms: N8_41  and  N9_42 
ROOT
HETATM    1  N1  UNL     1     -13.381  50.348  17.083  1.00  0.00    -0.093 N 
ATOM      2  H1  UNL     1     -13.182  50.932  16.271  1.00  0.00     0.213 HD
HETATM    3  C3  UNL     1     -12.278  49.865  17.850  1.00  0.00     0.707 C 
HETATM    4  N2  UNL     1     -11.279  49.286  17.287  1.00  0.00    -0.124 N 
ATOM      5  H2  UNL     1     -10.527  48.967  17.897  1.00  0.00     0.197 HD
HETATM    6  C4  UNL     1     -11.129  49.058  15.936  1.00  0.00     0.196 C 
HETATM    7  N3  UNL     1     -10.988  48.857  14.810  1.00  0.00    -0.171 NA
HETATM    8  N4  UNL     1     -12.277  50.019  19.259  1.00  0.00    -0.217 N 
ATOM      9  H4  UNL     1     -13.092  49.672  19.765  1.00  0.00     0.178 HD
ENDROOT
BRANCH   1  10
HETATM   10  O2  UNL     1     -14.671  50.077  17.369  1.00  0.00    -0.234 OA
BRANCH  10  11
HETATM   11  C2  UNL     1     -15.127  49.084  16.534  1.00  0.00     0.282 C 
HETATM   12  C1  UNL     1     -16.657  49.048  16.454  1.00  0.00     0.073 C 
BRANCH  11  13
HETATM   13  O1  UNL     1     -14.686  47.833  17.021  1.00  0.00    -0.369 OA
ATOM     14  H1  UNL     1     -13.822  47.667  16.663  1.00  0.00     0.212 HD
ENDBRANCH  11  13
ENDBRANCH  10  11
ENDBRANCH   1  10
BRANCH   8  15
HETATM   15  C5  UNL     1     -11.230  50.620  20.034  1.00  0.00     0.216 C 
BRANCH  15  16
HETATM   16  C6  UNL     1     -10.786  49.691  21.109  1.00  0.00     0.121 A 
HETATM   17  N5  UNL     1     -10.081  48.588  20.899  1.00  0.00    -0.345 N 
HETATM   18  C7  UNL     1      -9.824  47.968  22.069  1.00  0.00     0.028 A 
ATOM     19  H5  UNL     1      -9.777  48.255  19.984  1.00  0.00     0.167 HD
HETATM   20  C21 UNL     1     -10.400  48.728  23.040  1.00  0.00     0.142 A 
HETATM   21  N8  UNL     1     -10.989  49.786  22.432  1.00  0.00    -0.258 N 
BRANCH  18  22
HETATM   22  C8  UNL     1      -9.096  46.719  22.208  1.00  0.00     0.059 C 
BRANCH  22  23
HETATM   23  C9  UNL     1      -7.673  46.720  21.780  1.00  0.00     0.017 C 
BRANCH  23  24
HETATM   24  C10 UNL     1      -7.421  46.260  20.376  1.00  0.00     0.082 C 
BRANCH  24  25
HETATM   25  S1  UNL     1      -5.785  46.891  19.869  1.00  0.00    -0.094 SA
BRANCH  25  26
HETATM   26  C11 UNL     1      -6.011  48.010  18.501  1.00  0.00     0.147 A 
HETATM   27  N6  UNL     1      -6.809  47.805  17.469  1.00  0.00    -0.303 N 
HETATM   28  C12 UNL     1      -6.963  48.653  16.444  1.00  0.00     0.261 A 
ATOM     29  H6  UNL     1      -7.346  46.938  17.451  1.00  0.00     0.171 HD
HETATM   30  O3  UNL     1      -7.764  48.323  15.522  1.00  0.00    -0.267 OA
HETATM   31  C13 UNL     1      -6.246  49.870  16.414  1.00  0.00     0.073 A 
HETATM   32  C14 UNL     1      -6.265  50.849  15.467  1.00  0.00    -0.026 A 
HETATM   33  C16 UNL     1      -5.423  50.068  17.490  1.00  0.00     0.092 A 
HETATM   34  C15 UNL     1      -5.463  51.935  15.679  1.00  0.00    -0.008 A 
HETATM   35  C20 UNL     1      -7.078  50.910  14.175  1.00  0.00     0.041 C 
HETATM   36  S2  UNL     1      -4.714  51.586  17.158  1.00  0.00    -0.075 SA
HETATM   37  C17 UNL     1      -5.323  53.111  14.782  1.00  0.00     0.047 C 
HETATM   38  C18 UNL     1      -6.277  53.132  13.644  1.00  0.00     0.005 C 
HETATM   39  C19 UNL     1      -7.514  52.349  13.972  1.00  0.00     0.005 C 
HETATM   40  N7  UNL     1      -5.309  49.156  18.510  1.00  0.00    -0.330 N 
ATOM     41  H7  UNL     1      -4.681  49.353  19.290  1.00  0.00     0.168 HD
ENDBRANCH  25  26
ENDBRANCH  24  25
ENDBRANCH  23  24
ENDBRANCH  22  23
ENDBRANCH  18  22
BRANCH  21  42
HETATM   42  N9  UNL     1     -11.693  50.819  23.073  1.00  0.00    -0.338 N 
ATOM     43  H92 UNL     1     -11.590  51.817  22.892  1.00  0.00     0.177 HD
ATOM     44  H91 UNL     1     -12.398  50.690  23.799  1.00  0.00     0.177 HD
ENDBRANCH  21  42
ENDBRANCH  15  16
ENDBRANCH   8  15
TORSDOF 11
ENDMDL
MODEL 2
REMARK VINA RESULT: -7.524967817      1.405      2.075
REMARK  11 active torsions:
REMARK  status: ('A' for Active; 'I' for Inactive)
REMARK    1  A    between atoms: C2_2  and  O1_3 
REMARK    2  A    between atoms: C2_2  and  O2_5 
REMARK    3  A    between atoms: O2_5  and  N1_6 
REMARK       I    between atoms: N1_6  and  C3_8 
REMARK       I    between atoms: C3_8  and  N4_13 
REMARK    4  A    between atoms: N4_13  and  C5_15 
REMARK    5  A    between atoms: C5_15  and  C6_16 
REMARK    6  A    between atoms: C7_19  and  C8_20 
REMARK    7  A    between atoms: C8_20  and  C9_21 
REMARK    8  A    between atoms: C9_21  and  C10_22 
REMARK    9  A    between atoms: C10_22  and  S1_23 
REMARK   10  A    between atoms: S1_23  and  C11_24 
REMARK   11  A    between atoms: N8_41  and  N9_42 
ROOT
HETATM    1  N1  UNL     1     -11.030  49.206  17.351  1.00  0.00    -0.093 N 
ATOM      2  H1  UNL     1     -11.310  48.226  17.301  1.00  0.00     0.213 HD
HETATM    3  C3  UNL     1     -11.765  50.071  18.217  1.00  0.00     0.707 C 
HETATM    4  N2  UNL     1     -13.048  50.114  18.183  1.00  0.00    -0.124 N 
ATOM      5  H2  UNL     1     -13.506  50.755  18.830  1.00  0.00     0.197 HD
HETATM    6  C4  UNL     1     -13.862  49.374  17.352  1.00  0.00     0.196 C 
HETATM    7  N3  UNL     1     -14.558  48.765  16.665  1.00  0.00    -0.171 NA
HETATM    8  N4  UNL     1     -11.075  50.904  19.133  1.00  0.00    -0.217 N 
ATOM      9  H4  UNL     1     -10.345  51.506  18.755  1.00  0.00     0.178 HD
ENDROOT
BRANCH   1  10
HETATM   10  O2  UNL     1      -9.989  49.608  16.594  1.00  0.00    -0.234 OA
BRANCH  10  11
HETATM   11  C2  UNL     1     -10.342  49.560  15.266  1.00  0.00     0.282 C 
HETATM   12  C1  UNL     1     -11.126  50.802  14.827  1.00  0.00     0.073 C 
BRANCH  11  13
HETATM   13  O1  UNL     1     -11.160  48.429  15.047  1.00  0.00    -0.369 OA
ATOM     14  H1  UNL     1     -10.712  47.670  15.400  1.00  0.00     0.212 HD
ENDBRANCH  11  13
ENDBRANCH  10  11
ENDBRANCH   1  10
BRANCH   8  15
HETATM   15  C5  UNL     1     -11.315  50.972  20.546  1.00  0.00     0.216 C 
BRANCH  15  16
HETATM   16  C6  UNL     1     -10.817  49.739  21.214  1.00  0.00     0.121 A 
HETATM   17  N5  UNL     1      -9.990  48.868  20.655  1.00  0.00    -0.345 N 
HETATM   18  C7  UNL     1      -9.714  47.866  21.514  1.00  0.00     0.028 A 
ATOM     19  H5  UNL     1      -9.614  48.945  19.709  1.00  0.00     0.167 HD
HETATM   20  C21 UNL     1     -10.408  48.137  22.653  1.00  0.00     0.142 A 
HETATM   21  N8  UNL     1     -11.082  49.295  22.452  1.00  0.00    -0.258 N 
BRANCH  18  22
HETATM   22  C8  UNL     1      -8.862  46.727  21.221  1.00  0.00     0.059 C 
BRANCH  22  23
HETATM   23  C9  UNL     1      -7.625  46.589  22.031  1.00  0.00     0.017 C 
BRANCH  23  24
HETATM   24  C10 UNL     1      -6.459  47.414  21.572  1.00  0.00     0.082 C 
BRANCH  24  25
HETATM   25  S1  UNL     1      -5.783  46.632  20.067  1.00  0.00    -0.094 SA
BRANCH  25  26
HETATM   26  C11 UNL     1      -5.932  47.786  18.718  1.00  0.00     0.147 A 
HETATM   27  N6  UNL     1      -6.548  47.551  17.573  1.00  0.00    -0.303 N 
HETATM   28  C12 UNL     1      -6.646  48.426  16.565  1.00  0.00     0.261 A 
ATOM     29  H6  UNL     1      -6.980  46.635  17.449  1.00  0.00     0.171 HD
HETATM   30  O3  UNL     1      -7.267  48.060  15.525  1.00  0.00    -0.267 OA
HETATM   31  C13 UNL     1      -6.068  49.710  16.680  1.00  0.00     0.073 A 
HETATM   32  C14 UNL     1      -6.058  50.726  15.773  1.00  0.00    -0.026 A 
HETATM   33  C16 UNL     1      -5.433  49.939  17.871  1.00  0.00     0.092 A 
HETATM   34  C15 UNL     1      -5.416  51.877  16.136  1.00  0.00    -0.008 A 
HETATM   35  C20 UNL     1      -6.680  50.766  14.378  1.00  0.00     0.041 C 
HETATM   36  S2  UNL     1      -4.852  51.537  17.696  1.00  0.00    -0.075 SA
HETATM   37  C17 UNL     1      -5.279  53.103  15.308  1.00  0.00     0.047 C 
HETATM   38  C18 UNL     1      -6.058  53.081  14.043  1.00  0.00     0.005 C 
HETATM   39  C19 UNL     1      -7.236  52.161  14.161  1.00  0.00     0.005 C 
HETATM   40  N7  UNL     1      -5.367  48.996  18.867  1.00  0.00    -0.330 N 
ATOM     41  H7  UNL     1      -4.881  49.219  19.736  1.00  0.00     0.168 HD
ENDBRANCH  25  26
ENDBRANCH  24  25
ENDBRANCH  23  24
ENDBRANCH  22  23
ENDBRANCH  18  22
BRANCH  21  42
HETATM   42  N9  UNL     1     -11.919  49.934  23.383  1.00  0.00    -0.338 N 
ATOM     43  H92 UNL     1     -12.182  50.919  23.374  1.00  0.00     0.177 HD
ATOM     44  H91 UNL     1     -12.367  49.482  24.180  1.00  0.00     0.177 HD
ENDBRANCH  21  42
ENDBRANCH  15  16
ENDBRANCH   8  15
TORSDOF 11
ENDMDL
MODEL 3
REMARK VINA RESULT: -7.520328535      3.771      7.113
REMARK  11 active torsions:
REMARK  status: ('A' for Active; 'I' for Inactive)
REMARK    1  A    between atoms: C2_2  and  O1_3 
REMARK    2  A    between atoms: C2_2  and  O2_5 
REMARK    3  A    between atoms: O2_5  and  N1_6 
REMARK       I    between atoms: N1_6  and  C3_8 
REMARK       I    between atoms: C3_8  and  N4_13 
REMARK    4  A    between atoms: N4_13  and  C5_15 
REMARK    5  A    between atoms: C5_15  and  C6_16 
REMARK    6  A    between atoms: C7_19  and  C8_20 
REMARK    7  A    between atoms: C8_20  and  C9_21 
REMARK    8  A    between atoms: C9_21  and  C10_22 
REMARK    9  A    between atoms: C10_22  and  S1_23 
REMARK   10  A    between atoms: S1_23  and  C11_24 
REMARK   11  A    between atoms: N8_41  and  N9_42 
ROOT
HETATM    1  N1  UNL     1      -9.025  48.209  20.602  1.00  0.00    -0.093 N 
ATOM      2  H1  UNL     1      -8.685  48.841  21.327  1.00  0.00     0.213 HD
HETATM    3  C3  UNL     1      -9.451  48.775  19.363  1.00  0.00     0.707 C 
HETATM    4  N2  UNL     1     -10.275  49.758  19.329  1.00  0.00    -0.124 N 
ATOM      5  H2  UNL     1     -10.536  50.112  18.409  1.00  0.00     0.197 HD
HETATM    6  C4  UNL     1     -10.841  50.381  20.422  1.00  0.00     0.196 C 
HETATM    7  N3  UNL     1     -11.323  50.913  21.323  1.00  0.00    -0.171 NA
HETATM    8  N4  UNL     1      -8.964  48.246  18.142  1.00  0.00    -0.217 N 
ATOM      9  H4  UNL     1      -9.067  47.242  17.995  1.00  0.00     0.178 HD
ENDROOT
BRANCH   1  10
HETATM   10  O2  UNL     1      -9.045  46.887  20.872  1.00  0.00    -0.234 OA
BRANCH  10  11
HETATM   11  C2  UNL     1      -7.757  46.410  20.921  1.00  0.00     0.282 C 
HETATM   12  C1  UNL     1      -6.783  47.424  21.533  1.00  0.00     0.073 C 
BRANCH  11  13
HETATM   13  O1  UNL     1      -7.320  46.124  19.608  1.00  0.00    -0.369 OA
ATOM     14  H1  UNL     1      -7.459  45.198  19.447  1.00  0.00     0.212 HD
ENDBRANCH  11  13
ENDBRANCH  10  11
ENDBRANCH   1  10
BRANCH   8  15
HETATM   15  C5  UNL     1      -8.338  49.000  17.093  1.00  0.00     0.216 C 
BRANCH  15  16
HETATM   16  C6  UNL     1      -6.931  49.319  17.457  1.00  0.00     0.121 A 
HETATM   17  N5  UNL     1      -6.510  50.515  17.841  1.00  0.00    -0.345 N 
HETATM   18  C7  UNL     1      -5.190  50.482  18.113  1.00  0.00     0.028 A 
ATOM     19  H5  UNL     1      -7.101  51.344  17.920  1.00  0.00     0.167 HD
HETATM   20  C21 UNL     1      -4.783  49.204  17.883  1.00  0.00     0.142 A 
HETATM   21  N8  UNL     1      -5.868  48.499  17.479  1.00  0.00    -0.258 N 
BRANCH  18  22
HETATM   22  C8  UNL     1      -4.396  51.623  18.535  1.00  0.00     0.059 C 
BRANCH  22  23
HETATM   23  C9  UNL     1      -4.042  52.617  17.490  1.00  0.00     0.017 C 
BRANCH  23  24
HETATM   24  C10 UNL     1      -4.687  52.406  16.153  1.00  0.00     0.082 C 
BRANCH  24  25
HETATM   25  S1  UNL     1      -5.648  53.906  15.757  1.00  0.00    -0.094 SA
BRANCH  25  26
HETATM   26  C11 UNL     1      -6.849  54.164  17.047  1.00  0.00     0.147 A 
HETATM   27  N6  UNL     1      -7.937  53.439  17.236  1.00  0.00    -0.303 N 
HETATM   28  C12 UNL     1      -8.835  53.649  18.207  1.00  0.00     0.261 A 
ATOM     29  H6  UNL     1      -8.105  52.663  16.596  1.00  0.00     0.171 HD
HETATM   30  O3  UNL     1      -9.832  52.872  18.266  1.00  0.00    -0.267 OA
HETATM   31  C13 UNL     1      -8.654  54.708  19.125  1.00  0.00     0.073 A 
HETATM   32  C14 UNL     1      -9.449  55.079  20.167  1.00  0.00    -0.026 A 
HETATM   33  C16 UNL     1      -7.523  55.450  18.917  1.00  0.00     0.092 A 
HETATM   34  C15 UNL     1      -9.044  56.156  20.905  1.00  0.00    -0.008 A 
HETATM   35  C20 UNL     1     -10.756  54.446  20.643  1.00  0.00     0.041 C 
HETATM   36  S2  UNL     1      -7.598  56.622  20.157  1.00  0.00    -0.075 SA
HETATM   37  C17 UNL     1      -9.754  56.734  22.075  1.00  0.00     0.047 C 
HETATM   38  C18 UNL     1     -10.921  55.941  22.540  1.00  0.00     0.005 C 
HETATM   39  C19 UNL     1     -10.769  54.498  22.159  1.00  0.00     0.005 C 
HETATM   40  N7  UNL     1      -6.641  55.182  17.899  1.00  0.00    -0.330 N 
ATOM     41  H7  UNL     1      -5.813  55.767  17.788  1.00  0.00     0.168 HD
ENDBRANCH  25  26
ENDBRANCH  24  25
ENDBRANCH  23  24
ENDBRANCH  22  23
ENDBRANCH  18  22
BRANCH  21  42
HETATM   42  N9  UNL     1      -5.887  47.135  17.142  1.00  0.00    -0.338 N 
ATOM     43  H92 UNL     1      -5.658  46.361  17.766  1.00  0.00     0.177 HD
ATOM     44  H91 UNL     1      -6.138  46.757  16.229  1.00  0.00     0.177 HD
ENDBRANCH  21  42
ENDBRANCH  15  16
ENDBRANCH   8  15
TORSDOF 11
ENDMDL
MODEL 4
REMARK VINA RESULT: -7.516452263      2.869      6.608
REMARK  11 active torsions:
REMARK  status: ('A' for Active; 'I' for Inactive)
REMARK    1  A    between atoms: C2_2  and  O1_3 
REMARK    2  A    between atoms: C2_2  and  O2_5 
REMARK    3  A    between atoms: O2_5  and  N1_6 
REMARK       I    between atoms: N1_6  and  C3_8 
REMARK       I    between atoms: C3_8  and  N4_13 
REMARK    4  A    between atoms: N4_13  and  C5_15 
REMARK    5  A    between atoms: C5_15  and  C6_16 
REMARK    6  A    between atoms: C7_19  and  C8_20 
REMARK    7  A    between atoms: C8_20  and  C9_21 
REMARK    8  A    between atoms: C9_21  and  C10_22 
REMARK    9  A    between atoms: C10_22  and  S1_23 
REMARK   10  A    between atoms: S1_23  and  C11_24 
REMARK   11  A    between atoms: N8_41  and  N9_42 
ROOT
HETATM    1  N1  UNL     1      -8.916  48.064  20.751  1.00  0.00    -0.093 N 
ATOM      2  H1  UNL     1      -8.635  48.749  21.453  1.00  0.00     0.213 HD
HETATM    3  C3  UNL     1      -9.367  48.544  19.485  1.00  0.00     0.707 C 
HETATM    4  N2  UNL     1     -10.264  49.460  19.403  1.00  0.00    -0.124 N 
ATOM      5  H2  UNL     1     -10.538  49.754  18.466  1.00  0.00     0.197 HD
HETATM    6  C4  UNL     1     -10.889  50.081  20.462  1.00  0.00     0.196 C 
HETATM    7  N3  UNL     1     -11.423  50.610  21.336  1.00  0.00    -0.171 NA
HETATM    8  N4  UNL     1      -8.825  48.005  18.292  1.00  0.00    -0.217 N 
ATOM      9  H4  UNL     1      -8.849  46.991  18.186  1.00  0.00     0.178 HD
ENDROOT
BRANCH   1  10
HETATM   10  O2  UNL     1      -8.839  46.756  21.075  1.00  0.00    -0.234 OA
BRANCH  10  11
HETATM   11  C2  UNL     1      -7.525  46.350  21.032  1.00  0.00     0.282 C 
HETATM   12  C1  UNL     1      -6.561  47.449  21.493  1.00  0.00     0.073 C 
BRANCH  11  13
HETATM   13  O1  UNL     1      -7.191  46.008  19.702  1.00  0.00    -0.369 OA
ATOM     14  H1  UNL     1      -7.660  45.212  19.478  1.00  0.00     0.212 HD
ENDBRANCH  11  13
ENDBRANCH  10  11
ENDBRANCH   1  10
BRANCH   8  15
HETATM   15  C5  UNL     1      -8.245  48.762  17.220  1.00  0.00     0.216 C 
BRANCH  15  16
HETATM   16  C6  UNL     1      -6.843  49.134  17.551  1.00  0.00     0.121 A 
HETATM   17  N5  UNL     1      -6.447  50.362  17.855  1.00  0.00    -0.345 N 
HETATM   18  C7  UNL     1      -5.124  50.375  18.118  1.00  0.00     0.028 A 
ATOM     19  H5  UNL     1      -7.056  51.180  17.886  1.00  0.00     0.167 HD
HETATM   20  C21 UNL     1      -4.690  49.095  17.966  1.00  0.00     0.142 A 
HETATM   21  N8  UNL     1      -5.762  48.342  17.617  1.00  0.00    -0.258 N 
BRANCH  18  22
HETATM   22  C8  UNL     1      -4.354  51.558  18.460  1.00  0.00     0.059 C 
BRANCH  22  23
HETATM   23  C9  UNL     1      -4.051  52.504  17.356  1.00  0.00     0.017 C 
BRANCH  23  24
HETATM   24  C10 UNL     1      -5.058  53.596  17.146  1.00  0.00     0.082 C 
BRANCH  24  25
HETATM   25  S1  UNL     1      -5.743  53.404  15.465  1.00  0.00    -0.094 SA
BRANCH  25  26
HETATM   26  C11 UNL     1      -7.373  52.698  15.598  1.00  0.00     0.147 A 
HETATM   27  N6  UNL     1      -7.893  51.810  14.770  1.00  0.00    -0.303 N 
HETATM   28  C12 UNL     1      -9.124  51.294  14.879  1.00  0.00     0.261 A 
ATOM     29  H6  UNL     1      -7.315  51.495  13.991  1.00  0.00     0.171 HD
HETATM   30  O3  UNL     1      -9.488  50.450  14.009  1.00  0.00    -0.267 OA
HETATM   31  C13 UNL     1      -9.970  51.691  15.939  1.00  0.00     0.073 A 
HETATM   32  C14 UNL     1     -11.241  51.286  16.214  1.00  0.00    -0.026 A 
HETATM   33  C16 UNL     1      -9.418  52.611  16.788  1.00  0.00     0.092 A 
HETATM   34  C15 UNL     1     -11.845  51.835  17.310  1.00  0.00    -0.008 A 
HETATM   35  C20 UNL     1     -12.106  50.278  15.458  1.00  0.00     0.041 C 
HETATM   36  S2  UNL     1     -10.663  52.880  17.927  1.00  0.00    -0.075 SA
HETATM   37  C17 UNL     1     -13.220  51.544  17.791  1.00  0.00     0.047 C 
HETATM   38  C18 UNL     1     -13.901  50.436  17.074  1.00  0.00     0.005 C 
HETATM   39  C19 UNL     1     -12.899  49.490  16.483  1.00  0.00     0.005 C 
HETATM   40  N7  UNL     1      -8.147  53.103  16.620  1.00  0.00    -0.330 N 
ATOM     41  H7  UNL     1      -7.783  53.788  17.282  1.00  0.00     0.168 HD
ENDBRANCH  25  26
ENDBRANCH  24  25
ENDBRANCH  23  24
ENDBRANCH  22  23
ENDBRANCH  18  22
BRANCH  21  42
HETATM   42  N9  UNL     1      -5.752  46.959  17.368  1.00  0.00    -0.338 N 
ATOM     43  H92 UNL     1      -4.984  46.430  16.956  1.00  0.00     0.177 HD
ATOM     44  H91 UNL     1      -6.517  46.317  17.576  1.00  0.00     0.177 HD
ENDBRANCH  21  42
ENDBRANCH  15  16
ENDBRANCH   8  15
TORSDOF 11
ENDMDL
MODEL 5
REMARK VINA RESULT: -7.501833780      3.186      7.896
REMARK  11 active torsions:
REMARK  status: ('A' for Active; 'I' for Inactive)
REMARK    1  A    between atoms: C2_2  and  O1_3 
REMARK    2  A    between atoms: C2_2  and  O2_5 
REMARK    3  A    between atoms: O2_5  and  N1_6 
REMARK       I    between atoms: N1_6  and  C3_8 
REMARK       I    between atoms: C3_8  and  N4_13 
REMARK    4  A    between atoms: N4_13  and  C5_15 
REMARK    5  A    between atoms: C5_15  and  C6_16 
REMARK    6  A    between atoms: C7_19  and  C8_20 
REMARK    7  A    between atoms: C8_20  and  C9_21 
REMARK    8  A    between atoms: C9_21  and  C10_22 
REMARK    9  A    between atoms: C10_22  and  S1_23 
REMARK   10  A    between atoms: S1_23  and  C11_24 
REMARK   11  A    between atoms: N8_41  and  N9_42 
ROOT
HETATM    1  N1  UNL     1      -7.048  48.475  17.010  1.00  0.00    -0.093 N 
ATOM      2  H1  UNL     1      -7.758  48.705  17.706  1.00  0.00     0.213 HD
HETATM    3  C3  UNL     1      -6.968  49.288  15.839  1.00  0.00     0.707 C 
HETATM    4  N2  UNL     1      -8.012  49.555  15.142  1.00  0.00    -0.124 N 
ATOM      5  H2  UNL     1      -7.881  50.142  14.319  1.00  0.00     0.197 HD
HETATM    6  C4  UNL     1      -9.295  49.124  15.405  1.00  0.00     0.196 C 
HETATM    7  N3  UNL     1     -10.374  48.772  15.608  1.00  0.00    -0.171 NA
HETATM    8  N4  UNL     1      -5.716  49.810  15.428  1.00  0.00    -0.217 N 
ATOM      9  H4  UNL     1      -4.950  49.147  15.313  1.00  0.00     0.178 HD
ENDROOT
BRANCH   1  10
HETATM   10  O2  UNL     1      -6.242  47.421  17.251  1.00  0.00    -0.234 OA
BRANCH  10  11
HETATM   11  C2  UNL     1      -5.627  47.583  18.470  1.00  0.00     0.282 C 
HETATM   12  C1  UNL     1      -6.006  46.480  19.464  1.00  0.00     0.073 C 
BRANCH  11  13
HETATM   13  O1  UNL     1      -6.020  48.822  19.024  1.00  0.00    -0.369 OA
ATOM     14  H1  UNL     1      -6.757  49.148  18.521  1.00  0.00     0.212 HD
ENDBRANCH  11  13
ENDBRANCH  10  11
ENDBRANCH   1  10
BRANCH   8  15
HETATM   15  C5  UNL     1      -5.433  51.191  15.159  1.00  0.00     0.216 C 
BRANCH  15  16
HETATM   16  C6  UNL     1      -5.881  52.040  16.296  1.00  0.00     0.121 A 
HETATM   17  N5  UNL     1      -6.892  52.896  16.237  1.00  0.00    -0.345 N 
HETATM   18  C7  UNL     1      -7.059  53.504  17.429  1.00  0.00     0.028 A 
ATOM     19  H5  UNL     1      -7.462  53.069  15.409  1.00  0.00     0.167 HD
HETATM   20  C21 UNL     1      -6.104  52.997  18.256  1.00  0.00     0.142 A 
HETATM   21  N8  UNL     1      -5.387  52.095  17.542  1.00  0.00    -0.258 N 
BRANCH  18  22
HETATM   22  C8  UNL     1      -8.058  54.519  17.714  1.00  0.00     0.059 C 
BRANCH  22  23
HETATM   23  C9  UNL     1      -9.046  54.207  18.779  1.00  0.00     0.017 C 
BRANCH  23  24
HETATM   24  C10 UNL     1     -10.481  54.190  18.343  1.00  0.00     0.082 C 
BRANCH  24  25
HETATM   25  S1  UNL     1     -10.797  52.583  17.535  1.00  0.00    -0.094 SA
BRANCH  25  26
HETATM   26  C11 UNL     1     -10.553  51.291  18.737  1.00  0.00     0.147 A 
HETATM   27  N6  UNL     1      -9.870  50.178  18.537  1.00  0.00    -0.303 N 
HETATM   28  C12 UNL     1      -9.701  49.212  19.448  1.00  0.00     0.261 A 
ATOM     29  H6  UNL     1      -9.440  50.046  17.621  1.00  0.00     0.171 HD
HETATM   30  O3  UNL     1      -9.020  48.199  19.114  1.00  0.00    -0.267 OA
HETATM   31  C13 UNL     1     -10.271  49.341  20.734  1.00  0.00     0.073 A 
HETATM   32  C14 UNL     1     -10.214  48.474  21.784  1.00  0.00    -0.026 A 
HETATM   33  C16 UNL     1     -10.976  50.498  20.927  1.00  0.00     0.092 A 
HETATM   34  C15 UNL     1     -10.865  48.841  22.928  1.00  0.00    -0.008 A 
HETATM   35  C20 UNL     1      -9.507  47.123  21.868  1.00  0.00     0.041 C 
HETATM   36  S2  UNL     1     -11.529  50.349  22.537  1.00  0.00    -0.075 SA
HETATM   37  C17 UNL     1     -10.938  48.053  24.186  1.00  0.00     0.047 C 
HETATM   38  C18 UNL     1     -10.083  46.839  24.202  1.00  0.00     0.005 C 
HETATM   39  C19 UNL     1      -8.923  46.993  23.262  1.00  0.00     0.005 C 
HETATM   40  N7  UNL     1     -11.113  51.451  19.948  1.00  0.00    -0.330 N 
ATOM     41  H7  UNL     1     -11.650  52.296  20.144  1.00  0.00     0.168 HD
ENDBRANCH  25  26
ENDBRANCH  24  25
ENDBRANCH  23  24
ENDBRANCH  22  23
ENDBRANCH  18  22
BRANCH  21  42
HETATM   42  N9  UNL     1      -4.305  51.337  18.022  1.00  0.00    -0.338 N 
ATOM     43  H92 UNL     1      -3.570  50.917  17.454  1.00  0.00     0.177 HD
ATOM     44  H91 UNL     1      -4.127  51.119  19.002  1.00  0.00     0.177 HD
ENDBRANCH  21  42
ENDBRANCH  15  16
ENDBRANCH   8  15
TORSDOF 11
ENDMDL
