MODEL 1
REMARK VINA RESULT: -6.180797271      0.000      0.000
REMARK  2 active torsions:
REMARK  status: ('A' for Active; 'I' for Inactive)
REMARK    1  A    between atoms: C2_2  and  C4_4 
REMARK    2  A    between atoms: N3_11  and  C6_12 
ROOT
HETATM    1  C4  UNL     1      69.117  49.663   7.270  1.00  0.00     0.104 A 
HETATM    2  N1  UNL     1      68.194  49.164   6.425  1.00  0.00    -0.286 N 
ATOM      3  H1  UNL     1      68.379  48.787   5.496  1.00  0.00     0.188 HD
HETATM    4  N2  UNL     1      67.005  49.247   7.005  1.00  0.00    -0.275 N 
ATOM      5  H2  UNL     1      66.114  48.948   6.610  1.00  0.00     0.189 HD
HETATM    6  C5  UNL     1      67.200  49.802   8.216  1.00  0.00     0.194 A 
HETATM    7  S1  UNL     1      66.011  50.094   9.273  1.00  0.00    -0.039 SA
HETATM    8  N3  UNL     1      68.496  50.072   8.410  1.00  0.00    -0.306 N 
ENDROOT
BRANCH   8   9
HETATM    9  C6  UNL     1      69.168  50.650   9.516  1.00  0.00     0.093 C 
HETATM   10  C7  UNL     1      68.638  51.952   9.993  1.00  0.00     0.026 C 
HETATM   11  C8  UNL     1      69.728  52.575  10.881  1.00  0.00     0.002 C 
HETATM   12  C9  UNL     1      69.947  51.661  12.088  1.00  0.00     0.000 C 
HETATM   13  C10 UNL     1      70.395  50.322  11.590  1.00  0.00     0.002 C 
HETATM   14  C11 UNL     1      69.279  49.724  10.720  1.00  0.00     0.026 C 
ENDBRANCH   8   9
BRANCH   1  15
HETATM   15  C2  UNL     1      70.559  49.724   6.938  1.00  0.00     0.047 C 
HETATM   16  C1  UNL     1      70.744  49.974   5.450  1.00  0.00     0.017 C 
HETATM   17  C3  UNL     1      71.186  48.373   7.271  1.00  0.00     0.017 C 
ENDBRANCH   1  15
TORSDOF 2
ENDMDL
MODEL 2
REMARK VINA RESULT: -6.138099920      3.484      5.256
REMARK  2 active torsions:
REMARK  status: ('A' for Active; 'I' for Inactive)
REMARK    1  A    between atoms: C2_2  and  C4_4 
REMARK    2  A    between atoms: N3_11  and  C6_12 
ROOT
HETATM    1  C4  UNL     1      72.715  49.470  11.289  1.00  0.00     0.104 A 
HETATM    2  N1  UNL     1      73.972  49.198  10.887  1.00  0.00    -0.286 N 
ATOM      3  H1  UNL     1      74.732  48.877  11.486  1.00  0.00     0.188 HD
HETATM    4  N2  UNL     1      74.052  49.417   9.582  1.00  0.00    -0.275 N 
ATOM      5  H2  UNL     1      74.878  49.298   8.996  1.00  0.00     0.189 HD
HETATM    6  C5  UNL     1      72.835  49.827   9.180  1.00  0.00     0.194 A 
HETATM    7  S1  UNL     1      72.475  50.211   7.650  1.00  0.00    -0.039 SA
HETATM    8  N3  UNL     1      71.985  49.872  10.212  1.00  0.00    -0.306 N 
ENDROOT
BRANCH   8   9
HETATM    9  C6  UNL     1      70.617  50.238  10.274  1.00  0.00     0.093 C 
HETATM   10  C7  UNL     1      69.658  49.133  10.523  1.00  0.00     0.026 C 
HETATM   11  C8  UNL     1      68.265  49.661  10.141  1.00  0.00     0.002 C 
HETATM   12  C9  UNL     1      67.922  50.829  11.069  1.00  0.00     0.000 C 
HETATM   13  C10 UNL     1      68.948  51.901  10.876  1.00  0.00     0.002 C 
HETATM   14  C11 UNL     1      70.322  51.344  11.278  1.00  0.00     0.026 C 
ENDBRANCH   8   9
BRANCH   1  15
HETATM   15  C2  UNL     1      72.276  49.331  12.696  1.00  0.00     0.047 C 
HETATM   16  C1  UNL     1      72.888  50.430  13.549  1.00  0.00     0.017 C 
HETATM   17  C3  UNL     1      72.775  47.989  13.225  1.00  0.00     0.017 C 
ENDBRANCH   1  15
TORSDOF 2
ENDMDL
MODEL 3
REMARK VINA RESULT: -6.107401991      2.216      4.220
REMARK  2 active torsions:
REMARK  status: ('A' for Active; 'I' for Inactive)
REMARK    1  A    between atoms: C2_2  and  C4_4 
REMARK    2  A    between atoms: N3_11  and  C6_12 
ROOT
HETATM    1  C4  UNL     1      69.124  51.686   9.148  1.00  0.00     0.104 A 
HETATM    2  N1  UNL     1      67.827  51.600   8.797  1.00  0.00    -0.286 N 
ATOM      3  H1  UNL     1      67.092  52.254   9.065  1.00  0.00     0.188 HD
HETATM    4  N2  UNL     1      67.666  50.521   8.043  1.00  0.00    -0.275 N 
ATOM      5  H2  UNL     1      66.794  50.193   7.629  1.00  0.00     0.189 HD
HETATM    6  C5  UNL     1      68.875  49.940   7.931  1.00  0.00     0.194 A 
HETATM    7  S1  UNL     1      69.148  48.584   7.093  1.00  0.00    -0.039 SA
HETATM    8  N3  UNL     1      69.799  50.636   8.604  1.00  0.00    -0.306 N 
ENDROOT
BRANCH   8   9
HETATM    9  C6  UNL     1      71.189  50.415   8.772  1.00  0.00     0.093 C 
HETATM   10  C7  UNL     1      71.565  49.231   9.585  1.00  0.00     0.026 C 
HETATM   11  C8  UNL     1      73.041  49.416   9.980  1.00  0.00     0.002 C 
HETATM   12  C9  UNL     1      73.883  49.425   8.702  1.00  0.00     0.000 C 
HETATM   13  C10 UNL     1      73.432  50.568   7.848  1.00  0.00     0.002 C 
HETATM   14  C11 UNL     1      71.963  50.344   7.463  1.00  0.00     0.026 C 
ENDBRANCH   8   9
BRANCH   1  15
HETATM   15  C2  UNL     1      69.654  52.779   9.994  1.00  0.00     0.047 C 
HETATM   16  C1  UNL     1      69.566  52.397  11.462  1.00  0.00     0.017 C 
HETATM   17  C3  UNL     1      68.791  54.019   9.775  1.00  0.00     0.017 C 
ENDBRANCH   1  15
TORSDOF 2
ENDMDL
MODEL 4
REMARK VINA RESULT: -5.990349436      3.444      5.104
REMARK  2 active torsions:
REMARK  status: ('A' for Active; 'I' for Inactive)
REMARK    1  A    between atoms: C2_2  and  C4_4 
REMARK    2  A    between atoms: N3_11  and  C6_12 
ROOT
HETATM    1  C4  UNL     1      72.065  49.933  12.023  1.00  0.00     0.104 A 
HETATM    2  N1  UNL     1      73.156  49.338  11.502  1.00  0.00    -0.286 N 
ATOM      3  H1  UNL     1      73.947  48.975  12.033  1.00  0.00     0.188 HD
HETATM    4  N2  UNL     1      73.027  49.306  10.183  1.00  0.00    -0.275 N 
ATOM      5  H2  UNL     1      73.693  48.917   9.517  1.00  0.00     0.189 HD
HETATM    6  C5  UNL     1      71.847  49.886   9.892  1.00  0.00     0.194 A 
HETATM    7  S1  UNL     1      71.280  50.065   8.388  1.00  0.00    -0.039 SA
HETATM    8  N3  UNL     1      71.228  50.286  11.009  1.00  0.00    -0.306 N 
ENDROOT
BRANCH   8   9
HETATM    9  C6  UNL     1      69.983  50.935  11.198  1.00  0.00     0.093 C 
HETATM   10  C7  UNL     1      69.861  52.293  10.611  1.00  0.00     0.026 C 
HETATM   11  C8  UNL     1      68.640  52.954  11.273  1.00  0.00     0.002 C 
HETATM   12  C9  UNL     1      67.395  52.144  10.904  1.00  0.00     0.000 C 
HETATM   13  C10 UNL     1      67.568  50.751  11.422  1.00  0.00     0.002 C 
HETATM   14  C11 UNL     1      68.785  50.118  10.732  1.00  0.00     0.026 C 
ENDBRANCH   8   9
BRANCH   1  15
HETATM   15  C2  UNL     1      71.880  50.135  13.478  1.00  0.00     0.047 C 
HETATM   16  C1  UNL     1      72.106  51.594  13.838  1.00  0.00     0.017 C 
HETATM   17  C3  UNL     1      72.923  49.299  14.216  1.00  0.00     0.017 C 
ENDBRANCH   1  15
TORSDOF 2
ENDMDL
MODEL 5
REMARK VINA RESULT: -5.972309680      2.765      4.523
REMARK  2 active torsions:
REMARK  status: ('A' for Active; 'I' for Inactive)
REMARK    1  A    between atoms: C2_2  and  C4_4 
REMARK    2  A    between atoms: N3_11  and  C6_12 
ROOT
HETATM    1  C4  UNL     1      69.914  50.876  11.461  1.00  0.00     0.104 A 
HETATM    2  N1  UNL     1      69.980  49.551  11.230  1.00  0.00    -0.286 N 
ATOM      3  H1  UNL     1      70.605  48.894  11.696  1.00  0.00     0.188 HD
HETATM    4  N2  UNL     1      69.095  49.244  10.291  1.00  0.00    -0.275 N 
ATOM      5  H2  UNL     1      68.914  48.317   9.906  1.00  0.00     0.189 HD
HETATM    6  C5  UNL     1      68.481  50.390   9.945  1.00  0.00     0.194 A 
HETATM    7  S1  UNL     1      67.319  50.485   8.823  1.00  0.00    -0.039 SA
HETATM    8  N3  UNL     1      68.965  51.419  10.650  1.00  0.00    -0.306 N 
ENDROOT
BRANCH   8   9
HETATM    9  C6  UNL     1      68.633  52.797  10.631  1.00  0.00     0.093 C 
HETATM   10  C7  UNL     1      68.856  53.502   9.344  1.00  0.00     0.026 C 
HETATM   11  C8  UNL     1      68.836  55.009   9.656  1.00  0.00     0.002 C 
HETATM   12  C9  UNL     1      67.447  55.373  10.183  1.00  0.00     0.000 C 
HETATM   13  C10 UNL     1      67.196  54.587  11.432  1.00  0.00     0.002 C 
HETATM   14  C11 UNL     1      67.209  53.092  11.082  1.00  0.00     0.026 C 
ENDBRANCH   8   9
BRANCH   1  15
HETATM   15  C2  UNL     1      70.771  51.559  12.457  1.00  0.00     0.047 C 
HETATM   16  C1  UNL     1      71.883  50.631  12.917  1.00  0.00     0.017 C 
HETATM   17  C3  UNL     1      69.914  51.907  13.671  1.00  0.00     0.017 C 
ENDBRANCH   1  15
TORSDOF 2
ENDMDL
