MODEL 1
REMARK VINA RESULT: -5.733185848      0.000      0.000
REMARK  5 active torsions:
REMARK  status: ('A' for Active; 'I' for Inactive)
REMARK    1  A    between atoms: O1_1  and  C1_3 
REMARK    2  A    between atoms: N1_5  and  C3_6 
REMARK    3  A    between atoms: C3_6  and  C4_7 
REMARK    4  A    between atoms: C5_9  and  O2_10 
REMARK    5  A    between atoms: C6_12  and  O3_13 
ROOT
HETATM    1  C1  UNL     1     -20.468  -2.380 -19.823  1.00  0.00     0.169 C 
HETATM    2  C2  UNL     1     -20.820  -0.977 -19.278  1.00  0.00     0.159 C 
HETATM    3  N1  UNL     1     -19.618  -0.304 -19.384  1.00  0.00    -0.362 N 
HETATM    4  C5  UNL     1     -18.507  -1.112 -19.695  1.00  0.00     0.251 C 
HETATM    5  C6  UNL     1     -18.992  -2.526 -19.524  1.00  0.00     0.197 C 
ENDROOT
BRANCH   3   6
HETATM    6  C3  UNL     1     -19.407   1.029 -19.101  1.00  0.00     0.071 C 
BRANCH   6   7
HETATM    7  C4  UNL     1     -20.467   1.639 -18.222  1.00  0.00     0.129 C 
HETATM    8 BR1  UNL     1     -21.569   2.926 -19.085  1.00  0.00    -0.091 Br
ENDBRANCH   6   7
ENDBRANCH   3   6
BRANCH   4   9
HETATM    9  O2  UNL     1     -17.995  -0.926 -20.973  1.00  0.00    -0.374 OA
ATOM     10  H2  UNL     1     -17.311  -0.270 -21.035  1.00  0.00     0.212 HD
ENDBRANCH   4   9
BRANCH   1  11
HETATM   11  O1  UNL     1     -20.674  -2.477 -21.176  1.00  0.00    -0.391 OA
ATOM     12  H1  UNL     1     -20.147  -3.161 -21.571  1.00  0.00     0.210 HD
ENDBRANCH   1  11
BRANCH   5  13
HETATM   13  O3  UNL     1     -18.869  -3.000 -18.221  1.00  0.00    -0.389 OA
ATOM     14  H3  UNL     1     -18.042  -3.464 -18.159  1.00  0.00     0.210 HD
ENDBRANCH   5  13
TORSDOF 5
ENDMDL
MODEL 2
REMARK VINA RESULT: -5.191137845      3.211      4.192
REMARK  5 active torsions:
REMARK  status: ('A' for Active; 'I' for Inactive)
REMARK    1  A    between atoms: O1_1  and  C1_3 
REMARK    2  A    between atoms: N1_5  and  C3_6 
REMARK    3  A    between atoms: C3_6  and  C4_7 
REMARK    4  A    between atoms: C5_9  and  O2_10 
REMARK    5  A    between atoms: C6_12  and  O3_13 
ROOT
HETATM    1  C1  UNL     1     -21.831   1.644 -18.706  1.00  0.00     0.169 C 
HETATM    2  C2  UNL     1     -20.333   1.342 -18.936  1.00  0.00     0.159 C 
HETATM    3  N1  UNL     1     -20.326  -0.026 -19.121  1.00  0.00    -0.362 N 
HETATM    4  C5  UNL     1     -21.542  -0.675 -18.825  1.00  0.00     0.251 C 
HETATM    5  C6  UNL     1     -22.372   0.360 -18.115  1.00  0.00     0.197 C 
ENDROOT
BRANCH   3   6
HETATM    6  C3  UNL     1     -19.230  -0.796 -19.448  1.00  0.00     0.071 C 
BRANCH   6   7
HETATM    7  C4  UNL     1     -19.233  -2.159 -18.808  1.00  0.00     0.129 C 
HETATM    8 BR1  UNL     1     -19.456  -3.606 -20.022  1.00  0.00    -0.091 Br
ENDBRANCH   6   7
ENDBRANCH   3   6
BRANCH   4   9
HETATM    9  O2  UNL     1     -22.222  -1.166 -19.931  1.00  0.00    -0.374 OA
ATOM     10  H2  UNL     1     -22.999  -0.674 -20.170  1.00  0.00     0.212 HD
ENDBRANCH   4   9
BRANCH   1  11
HETATM   11  O1  UNL     1     -22.489   1.924 -19.876  1.00  0.00    -0.391 OA
ATOM     12  H1  UNL     1     -23.272   1.397 -19.983  1.00  0.00     0.210 HD
ENDBRANCH   1  11
BRANCH   5  13
HETATM   13  O3  UNL     1     -22.153   0.401 -16.740  1.00  0.00    -0.389 OA
ATOM     14  H3  UNL     1     -22.842  -0.103 -16.323  1.00  0.00     0.210 HD
ENDBRANCH   5  13
TORSDOF 5
ENDMDL
MODEL 3
REMARK VINA RESULT: -5.111807398      3.328      4.551
REMARK  5 active torsions:
REMARK  status: ('A' for Active; 'I' for Inactive)
REMARK    1  A    between atoms: O1_1  and  C1_3 
REMARK    2  A    between atoms: N1_5  and  C3_6 
REMARK    3  A    between atoms: C3_6  and  C4_7 
REMARK    4  A    between atoms: C5_9  and  O2_10 
REMARK    5  A    between atoms: C6_12  and  O3_13 
ROOT
HETATM    1  C1  UNL     1     -19.061   2.134 -18.775  1.00  0.00     0.169 C 
HETATM    2  C2  UNL     1     -19.164   0.592 -18.782  1.00  0.00     0.159 C 
HETATM    3  N1  UNL     1     -20.526   0.381 -18.870  1.00  0.00    -0.362 N 
HETATM    4  C5  UNL     1     -21.321   1.532 -18.692  1.00  0.00     0.251 C 
HETATM    5  C6  UNL     1     -20.375   2.581 -18.173  1.00  0.00     0.197 C 
ENDROOT
BRANCH   3   6
HETATM    6  C3  UNL     1     -21.153  -0.841 -18.993  1.00  0.00     0.071 C 
BRANCH   6   7
HETATM    7  C4  UNL     1     -20.210  -1.981 -19.269  1.00  0.00     0.129 C 
HETATM    8 BR1  UNL     1     -20.740  -3.122 -20.696  1.00  0.00    -0.091 Br
ENDBRANCH   6   7
ENDBRANCH   3   6
BRANCH   4   9
HETATM    9  O2  UNL     1     -21.958   1.980 -19.842  1.00  0.00    -0.374 OA
ATOM     10  H2  UNL     1     -21.560   2.744 -20.243  1.00  0.00     0.212 HD
ENDBRANCH   4   9
BRANCH   1  11
HETATM   11  O1  UNL     1     -18.935   2.651 -20.038  1.00  0.00    -0.391 OA
ATOM     12  H1  UNL     1     -18.037   2.628 -20.348  1.00  0.00     0.210 HD
ENDBRANCH   1  11
BRANCH   5  13
HETATM   13  O3  UNL     1     -20.234   2.564 -16.787  1.00  0.00    -0.389 OA
ATOM     14  H3  UNL     1     -20.774   1.858 -16.451  1.00  0.00     0.210 HD
ENDBRANCH   5  13
TORSDOF 5
ENDMDL
MODEL 4
REMARK VINA RESULT: -5.102930987      4.156      4.969
REMARK  5 active torsions:
REMARK  status: ('A' for Active; 'I' for Inactive)
REMARK    1  A    between atoms: O1_1  and  C1_3 
REMARK    2  A    between atoms: N1_5  and  C3_6 
REMARK    3  A    between atoms: C3_6  and  C4_7 
REMARK    4  A    between atoms: C5_9  and  O2_10 
REMARK    5  A    between atoms: C6_12  and  O3_13 
ROOT
HETATM    1  C1  UNL     1     -24.267   0.162 -19.653  1.00  0.00     0.169 C 
HETATM    2  C2  UNL     1     -22.768  -0.174 -19.483  1.00  0.00     0.159 C 
HETATM    3  N1  UNL     1     -22.263   0.980 -18.918  1.00  0.00    -0.362 N 
HETATM    4  C5  UNL     1     -23.148   2.077 -18.908  1.00  0.00     0.251 C 
HETATM    5  C6  UNL     1     -24.286   1.668 -19.804  1.00  0.00     0.197 C 
ENDROOT
BRANCH   3   6
HETATM    6  C3  UNL     1     -20.968   1.174 -18.486  1.00  0.00     0.071 C 
BRANCH   6   7
HETATM    7  C4  UNL     1     -20.290   2.362 -19.114  1.00  0.00     0.129 C 
HETATM    8 BR1  UNL     1     -18.423   2.483 -18.773  1.00  0.00    -0.091 Br
ENDBRANCH   6   7
ENDBRANCH   3   6
BRANCH   4   9
HETATM    9  O2  UNL     1     -23.624   2.426 -17.650  1.00  0.00    -0.374 OA
ATOM     10  H2  UNL     1     -24.392   1.944 -17.369  1.00  0.00     0.212 HD
ENDBRANCH   4   9
BRANCH   1  11
HETATM   11  O1  UNL     1     -25.007  -0.198 -18.557  1.00  0.00    -0.391 OA
ATOM     12  H1  UNL     1     -25.939  -0.217 -18.742  1.00  0.00     0.210 HD
ENDBRANCH   1  11
BRANCH   5  13
HETATM   13  O3  UNL     1     -24.066   1.962 -21.148  1.00  0.00    -0.389 OA
ATOM     14  H3  UNL     1     -23.201   1.643 -21.376  1.00  0.00     0.210 HD
ENDBRANCH   5  13
TORSDOF 5
ENDMDL
MODEL 5
REMARK VINA RESULT: -5.004441564      3.900      4.966
REMARK  5 active torsions:
REMARK  status: ('A' for Active; 'I' for Inactive)
REMARK    1  A    between atoms: O1_1  and  C1_3 
REMARK    2  A    between atoms: N1_5  and  C3_6 
REMARK    3  A    between atoms: C3_6  and  C4_7 
REMARK    4  A    between atoms: C5_9  and  O2_10 
REMARK    5  A    between atoms: C6_12  and  O3_13 
ROOT
HETATM    1  C1  UNL     1     -24.091   0.243 -19.529  1.00  0.00     0.169 C 
HETATM    2  C2  UNL     1     -23.056  -0.811 -19.985  1.00  0.00     0.159 C 
HETATM    3  N1  UNL     1     -22.001  -0.590 -19.121  1.00  0.00    -0.362 N 
HETATM    4  C5  UNL     1     -22.104   0.577 -18.339  1.00  0.00     0.251 C 
HETATM    5  C6  UNL     1     -23.244   1.352 -18.944  1.00  0.00     0.197 C 
ENDROOT
BRANCH   3   6
HETATM    6  C3  UNL     1     -20.841  -1.332 -19.051  1.00  0.00     0.071 C 
BRANCH   6   7
HETATM    7  C4  UNL     1     -20.791  -2.475 -20.029  1.00  0.00     0.129 C 
HETATM    8 BR1  UNL     1     -19.281  -3.616 -19.839  1.00  0.00    -0.091 Br
ENDBRANCH   6   7
ENDBRANCH   3   6
BRANCH   4   9
HETATM    9  O2  UNL     1     -22.335   0.352 -16.988  1.00  0.00    -0.374 OA
ATOM     10  H2  UNL     1     -21.650  -0.134 -16.545  1.00  0.00     0.212 HD
ENDBRANCH   4   9
BRANCH   1  11
HETATM   11  O1  UNL     1     -24.938  -0.243 -18.567  1.00  0.00    -0.391 OA
ATOM     12  H1  UNL     1     -24.508  -0.341 -17.725  1.00  0.00     0.210 HD
ENDBRANCH   1  11
BRANCH   5  13
HETATM   13  O3  UNL     1     -22.854   2.185 -19.990  1.00  0.00    -0.389 OA
ATOM     14  H3  UNL     1     -22.217   1.713 -20.514  1.00  0.00     0.210 HD
ENDBRANCH   5  13
TORSDOF 5
ENDMDL
