MODEL 1
REMARK VINA RESULT: -5.898316745      0.000      0.000
REMARK  7 active torsions:
REMARK  status: ('A' for Active; 'I' for Inactive)
REMARK    1  A    between atoms: N1_2  and  C2_3 
REMARK    2  A    between atoms: N1_2  and  C3_5 
REMARK    3  A    between atoms: C3_5  and  C4_6 
REMARK    4  A    between atoms: C6_9  and  C7_10 
REMARK    5  A    between atoms: C7_10  and  O1_11 
REMARK    6  A    between atoms: C8_13  and  O2_14 
REMARK    7  A    between atoms: C9_16  and  O3_17 
ROOT
HETATM    1  C4  UNL     1     -21.032  -0.371 -18.930  1.00  0.00     0.044 C 
HETATM    2  N2  UNL     1     -20.486   0.769 -19.104  1.00  0.00    -0.379 N 
HETATM    3  C5  UNL     1     -19.064   0.930 -19.296  1.00  0.00     0.150 C 
HETATM    4  C6  UNL     1     -21.394   1.833 -19.121  1.00  0.00     0.138 C 
HETATM    5  C8  UNL     1     -22.695   1.273 -18.648  1.00  0.00     0.177 C 
HETATM    6  C9  UNL     1     -22.507  -0.204 -18.784  1.00  0.00     0.196 C 
ENDROOT
BRANCH   1   7
HETATM    7  C3  UNL     1     -20.442  -1.732 -18.878  1.00  0.00     0.328 C 
BRANCH   7   8
HETATM    8  N1  UNL     1     -19.992  -2.276 -20.123  1.00  0.00     0.102 N 
HETATM    9  C1  UNL     1     -19.048  -3.366 -19.691  1.00  0.00     0.311 C 
BRANCH   8  10
HETATM   10  C2  UNL     1     -21.015  -3.071 -20.823  1.00  0.00     0.386 C 
HETATM   11 CL1  UNL     1     -20.547  -4.745 -21.043  1.00  0.00    -0.098 Cl
ENDBRANCH   8  10
ENDBRANCH   7   8
ENDBRANCH   1   7
BRANCH   6  12
HETATM   12  O3  UNL     1     -23.102  -0.585 -20.017  1.00  0.00    -0.387 OA
ATOM     13  H3  UNL     1     -23.025   0.153 -20.611  1.00  0.00     0.210 HD
ENDBRANCH   6  12
BRANCH   4  14
HETATM   14  C7  UNL     1     -20.956   3.089 -18.417  1.00  0.00     0.192 C 
BRANCH  14  15
HETATM   15  O1  UNL     1     -20.525   2.881 -17.130  1.00  0.00    -0.399 OA
ATOM     16  H1  UNL     1     -21.023   3.359 -16.478  1.00  0.00     0.209 HD
ENDBRANCH  14  15
ENDBRANCH   4  14
BRANCH   5  17
HETATM   17  O2  UNL     1     -22.986   1.623 -17.329  1.00  0.00    -0.390 OA
ATOM     18  H2  UNL     1     -23.172   0.871 -16.781  1.00  0.00     0.210 HD
ENDBRANCH   5  17
TORSDOF 7
ENDMDL
MODEL 2
REMARK VINA RESULT: -5.886849781      2.874      4.976
REMARK  7 active torsions:
REMARK  status: ('A' for Active; 'I' for Inactive)
REMARK    1  A    between atoms: N1_2  and  C2_3 
REMARK    2  A    between atoms: N1_2  and  C3_5 
REMARK    3  A    between atoms: C3_5  and  C4_6 
REMARK    4  A    between atoms: C6_9  and  C7_10 
REMARK    5  A    between atoms: C7_10  and  O1_11 
REMARK    6  A    between atoms: C8_13  and  O2_14 
REMARK    7  A    between atoms: C9_16  and  O3_17 
ROOT
HETATM    1  C4  UNL     1     -20.052   0.083 -19.322  1.00  0.00     0.044 C 
HETATM    2  N2  UNL     1     -19.356  -0.982 -19.411  1.00  0.00    -0.379 N 
HETATM    3  C5  UNL     1     -17.923  -0.964 -19.589  1.00  0.00     0.150 C 
HETATM    4  C6  UNL     1     -20.105  -2.157 -19.290  1.00  0.00     0.138 C 
HETATM    5  C8  UNL     1     -21.538  -1.744 -19.370  1.00  0.00     0.177 C 
HETATM    6  C9  UNL     1     -21.487  -0.270 -19.122  1.00  0.00     0.196 C 
ENDROOT
BRANCH   1   7
HETATM    7  C3  UNL     1     -19.651   1.511 -19.366  1.00  0.00     0.328 C 
BRANCH   7   8
HETATM    8  N1  UNL     1     -19.203   2.083 -18.132  1.00  0.00     0.102 N 
HETATM    9  C1  UNL     1     -18.020   2.912 -18.557  1.00  0.00     0.311 C 
BRANCH   8  10
HETATM   10  C2  UNL     1     -20.093   3.134 -17.612  1.00  0.00     0.386 C 
HETATM   11 CL1  UNL     1     -21.495   3.408 -18.629  1.00  0.00    -0.098 Cl
ENDBRANCH   8  10
ENDBRANCH   7   8
ENDBRANCH   1   7
BRANCH   6  12
HETATM   12  O3  UNL     1     -21.787  -0.071 -17.748  1.00  0.00    -0.387 OA
ATOM     13  H3  UNL     1     -21.316   0.703 -17.463  1.00  0.00     0.210 HD
ENDBRANCH   6  12
BRANCH   4  14
HETATM   14  C7  UNL     1     -19.723  -3.284 -20.214  1.00  0.00     0.192 C 
BRANCH  14  15
HETATM   15  O1  UNL     1     -19.755  -2.945 -21.543  1.00  0.00    -0.399 OA
ATOM     16  H1  UNL     1     -19.110  -2.292 -21.787  1.00  0.00     0.209 HD
ENDBRANCH  14  15
ENDBRANCH   4  14
BRANCH   5  17
HETATM   17  O2  UNL     1     -22.114  -2.027 -20.608  1.00  0.00    -0.390 OA
ATOM     18  H2  UNL     1     -22.903  -1.523 -20.770  1.00  0.00     0.210 HD
ENDBRANCH   5  17
TORSDOF 7
ENDMDL
MODEL 3
REMARK VINA RESULT: -5.695704786      1.748      2.676
REMARK  7 active torsions:
REMARK  status: ('A' for Active; 'I' for Inactive)
REMARK    1  A    between atoms: N1_2  and  C2_3 
REMARK    2  A    between atoms: N1_2  and  C3_5 
REMARK    3  A    between atoms: C3_5  and  C4_6 
REMARK    4  A    between atoms: C6_9  and  C7_10 
REMARK    5  A    between atoms: C7_10  and  O1_11 
REMARK    6  A    between atoms: C8_13  and  O2_14 
REMARK    7  A    between atoms: C9_16  and  O3_17 
ROOT
HETATM    1  C4  UNL     1     -20.206  -0.188 -18.935  1.00  0.00     0.044 C 
HETATM    2  N2  UNL     1     -20.764   0.757 -18.284  1.00  0.00    -0.379 N 
HETATM    3  C5  UNL     1     -22.076   0.628 -17.695  1.00  0.00     0.150 C 
HETATM    4  C6  UNL     1     -19.976   1.907 -18.173  1.00  0.00     0.138 C 
HETATM    5  C8  UNL     1     -18.831   1.716 -19.112  1.00  0.00     0.177 C 
HETATM    6  C9  UNL     1     -18.856   0.248 -19.394  1.00  0.00     0.196 C 
ENDROOT
BRANCH   1   7
HETATM    7  C3  UNL     1     -20.678  -1.559 -19.251  1.00  0.00     0.328 C 
BRANCH   7   8
HETATM    8  N1  UNL     1     -19.968  -2.252 -20.283  1.00  0.00     0.102 N 
HETATM    9  C1  UNL     1     -19.208  -3.304 -19.519  1.00  0.00     0.311 C 
BRANCH   8  10
HETATM   10  C2  UNL     1     -20.829  -3.102 -21.123  1.00  0.00     0.386 C 
HETATM   11 CL1  UNL     1     -20.424  -4.804 -21.014  1.00  0.00    -0.098 Cl
ENDBRANCH   8  10
ENDBRANCH   7   8
ENDBRANCH   1   7
BRANCH   6  12
HETATM   12  O3  UNL     1     -17.899  -0.355 -18.535  1.00  0.00    -0.387 OA
ATOM     13  H3  UNL     1     -18.233  -1.210 -18.291  1.00  0.00     0.210 HD
ENDBRANCH   6  12
BRANCH   4  14
HETATM   14  C7  UNL     1     -20.697   3.221 -18.319  1.00  0.00     0.192 C 
BRANCH  14  15
HETATM   15  O1  UNL     1     -21.391   3.343 -19.497  1.00  0.00    -0.399 OA
ATOM     16  H1  UNL     1     -22.198   3.838 -19.416  1.00  0.00     0.209 HD
ENDBRANCH  14  15
ENDBRANCH   4  14
BRANCH   5  17
HETATM   17  O2  UNL     1     -18.966   2.456 -20.287  1.00  0.00    -0.390 OA
ATOM     18  H2  UNL     1     -19.774   2.269 -20.749  1.00  0.00     0.210 HD
ENDBRANCH   5  17
TORSDOF 7
ENDMDL
MODEL 4
REMARK VINA RESULT: -5.606868726      3.545      5.759
REMARK  7 active torsions:
REMARK  status: ('A' for Active; 'I' for Inactive)
REMARK    1  A    between atoms: N1_2  and  C2_3 
REMARK    2  A    between atoms: N1_2  and  C3_5 
REMARK    3  A    between atoms: C3_5  and  C4_6 
REMARK    4  A    between atoms: C6_9  and  C7_10 
REMARK    5  A    between atoms: C7_10  and  O1_11 
REMARK    6  A    between atoms: C8_13  and  O2_14 
REMARK    7  A    between atoms: C9_16  and  O3_17 
ROOT
HETATM    1  C4  UNL     1     -20.102  -1.211 -19.475  1.00  0.00     0.044 C 
HETATM    2  N2  UNL     1     -20.936  -1.933 -20.116  1.00  0.00    -0.379 N 
HETATM    3  C5  UNL     1     -22.353  -1.658 -20.130  1.00  0.00     0.150 C 
HETATM    4  C6  UNL     1     -20.345  -2.987 -20.820  1.00  0.00     0.138 C 
HETATM    5  C8  UNL     1     -18.931  -3.061 -20.344  1.00  0.00     0.177 C 
HETATM    6  C9  UNL     1     -18.722  -1.740 -19.676  1.00  0.00     0.196 C 
ENDROOT
BRANCH   1   7
HETATM    7  C3  UNL     1     -20.306   0.000 -18.642  1.00  0.00     0.328 C 
BRANCH   7   8
HETATM    8  N1  UNL     1     -20.222   1.258 -19.320  1.00  0.00     0.102 N 
HETATM    9  C1  UNL     1     -21.534   1.913 -18.975  1.00  0.00     0.311 C 
BRANCH   8  10
HETATM   10  C2  UNL     1     -19.280   2.203 -18.695  1.00  0.00     0.386 C 
HETATM   11 CL1  UNL     1     -19.986   3.087 -17.357  1.00  0.00    -0.098 Cl
ENDBRANCH   8  10
ENDBRANCH   7   8
ENDBRANCH   1   7
BRANCH   6  12
HETATM   12  O3  UNL     1     -18.076  -0.897 -20.619  1.00  0.00    -0.387 OA
ATOM     13  H3  UNL     1     -17.661  -1.457 -21.264  1.00  0.00     0.210 HD
ENDBRANCH   6  12
BRANCH   4  14
HETATM   14  C7  UNL     1     -21.087  -4.298 -20.794  1.00  0.00     0.192 C 
BRANCH  14  15
HETATM   15  O1  UNL     1     -20.380  -5.344 -21.333  1.00  0.00    -0.399 OA
ATOM     16  H1  UNL     1     -19.558  -5.519 -20.890  1.00  0.00     0.209 HD
ENDBRANCH  14  15
ENDBRANCH   4  14
BRANCH   5  17
HETATM   17  O2  UNL     1     -18.714  -4.114 -19.456  1.00  0.00    -0.390 OA
ATOM     18  H2  UNL     1     -17.845  -4.099 -19.073  1.00  0.00     0.210 HD
ENDBRANCH   5  17
TORSDOF 7
ENDMDL
MODEL 5
REMARK VINA RESULT: -5.545848425      1.771      2.889
REMARK  7 active torsions:
REMARK  status: ('A' for Active; 'I' for Inactive)
REMARK    1  A    between atoms: N1_2  and  C2_3 
REMARK    2  A    between atoms: N1_2  and  C3_5 
REMARK    3  A    between atoms: C3_5  and  C4_6 
REMARK    4  A    between atoms: C6_9  and  C7_10 
REMARK    5  A    between atoms: C7_10  and  O1_11 
REMARK    6  A    between atoms: C8_13  and  O2_14 
REMARK    7  A    between atoms: C9_16  and  O3_17 
ROOT
HETATM    1  C4  UNL     1     -21.693   0.284 -18.703  1.00  0.00     0.044 C 
HETATM    2  N2  UNL     1     -22.918   0.413 -19.038  1.00  0.00    -0.379 N 
HETATM    3  C5  UNL     1     -23.729  -0.701 -19.467  1.00  0.00     0.150 C 
HETATM    4  C6  UNL     1     -23.399   1.721 -18.921  1.00  0.00     0.138 C 
HETATM    5  C8  UNL     1     -22.202   2.584 -18.693  1.00  0.00     0.177 C 
HETATM    6  C9  UNL     1     -21.143   1.607 -18.291  1.00  0.00     0.196 C 
ENDROOT
BRANCH   1   7
HETATM    7  C3  UNL     1     -20.822  -0.917 -18.655  1.00  0.00     0.328 C 
BRANCH   7   8
HETATM    8  N1  UNL     1     -20.248  -1.333 -19.898  1.00  0.00     0.102 N 
HETATM    9  C1  UNL     1     -18.783  -1.453 -19.567  1.00  0.00     0.311 C 
BRANCH   8  10
HETATM   10  C2  UNL     1     -20.556  -2.730 -20.251  1.00  0.00     0.386 C 
HETATM   11 CL1  UNL     1     -19.244  -3.833 -19.885  1.00  0.00    -0.098 Cl
ENDBRANCH   8  10
ENDBRANCH   7   8
ENDBRANCH   1   7
BRANCH   6  12
HETATM   12  O3  UNL     1     -21.085   1.621 -16.872  1.00  0.00    -0.387 OA
ATOM     13  H3  UNL     1     -21.974   1.524 -16.549  1.00  0.00     0.210 HD
ENDBRANCH   6  12
BRANCH   4  14
HETATM   14  C7  UNL     1     -24.314   2.191 -20.020  1.00  0.00     0.192 C 
BRANCH  14  15
HETATM   15  O1  UNL     1     -23.768   2.088 -21.276  1.00  0.00    -0.399 OA
ATOM     16  H1  UNL     1     -24.092   2.738 -21.888  1.00  0.00     0.209 HD
ENDBRANCH  14  15
ENDBRANCH   4  14
BRANCH   5  17
HETATM   17  O2  UNL     1     -21.824   3.295 -19.832  1.00  0.00    -0.390 OA
ATOM     18  H2  UNL     1     -21.855   4.236 -19.706  1.00  0.00     0.210 HD
ENDBRANCH   5  17
TORSDOF 7
ENDMDL
