MODEL 1
REMARK VINA RESULT: -4.953453262      0.000      0.000
REMARK  6 active torsions:
REMARK  status: ('A' for Active; 'I' for Inactive)
REMARK    1  A    between atoms: N1_2  and  C4_5 
REMARK    2  A    between atoms: C4_5  and  C5_6 
REMARK    3  A    between atoms: C7_10  and  N2_11 
REMARK    4  A    between atoms: N2_11  and  O2_13 
REMARK    5  A    between atoms: C8_15  and  O3_16 
REMARK    6  A    between atoms: C9_18  and  O4_19 
ROOT
HETATM    1  C5  UNL     1      17.333 -21.879 -27.387  1.00  0.00     0.182 C 
HETATM    2  O1  UNL     1      16.583 -22.293 -26.334  1.00  0.00    -0.345 OA
HETATM    3  C6  UNL     1      15.366 -21.731 -26.158  1.00  0.00     0.334 C 
HETATM    4  F1  UNL     1      15.382 -20.481 -25.564  1.00  0.00    -0.217 F 
HETATM    5  C7  UNL     1      14.518 -21.626 -27.395  1.00  0.00     0.197 C 
HETATM    6  C8  UNL     1      15.277 -21.051 -28.568  1.00  0.00     0.179 C 
HETATM    7  C9  UNL     1      16.574 -21.764 -28.689  1.00  0.00     0.179 C 
ENDROOT
BRANCH   1   8
HETATM    8  C4  UNL     1      18.112 -20.620 -27.145  1.00  0.00     0.270 C 
BRANCH   8   9
HETATM    9  N1  UNL     1      19.205 -20.749 -26.253  1.00  0.00    -0.076 N 
HETATM   10  C1  UNL     1      20.260 -19.758 -26.501  1.00  0.00     0.271 C 
HETATM   11  C2  UNL     1      19.832 -22.029 -26.209  1.00  0.00     0.271 C 
HETATM   12  C3  UNL     1      18.729 -20.458 -24.890  1.00  0.00     0.271 C 
ENDBRANCH   8   9
ENDBRANCH   1   8
BRANCH   7  13
HETATM   13  O4  UNL     1      17.367 -21.122 -29.629  1.00  0.00    -0.390 OA
ATOM     14  H4  UNL     1      17.370 -21.625 -30.435  1.00  0.00     0.210 HD
ENDBRANCH   7  13
BRANCH   6  15
HETATM   15  O3  UNL     1      15.394 -19.684 -28.452  1.00  0.00    -0.391 OA
ATOM     16  H3  UNL     1      16.295 -19.436 -28.282  1.00  0.00     0.210 HD
ENDBRANCH   6  15
BRANCH   5  17
HETATM   17  N2  UNL     1      13.942 -22.896 -27.668  1.00  0.00    -0.293 N 
ATOM     18  H2  UNL     1      12.980 -22.917 -28.007  1.00  0.00     0.188 HD
BRANCH  17  19
HETATM   19  O2  UNL     1      14.506 -23.940 -27.529  1.00  0.00    -0.294 OA
ATOM     20  H2  UNL     1      15.188 -24.266 -28.105  1.00  0.00     0.244 HD
ENDBRANCH  17  19
ENDBRANCH   5  17
TORSDOF 6
ENDMDL
MODEL 2
REMARK VINA RESULT: -3.616321936      0.408      1.032
REMARK  6 active torsions:
REMARK  status: ('A' for Active; 'I' for Inactive)
REMARK    1  A    between atoms: N1_2  and  C4_5 
REMARK    2  A    between atoms: C4_5  and  C5_6 
REMARK    3  A    between atoms: C7_10  and  N2_11 
REMARK    4  A    between atoms: N2_11  and  O2_13 
REMARK    5  A    between atoms: C8_15  and  O3_16 
REMARK    6  A    between atoms: C9_18  and  O4_19 
ROOT
HETATM    1  C5  UNL     1      17.002 -21.909 -27.097  1.00  0.00     0.182 C 
HETATM    2  O1  UNL     1      16.207 -22.350 -26.089  1.00  0.00    -0.345 OA
HETATM    3  C6  UNL     1      14.959 -21.841 -25.992  1.00  0.00     0.334 C 
HETATM    4  F1  UNL     1      14.885 -20.588 -25.409  1.00  0.00    -0.217 F 
HETATM    5  C7  UNL     1      14.185 -21.779 -27.281  1.00  0.00     0.197 C 
HETATM    6  C8  UNL     1      14.989 -21.177 -28.409  1.00  0.00     0.179 C 
HETATM    7  C9  UNL     1      16.321 -21.833 -28.444  1.00  0.00     0.179 C 
ENDROOT
BRANCH   1   8
HETATM    8  C4  UNL     1      17.710 -20.615 -26.817  1.00  0.00     0.270 C 
BRANCH   8   9
HETATM    9  N1  UNL     1      18.983 -20.744 -26.209  1.00  0.00    -0.076 N 
HETATM   10  C1  UNL     1      18.963 -20.416 -24.777  1.00  0.00     0.271 C 
HETATM   11  C2  UNL     1      20.040 -19.991 -26.798  1.00  0.00     0.271 C 
HETATM   12  C3  UNL     1      19.383 -22.161 -26.264  1.00  0.00     0.271 C 
ENDBRANCH   8   9
ENDBRANCH   1   8
BRANCH   7  13
HETATM   13  O4  UNL     1      17.142 -21.162 -29.339  1.00  0.00    -0.390 OA
ATOM     14  H4  UNL     1      18.044 -21.227 -29.048  1.00  0.00     0.210 HD
ENDBRANCH   7  13
BRANCH   6  15
HETATM   15  O3  UNL     1      15.040 -19.806 -28.297  1.00  0.00    -0.391 OA
ATOM     16  H3  UNL     1      15.172 -19.402 -29.147  1.00  0.00     0.210 HD
ENDBRANCH   6  15
BRANCH   5  17
HETATM   17  N2  UNL     1      13.683 -23.074 -27.579  1.00  0.00    -0.293 N 
ATOM     18  H2  UNL     1      12.676 -23.221 -27.502  1.00  0.00     0.188 HD
BRANCH  17  19
HETATM   19  O2  UNL     1      14.357 -24.002 -27.913  1.00  0.00    -0.294 OA
ATOM     20  H2  UNL     1      14.018 -24.861 -28.138  1.00  0.00     0.244 HD
ENDBRANCH  17  19
ENDBRANCH   5  17
TORSDOF 6
ENDMDL
MODEL 3
REMARK VINA RESULT: -3.489605444      2.124      4.749
REMARK  6 active torsions:
REMARK  status: ('A' for Active; 'I' for Inactive)
REMARK    1  A    between atoms: N1_2  and  C4_5 
REMARK    2  A    between atoms: C4_5  and  C5_6 
REMARK    3  A    between atoms: C7_10  and  N2_11 
REMARK    4  A    between atoms: N2_11  and  O2_13 
REMARK    5  A    between atoms: C8_15  and  O3_16 
REMARK    6  A    between atoms: C9_18  and  O4_19 
ROOT
HETATM    1  C5  UNL     1      16.996 -20.834 -26.468  1.00  0.00     0.182 C 
HETATM    2  O1  UNL     1      17.367 -20.316 -25.268  1.00  0.00    -0.345 OA
HETATM    3  C6  UNL     1      18.586 -20.644 -24.783  1.00  0.00     0.334 C 
HETATM    4  F1  UNL     1      18.660 -21.892 -24.189  1.00  0.00    -0.217 F 
HETATM    5  C7  UNL     1      19.719 -20.551 -25.767  1.00  0.00     0.197 C 
HETATM    6  C8  UNL     1      19.400 -21.224 -27.081  1.00  0.00     0.179 C 
HETATM    7  C9  UNL     1      18.063 -20.766 -27.536  1.00  0.00     0.179 C 
ENDROOT
BRANCH   1   8
HETATM    8  C4  UNL     1      16.434 -22.224 -26.404  1.00  0.00     0.270 C 
BRANCH   8   9
HETATM    9  N1  UNL     1      15.022 -22.307 -26.472  1.00  0.00    -0.076 N 
HETATM   10  C1  UNL     1      14.392 -22.351 -25.146  1.00  0.00     0.271 C 
HETATM   11  C2  UNL     1      14.493 -23.396 -27.225  1.00  0.00     0.271 C 
HETATM   12  C3  UNL     1      14.513 -21.071 -27.089  1.00  0.00     0.271 C 
ENDBRANCH   8   9
ENDBRANCH   1   8
BRANCH   7  13
HETATM   13  O4  UNL     1      17.666 -21.518 -28.632  1.00  0.00    -0.390 OA
ATOM     14  H4  UNL     1      18.424 -21.947 -29.011  1.00  0.00     0.210 HD
ENDBRANCH   7  13
BRANCH   6  15
HETATM   15  O3  UNL     1      19.520 -22.592 -26.972  1.00  0.00    -0.391 OA
ATOM     16  H3  UNL     1      18.664 -23.003 -26.933  1.00  0.00     0.210 HD
ENDBRANCH   6  15
BRANCH   5  17
HETATM   17  N2  UNL     1      20.093 -19.188 -25.912  1.00  0.00    -0.293 N 
ATOM     18  H2  UNL     1      20.032 -18.589 -25.088  1.00  0.00     0.188 HD
BRANCH  17  19
HETATM   19  O2  UNL     1      20.474 -18.694 -26.931  1.00  0.00    -0.294 OA
ATOM     20  H2  UNL     1      20.616 -17.763 -27.059  1.00  0.00     0.244 HD
ENDBRANCH  17  19
ENDBRANCH   5  17
TORSDOF 6
ENDMDL
MODEL 4
REMARK VINA RESULT: -3.481443256      2.108      4.765
REMARK  6 active torsions:
REMARK  status: ('A' for Active; 'I' for Inactive)
REMARK    1  A    between atoms: N1_2  and  C4_5 
REMARK    2  A    between atoms: C4_5  and  C5_6 
REMARK    3  A    between atoms: C7_10  and  N2_11 
REMARK    4  A    between atoms: N2_11  and  O2_13 
REMARK    5  A    between atoms: C8_15  and  O3_16 
REMARK    6  A    between atoms: C9_18  and  O4_19 
ROOT
HETATM    1  C5  UNL     1      16.977 -20.813 -26.496  1.00  0.00     0.182 C 
HETATM    2  O1  UNL     1      17.341 -20.295 -25.294  1.00  0.00    -0.345 OA
HETATM    3  C6  UNL     1      18.551 -20.632 -24.795  1.00  0.00     0.334 C 
HETATM    4  F1  UNL     1      18.607 -21.880 -24.197  1.00  0.00    -0.217 F 
HETATM    5  C7  UNL     1      19.695 -20.553 -25.767  1.00  0.00     0.197 C 
HETATM    6  C8  UNL     1      19.384 -21.227 -27.083  1.00  0.00     0.179 C 
HETATM    7  C9  UNL     1      18.056 -20.758 -27.553  1.00  0.00     0.179 C 
ENDROOT
BRANCH   1   8
HETATM    8  C4  UNL     1      16.402 -22.197 -26.434  1.00  0.00     0.270 C 
BRANCH   8   9
HETATM    9  N1  UNL     1      15.001 -22.277 -26.621  1.00  0.00    -0.076 N 
HETATM   10  C1  UNL     1      14.591 -23.497 -27.330  1.00  0.00     0.271 C 
HETATM   11  C2  UNL     1      14.392 -21.177 -27.293  1.00  0.00     0.271 C 
HETATM   12  C3  UNL     1      14.361 -22.380 -25.298  1.00  0.00     0.271 C 
ENDBRANCH   8   9
ENDBRANCH   1   8
BRANCH   7  13
HETATM   13  O4  UNL     1      17.664 -21.509 -28.652  1.00  0.00    -0.390 OA
ATOM     14  H4  UNL     1      17.078 -20.993 -29.193  1.00  0.00     0.210 HD
ENDBRANCH   7  13
BRANCH   6  15
HETATM   15  O3  UNL     1      19.490 -22.595 -26.968  1.00  0.00    -0.391 OA
ATOM     16  H3  UNL     1      18.654 -22.979 -26.730  1.00  0.00     0.210 HD
ENDBRANCH   6  15
BRANCH   5  17
HETATM   17  N2  UNL     1      20.083 -19.194 -25.912  1.00  0.00    -0.293 N 
ATOM     18  H2  UNL     1      20.019 -18.593 -25.090  1.00  0.00     0.188 HD
BRANCH  17  19
HETATM   19  O2  UNL     1      20.479 -18.706 -26.928  1.00  0.00    -0.294 OA
ATOM     20  H2  UNL     1      21.364 -18.798 -27.262  1.00  0.00     0.244 HD
ENDBRANCH  17  19
ENDBRANCH   5  17
TORSDOF 6
ENDMDL
MODEL 5
REMARK VINA RESULT: -3.010505568      2.497      5.122
REMARK  6 active torsions:
REMARK  status: ('A' for Active; 'I' for Inactive)
REMARK    1  A    between atoms: N1_2  and  C4_5 
REMARK    2  A    between atoms: C4_5  and  C5_6 
REMARK    3  A    between atoms: C7_10  and  N2_11 
REMARK    4  A    between atoms: N2_11  and  O2_13 
REMARK    5  A    between atoms: C8_15  and  O3_16 
REMARK    6  A    between atoms: C9_18  and  O4_19 
ROOT
HETATM    1  C5  UNL     1      17.950 -21.709 -26.742  1.00  0.00     0.182 C 
HETATM    2  O1  UNL     1      18.968 -21.296 -27.539  1.00  0.00    -0.345 OA
HETATM    3  C6  UNL     1      19.736 -20.268 -27.112  1.00  0.00     0.334 C 
HETATM    4  F1  UNL     1      19.180 -19.013 -27.290  1.00  0.00    -0.217 F 
HETATM    5  C7  UNL     1      20.192 -20.355 -25.682  1.00  0.00     0.197 C 
HETATM    6  C8  UNL     1      19.064 -20.691 -24.734  1.00  0.00     0.179 C 
HETATM    7  C9  UNL     1      18.316 -21.850 -25.282  1.00  0.00     0.179 C 
ENDROOT
BRANCH   1   8
HETATM    8  C4  UNL     1      16.689 -20.906 -26.871  1.00  0.00     0.270 C 
BRANCH   8   9
HETATM    9  N1  UNL     1      15.685 -21.487 -27.683  1.00  0.00    -0.076 N 
HETATM   10  C1  UNL     1      14.620 -20.537 -28.035  1.00  0.00     0.271 C 
HETATM   11  C2  UNL     1      15.052 -22.654 -27.164  1.00  0.00     0.271 C 
HETATM   12  C3  UNL     1      16.291 -21.864 -28.972  1.00  0.00     0.271 C 
ENDBRANCH   8   9
ENDBRANCH   1   8
BRANCH   7  13
HETATM   13  O4  UNL     1      17.163 -22.049 -24.536  1.00  0.00    -0.390 OA
ATOM     14  H4  UNL     1      17.392 -22.130 -23.618  1.00  0.00     0.210 HD
ENDBRANCH   7  13
BRANCH   6  15
HETATM   15  O3  UNL     1      18.286 -19.582 -24.489  1.00  0.00    -0.391 OA
ATOM     16  H3  UNL     1      18.441 -19.248 -23.613  1.00  0.00     0.210 HD
ENDBRANCH   6  15
BRANCH   5  17
HETATM   17  N2  UNL     1      21.282 -21.262 -25.600  1.00  0.00    -0.293 N 
ATOM     18  H2  UNL     1      21.123 -22.223 -25.904  1.00  0.00     0.188 HD
BRANCH  17  19
HETATM   19  O2  UNL     1      22.372 -20.979 -25.200  1.00  0.00    -0.294 OA
ATOM     20  H2  UNL     1      23.037 -20.536 -25.715  1.00  0.00     0.244 HD
ENDBRANCH  17  19
ENDBRANCH   5  17
TORSDOF 6
ENDMDL
