MODEL 1
REMARK VINA RESULT: -6.885003383      0.000      0.000
REMARK  5 active torsions:
REMARK  status: ('A' for Active; 'I' for Inactive)
REMARK    1  A    between atoms: O1_1  and  C1_3 
REMARK    2  A    between atoms: C1_3  and  C2_4 
REMARK    3  A    between atoms: C2_4  and  N1_5 
REMARK    4  A    between atoms: C6_9  and  C7_10 
REMARK    5  A    between atoms: C7_10  and  N2_11 
ROOT
HETATM    1  C7  UNL     1       1.357  -7.533  29.715  1.00  0.00     0.096 C 
ENDROOT
BRANCH   1   2
HETATM    2  C6  UNL     1       1.204  -7.517  31.217  1.00  0.00     0.261 C 
HETATM    3  N1  UNL     1       0.167  -8.306  31.751  1.00  0.00     0.100 N 
HETATM    4  C3  UNL     1      -0.689  -7.497  32.586  1.00  0.00     0.273 C 
HETATM    5  C4  UNL     1       0.288  -6.397  33.041  1.00  0.00     0.033 C 
HETATM    6  C5  UNL     1       0.968  -6.097  31.722  1.00  0.00     0.043 C 
BRANCH   3   7
HETATM    7  C2  UNL     1       0.662  -9.478  32.450  1.00  0.00     0.299 C 
BRANCH   7   8
HETATM    8  C1  UNL     1      -0.133 -10.701  32.136  1.00  0.00     0.194 C 
BRANCH   8   9
HETATM    9  O1  UNL     1       0.662 -11.505  31.300  1.00  0.00    -0.399 OA
ATOM     10  H1  UNL     1       0.485 -12.408  31.533  1.00  0.00     0.209 HD
ENDBRANCH   8   9
ENDBRANCH   7   8
ENDBRANCH   3   7
ENDBRANCH   1   2
BRANCH   1  11
HETATM   11  N2  UNL     1       1.445  -6.203  29.257  1.00  0.00    -0.370 N 
HETATM   12  C8  UNL     1       1.001  -5.758  28.050  1.00  0.00     0.026 C 
HETATM   13  C9  UNL     1       1.537  -6.309  26.753  1.00  0.00     0.083 C 
HETATM   14  C14 UNL     1      -0.493  -5.582  27.800  1.00  0.00     0.111 C 
HETATM   15  C10 UNL     1       0.766  -5.398  25.814  1.00  0.00     0.089 C 
HETATM   16  C11 UNL     1       0.383  -6.007  24.498  1.00  0.00     0.027 C 
HETATM   17  N3  UNL     1      -0.512  -5.413  26.458  1.00  0.00    -0.383 N 
HETATM   18  C12 UNL     1      -0.946  -5.264  24.243  1.00  0.00     0.022 C 
HETATM   19  C13 UNL     1      -1.505  -4.960  25.647  1.00  0.00     0.123 C 
ATOM     20  H2  UNL     1       1.876  -5.520  29.880  1.00  0.00     0.165 HD
ENDBRANCH   1  11
TORSDOF 5
ENDMDL
MODEL 2
REMARK VINA RESULT: -6.759379822      1.723      1.860
REMARK  5 active torsions:
REMARK  status: ('A' for Active; 'I' for Inactive)
REMARK    1  A    between atoms: O1_1  and  C1_3 
REMARK    2  A    between atoms: C1_3  and  C2_4 
REMARK    3  A    between atoms: C2_4  and  N1_5 
REMARK    4  A    between atoms: C6_9  and  C7_10 
REMARK    5  A    between atoms: C7_10  and  N2_11 
ROOT
HETATM    1  C7  UNL     1       0.925  -7.298  30.088  1.00  0.00     0.096 C 
ENDROOT
BRANCH   1   2
HETATM    2  C6  UNL     1       0.426  -7.135  31.504  1.00  0.00     0.261 C 
HETATM    3  N1  UNL     1      -0.968  -7.018  31.668  1.00  0.00     0.100 N 
HETATM    4  C3  UNL     1      -1.278  -5.817  32.408  1.00  0.00     0.273 C 
HETATM    5  C4  UNL     1       0.010  -5.630  33.230  1.00  0.00     0.033 C 
HETATM    6  C5  UNL     1       1.042  -5.901  32.156  1.00  0.00     0.043 C 
BRANCH   3   7
HETATM    7  C2  UNL     1      -1.559  -8.198  32.271  1.00  0.00     0.299 C 
BRANCH   7   8
HETATM    8  C1  UNL     1      -3.050  -8.143  32.278  1.00  0.00     0.194 C 
BRANCH   8   9
HETATM    9  O1  UNL     1      -3.467  -8.446  33.585  1.00  0.00    -0.399 OA
ATOM     10  H1  UNL     1      -3.421  -7.640  34.086  1.00  0.00     0.209 HD
ENDBRANCH   8   9
ENDBRANCH   7   8
ENDBRANCH   3   7
ENDBRANCH   1   2
BRANCH   1  11
HETATM   11  N2  UNL     1       1.141  -6.019  29.537  1.00  0.00    -0.370 N 
HETATM   12  C8  UNL     1       0.819  -5.648  28.268  1.00  0.00     0.026 C 
HETATM   13  C9  UNL     1       1.409  -6.338  27.063  1.00  0.00     0.083 C 
HETATM   14  C14 UNL     1      -0.636  -5.397  27.887  1.00  0.00     0.111 C 
HETATM   15  C10 UNL     1       0.776  -5.460  25.998  1.00  0.00     0.089 C 
HETATM   16  C11 UNL     1       0.448  -6.150  24.708  1.00  0.00     0.027 C 
HETATM   17  N3  UNL     1      -0.545  -5.339  26.539  1.00  0.00    -0.383 N 
HETATM   18  C12 UNL     1      -0.803  -5.346  24.292  1.00  0.00     0.022 C 
HETATM   19  C13 UNL     1      -1.440  -4.891  25.619  1.00  0.00     0.123 C 
ATOM     20  H2  UNL     1       1.573  -5.316  30.136  1.00  0.00     0.165 HD
ENDBRANCH   1  11
TORSDOF 5
ENDMDL
MODEL 3
REMARK VINA RESULT: -6.613383969      1.716      1.890
REMARK  5 active torsions:
REMARK  status: ('A' for Active; 'I' for Inactive)
REMARK    1  A    between atoms: O1_1  and  C1_3 
REMARK    2  A    between atoms: C1_3  and  C2_4 
REMARK    3  A    between atoms: C2_4  and  N1_5 
REMARK    4  A    between atoms: C6_9  and  C7_10 
REMARK    5  A    between atoms: C7_10  and  N2_11 
ROOT
HETATM    1  C7  UNL     1       0.869  -7.079  29.886  1.00  0.00     0.096 C 
ENDROOT
BRANCH   1   2
HETATM    2  C6  UNL     1       0.227  -6.860  31.235  1.00  0.00     0.261 C 
HETATM    3  N1  UNL     1      -1.048  -6.260  31.234  1.00  0.00     0.100 N 
HETATM    4  C3  UNL     1      -1.044  -5.092  32.083  1.00  0.00     0.273 C 
HETATM    5  C4  UNL     1       0.072  -5.450  33.081  1.00  0.00     0.033 C 
HETATM    6  C5  UNL     1       1.111  -5.989  32.121  1.00  0.00     0.043 C 
BRANCH   3   7
HETATM    7  C2  UNL     1      -2.102  -7.192  31.591  1.00  0.00     0.299 C 
BRANCH   7   8
HETATM    8  C1  UNL     1      -2.787  -7.756  30.392  1.00  0.00     0.194 C 
BRANCH   8   9
HETATM    9  O1  UNL     1      -2.271  -9.048  30.193  1.00  0.00    -0.399 OA
ATOM     10  H1  UNL     1      -2.585  -9.345  29.347  1.00  0.00     0.209 HD
ENDBRANCH   8   9
ENDBRANCH   7   8
ENDBRANCH   3   7
ENDBRANCH   1   2
BRANCH   1  11
HETATM   11  N2  UNL     1       1.075  -5.824  29.278  1.00  0.00    -0.370 N 
HETATM   12  C8  UNL     1       0.758  -5.516  27.990  1.00  0.00     0.026 C 
HETATM   13  C9  UNL     1       1.364  -6.255  26.824  1.00  0.00     0.083 C 
HETATM   14  C14 UNL     1      -0.696  -5.300  27.589  1.00  0.00     0.111 C 
HETATM   15  C10 UNL     1       0.729  -5.435  25.715  1.00  0.00     0.089 C 
HETATM   16  C11 UNL     1       0.419  -6.187  24.456  1.00  0.00     0.027 C 
HETATM   17  N3  UNL     1      -0.596  -5.303  26.240  1.00  0.00    -0.383 N 
HETATM   18  C12 UNL     1      -0.837  -5.419  23.994  1.00  0.00     0.022 C 
HETATM   19  C13 UNL     1      -1.490  -4.909  25.294  1.00  0.00     0.123 C 
ATOM     20  H2  UNL     1       1.494  -5.089  29.846  1.00  0.00     0.165 HD
ENDBRANCH   1  11
TORSDOF 5
ENDMDL
MODEL 4
REMARK VINA RESULT: -6.530679458      1.743      2.447
REMARK  5 active torsions:
REMARK  status: ('A' for Active; 'I' for Inactive)
REMARK    1  A    between atoms: O1_1  and  C1_3 
REMARK    2  A    between atoms: C1_3  and  C2_4 
REMARK    3  A    between atoms: C2_4  and  N1_5 
REMARK    4  A    between atoms: C6_9  and  C7_10 
REMARK    5  A    between atoms: C7_10  and  N2_11 
ROOT
HETATM    1  C7  UNL     1       0.958  -7.282  29.897  1.00  0.00     0.096 C 
ENDROOT
BRANCH   1   2
HETATM    2  C6  UNL     1      -0.081  -7.182  30.987  1.00  0.00     0.261 C 
HETATM    3  N1  UNL     1       0.401  -7.106  32.309  1.00  0.00     0.100 N 
HETATM    4  C3  UNL     1      -0.201  -8.144  33.113  1.00  0.00     0.273 C 
HETATM    5  C4  UNL     1      -1.531  -8.365  32.371  1.00  0.00     0.033 C 
HETATM    6  C5  UNL     1      -1.030  -8.374  30.942  1.00  0.00     0.043 C 
BRANCH   3   7
HETATM    7  C2  UNL     1       0.222  -5.790  32.893  1.00  0.00     0.299 C 
BRANCH   7   8
HETATM    8  C1  UNL     1       1.515  -5.184  33.327  1.00  0.00     0.194 C 
BRANCH   8   9
HETATM    9  O1  UNL     1       2.542  -5.933  32.727  1.00  0.00    -0.399 OA
ATOM     10  H1  UNL     1       3.195  -5.315  32.421  1.00  0.00     0.209 HD
ENDBRANCH   8   9
ENDBRANCH   7   8
ENDBRANCH   3   7
ENDBRANCH   1   2
BRANCH   1  11
HETATM   11  N2  UNL     1       1.156  -6.000  29.344  1.00  0.00    -0.370 N 
HETATM   12  C8  UNL     1       0.819  -5.631  28.079  1.00  0.00     0.026 C 
HETATM   13  C9  UNL     1       1.406  -6.314  26.869  1.00  0.00     0.083 C 
HETATM   14  C14 UNL     1      -0.641  -5.395  27.711  1.00  0.00     0.111 C 
HETATM   15  C10 UNL     1       0.755  -5.442  25.810  1.00  0.00     0.089 C 
HETATM   16  C11 UNL     1       0.423  -6.134  24.522  1.00  0.00     0.027 C 
HETATM   17  N3  UNL     1      -0.562  -5.335  26.362  1.00  0.00    -0.383 N 
HETATM   18  C12 UNL     1      -0.839  -5.343  24.117  1.00  0.00     0.022 C 
HETATM   19  C13 UNL     1      -1.470  -4.896  25.450  1.00  0.00     0.123 C 
ATOM     20  H2  UNL     1       1.586  -5.293  29.941  1.00  0.00     0.165 HD
ENDBRANCH   1  11
TORSDOF 5
ENDMDL
MODEL 5
REMARK VINA RESULT: -6.435293682      2.516      3.120
REMARK  5 active torsions:
REMARK  status: ('A' for Active; 'I' for Inactive)
REMARK    1  A    between atoms: O1_1  and  C1_3 
REMARK    2  A    between atoms: C1_3  and  C2_4 
REMARK    3  A    between atoms: C2_4  and  N1_5 
REMARK    4  A    between atoms: C6_9  and  C7_10 
REMARK    5  A    between atoms: C7_10  and  N2_11 
ROOT
HETATM    1  C7  UNL     1       0.726  -7.173  30.122  1.00  0.00     0.096 C 
ENDROOT
BRANCH   1   2
HETATM    2  C6  UNL     1      -0.212  -7.059  31.299  1.00  0.00     0.261 C 
HETATM    3  N1  UNL     1      -0.462  -5.758  31.779  1.00  0.00     0.100 N 
HETATM    4  C3  UNL     1      -0.171  -5.690  33.192  1.00  0.00     0.273 C 
HETATM    5  C4  UNL     1      -0.402  -7.151  33.618  1.00  0.00     0.033 C 
HETATM    6  C5  UNL     1       0.308  -7.863  32.486  1.00  0.00     0.043 C 
BRANCH   3   7
HETATM    7  C2  UNL     1      -1.805  -5.301  31.475  1.00  0.00     0.299 C 
BRANCH   7   8
HETATM    8  C1  UNL     1      -1.876  -3.818  31.323  1.00  0.00     0.194 C 
BRANCH   8   9
HETATM    9  O1  UNL     1      -2.722  -3.340  32.337  1.00  0.00    -0.399 OA
ATOM     10  H1  UNL     1      -2.695  -2.391  32.298  1.00  0.00     0.209 HD
ENDBRANCH   8   9
ENDBRANCH   7   8
ENDBRANCH   3   7
ENDBRANCH   1   2
BRANCH   1  11
HETATM   11  N2  UNL     1       0.909  -5.891  29.566  1.00  0.00    -0.370 N 
HETATM   12  C8  UNL     1       0.640  -5.550  28.276  1.00  0.00     0.026 C 
HETATM   13  C9  UNL     1       1.330  -6.223  27.116  1.00  0.00     0.083 C 
HETATM   14  C14 UNL     1      -0.802  -5.377  27.813  1.00  0.00     0.111 C 
HETATM   15  C10 UNL     1       0.714  -5.390  26.006  1.00  0.00     0.089 C 
HETATM   16  C11 UNL     1       0.494  -6.108  24.709  1.00  0.00     0.027 C 
HETATM   17  N3  UNL     1      -0.639  -5.329  26.471  1.00  0.00    -0.383 N 
HETATM   18  C12 UNL     1      -0.770  -5.374  24.213  1.00  0.00     0.022 C 
HETATM   19  C13 UNL     1      -1.503  -4.937  25.497  1.00  0.00     0.123 C 
ATOM     20  H2  UNL     1       1.271  -5.161  30.179  1.00  0.00     0.165 HD
ENDBRANCH   1  11
TORSDOF 5
ENDMDL
