MODEL 1
REMARK VINA RESULT: -8.066089810      0.000      0.000
REMARK  4 active torsions:
REMARK  status: ('A' for Active; 'I' for Inactive)
REMARK    1  A    between atoms: C4_7  and  C5_8 
REMARK    2  A    between atoms: C5_8  and  C6_9 
REMARK    3  A    between atoms: C6_9  and  C7_10 
REMARK    4  A    between atoms: N5_19  and  O1_20 
ROOT
HETATM    1  N1  UNL     1      17.915  -3.211  11.771  1.00  0.00    -0.190 NA
HETATM    2  C1  UNL     1      17.449  -2.149  11.782  1.00  0.00     0.124 C 
HETATM    3  C2  UNL     1      16.889  -0.841  11.796  1.00  0.00     0.191 A 
HETATM    4  C3  UNL     1      16.800   0.021  12.868  1.00  0.00     0.121 A 
HETATM    5  N2  UNL     1      17.058   0.221  14.171  1.00  0.00    -0.340 N 
ATOM      6  H2  UNL     1      17.512  -0.461  14.778  1.00  0.00     0.167 HD
HETATM    7  C4  UNL     1      16.636   1.449  14.579  1.00  0.00     0.083 A 
HETATM    8  N3  UNL     1      16.094   2.037  13.483  1.00  0.00    -0.329 N 
ATOM      9  H3  UNL     1      15.685   2.971  13.458  1.00  0.00     0.168 HD
HETATM   10  C8  UNL     1      16.179   1.200  12.438  1.00  0.00     0.153 A 
HETATM   11  N4  UNL     1      15.928   0.982  11.129  1.00  0.00    -0.256 N 
ATOM     12  H4  UNL     1      15.474   1.656  10.512  1.00  0.00     0.191 HD
HETATM   13  N5  UNL     1      16.343  -0.213  10.749  1.00  0.00    -0.149 N 
ENDROOT
BRANCH  13  14
HETATM   14  O1  UNL     1      16.217  -0.714   9.454  1.00  0.00    -0.267 OA
ATOM     15  H1  UNL     1      16.759  -0.491   8.706  1.00  0.00     0.247 HD
ENDBRANCH  13  14
BRANCH   7  16
HETATM   16  C5  UNL     1      16.757   1.936  15.968  1.00  0.00     0.082 C 
BRANCH  16  17
HETATM   17  C6  UNL     1      16.148   1.075  17.020  1.00  0.00     0.085 C 
BRANCH  17  18
HETATM   18  C7  UNL     1      14.867   1.587  17.552  1.00  0.00     0.255 C 
HETATM   19  F1  UNL     1      14.823   1.760  18.901  1.00  0.00    -0.207 F 
HETATM   20 CL1  UNL     1      13.553   0.446  17.144  1.00  0.00    -0.066 Cl
HETATM   21 CL2  UNL     1      14.525   3.132  16.694  1.00  0.00    -0.066 Cl
ENDBRANCH  17  18
ENDBRANCH  16  17
ENDBRANCH   7  16
TORSDOF 4
ENDMDL
MODEL 2
REMARK VINA RESULT: -7.051271721      1.447      2.586
REMARK  4 active torsions:
REMARK  status: ('A' for Active; 'I' for Inactive)
REMARK    1  A    between atoms: C4_7  and  C5_8 
REMARK    2  A    between atoms: C5_8  and  C6_9 
REMARK    3  A    between atoms: C6_9  and  C7_10 
REMARK    4  A    between atoms: N5_19  and  O1_20 
ROOT
HETATM    1  N1  UNL     1      16.464   3.362  10.338  1.00  0.00    -0.190 NA
HETATM    2  C1  UNL     1      16.532   2.327  10.859  1.00  0.00     0.124 C 
HETATM    3  C2  UNL     1      16.601   1.061  11.502  1.00  0.00     0.191 A 
HETATM    4  C3  UNL     1      16.750   0.813  12.851  1.00  0.00     0.121 A 
HETATM    5  N2  UNL     1      16.885   1.338  14.080  1.00  0.00    -0.340 N 
ATOM      6  H2  UNL     1      16.908   2.339  14.278  1.00  0.00     0.167 HD
HETATM    7  C4  UNL     1      16.989   0.367  15.027  1.00  0.00     0.083 A 
HETATM    8  N3  UNL     1      16.914  -0.812  14.359  1.00  0.00    -0.329 N 
ATOM      9  H3  UNL     1      16.961  -1.736  14.788  1.00  0.00     0.168 HD
HETATM   10  C8  UNL     1      16.770  -0.573  13.046  1.00  0.00     0.153 A 
HETATM   11  N4  UNL     1      16.632  -1.084  11.803  1.00  0.00    -0.256 N 
ATOM     12  H4  UNL     1      16.608  -2.082  11.592  1.00  0.00     0.191 HD
HETATM   13  N5  UNL     1      16.533  -0.130  10.896  1.00  0.00    -0.149 N 
ENDROOT
BRANCH  13  14
HETATM   14  O1  UNL     1      16.382  -0.356   9.529  1.00  0.00    -0.267 OA
ATOM     15  H1  UNL     1      17.079  -0.503   8.900  1.00  0.00     0.247 HD
ENDBRANCH  13  14
BRANCH   7  16
HETATM   16  C5  UNL     1      17.179   0.644  16.465  1.00  0.00     0.082 C 
BRANCH  16  17
HETATM   17  C6  UNL     1      16.152   1.510  17.107  1.00  0.00     0.085 C 
BRANCH  17  18
HETATM   18  C7  UNL     1      15.130   0.767  17.875  1.00  0.00     0.255 C 
HETATM   19  F1  UNL     1      15.451  -0.520  18.180  1.00  0.00    -0.207 F 
HETATM   20 CL1  UNL     1      13.610   0.701  16.935  1.00  0.00    -0.066 Cl
HETATM   21 CL2  UNL     1      14.800   1.719  19.367  1.00  0.00    -0.066 Cl
ENDBRANCH  17  18
ENDBRANCH  16  17
ENDBRANCH   7  16
TORSDOF 4
ENDMDL
MODEL 3
REMARK VINA RESULT: -6.768088726      1.969      2.438
REMARK  4 active torsions:
REMARK  status: ('A' for Active; 'I' for Inactive)
REMARK    1  A    between atoms: C4_7  and  C5_8 
REMARK    2  A    between atoms: C5_8  and  C6_9 
REMARK    3  A    between atoms: C6_9  and  C7_10 
REMARK    4  A    between atoms: N5_19  and  O1_20 
ROOT
HETATM    1  N1  UNL     1      16.179  -0.430  10.150  1.00  0.00    -0.190 NA
HETATM    2  C1  UNL     1      16.409   0.517  10.780  1.00  0.00     0.124 C 
HETATM    3  C2  UNL     1      16.704   1.672  11.555  1.00  0.00     0.191 A 
HETATM    4  C3  UNL     1      16.783   1.762  12.930  1.00  0.00     0.121 A 
HETATM    5  N2  UNL     1      16.688   1.115  14.103  1.00  0.00    -0.340 N 
ATOM      6  H2  UNL     1      16.469   0.123  14.197  1.00  0.00     0.167 HD
HETATM    7  C4  UNL     1      16.922   1.950  15.151  1.00  0.00     0.083 A 
HETATM    8  N3  UNL     1      17.173   3.167  14.607  1.00  0.00    -0.329 N 
ATOM      9  H3  UNL     1      17.388   4.015  15.132  1.00  0.00     0.168 HD
HETATM   10  C8  UNL     1      17.096   3.083  13.270  1.00  0.00     0.153 A 
HETATM   11  N4  UNL     1      17.188   3.717  12.080  1.00  0.00    -0.256 N 
ATOM     12  H4  UNL     1      17.407   4.708  11.974  1.00  0.00     0.191 HD
HETATM   13  N5  UNL     1      16.959   2.894  11.074  1.00  0.00    -0.149 N 
ENDROOT
BRANCH  13  14
HETATM   14  O1  UNL     1      16.985   3.266   9.731  1.00  0.00    -0.267 OA
ATOM     15  H1  UNL     1      16.315   3.086   9.081  1.00  0.00     0.247 HD
ENDBRANCH  13  14
BRANCH   7  16
HETATM   16  C5  UNL     1      16.856   1.528  16.565  1.00  0.00     0.082 C 
BRANCH  16  17
HETATM   17  C6  UNL     1      15.768   0.571  16.912  1.00  0.00     0.085 C 
BRANCH  17  18
HETATM   18  C7  UNL     1      14.578   1.205  17.518  1.00  0.00     0.255 C 
HETATM   19  F1  UNL     1      13.428   0.482  17.440  1.00  0.00    -0.207 F 
HETATM   20 CL1  UNL     1      14.253   2.764  16.704  1.00  0.00    -0.066 Cl
HETATM   21 CL2  UNL     1      14.993   1.568  19.232  1.00  0.00    -0.066 Cl
ENDBRANCH  17  18
ENDBRANCH  16  17
ENDBRANCH   7  16
TORSDOF 4
ENDMDL
MODEL 4
REMARK VINA RESULT: -6.742385799      4.152      5.401
REMARK  4 active torsions:
REMARK  status: ('A' for Active; 'I' for Inactive)
REMARK    1  A    between atoms: C4_7  and  C5_8 
REMARK    2  A    between atoms: C5_8  and  C6_9 
REMARK    3  A    between atoms: C6_9  and  C7_10 
REMARK    4  A    between atoms: N5_19  and  O1_20 
ROOT
HETATM    1  N1  UNL     1      17.374  -1.235  14.600  1.00  0.00    -0.190 NA
HETATM    2  C1  UNL     1      16.711  -0.517  15.224  1.00  0.00     0.124 C 
HETATM    3  C2  UNL     1      15.888   0.362  15.980  1.00  0.00     0.191 A 
HETATM    4  C3  UNL     1      15.625   1.692  15.724  1.00  0.00     0.121 A 
HETATM    5  N2  UNL     1      15.843   2.743  14.916  1.00  0.00    -0.340 N 
ATOM      6  H2  UNL     1      16.435   2.717  14.086  1.00  0.00     0.167 HD
HETATM    7  C4  UNL     1      15.175   3.847  15.345  1.00  0.00     0.083 A 
HETATM    8  N3  UNL     1      14.513   3.467  16.468  1.00  0.00    -0.329 N 
ATOM      9  H3  UNL     1      13.916   4.071  17.032  1.00  0.00     0.168 HD
HETATM   10  C8  UNL     1      14.767   2.173  16.718  1.00  0.00     0.153 A 
HETATM   11  N4  UNL     1      14.558   1.106  17.520  1.00  0.00    -0.256 N 
ATOM     12  H4  UNL     1      13.970   1.120  18.353  1.00  0.00     0.191 HD
HETATM   13  N5  UNL     1      15.214   0.043  17.090  1.00  0.00    -0.149 N 
ENDROOT
BRANCH  13  14
HETATM   14  O1  UNL     1      15.189  -1.203  17.715  1.00  0.00    -0.267 OA
ATOM     15  H1  UNL     1      14.824  -1.399  18.570  1.00  0.00     0.247 HD
ENDBRANCH  13  14
BRANCH   7  16
HETATM   16  C5  UNL     1      15.249   5.161  14.675  1.00  0.00     0.082 C 
BRANCH  16  17
HETATM   17  C6  UNL     1      16.338   5.324  13.672  1.00  0.00     0.085 C 
BRANCH  17  18
HETATM   18  C7  UNL     1      17.585   5.897  14.224  1.00  0.00     0.255 C 
HETATM   19  F1  UNL     1      17.454   6.546  15.413  1.00  0.00    -0.207 F 
HETATM   20 CL1  UNL     1      18.256   7.087  13.069  1.00  0.00    -0.066 Cl
HETATM   21 CL2  UNL     1      18.768   4.547  14.355  1.00  0.00    -0.066 Cl
ENDBRANCH  17  18
ENDBRANCH  16  17
ENDBRANCH   7  16
TORSDOF 4
ENDMDL
MODEL 5
REMARK VINA RESULT: -6.721685453      4.837      5.798
REMARK  4 active torsions:
REMARK  status: ('A' for Active; 'I' for Inactive)
REMARK    1  A    between atoms: C4_7  and  C5_8 
REMARK    2  A    between atoms: C5_8  and  C6_9 
REMARK    3  A    between atoms: C6_9  and  C7_10 
REMARK    4  A    between atoms: N5_19  and  O1_20 
ROOT
HETATM    1  N1  UNL     1      17.148  -1.123  15.132  1.00  0.00    -0.190 NA
HETATM    2  C1  UNL     1      16.530  -0.180  15.407  1.00  0.00     0.124 C 
HETATM    3  C2  UNL     1      15.769   0.977  15.731  1.00  0.00     0.191 A 
HETATM    4  C3  UNL     1      16.009   2.276  15.336  1.00  0.00     0.121 A 
HETATM    5  N2  UNL     1      16.801   3.109  14.641  1.00  0.00    -0.340 N 
ATOM      6  H2  UNL     1      17.627   2.815  14.120  1.00  0.00     0.167 HD
HETATM    7  C4  UNL     1      16.362   4.394  14.719  1.00  0.00     0.083 A 
HETATM    8  N3  UNL     1      15.249   4.359  15.495  1.00  0.00    -0.329 N 
ATOM      9  H3  UNL     1      14.680   5.167  15.747  1.00  0.00     0.168 HD
HETATM   10  C8  UNL     1      15.014   3.095  15.880  1.00  0.00     0.153 A 
HETATM   11  N4  UNL     1      14.227   2.243  16.575  1.00  0.00    -0.256 N 
ATOM     12  H4  UNL     1      13.399   2.525  17.099  1.00  0.00     0.191 HD
HETATM   13  N5  UNL     1      14.667   1.001  16.489  1.00  0.00    -0.149 N 
ENDROOT
BRANCH  13  14
HETATM   14  O1  UNL     1      14.059  -0.093  17.102  1.00  0.00    -0.267 OA
ATOM     15  H1  UNL     1      14.088  -0.996  16.806  1.00  0.00     0.247 HD
ENDBRANCH  13  14
BRANCH   7  16
HETATM   16  C5  UNL     1      17.049   5.535  14.081  1.00  0.00     0.082 C 
BRANCH  16  17
HETATM   17  C6  UNL     1      17.738   6.482  15.001  1.00  0.00     0.085 C 
BRANCH  17  18
HETATM   18  C7  UNL     1      19.053   6.949  14.513  1.00  0.00     0.255 C 
HETATM   19  F1  UNL     1      19.981   5.974  14.312  1.00  0.00    -0.207 F 
HETATM   20 CL1  UNL     1      19.760   8.085  15.700  1.00  0.00    -0.066 Cl
HETATM   21 CL2  UNL     1      18.752   7.872  12.997  1.00  0.00    -0.066 Cl
ENDBRANCH  17  18
ENDBRANCH  16  17
ENDBRANCH   7  16
TORSDOF 4
ENDMDL
