MODEL 1
REMARK VINA RESULT: -5.460365867      0.000      0.000
REMARK  5 active torsions:
REMARK  status: ('A' for Active; 'I' for Inactive)
REMARK    1  A    between atoms: N2_5  and  C4_6 
REMARK    2  A    between atoms: C4_6  and  C5_7 
REMARK    3  A    between atoms: C5_7  and  C6_8 
REMARK    4  A    between atoms: C6_8  and  C7_9 
REMARK    5  A    between atoms: C8_10  and  C9_11 
ROOT
HETATM    1  C6  UNL     1      15.151   3.042  15.128  1.00  0.00     0.095 C 
ENDROOT
BRANCH   1   2
HETATM    2  C5  UNL     1      15.718   4.437  14.985  1.00  0.00     0.042 C 
BRANCH   2   3
HETATM    3  C4  UNL     1      16.069   4.797  13.583  1.00  0.00     0.273 C 
BRANCH   3   4
HETATM    4  N2  UNL     1      17.394   5.268  13.371  1.00  0.00     0.091 N 
HETATM    5  C3  UNL     1      17.723   5.201  11.975  1.00  0.00     0.302 C 
HETATM    6  C2  UNL     1      18.297   3.841  11.665  1.00  0.00     0.302 C 
HETATM    7  N1  UNL     1      19.557   3.754  12.383  1.00  0.00     0.087 N 
HETATM    8  C1  UNL     1      20.385   4.872  12.012  1.00  0.00     0.310 C 
HETATM    9  C14 UNL     1      19.250   3.701  13.784  1.00  0.00     0.302 C 
HETATM   10  C13 UNL     1      18.395   4.835  14.260  1.00  0.00     0.302 C 
ENDBRANCH   3   4
ENDBRANCH   2   3
ENDBRANCH   1   2
BRANCH   1  11
HETATM   11  C7  UNL     1      15.793   2.105  14.205  1.00  0.00    -0.106 C 
HETATM   12  C8  UNL     1      16.317   1.344  13.427  1.00  0.00    -0.100 C 
BRANCH  12  13
HETATM   13  C9  UNL     1      16.946   0.428  12.458  1.00  0.00     0.092 C 
HETATM   14  C10 UNL     1      16.104   0.411  11.221  1.00  0.00     0.046 C 
HETATM   15  C11 UNL     1      16.209  -1.009  10.714  1.00  0.00     0.233 C 
HETATM   16  N3  UNL     1      16.798  -1.801  11.745  1.00  0.00    -0.074 N 
HETATM   17  C12 UNL     1      16.873  -1.005  12.937  1.00  0.00     0.249 C 
ATOM     18  H32 UNL     1      16.307  -2.682  11.893  1.00  0.00     0.277 HD
ATOM     19  H31 UNL     1      17.702  -2.189  11.475  1.00  0.00     0.277 HD
ENDBRANCH  12  13
ENDBRANCH   1  11
TORSDOF 5
ENDMDL
MODEL 2
REMARK VINA RESULT: -5.374942671      2.623      3.394
REMARK  5 active torsions:
REMARK  status: ('A' for Active; 'I' for Inactive)
REMARK    1  A    between atoms: N2_5  and  C4_6 
REMARK    2  A    between atoms: C4_6  and  C5_7 
REMARK    3  A    between atoms: C5_7  and  C6_8 
REMARK    4  A    between atoms: C6_8  and  C7_9 
REMARK    5  A    between atoms: C8_10  and  C9_11 
ROOT
HETATM    1  C6  UNL     1      15.875   4.946  14.317  1.00  0.00     0.095 C 
ENDROOT
BRANCH   1   2
HETATM    2  C5  UNL     1      17.206   5.391  14.880  1.00  0.00     0.042 C 
BRANCH   2   3
HETATM    3  C4  UNL     1      18.095   6.032  13.871  1.00  0.00     0.273 C 
BRANCH   3   4
HETATM    4  N2  UNL     1      19.257   5.298  13.506  1.00  0.00     0.091 N 
HETATM    5  C3  UNL     1      19.718   5.718  12.212  1.00  0.00     0.302 C 
HETATM    6  C2  UNL     1      19.027   4.902  11.149  1.00  0.00     0.302 C 
HETATM    7  N1  UNL     1      19.487   3.535  11.318  1.00  0.00     0.087 N 
HETATM    8  C1  UNL     1      20.927   3.515  11.272  1.00  0.00     0.310 C 
HETATM    9  C14 UNL     1      18.941   3.048  12.553  1.00  0.00     0.302 C 
HETATM   10  C13 UNL     1      19.257   3.910  13.737  1.00  0.00     0.302 C 
ENDBRANCH   3   4
ENDBRANCH   2   3
ENDBRANCH   1   2
BRANCH   1  11
HETATM   11  C7  UNL     1      15.446   3.673  14.897  1.00  0.00    -0.106 C 
HETATM   12  C8  UNL     1      15.112   2.616  15.376  1.00  0.00    -0.100 C 
BRANCH  12  13
HETATM   13  C9  UNL     1      14.728   1.316  15.957  1.00  0.00     0.092 C 
HETATM   14  C10 UNL     1      14.682   1.469  17.446  1.00  0.00     0.046 C 
HETATM   15  C11 UNL     1      15.157   0.136  17.976  1.00  0.00     0.233 C 
HETATM   16  N3  UNL     1      15.725  -0.592  16.886  1.00  0.00    -0.074 N 
HETATM   17  C12 UNL     1      15.820   0.287  15.757  1.00  0.00     0.249 C 
ATOM     18  H32 UNL     1      16.618  -1.023  17.124  1.00  0.00     0.277 HD
ATOM     19  H31 UNL     1      15.210  -1.448  16.676  1.00  0.00     0.277 HD
ENDBRANCH  12  13
ENDBRANCH   1  11
TORSDOF 5
ENDMDL
MODEL 3
REMARK VINA RESULT: -5.354583267      2.625      3.562
REMARK  5 active torsions:
REMARK  status: ('A' for Active; 'I' for Inactive)
REMARK    1  A    between atoms: N2_5  and  C4_6 
REMARK    2  A    between atoms: C4_6  and  C5_7 
REMARK    3  A    between atoms: C5_7  and  C6_8 
REMARK    4  A    between atoms: C6_8  and  C7_9 
REMARK    5  A    between atoms: C8_10  and  C9_11 
ROOT
HETATM    1  C6  UNL     1      15.560   4.785  14.441  1.00  0.00     0.095 C 
ENDROOT
BRANCH   1   2
HETATM    2  C5  UNL     1      16.974   5.181  14.803  1.00  0.00     0.042 C 
BRANCH   2   3
HETATM    3  C4  UNL     1      18.013   4.300  14.201  1.00  0.00     0.273 C 
BRANCH   3   4
HETATM    4  N2  UNL     1      18.321   4.540  12.833  1.00  0.00     0.091 N 
HETATM    5  C3  UNL     1      18.515   3.294  12.146  1.00  0.00     0.302 C 
HETATM    6  C2  UNL     1      19.962   2.882  12.264  1.00  0.00     0.302 C 
HETATM    7  N1  UNL     1      20.731   3.873  11.531  1.00  0.00     0.087 N 
HETATM    8  C1  UNL     1      20.222   3.961  10.187  1.00  0.00     0.310 C 
HETATM    9  C14 UNL     1      20.650   5.105  12.263  1.00  0.00     0.302 C 
HETATM   10  C13 UNL     1      19.248   5.556  12.537  1.00  0.00     0.302 C 
ENDBRANCH   3   4
ENDBRANCH   2   3
ENDBRANCH   1   2
BRANCH   1  11
HETATM   11  C7  UNL     1      15.182   3.518  15.067  1.00  0.00    -0.106 C 
HETATM   12  C8  UNL     1      14.888   2.471  15.595  1.00  0.00    -0.100 C 
BRANCH  12  13
HETATM   13  C9  UNL     1      14.554   1.192  16.248  1.00  0.00     0.092 C 
HETATM   14  C10 UNL     1      14.693   1.375  17.727  1.00  0.00     0.046 C 
HETATM   15  C11 UNL     1      15.204   0.043  18.224  1.00  0.00     0.233 C 
HETATM   16  N3  UNL     1      15.619  -0.719  17.091  1.00  0.00    -0.074 N 
HETATM   17  C12 UNL     1      15.592   0.136  15.939  1.00  0.00     0.249 C 
ATOM     18  H32 UNL     1      16.526  -1.164  17.228  1.00  0.00     0.277 HD
ATOM     19  H31 UNL     1      15.066  -1.567  16.964  1.00  0.00     0.277 HD
ENDBRANCH  12  13
ENDBRANCH   1  11
TORSDOF 5
ENDMDL
MODEL 4
REMARK VINA RESULT: -5.188143855      2.478      3.680
REMARK  5 active torsions:
REMARK  status: ('A' for Active; 'I' for Inactive)
REMARK    1  A    between atoms: N2_5  and  C4_6 
REMARK    2  A    between atoms: C4_6  and  C5_7 
REMARK    3  A    between atoms: C5_7  and  C6_8 
REMARK    4  A    between atoms: C6_8  and  C7_9 
REMARK    5  A    between atoms: C8_10  and  C9_11 
ROOT
HETATM    1  C6  UNL     1      15.727   4.811  14.531  1.00  0.00     0.095 C 
ENDROOT
BRANCH   1   2
HETATM    2  C5  UNL     1      17.233   4.954  14.548  1.00  0.00     0.042 C 
BRANCH   2   3
HETATM    3  C4  UNL     1      17.756   5.877  13.501  1.00  0.00     0.273 C 
BRANCH   3   4
HETATM    4  N2  UNL     1      18.352   5.261  12.366  1.00  0.00     0.091 N 
HETATM    5  C3  UNL     1      17.718   5.725  11.165  1.00  0.00     0.302 C 
HETATM    6  C2  UNL     1      16.533   4.845  10.856  1.00  0.00     0.302 C 
HETATM    7  N1  UNL     1      17.068   3.530  10.550  1.00  0.00     0.087 N 
HETATM    8  C1  UNL     1      18.037   3.652   9.492  1.00  0.00     0.310 C 
HETATM    9  C14 UNL     1      17.606   2.991  11.767  1.00  0.00     0.302 C 
HETATM   10  C13 UNL     1      18.613   3.880  12.430  1.00  0.00     0.302 C 
ENDBRANCH   3   4
ENDBRANCH   2   3
ENDBRANCH   1   2
BRANCH   1  11
HETATM   11  C7  UNL     1      15.302   3.545  15.129  1.00  0.00    -0.106 C 
HETATM   12  C8  UNL     1      14.972   2.496  15.627  1.00  0.00    -0.100 C 
BRANCH  12  13
HETATM   13  C9  UNL     1      14.593   1.209  16.240  1.00  0.00     0.092 C 
HETATM   14  C10 UNL     1      14.704   1.351  17.726  1.00  0.00     0.046 C 
HETATM   15  C11 UNL     1      15.173  -0.005  18.199  1.00  0.00     0.233 C 
HETATM   16  N3  UNL     1      15.594  -0.748  17.055  1.00  0.00    -0.074 N 
HETATM   17  C12 UNL     1      15.612   0.136  15.925  1.00  0.00     0.249 C 
ATOM     18  H32 UNL     1      16.487  -1.218  17.199  1.00  0.00     0.277 HD
ATOM     19  H31 UNL     1      15.023  -1.579  16.894  1.00  0.00     0.277 HD
ENDBRANCH  12  13
ENDBRANCH   1  11
TORSDOF 5
ENDMDL
MODEL 5
REMARK VINA RESULT: -5.162690069      2.243      3.958
REMARK  5 active torsions:
REMARK  status: ('A' for Active; 'I' for Inactive)
REMARK    1  A    between atoms: N2_5  and  C4_6 
REMARK    2  A    between atoms: C4_6  and  C5_7 
REMARK    3  A    between atoms: C5_7  and  C6_8 
REMARK    4  A    between atoms: C6_8  and  C7_9 
REMARK    5  A    between atoms: C8_10  and  C9_11 
ROOT
HETATM    1  C6  UNL     1      16.381   1.004  11.624  1.00  0.00     0.095 C 
ENDROOT
BRANCH   1   2
HETATM    2  C5  UNL     1      16.740   2.338  11.009  1.00  0.00     0.042 C 
BRANCH   2   3
HETATM    3  C4  UNL     1      18.054   2.871  11.465  1.00  0.00     0.273 C 
BRANCH   3   4
HETATM    4  N2  UNL     1      18.054   4.210  11.945  1.00  0.00     0.091 N 
HETATM    5  C3  UNL     1      19.082   4.378  12.934  1.00  0.00     0.302 C 
HETATM    6  C2  UNL     1      18.527   4.029  14.292  1.00  0.00     0.302 C 
HETATM    7  N1  UNL     1      17.513   5.025  14.589  1.00  0.00     0.087 N 
HETATM    8  C1  UNL     1      18.098   6.337  14.480  1.00  0.00     0.310 C 
HETATM    9  C14 UNL     1      16.417   4.804  13.688  1.00  0.00     0.302 C 
HETATM   10  C13 UNL     1      16.813   4.801  12.243  1.00  0.00     0.302 C 
ENDBRANCH   3   4
ENDBRANCH   2   3
ENDBRANCH   1   2
BRANCH   1  11
HETATM   11  C7  UNL     1      16.333   1.084  13.085  1.00  0.00    -0.106 C 
HETATM   12  C8  UNL     1      16.273   1.157  14.289  1.00  0.00    -0.100 C 
BRANCH  12  13
HETATM   13  C9  UNL     1      16.178   1.260  15.757  1.00  0.00     0.092 C 
HETATM   14  C10 UNL     1      15.992  -0.120  16.307  1.00  0.00     0.046 C 
HETATM   15  C11 UNL     1      15.085   0.070  17.501  1.00  0.00     0.233 C 
HETATM   16  N3  UNL     1      14.550   1.393  17.439  1.00  0.00    -0.074 N 
HETATM   17  C12 UNL     1      14.904   1.964  16.172  1.00  0.00     0.249 C 
ATOM     18  H32 UNL     1      13.546   1.419  17.614  1.00  0.00     0.277 HD
ATOM     19  H31 UNL     1      14.843   1.972  18.226  1.00  0.00     0.277 HD
ENDBRANCH  12  13
ENDBRANCH   1  11
TORSDOF 5
ENDMDL
