MODEL 1
REMARK VINA RESULT: -6.712521353      0.000      0.000
REMARK  7 active torsions:
REMARK  status: ('A' for Active; 'I' for Inactive)
REMARK    1  A    between atoms: C3_3  and  C4_4 
REMARK    2  A    between atoms: C4_4  and  O1_6 
REMARK    3  A    between atoms: C4_4  and  C6_8 
REMARK    4  A    between atoms: C7_9  and  N1_10 
REMARK    5  A    between atoms: N1_10  and  S1_12 
REMARK    6  A    between atoms: S1_12  and  N2_14 
REMARK    7  A    between atoms: N2_14  and  N3_15 
ROOT
HETATM    1  C6  UNL     1      16.370   2.503  13.713  1.00  0.00     0.133 C 
HETATM    2  C7  UNL     1      16.993   2.224  15.030  1.00  0.00     0.171 C 
HETATM    3  C8  UNL     1      18.154   3.129  15.023  1.00  0.00     0.158 C 
HETATM    4  F1  UNL     1      19.353   2.898  15.616  1.00  0.00    -0.205 F 
HETATM    5  C9  UNL     1      17.799   4.226  14.317  1.00  0.00     0.202 C 
HETATM    6  F2  UNL     1      18.616   5.272  14.103  1.00  0.00    -0.201 F 
HETATM    7  C10 UNL     1      16.381   4.046  13.834  1.00  0.00     0.308 C 
HETATM    8  F3  UNL     1      15.549   4.370  14.858  1.00  0.00    -0.198 F 
HETATM    9  F4  UNL     1      16.139   4.684  12.674  1.00  0.00    -0.198 F 
ENDROOT
BRANCH   2  10
HETATM   10  N1  UNL     1      17.179   0.897  15.437  1.00  0.00    -0.299 N 
ATOM     11  H1  UNL     1      17.900   0.259  15.096  1.00  0.00     0.173 HD
BRANCH  10  12
HETATM   12  S1  UNL     1      15.922   0.516  16.667  1.00  0.00     0.311 S 
HETATM   13  O2  UNL     1      15.530  -1.147  16.946  1.00  0.00    -0.195 OA
BRANCH  12  14
HETATM   14  N2  UNL     1      14.890   1.642  17.050  1.00  0.00    -0.245 NA
BRANCH  14  15
HETATM   15  N3  UNL     1      14.188   2.625  17.256  1.00  0.00    -0.269 N 
ATOM     16  H32 UNL     1      14.592   3.005  16.400  1.00  0.00     0.192 HD
ATOM     17  H31 UNL     1      13.558   3.374  17.545  1.00  0.00     0.192 HD
ENDBRANCH  14  15
ENDBRANCH  12  14
ENDBRANCH  10  12
ENDBRANCH   2  10
BRANCH   1  18
HETATM   18  C4  UNL     1      17.114   2.072  12.491  1.00  0.00     0.084 C 
HETATM   19  C5  UNL     1      17.479   3.380  11.758  1.00  0.00     0.051 C 
BRANCH  18  20
HETATM   20  C3  UNL     1      16.400   1.258  11.535  1.00  0.00     0.006 C 
HETATM   21  C2  UNL     1      16.392  -0.055  11.587  1.00  0.00    -0.032 C 
HETATM   22  C1  UNL     1      17.096  -0.852  12.606  1.00  0.00     0.036 C 
ENDBRANCH  18  20
BRANCH  18  23
HETATM   23  O1  UNL     1      18.318   1.452  12.817  1.00  0.00    -0.386 OA
ATOM     24  H1  UNL     1      18.896   2.085  13.227  1.00  0.00     0.211 HD
ENDBRANCH  18  23
ENDBRANCH   1  18
TORSDOF 7
ENDMDL
MODEL 2
REMARK VINA RESULT: -6.634545387      2.842      4.194
REMARK  7 active torsions:
REMARK  status: ('A' for Active; 'I' for Inactive)
REMARK    1  A    between atoms: C3_3  and  C4_4 
REMARK    2  A    between atoms: C4_4  and  O1_6 
REMARK    3  A    between atoms: C4_4  and  C6_8 
REMARK    4  A    between atoms: C7_9  and  N1_10 
REMARK    5  A    between atoms: N1_10  and  S1_12 
REMARK    6  A    between atoms: S1_12  and  N2_14 
REMARK    7  A    between atoms: N2_14  and  N3_15 
ROOT
HETATM    1  C6  UNL     1      18.154   2.268  13.347  1.00  0.00     0.133 C 
HETATM    2  C7  UNL     1      17.521   1.947  12.045  1.00  0.00     0.171 C 
HETATM    3  C8  UNL     1      17.367   3.279  11.437  1.00  0.00     0.158 C 
HETATM    4  F1  UNL     1      16.369   3.668  10.603  1.00  0.00    -0.205 F 
HETATM    5  C9  UNL     1      18.403   4.034  11.866  1.00  0.00     0.202 C 
HETATM    6  F2  UNL     1      18.589   5.317  11.509  1.00  0.00    -0.201 F 
HETATM    7  C10 UNL     1      19.257   3.197  12.786  1.00  0.00     0.308 C 
HETATM    8  F3  UNL     1      20.068   2.427  12.014  1.00  0.00    -0.198 F 
HETATM    9  F4  UNL     1      19.884   3.927  13.726  1.00  0.00    -0.198 F 
ENDROOT
BRANCH   2  10
HETATM   10  N1  UNL     1      16.436   1.062  12.005  1.00  0.00    -0.299 N 
ATOM     11  H1  UNL     1      15.492   1.282  11.685  1.00  0.00     0.173 HD
BRANCH  10  12
HETATM   12  S1  UNL     1      17.003  -0.532  12.620  1.00  0.00     0.311 S 
HETATM   13  O2  UNL     1      17.035  -1.867  11.519  1.00  0.00    -0.195 OA
BRANCH  12  14
HETATM   14  N2  UNL     1      16.946  -0.794  14.172  1.00  0.00    -0.245 NA
BRANCH  14  15
HETATM   15  N3  UNL     1      17.074  -1.002  15.373  1.00  0.00    -0.269 N 
ATOM     16  H32 UNL     1      17.808  -0.294  15.345  1.00  0.00     0.192 HD
ATOM     17  H31 UNL     1      17.075  -1.271  16.356  1.00  0.00     0.192 HD
ENDBRANCH  14  15
ENDBRANCH  12  14
ENDBRANCH  10  12
ENDBRANCH   2  10
BRANCH   1  18
HETATM   18  C4  UNL     1      17.326   2.996  14.357  1.00  0.00     0.084 C 
HETATM   19  C5  UNL     1      17.778   2.443  15.724  1.00  0.00     0.051 C 
BRANCH  18  20
HETATM   20  C3  UNL     1      15.895   2.809  14.297  1.00  0.00     0.006 C 
HETATM   21  C2  UNL     1      15.048   3.630  14.877  1.00  0.00    -0.032 C 
HETATM   22  C1  UNL     1      15.438   4.822  15.649  1.00  0.00     0.036 C 
ENDBRANCH  18  20
BRANCH  18  23
HETATM   23  O1  UNL     1      17.614   4.359  14.367  1.00  0.00    -0.386 OA
ATOM     24  H1  UNL     1      17.946   4.617  13.516  1.00  0.00     0.211 HD
ENDBRANCH  18  23
ENDBRANCH   1  18
TORSDOF 7
ENDMDL
MODEL 3
REMARK VINA RESULT: -6.616326810      2.804      3.931
REMARK  7 active torsions:
REMARK  status: ('A' for Active; 'I' for Inactive)
REMARK    1  A    between atoms: C3_3  and  C4_4 
REMARK    2  A    between atoms: C4_4  and  O1_6 
REMARK    3  A    between atoms: C4_4  and  C6_8 
REMARK    4  A    between atoms: C7_9  and  N1_10 
REMARK    5  A    between atoms: N1_10  and  S1_12 
REMARK    6  A    between atoms: S1_12  and  N2_14 
REMARK    7  A    between atoms: N2_14  and  N3_15 
ROOT
HETATM    1  C6  UNL     1      17.268   3.083  14.064  1.00  0.00     0.133 C 
HETATM    2  C7  UNL     1      17.238   2.316  12.795  1.00  0.00     0.171 C 
HETATM    3  C8  UNL     1      17.457   3.368  11.790  1.00  0.00     0.158 C 
HETATM    4  F1  UNL     1      16.948   3.392  10.532  1.00  0.00    -0.205 F 
HETATM    5  C9  UNL     1      18.258   4.298  12.356  1.00  0.00     0.202 C 
HETATM    6  F2  UNL     1      18.671   5.411  11.724  1.00  0.00    -0.201 F 
HETATM    7  C10 UNL     1      18.569   3.867  13.768  1.00  0.00     0.308 C 
HETATM    8  F3  UNL     1      19.576   2.957  13.712  1.00  0.00    -0.198 F 
HETATM    9  F4  UNL     1      18.779   4.906  14.598  1.00  0.00    -0.198 F 
ENDROOT
BRANCH   2  10
HETATM   10  N1  UNL     1      16.216   1.382  12.578  1.00  0.00    -0.299 N 
ATOM     11  H1  UNL     1      15.243   1.597  12.357  1.00  0.00     0.173 HD
BRANCH  10  12
HETATM   12  S1  UNL     1      16.924  -0.263  12.760  1.00  0.00     0.311 S 
HETATM   13  O2  UNL     1      16.831  -1.345  11.413  1.00  0.00    -0.195 OA
BRANCH  12  14
HETATM   14  N2  UNL     1      17.115  -0.833  14.215  1.00  0.00    -0.245 NA
BRANCH  14  15
HETATM   15  N3  UNL     1      17.123  -1.188  15.389  1.00  0.00    -0.269 N 
ATOM     16  H32 UNL     1      17.948  -1.736  15.143  1.00  0.00     0.192 HD
ATOM     17  H31 UNL     1      17.014  -1.401  16.380  1.00  0.00     0.192 HD
ENDBRANCH  14  15
ENDBRANCH  12  14
ENDBRANCH  10  12
ENDBRANCH   2  10
BRANCH   1  18
HETATM   18  C4  UNL     1      16.140   4.029  14.327  1.00  0.00     0.084 C 
HETATM   19  C5  UNL     1      16.729   5.112  15.254  1.00  0.00     0.051 C 
BRANCH  18  20
HETATM   20  C3  UNL     1      14.980   3.501  15.006  1.00  0.00     0.006 C 
HETATM   21  C2  UNL     1      15.061   2.574  15.934  1.00  0.00    -0.032 C 
HETATM   22  C1  UNL     1      16.320   1.964  16.394  1.00  0.00     0.036 C 
ENDBRANCH  18  20
BRANCH  18  23
HETATM   23  O1  UNL     1      15.737   4.680  13.163  1.00  0.00    -0.386 OA
ATOM     24  H1  UNL     1      14.799   4.825  13.193  1.00  0.00     0.211 HD
ENDBRANCH  18  23
ENDBRANCH   1  18
TORSDOF 7
ENDMDL
MODEL 4
REMARK VINA RESULT: -6.607401773      3.502      4.925
REMARK  7 active torsions:
REMARK  status: ('A' for Active; 'I' for Inactive)
REMARK    1  A    between atoms: C3_3  and  C4_4 
REMARK    2  A    between atoms: C4_4  and  O1_6 
REMARK    3  A    between atoms: C4_4  and  C6_8 
REMARK    4  A    between atoms: C7_9  and  N1_10 
REMARK    5  A    between atoms: N1_10  and  S1_12 
REMARK    6  A    between atoms: S1_12  and  N2_14 
REMARK    7  A    between atoms: N2_14  and  N3_15 
ROOT
HETATM    1  C6  UNL     1      18.340   3.247  13.453  1.00  0.00     0.133 C 
HETATM    2  C7  UNL     1      18.074   4.303  12.446  1.00  0.00     0.171 C 
HETATM    3  C8  UNL     1      18.321   5.534  13.212  1.00  0.00     0.158 C 
HETATM    4  F1  UNL     1      17.688   6.723  13.045  1.00  0.00    -0.205 F 
HETATM    5  C9  UNL     1      19.294   5.256  14.110  1.00  0.00     0.202 C 
HETATM    6  F2  UNL     1      19.780   6.153  14.985  1.00  0.00    -0.201 F 
HETATM    7  C10 UNL     1      19.694   3.810  13.948  1.00  0.00     0.308 C 
HETATM    8  F3  UNL     1      20.561   3.733  12.905  1.00  0.00    -0.198 F 
HETATM    9  F4  UNL     1      20.126   3.256  15.096  1.00  0.00    -0.198 F 
ENDROOT
BRANCH   2  10
HETATM   10  N1  UNL     1      16.920   4.225  11.654  1.00  0.00    -0.299 N 
ATOM     11  H1  UNL     1      16.093   4.816  11.740  1.00  0.00     0.173 HD
BRANCH  10  12
HETATM   12  S1  UNL     1      17.158   2.898  10.462  1.00  0.00     0.311 S 
HETATM   13  O2  UNL     1      17.686   3.318   8.868  1.00  0.00    -0.195 OA
BRANCH  12  14
HETATM   14  N2  UNL     1      16.413   1.533  10.709  1.00  0.00    -0.245 NA
BRANCH  14  15
HETATM   15  N3  UNL     1      15.987   0.396  10.876  1.00  0.00    -0.269 N 
ATOM     16  H32 UNL     1      16.964   0.122  10.985  1.00  0.00     0.192 HD
ATOM     17  H31 UNL     1      15.502  -0.493  10.996  1.00  0.00     0.192 HD
ENDBRANCH  14  15
ENDBRANCH  12  14
ENDBRANCH  10  12
ENDBRANCH   2  10
BRANCH   1  18
HETATM   18  C4  UNL     1      17.381   3.122  14.593  1.00  0.00     0.084 C 
HETATM   19  C5  UNL     1      16.364   2.051  14.150  1.00  0.00     0.051 C 
BRANCH  18  20
HETATM   20  C3  UNL     1      16.611   4.294  14.941  1.00  0.00     0.006 C 
HETATM   21  C2  UNL     1      15.490   4.230  15.624  1.00  0.00    -0.032 C 
HETATM   22  C1  UNL     1      14.885   2.980  16.115  1.00  0.00     0.036 C 
ENDBRANCH  18  20
BRANCH  18  23
HETATM   23  O1  UNL     1      18.007   2.625  15.735  1.00  0.00    -0.386 OA
ATOM     24  H1  UNL     1      17.362   2.197  16.285  1.00  0.00     0.211 HD
ENDBRANCH  18  23
ENDBRANCH   1  18
TORSDOF 7
ENDMDL
MODEL 5
REMARK VINA RESULT: -6.579937390      2.834      3.828
REMARK  7 active torsions:
REMARK  status: ('A' for Active; 'I' for Inactive)
REMARK    1  A    between atoms: C3_3  and  C4_4 
REMARK    2  A    between atoms: C4_4  and  O1_6 
REMARK    3  A    between atoms: C4_4  and  C6_8 
REMARK    4  A    between atoms: C7_9  and  N1_10 
REMARK    5  A    between atoms: N1_10  and  S1_12 
REMARK    6  A    between atoms: S1_12  and  N2_14 
REMARK    7  A    between atoms: N2_14  and  N3_15 
ROOT
HETATM    1  C6  UNL     1      18.373   4.395  12.703  1.00  0.00     0.133 C 
HETATM    2  C7  UNL     1      17.716   3.149  13.168  1.00  0.00     0.171 C 
HETATM    3  C8  UNL     1      17.374   3.477  14.561  1.00  0.00     0.158 C 
HETATM    4  F1  UNL     1      17.335   2.608  15.603  1.00  0.00    -0.205 F 
HETATM    5  C9  UNL     1      17.108   4.803  14.603  1.00  0.00     0.202 C 
HETATM    6  F2  UNL     1      16.756   5.457  15.723  1.00  0.00    -0.201 F 
HETATM    7  C10 UNL     1      17.287   5.371  13.217  1.00  0.00     0.308 C 
HETATM    8  F3  UNL     1      16.155   5.112  12.512  1.00  0.00    -0.198 F 
HETATM    9  F4  UNL     1      17.675   6.660  13.227  1.00  0.00    -0.198 F 
ENDROOT
BRANCH   2  10
HETATM   10  N1  UNL     1      18.316   1.912  12.898  1.00  0.00    -0.299 N 
ATOM     11  H1  UNL     1      19.310   1.749  12.739  1.00  0.00     0.173 HD
BRANCH  10  12
HETATM   12  S1  UNL     1      17.020   0.662  12.882  1.00  0.00     0.311 S 
HETATM   13  O2  UNL     1      15.639   0.931  11.874  1.00  0.00    -0.195 OA
BRANCH  12  14
HETATM   14  N2  UNL     1      16.919  -0.321  14.108  1.00  0.00    -0.245 NA
BRANCH  14  15
HETATM   15  N3  UNL     1      16.987  -1.012  15.118  1.00  0.00    -0.269 N 
ATOM     16  H32 UNL     1      17.865  -0.527  15.305  1.00  0.00     0.192 HD
ATOM     17  H31 UNL     1      16.919  -1.644  15.915  1.00  0.00     0.192 HD
ENDBRANCH  14  15
ENDBRANCH  12  14
ENDBRANCH  10  12
ENDBRANCH   2  10
BRANCH   1  18
HETATM   18  C4  UNL     1      19.702   4.738  13.296  1.00  0.00     0.084 C 
HETATM   19  C5  UNL     1      19.414   5.863  14.310  1.00  0.00     0.051 C 
BRANCH  18  20
HETATM   20  C3  UNL     1      20.713   5.249  12.399  1.00  0.00     0.006 C 
HETATM   21  C2  UNL     1      21.392   4.477  11.580  1.00  0.00    -0.032 C 
HETATM   22  C1  UNL     1      21.215   3.019  11.472  1.00  0.00     0.036 C 
ENDBRANCH  18  20
BRANCH  18  23
HETATM   23  O1  UNL     1      20.228   3.673  14.024  1.00  0.00    -0.386 OA
ATOM     24  H1  UNL     1      20.783   4.010  14.717  1.00  0.00     0.211 HD
ENDBRANCH  18  23
ENDBRANCH   1  18
TORSDOF 7
ENDMDL
