MODEL 1
REMARK VINA RESULT: -6.168574562      0.000      0.000
REMARK  6 active torsions:
REMARK  status: ('A' for Active; 'I' for Inactive)
REMARK    1  A    between atoms: O1_2  and  C2_3 
REMARK    2  A    between atoms: C8_10  and  N2_12 
REMARK    3  A    between atoms: N2_12  and  C10_14 
REMARK    4  A    between atoms: C10_14  and  C11_15 
REMARK    5  A    between atoms: C10_14  and  C12_18 
REMARK    6  A    between atoms: C11_15  and  O2_16 
ROOT
HETATM    1  C2  UNL     1      17.747   4.230  14.564  1.00  0.00     0.174 C 
HETATM    2  C3  UNL     1      17.958   4.626  13.089  1.00  0.00     0.271 C 
HETATM    3  N1  UNL     1      18.377   3.520  12.285  1.00  0.00    -0.072 N 
HETATM    4  C4  UNL     1      19.823   3.412  12.210  1.00  0.00     0.272 C 
HETATM    5  C5  UNL     1      17.917   3.773  10.919  1.00  0.00     0.272 C 
HETATM    6  C6  UNL     1      17.822   2.272  12.788  1.00  0.00     0.239 C 
HETATM    7  C7  UNL     1      16.446   2.565  13.363  1.00  0.00     0.060 C 
HETATM    8  C8  UNL     1      16.564   3.345  14.697  1.00  0.00     0.051 C 
HETATM    9  C9  UNL     1      15.355   4.327  14.582  1.00  0.00     0.041 C 
ENDROOT
BRANCH   8  10
HETATM   10  N2  UNL     1      16.322   2.581  15.795  1.00  0.00    -0.404 N 
ATOM     11  H2  UNL     1      16.678   2.986  16.662  1.00  0.00     0.154 HD
BRANCH  10  12
HETATM   12  C10 UNL     1      15.694   1.375  15.968  1.00  0.00     0.104 C 
BRANCH  12  13
HETATM   13  C11 UNL     1      16.610   0.236  16.305  1.00  0.00     0.189 C 
BRANCH  13  14
HETATM   14  O2  UNL     1      17.946   0.690  16.454  1.00  0.00    -0.399 OA
ATOM     15  H2  UNL     1      18.564   0.001  16.237  1.00  0.00     0.209 HD
ENDBRANCH  13  14
ENDBRANCH  12  13
BRANCH  12  16
HETATM   16  C12 UNL     1      14.674   1.533  17.099  1.00  0.00     0.002 C 
HETATM   17  C13 UNL     1      15.260   1.765  18.442  1.00  0.00     0.011 C 
HETATM   18  C14 UNL     1      13.822   0.265  17.204  1.00  0.00     0.011 C 
ENDBRANCH  12  16
ENDBRANCH  10  12
ENDBRANCH   8  10
BRANCH   1  19
HETATM   19  O1  UNL     1      17.466   5.486  15.172  1.00  0.00    -0.387 OA
HETATM   20  C1  UNL     1      18.322   6.406  14.579  1.00  0.00     0.202 C 
ENDBRANCH   1  19
TORSDOF 6
ENDMDL
MODEL 2
REMARK VINA RESULT: -6.053491454      1.630      2.845
REMARK  6 active torsions:
REMARK  status: ('A' for Active; 'I' for Inactive)
REMARK    1  A    between atoms: O1_2  and  C2_3 
REMARK    2  A    between atoms: C8_10  and  N2_12 
REMARK    3  A    between atoms: N2_12  and  C10_14 
REMARK    4  A    between atoms: C10_14  and  C11_15 
REMARK    5  A    between atoms: C10_14  and  C12_18 
REMARK    6  A    between atoms: C11_15  and  O2_16 
ROOT
HETATM    1  C2  UNL     1      17.224   3.144  13.303  1.00  0.00     0.174 C 
HETATM    2  C3  UNL     1      17.715   4.349  12.477  1.00  0.00     0.271 C 
HETATM    3  N1  UNL     1      16.894   5.505  12.664  1.00  0.00    -0.072 N 
HETATM    4  C4  UNL     1      15.822   5.581  11.687  1.00  0.00     0.272 C 
HETATM    5  C5  UNL     1      17.735   6.681  12.437  1.00  0.00     0.272 C 
HETATM    6  C6  UNL     1      16.330   5.531  14.006  1.00  0.00     0.239 C 
HETATM    7  C7  UNL     1      17.346   4.921  14.956  1.00  0.00     0.060 C 
HETATM    8  C8  UNL     1      17.438   3.388  14.750  1.00  0.00     0.051 C 
HETATM    9  C9  UNL     1      18.969   3.147  14.941  1.00  0.00     0.041 C 
ENDROOT
BRANCH   8  10
HETATM   10  N2  UNL     1      16.822   2.671  15.728  1.00  0.00    -0.404 N 
ATOM     11  H2  UNL     1      17.074   2.966  16.672  1.00  0.00     0.154 HD
BRANCH  10  12
HETATM   12  C10 UNL     1      15.929   1.632  15.697  1.00  0.00     0.104 C 
BRANCH  12  13
HETATM   13  C11 UNL     1      16.556   0.271  15.632  1.00  0.00     0.189 C 
BRANCH  13  14
HETATM   14  O2  UNL     1      17.690   0.197  16.482  1.00  0.00    -0.399 OA
ATOM     15  H2  UNL     1      18.493   0.290  15.982  1.00  0.00     0.209 HD
ENDBRANCH  13  14
ENDBRANCH  12  13
BRANCH  12  16
HETATM   16  C12 UNL     1      15.066   1.714  16.958  1.00  0.00     0.002 C 
HETATM   17  C13 UNL     1      13.994   0.692  17.050  1.00  0.00     0.011 C 
HETATM   18  C14 UNL     1      14.377   3.080  17.023  1.00  0.00     0.011 C 
ENDBRANCH  12  16
ENDBRANCH  10  12
ENDBRANCH   8  10
BRANCH   1  19
HETATM   19  O1  UNL     1      18.097   2.107  12.866  1.00  0.00    -0.387 OA
HETATM   20  C1  UNL     1      17.297   1.167  12.229  1.00  0.00     0.202 C 
ENDBRANCH   1  19
TORSDOF 6
ENDMDL
MODEL 3
REMARK VINA RESULT: -5.992467615      1.617      2.693
REMARK  6 active torsions:
REMARK  status: ('A' for Active; 'I' for Inactive)
REMARK    1  A    between atoms: O1_2  and  C2_3 
REMARK    2  A    between atoms: C8_10  and  N2_12 
REMARK    3  A    between atoms: N2_12  and  C10_14 
REMARK    4  A    between atoms: C10_14  and  C11_15 
REMARK    5  A    between atoms: C10_14  and  C12_18 
REMARK    6  A    between atoms: C11_15  and  O2_16 
ROOT
HETATM    1  C2  UNL     1      17.254   3.015  13.137  1.00  0.00     0.174 C 
HETATM    2  C3  UNL     1      17.937   4.021  12.190  1.00  0.00     0.271 C 
HETATM    3  N1  UNL     1      17.195   5.236  12.063  1.00  0.00    -0.072 N 
HETATM    4  C4  UNL     1      16.261   5.196  10.951  1.00  0.00     0.272 C 
HETATM    5  C5  UNL     1      18.148   6.302  11.753  1.00  0.00     0.272 C 
HETATM    6  C6  UNL     1      16.474   5.537  13.291  1.00  0.00     0.239 C 
HETATM    7  C7  UNL     1      17.313   5.052  14.461  1.00  0.00     0.060 C 
HETATM    8  C8  UNL     1      17.307   3.504  14.536  1.00  0.00     0.051 C 
HETATM    9  C9  UNL     1      18.778   3.215  14.971  1.00  0.00     0.041 C 
ENDROOT
BRANCH   8  10
HETATM   10  N2  UNL     1      16.520   3.012  15.530  1.00  0.00    -0.404 N 
ATOM     11  H2  UNL     1      16.264   3.708  16.231  1.00  0.00     0.154 HD
BRANCH  10  12
HETATM   12  C10 UNL     1      16.001   1.767  15.776  1.00  0.00     0.104 C 
BRANCH  12  13
HETATM   13  C11 UNL     1      16.764   0.961  16.786  1.00  0.00     0.189 C 
BRANCH  13  14
HETATM   14  O2  UNL     1      17.613   0.022  16.145  1.00  0.00    -0.399 OA
ATOM     15  H2  UNL     1      17.889  -0.654  16.752  1.00  0.00     0.209 HD
ENDBRANCH  13  14
ENDBRANCH  12  13
BRANCH  12  16
HETATM   16  C12 UNL     1      14.565   1.944  16.275  1.00  0.00     0.002 C 
HETATM   17  C13 UNL     1      14.342   3.140  17.125  1.00  0.00     0.011 C 
HETATM   18  C14 UNL     1      14.157   0.728  17.112  1.00  0.00     0.011 C 
ENDBRANCH  12  16
ENDBRANCH  10  12
ENDBRANCH   8  10
BRANCH   1  19
HETATM   19  O1  UNL     1      18.088   1.868  13.006  1.00  0.00    -0.387 OA
HETATM   20  C1  UNL     1      17.277   0.849  12.525  1.00  0.00     0.202 C 
ENDBRANCH   1  19
TORSDOF 6
ENDMDL
MODEL 4
REMARK VINA RESULT: -5.817265033      2.155      5.264
REMARK  6 active torsions:
REMARK  status: ('A' for Active; 'I' for Inactive)
REMARK    1  A    between atoms: O1_2  and  C2_3 
REMARK    2  A    between atoms: C8_10  and  N2_12 
REMARK    3  A    between atoms: N2_12  and  C10_14 
REMARK    4  A    between atoms: C10_14  and  C11_15 
REMARK    5  A    between atoms: C10_14  and  C12_18 
REMARK    6  A    between atoms: C11_15  and  O2_16 
ROOT
HETATM    1  C2  UNL     1      15.362   2.381  15.030  1.00  0.00     0.174 C 
HETATM    2  C3  UNL     1      15.020   2.472  16.530  1.00  0.00     0.271 C 
HETATM    3  N1  UNL     1      14.947   1.185  17.149  1.00  0.00    -0.072 N 
HETATM    4  C4  UNL     1      13.602   0.639  17.124  1.00  0.00     0.272 C 
HETATM    5  C5  UNL     1      15.289   1.357  18.561  1.00  0.00     0.272 C 
HETATM    6  C6  UNL     1      15.862   0.249  16.512  1.00  0.00     0.239 C 
HETATM    7  C7  UNL     1      17.091   1.022  16.064  1.00  0.00     0.060 C 
HETATM    8  C8  UNL     1      16.760   1.921  14.846  1.00  0.00     0.051 C 
HETATM    9  C9  UNL     1      17.611   3.191  15.165  1.00  0.00     0.041 C 
ENDROOT
BRANCH   8  10
HETATM   10  N2  UNL     1      17.238   1.437  13.669  1.00  0.00    -0.404 N 
ATOM     11  H2  UNL     1      18.183   1.057  13.736  1.00  0.00     0.154 HD
BRANCH  10  12
HETATM   12  C10 UNL     1      16.701   1.357  12.409  1.00  0.00     0.104 C 
BRANCH  12  13
HETATM   13  C11 UNL     1      17.125   2.455  11.479  1.00  0.00     0.189 C 
BRANCH  13  14
HETATM   14  O2  UNL     1      16.457   3.668  11.793  1.00  0.00    -0.399 OA
ATOM     15  H2  UNL     1      16.218   3.694  12.713  1.00  0.00     0.209 HD
ENDBRANCH  13  14
ENDBRANCH  12  13
BRANCH  12  16
HETATM   16  C12 UNL     1      17.119   0.015  11.803  1.00  0.00     0.002 C 
HETATM   17  C13 UNL     1      16.213  -0.504  10.749  1.00  0.00     0.011 C 
HETATM   18  C14 UNL     1      17.172  -1.052  12.901  1.00  0.00     0.011 C 
ENDBRANCH  12  16
ENDBRANCH  10  12
ENDBRANCH   8  10
BRANCH   1  19
HETATM   19  O1  UNL     1      15.255   3.740  14.617  1.00  0.00    -0.387 OA
HETATM   20  C1  UNL     1      14.705   4.431  15.690  1.00  0.00     0.202 C 
ENDBRANCH   1  19
TORSDOF 6
ENDMDL
MODEL 5
REMARK VINA RESULT: -5.700168145      1.455      2.243
REMARK  6 active torsions:
REMARK  status: ('A' for Active; 'I' for Inactive)
REMARK    1  A    between atoms: O1_2  and  C2_3 
REMARK    2  A    between atoms: C8_10  and  N2_12 
REMARK    3  A    between atoms: N2_12  and  C10_14 
REMARK    4  A    between atoms: C10_14  and  C11_15 
REMARK    5  A    between atoms: C10_14  and  C12_18 
REMARK    6  A    between atoms: C11_15  and  O2_16 
ROOT
HETATM    1  C2  UNL     1      16.997   4.665  14.151  1.00  0.00     0.174 C 
HETATM    2  C3  UNL     1      17.946   5.306  13.119  1.00  0.00     0.271 C 
HETATM    3  N1  UNL     1      19.277   5.445  13.620  1.00  0.00    -0.072 N 
HETATM    4  C4  UNL     1      19.493   6.733  14.255  1.00  0.00     0.272 C 
HETATM    5  C5  UNL     1      20.184   5.402  12.472  1.00  0.00     0.272 C 
HETATM    6  C6  UNL     1      19.594   4.381  14.561  1.00  0.00     0.239 C 
HETATM    7  C7  UNL     1      18.873   3.121  14.109  1.00  0.00     0.060 C 
HETATM    8  C8  UNL     1      17.349   3.240  14.363  1.00  0.00     0.051 C 
HETATM    9  C9  UNL     1      16.774   2.527  13.098  1.00  0.00     0.041 C 
ENDROOT
BRANCH   8  10
HETATM   10  N2  UNL     1      16.920   2.514  15.429  1.00  0.00    -0.404 N 
ATOM     11  H2  UNL     1      17.366   2.775  16.309  1.00  0.00     0.154 HD
BRANCH  10  12
HETATM   12  C10 UNL     1      16.005   1.501  15.556  1.00  0.00     0.104 C 
BRANCH  12  13
HETATM   13  C11 UNL     1      16.602   0.128  15.649  1.00  0.00     0.189 C 
BRANCH  13  14
HETATM   14  O2  UNL     1      17.774   0.140  16.448  1.00  0.00    -0.399 OA
ATOM     15  H2  UNL     1      17.681   0.744  17.176  1.00  0.00     0.209 HD
ENDBRANCH  13  14
ENDBRANCH  12  13
BRANCH  12  16
HETATM   16  C12 UNL     1      15.183   1.763  16.821  1.00  0.00     0.002 C 
HETATM   17  C13 UNL     1      14.119   0.766  17.093  1.00  0.00     0.011 C 
HETATM   18  C14 UNL     1      14.492   3.126  16.712  1.00  0.00     0.011 C 
ENDBRANCH  12  16
ENDBRANCH  10  12
ENDBRANCH   8  10
BRANCH   1  19
HETATM   19  O1  UNL     1      15.738   4.745  13.489  1.00  0.00    -0.387 OA
HETATM   20  C1  UNL     1      15.817   5.837  12.634  1.00  0.00     0.202 C 
ENDBRANCH   1  19
TORSDOF 6
ENDMDL
