MODEL 1
REMARK VINA RESULT: -7.734889036      0.000      0.000
REMARK  12 active torsions:
REMARK  status: ('A' for Active; 'I' for Inactive)
REMARK    1  A    between atoms: C2_2  and  O1_3 
REMARK    2  A    between atoms: C2_2  and  C3_5 
REMARK    3  A    between atoms: C2_2  and  C13_29 
REMARK    4  A    between atoms: C3_5  and  O2_6 
REMARK    5  A    between atoms: C3_5  and  C4_8 
REMARK    6  A    between atoms: C4_8  and  N1_9 
REMARK    7  A    between atoms: C4_8  and  C9_15 
REMARK    8  A    between atoms: C9_15  and  C10_18 
REMARK    9  A    between atoms: C10_18  and  O4_19 
REMARK   10  A    between atoms: C10_18  and  C11_21 
REMARK   11  A    between atoms: C10_18  and  C12_25 
REMARK   12  A    between atoms: C13_29  and  C14_32 
ROOT
HETATM    1  C4  UNL     1      17.041   3.569  12.952  1.00  0.00     0.122 C 
ENDROOT
BRANCH   1   2
HETATM    2  C3  UNL     1      17.872   2.549  12.305  1.00  0.00     0.112 C 
BRANCH   2   3
HETATM    3  C2  UNL     1      17.718   1.873  11.051  1.00  0.00     0.175 C 
HETATM    4  C1  UNL     1      18.972   1.310  10.393  1.00  0.00     0.060 C 
BRANCH   3   5
HETATM    5  O1  UNL     1      17.063   2.522  10.016  1.00  0.00    -0.377 OA
ATOM      6  H1  UNL     1      16.653   3.267  10.439  1.00  0.00     0.211 HD
ENDBRANCH   3   5
BRANCH   3   7
HETATM    7  C13 UNL     1      16.836   0.637  11.288  1.00  0.00     0.337 C 
HETATM    8  F9  UNL     1      15.671   1.095  11.867  1.00  0.00    -0.196 F 
HETATM    9  F10 UNL     1      16.429   0.121  10.053  1.00  0.00    -0.196 F 
BRANCH   7  10
HETATM   10  C14 UNL     1      17.442  -0.407  12.141  1.00  0.00     0.428 C 
HETATM   11  F11 UNL     1      17.198  -1.661  11.564  1.00  0.00    -0.208 F 
HETATM   12  F12 UNL     1      16.756  -0.496  13.377  1.00  0.00    -0.208 F 
ENDBRANCH   7  10
ENDBRANCH   3   7
ENDBRANCH   2   3
BRANCH   2  13
HETATM   13  O2  UNL     1      19.245   2.902  12.452  1.00  0.00    -0.360 OA
ATOM     14  H2  UNL     1      19.472   3.503  11.752  1.00  0.00     0.217 HD
ENDBRANCH   2  13
ENDBRANCH   1   2
BRANCH   1  15
HETATM   15  N1  UNL     1      17.341   4.945  12.557  1.00  0.00    -0.314 N 
HETATM   16  C5  UNL     1      18.351   5.883  12.950  1.00  0.00     0.133 C 
HETATM   17  C6  UNL     1      17.699   7.279  12.952  1.00  0.00     0.029 C 
HETATM   18  C7  UNL     1      16.761   7.163  11.802  1.00  0.00     0.105 C 
HETATM   19  C8  UNL     1      16.595   5.707  11.573  1.00  0.00     0.224 C 
HETATM   20  O3  UNL     1      15.881   5.235  10.624  1.00  0.00    -0.273 OA
ENDBRANCH   1  15
BRANCH   1  21
HETATM   21  C9  UNL     1      16.776   3.409  14.402  1.00  0.00     0.336 C 
HETATM   22  F1  UNL     1      17.688   4.045  15.196  1.00  0.00    -0.195 F 
HETATM   23  F2  UNL     1      17.098   2.014  14.635  1.00  0.00    -0.195 F 
BRANCH  21  24
HETATM   24  C10 UNL     1      15.397   3.483  14.920  1.00  0.00     0.326 C 
BRANCH  24  25
HETATM   25  O4  UNL     1      14.376   3.201  14.030  1.00  0.00    -0.369 OA
ATOM     26  H4  UNL     1      13.516   3.036  14.398  1.00  0.00     0.211 HD
ENDBRANCH  24  25
BRANCH  24  27
HETATM   27  C11 UNL     1      15.103   2.736  16.190  1.00  0.00     0.433 C 
HETATM   28  F3  UNL     1      13.900   3.037  16.771  1.00  0.00    -0.167 F 
HETATM   29  F4  UNL     1      14.999   1.353  15.927  1.00  0.00    -0.167 F 
HETATM   30  F5  UNL     1      16.098   2.792  17.139  1.00  0.00    -0.167 F 
ENDBRANCH  24  27
BRANCH  24  31
HETATM   31  C12 UNL     1      15.119   4.965  15.290  1.00  0.00     0.433 C 
HETATM   32  F6  UNL     1      16.286   5.673  15.488  1.00  0.00    -0.167 F 
HETATM   33  F7  UNL     1      14.514   5.616  14.234  1.00  0.00    -0.167 F 
HETATM   34  F8  UNL     1      14.370   4.958  16.418  1.00  0.00    -0.167 F 
ENDBRANCH  24  31
ENDBRANCH  21  24
ENDBRANCH   1  21
TORSDOF 12
ENDMDL
MODEL 2
REMARK VINA RESULT: -7.473829122      0.786      1.045
REMARK  12 active torsions:
REMARK  status: ('A' for Active; 'I' for Inactive)
REMARK    1  A    between atoms: C2_2  and  O1_3 
REMARK    2  A    between atoms: C2_2  and  C3_5 
REMARK    3  A    between atoms: C2_2  and  C13_29 
REMARK    4  A    between atoms: C3_5  and  O2_6 
REMARK    5  A    between atoms: C3_5  and  C4_8 
REMARK    6  A    between atoms: C4_8  and  N1_9 
REMARK    7  A    between atoms: C4_8  and  C9_15 
REMARK    8  A    between atoms: C9_15  and  C10_18 
REMARK    9  A    between atoms: C10_18  and  O4_19 
REMARK   10  A    between atoms: C10_18  and  C11_21 
REMARK   11  A    between atoms: C10_18  and  C12_25 
REMARK   12  A    between atoms: C13_29  and  C14_32 
ROOT
HETATM    1  C4  UNL     1      17.282   3.729  12.854  1.00  0.00     0.122 C 
ENDROOT
BRANCH   1   2
HETATM    2  C3  UNL     1      18.279   2.808  12.300  1.00  0.00     0.112 C 
BRANCH   2   3
HETATM    3  C2  UNL     1      18.380   2.208  11.003  1.00  0.00     0.175 C 
HETATM    4  C1  UNL     1      19.673   2.419  10.225  1.00  0.00     0.060 C 
BRANCH   3   5
HETATM    5  O1  UNL     1      17.387   2.460  10.068  1.00  0.00    -0.377 OA
ATOM      6  H1  UNL     1      16.641   2.721  10.595  1.00  0.00     0.211 HD
ENDBRANCH   3   5
BRANCH   3   7
HETATM    7  C13 UNL     1      18.298   0.684  11.182  1.00  0.00     0.337 C 
HETATM    8  F9  UNL     1      17.989   0.161   9.944  1.00  0.00    -0.196 F 
HETATM    9  F10 UNL     1      19.576   0.185  11.460  1.00  0.00    -0.196 F 
BRANCH   7  10
HETATM   10  C14 UNL     1      17.307   0.227  12.179  1.00  0.00     0.428 C 
HETATM   11  F11 UNL     1      17.366  -1.172  12.268  1.00  0.00    -0.208 F 
HETATM   12  F12 UNL     1      15.991   0.453  11.709  1.00  0.00    -0.208 F 
ENDBRANCH   7  10
ENDBRANCH   3   7
ENDBRANCH   2   3
BRANCH   2  13
HETATM   13  O2  UNL     1      19.581   3.236  12.692  1.00  0.00    -0.360 OA
ATOM     14  H2  UNL     1      19.607   4.184  12.644  1.00  0.00     0.217 HD
ENDBRANCH   2  13
ENDBRANCH   1   2
BRANCH   1  15
HETATM   15  N1  UNL     1      17.403   5.113  12.395  1.00  0.00    -0.314 N 
HETATM   16  C5  UNL     1      18.318   6.174  12.699  1.00  0.00     0.133 C 
HETATM   17  C6  UNL     1      17.513   7.486  12.686  1.00  0.00     0.029 C 
HETATM   18  C7  UNL     1      16.537   7.219  11.594  1.00  0.00     0.105 C 
HETATM   19  C8  UNL     1      16.527   5.745  11.426  1.00  0.00     0.224 C 
HETATM   20  O3  UNL     1      15.825   5.157  10.535  1.00  0.00    -0.273 OA
ENDBRANCH   1  15
BRANCH   1  21
HETATM   21  C9  UNL     1      16.973   3.605  14.299  1.00  0.00     0.336 C 
HETATM   22  F1  UNL     1      17.814   4.324  15.100  1.00  0.00    -0.195 F 
HETATM   23  F2  UNL     1      17.369   2.243  14.596  1.00  0.00    -0.195 F 
BRANCH  21  24
HETATM   24  C10 UNL     1      15.574   3.614  14.765  1.00  0.00     0.326 C 
BRANCH  24  25
HETATM   25  O4  UNL     1      14.599   3.312  13.831  1.00  0.00    -0.369 OA
ATOM     26  H4  UNL     1      13.768   2.994  14.162  1.00  0.00     0.211 HD
ENDBRANCH  24  25
BRANCH  24  27
HETATM   27  C11 UNL     1      15.262   2.827  16.007  1.00  0.00     0.433 C 
HETATM   28  F3  UNL     1      14.039   3.089  16.564  1.00  0.00    -0.167 F 
HETATM   29  F4  UNL     1      15.194   1.450  15.705  1.00  0.00    -0.167 F 
HETATM   30  F5  UNL     1      16.231   2.878  16.983  1.00  0.00    -0.167 F 
ENDBRANCH  24  27
BRANCH  24  31
HETATM   31  C12 UNL     1      15.223   5.075  15.155  1.00  0.00     0.433 C 
HETATM   32  F6  UNL     1      16.352   5.846  15.328  1.00  0.00    -0.167 F 
HETATM   33  F7  UNL     1      14.554   5.698  14.121  1.00  0.00    -0.167 F 
HETATM   34  F8  UNL     1      14.505   5.018  16.303  1.00  0.00    -0.167 F 
ENDBRANCH  24  31
ENDBRANCH  21  24
ENDBRANCH   1  21
TORSDOF 12
ENDMDL
MODEL 3
REMARK VINA RESULT: -7.464118617      1.935      4.992
REMARK  12 active torsions:
REMARK  status: ('A' for Active; 'I' for Inactive)
REMARK    1  A    between atoms: C2_2  and  O1_3 
REMARK    2  A    between atoms: C2_2  and  C3_5 
REMARK    3  A    between atoms: C2_2  and  C13_29 
REMARK    4  A    between atoms: C3_5  and  O2_6 
REMARK    5  A    between atoms: C3_5  and  C4_8 
REMARK    6  A    between atoms: C4_8  and  N1_9 
REMARK    7  A    between atoms: C4_8  and  C9_15 
REMARK    8  A    between atoms: C9_15  and  C10_18 
REMARK    9  A    between atoms: C10_18  and  O4_19 
REMARK   10  A    between atoms: C10_18  and  C11_21 
REMARK   11  A    between atoms: C10_18  and  C12_25 
REMARK   12  A    between atoms: C13_29  and  C14_32 
ROOT
HETATM    1  C4  UNL     1      17.488   2.805  12.785  1.00  0.00     0.122 C 
ENDROOT
BRANCH   1   2
HETATM    2  C3  UNL     1      18.078   4.083  12.375  1.00  0.00     0.112 C 
BRANCH   2   3
HETATM    3  C2  UNL     1      19.427   4.560  12.453  1.00  0.00     0.175 C 
HETATM    4  C1  UNL     1      20.005   5.250  11.224  1.00  0.00     0.060 C 
BRANCH   3   5
HETATM    5  O1  UNL     1      20.427   3.680  12.840  1.00  0.00    -0.377 OA
ATOM      6  H1  UNL     1      19.961   3.001  13.313  1.00  0.00     0.211 HD
ENDBRANCH   3   5
BRANCH   3   7
HETATM    7  C13 UNL     1      19.483   5.638  13.547  1.00  0.00     0.337 C 
HETATM    8  F9  UNL     1      19.803   4.988  14.720  1.00  0.00    -0.196 F 
HETATM    9  F10 UNL     1      20.576   6.478  13.307  1.00  0.00    -0.196 F 
BRANCH   7  10
HETATM   10  C14 UNL     1      18.234   6.408  13.726  1.00  0.00     0.428 C 
HETATM   11  F11 UNL     1      18.553   7.770  13.826  1.00  0.00    -0.208 F 
HETATM   12  F12 UNL     1      17.659   6.131  14.990  1.00  0.00    -0.208 F 
ENDBRANCH   7  10
ENDBRANCH   3   7
ENDBRANCH   2   3
BRANCH   2  13
HETATM   13  O2  UNL     1      17.549   4.458  11.106  1.00  0.00    -0.360 OA
ATOM     14  H2  UNL     1      18.267   4.491  10.485  1.00  0.00     0.217 HD
ENDBRANCH   2  13
ENDBRANCH   1   2
BRANCH   1  15
HETATM   15  N1  UNL     1      17.384   1.809  11.719  1.00  0.00    -0.314 N 
HETATM   16  C5  UNL     1      16.318   1.406  10.849  1.00  0.00     0.133 C 
HETATM   17  C6  UNL     1      16.450  -0.113  10.639  1.00  0.00     0.029 C 
HETATM   18  C7  UNL     1      17.930  -0.279  10.636  1.00  0.00     0.105 C 
HETATM   19  C8  UNL     1      18.465   0.945  11.282  1.00  0.00     0.224 C 
HETATM   20  O3  UNL     1      19.717   1.165  11.413  1.00  0.00    -0.273 OA
ENDBRANCH   1  15
BRANCH   1  21
HETATM   21  C9  UNL     1      16.300   2.858  13.670  1.00  0.00     0.336 C 
HETATM   22  F1  UNL     1      15.209   2.215  13.158  1.00  0.00    -0.195 F 
HETATM   23  F2  UNL     1      15.896   4.248  13.581  1.00  0.00    -0.195 F 
BRANCH  21  24
HETATM   24  C10 UNL     1      16.448   2.687  15.128  1.00  0.00     0.326 C 
BRANCH  24  25
HETATM   25  O4  UNL     1      17.640   3.109  15.691  1.00  0.00    -0.369 OA
ATOM     26  H4  UNL     1      17.589   3.535  16.538  1.00  0.00     0.211 HD
ENDBRANCH  24  25
BRANCH  24  27
HETATM   27  C11 UNL     1      15.336   3.206  15.994  1.00  0.00     0.433 C 
HETATM   28  F3  UNL     1      15.427   2.864  17.316  1.00  0.00    -0.167 F 
HETATM   29  F4  UNL     1      15.358   4.617  16.020  1.00  0.00    -0.167 F 
HETATM   30  F5  UNL     1      14.068   2.930  15.534  1.00  0.00    -0.167 F 
ENDBRANCH  24  27
BRANCH  24  31
HETATM   31  C12 UNL     1      16.462   1.162  15.417  1.00  0.00     0.433 C 
HETATM   32  F6  UNL     1      15.238   0.712  15.864  1.00  0.00    -0.167 F 
HETATM   33  F7  UNL     1      16.666   0.456  14.249  1.00  0.00    -0.167 F 
HETATM   34  F8  UNL     1      17.419   0.945  16.351  1.00  0.00    -0.167 F 
ENDBRANCH  24  31
ENDBRANCH  21  24
ENDBRANCH   1  21
TORSDOF 12
ENDMDL
MODEL 4
REMARK VINA RESULT: -7.372533566      1.995      5.381
REMARK  12 active torsions:
REMARK  status: ('A' for Active; 'I' for Inactive)
REMARK    1  A    between atoms: C2_2  and  O1_3 
REMARK    2  A    between atoms: C2_2  and  C3_5 
REMARK    3  A    between atoms: C2_2  and  C13_29 
REMARK    4  A    between atoms: C3_5  and  O2_6 
REMARK    5  A    between atoms: C3_5  and  C4_8 
REMARK    6  A    between atoms: C4_8  and  N1_9 
REMARK    7  A    between atoms: C4_8  and  C9_15 
REMARK    8  A    between atoms: C9_15  and  C10_18 
REMARK    9  A    between atoms: C10_18  and  O4_19 
REMARK   10  A    between atoms: C10_18  and  C11_21 
REMARK   11  A    between atoms: C10_18  and  C12_25 
REMARK   12  A    between atoms: C13_29  and  C14_32 
ROOT
HETATM    1  C4  UNL     1      17.568   3.399  12.298  1.00  0.00     0.122 C 
ENDROOT
BRANCH   1   2
HETATM    2  C3  UNL     1      16.595   4.065  13.171  1.00  0.00     0.112 C 
BRANCH   2   3
HETATM    3  C2  UNL     1      16.657   4.392  14.564  1.00  0.00     0.175 C 
HETATM    4  C1  UNL     1      16.355   5.831  14.967  1.00  0.00     0.060 C 
BRANCH   3   5
HETATM    5  O1  UNL     1      17.809   4.085  15.274  1.00  0.00    -0.377 OA
ATOM      6  H1  UNL     1      17.885   3.142  15.185  1.00  0.00     0.211 HD
ENDBRANCH   3   5
BRANCH   3   7
HETATM    7  C13 UNL     1      15.582   3.569  15.289  1.00  0.00     0.337 C 
HETATM    8  F9  UNL     1      14.890   4.451  16.092  1.00  0.00    -0.196 F 
HETATM    9  F10 UNL     1      14.634   3.131  14.358  1.00  0.00    -0.196 F 
BRANCH   7  10
HETATM   10  C14 UNL     1      16.100   2.450  16.105  1.00  0.00     0.428 C 
HETATM   11  F11 UNL     1      15.829   1.243  15.442  1.00  0.00    -0.208 F 
HETATM   12  F12 UNL     1      15.352   2.321  17.301  1.00  0.00    -0.208 F 
ENDBRANCH   7  10
ENDBRANCH   3   7
ENDBRANCH   2   3
BRANCH   2  13
HETATM   13  O2  UNL     1      16.030   5.176  12.480  1.00  0.00    -0.360 OA
ATOM     14  H2  UNL     1      16.317   5.138  11.575  1.00  0.00     0.217 HD
ENDBRANCH   2  13
ENDBRANCH   1   2
BRANCH   1  15
HETATM   15  N1  UNL     1      18.490   4.301  11.608  1.00  0.00    -0.314 N 
HETATM   16  C5  UNL     1      18.520   4.856  10.287  1.00  0.00     0.133 C 
HETATM   17  C6  UNL     1      19.997   4.928   9.857  1.00  0.00     0.029 C 
HETATM   18  C7  UNL     1      20.661   5.252  11.149  1.00  0.00     0.105 C 
HETATM   19  C8  UNL     1      19.683   4.880  12.200  1.00  0.00     0.224 C 
HETATM   20  O3  UNL     1      19.904   5.062  13.446  1.00  0.00    -0.273 OA
ENDBRANCH   1  15
BRANCH   1  21
HETATM   21  C9  UNL     1      17.070   2.291  11.448  1.00  0.00     0.336 C 
HETATM   22  F1  UNL     1      16.878   2.648  10.144  1.00  0.00    -0.195 F 
HETATM   23  F2  UNL     1      15.708   2.116  11.914  1.00  0.00    -0.195 F 
BRANCH  21  24
HETATM   24  C10 UNL     1      17.612   0.928  11.607  1.00  0.00     0.326 C 
BRANCH  24  25
HETATM   25  O4  UNL     1      17.733   0.448  12.899  1.00  0.00    -0.369 OA
ATOM     26  H4  UNL     1      18.239   0.973  13.508  1.00  0.00     0.211 HD
ENDBRANCH  24  25
BRANCH  24  27
HETATM   27  C11 UNL     1      16.983  -0.158  10.782  1.00  0.00     0.433 C 
HETATM   28  F3  UNL     1      17.691  -0.519   9.667  1.00  0.00    -0.167 F 
HETATM   29  F4  UNL     1      16.916  -1.356  11.526  1.00  0.00    -0.167 F 
HETATM   30  F5  UNL     1      15.668   0.062  10.440  1.00  0.00    -0.167 F 
ENDBRANCH  24  27
BRANCH  24  31
HETATM   31  C12 UNL     1      19.086   0.956  11.121  1.00  0.00     0.433 C 
HETATM   32  F6  UNL     1      19.882   1.731  11.937  1.00  0.00    -0.167 F 
HETATM   33  F7  UNL     1      19.645  -0.302  11.214  1.00  0.00    -0.167 F 
HETATM   34  F8  UNL     1      19.078   1.449   9.859  1.00  0.00    -0.167 F 
ENDBRANCH  24  31
ENDBRANCH  21  24
ENDBRANCH   1  21
TORSDOF 12
ENDMDL
MODEL 5
REMARK VINA RESULT: -7.342495292      2.061      5.164
REMARK  12 active torsions:
REMARK  status: ('A' for Active; 'I' for Inactive)
REMARK    1  A    between atoms: C2_2  and  O1_3 
REMARK    2  A    between atoms: C2_2  and  C3_5 
REMARK    3  A    between atoms: C2_2  and  C13_29 
REMARK    4  A    between atoms: C3_5  and  O2_6 
REMARK    5  A    between atoms: C3_5  and  C4_8 
REMARK    6  A    between atoms: C4_8  and  N1_9 
REMARK    7  A    between atoms: C4_8  and  C9_15 
REMARK    8  A    between atoms: C9_15  and  C10_18 
REMARK    9  A    between atoms: C10_18  and  O4_19 
REMARK   10  A    between atoms: C10_18  and  C11_21 
REMARK   11  A    between atoms: C10_18  and  C12_25 
REMARK   12  A    between atoms: C13_29  and  C14_32 
ROOT
HETATM    1  C4  UNL     1      17.530   2.804  12.806  1.00  0.00     0.122 C 
ENDROOT
BRANCH   1   2
HETATM    2  C3  UNL     1      18.157   4.078  12.439  1.00  0.00     0.112 C 
BRANCH   2   3
HETATM    3  C2  UNL     1      19.208   4.820  13.068  1.00  0.00     0.175 C 
HETATM    4  C1  UNL     1      20.394   5.236  12.206  1.00  0.00     0.060 C 
BRANCH   3   5
HETATM    5  O1  UNL     1      19.796   4.308  14.215  1.00  0.00    -0.377 OA
ATOM      6  H1  UNL     1      20.639   3.990  13.915  1.00  0.00     0.211 HD
ENDBRANCH   3   5
BRANCH   3   7
HETATM    7  C13 UNL     1      18.617   6.152  13.556  1.00  0.00     0.337 C 
HETATM    8  F9  UNL     1      17.577   6.454  12.702  1.00  0.00    -0.196 F 
HETATM    9  F10 UNL     1      18.001   5.953  14.796  1.00  0.00    -0.196 F 
BRANCH   7  10
HETATM   10  C14 UNL     1      19.573   7.279  13.598  1.00  0.00     0.428 C 
HETATM   11  F11 UNL     1      20.000   7.461  14.922  1.00  0.00    -0.208 F 
HETATM   12  F12 UNL     1      18.913   8.499  13.315  1.00  0.00    -0.208 F 
ENDBRANCH   7  10
ENDBRANCH   3   7
ENDBRANCH   2   3
BRANCH   2  13
HETATM   13  O2  UNL     1      18.379   4.101  11.031  1.00  0.00    -0.360 OA
ATOM     14  H2  UNL     1      18.490   3.205  10.735  1.00  0.00     0.217 HD
ENDBRANCH   2  13
ENDBRANCH   1   2
BRANCH   1  15
HETATM   15  N1  UNL     1      17.414   1.840  11.712  1.00  0.00    -0.314 N 
HETATM   16  C5  UNL     1      16.346   1.479  10.828  1.00  0.00     0.133 C 
HETATM   17  C6  UNL     1      16.456  -0.036  10.576  1.00  0.00     0.029 C 
HETATM   18  C7  UNL     1      17.932  -0.224  10.573  1.00  0.00     0.105 C 
HETATM   19  C8  UNL     1      18.484   0.972  11.255  1.00  0.00     0.224 C 
HETATM   20  O3  UNL     1      19.739   1.169  11.397  1.00  0.00    -0.273 OA
ENDBRANCH   1  15
BRANCH   1  21
HETATM   21  C9  UNL     1      16.333   2.864  13.678  1.00  0.00     0.336 C 
HETATM   22  F1  UNL     1      15.245   2.223  13.156  1.00  0.00    -0.195 F 
HETATM   23  F2  UNL     1      15.934   4.255  13.582  1.00  0.00    -0.195 F 
BRANCH  21  24
HETATM   24  C10 UNL     1      16.464   2.696  15.138  1.00  0.00     0.326 C 
BRANCH  24  25
HETATM   25  O4  UNL     1      17.659   3.096  15.710  1.00  0.00    -0.369 OA
ATOM     26  H4  UNL     1      17.786   2.890  16.629  1.00  0.00     0.211 HD
ENDBRANCH  24  25
BRANCH  24  27
HETATM   27  C11 UNL     1      15.354   3.240  15.992  1.00  0.00     0.433 C 
HETATM   28  F3  UNL     1      15.430   2.906  17.317  1.00  0.00    -0.167 F 
HETATM   29  F4  UNL     1      15.402   4.651  16.009  1.00  0.00    -0.167 F 
HETATM   30  F5  UNL     1      14.085   2.984  15.525  1.00  0.00    -0.167 F 
ENDBRANCH  24  27
BRANCH  24  31
HETATM   31  C12 UNL     1      16.445   1.172  15.433  1.00  0.00     0.433 C 
HETATM   32  F6  UNL     1      15.208   0.749  15.872  1.00  0.00    -0.167 F 
HETATM   33  F7  UNL     1      16.644   0.457  14.269  1.00  0.00    -0.167 F 
HETATM   34  F8  UNL     1      17.390   0.939  16.376  1.00  0.00    -0.167 F 
ENDBRANCH  24  31
ENDBRANCH  21  24
ENDBRANCH   1  21
TORSDOF 12
ENDMDL
