MODEL 1
REMARK VINA RESULT: -6.050245291      0.000      0.000
REMARK  5 active torsions:
REMARK  status: ('A' for Active; 'I' for Inactive)
REMARK    1  A    between atoms: C1_2  and  N1_3 
REMARK    2  A    between atoms: N1_3  and  C2_5 
REMARK    3  A    between atoms: C2_5  and  C3_6 
REMARK    4  A    between atoms: C4_7  and  C5_8 
REMARK    5  A    between atoms: C5_8  and  C6_9 
ROOT
HETATM    1  C3  UNL     1       9.074  14.370  32.693  1.00  0.00    -0.011 C 
HETATM    2  C4  UNL     1       8.082  14.309  31.821  1.00  0.00    -0.029 C 
ENDROOT
BRANCH   2   3
HETATM    3  C5  UNL     1       8.284  14.173  30.357  1.00  0.00     0.031 C 
BRANCH   3   4
HETATM    4  C6  UNL     1       7.885  12.797  29.871  1.00  0.00    -0.011 C 
HETATM    5  C7  UNL     1       9.085  11.878  29.763  1.00  0.00     0.005 C 
HETATM    6  C8  UNL     1       8.380  10.528  29.601  1.00  0.00     0.000 C 
HETATM    7  C9  UNL     1       7.383  10.595  30.740  1.00  0.00     0.000 C 
HETATM    8  C10 UNL     1       7.003  12.069  30.830  1.00  0.00     0.005 C 
ENDBRANCH   3   4
ENDBRANCH   2   3
BRANCH   1   9
HETATM    9  C2  UNL     1       8.775  14.505  34.137  1.00  0.00     0.149 C 
BRANCH   9  10
HETATM   10  N1  UNL     1       9.532  13.542  34.915  1.00  0.00    -0.365 N 
ATOM     11  H1  UNL     1       9.961  13.824  35.797  1.00  0.00     0.162 HD
BRANCH  10  12
HETATM   12  C1  UNL     1       9.675  12.215  34.449  1.00  0.00     0.348 C 
HETATM   13  O1  UNL     1      10.639  11.512  34.814  1.00  0.00    -0.284 OA
ENDBRANCH  10  12
ENDBRANCH   9  10
ENDBRANCH   1   9
TORSDOF 5
ENDMDL
MODEL 2
REMARK VINA RESULT: -6.032645619      1.676      2.992
REMARK  5 active torsions:
REMARK  status: ('A' for Active; 'I' for Inactive)
REMARK    1  A    between atoms: C1_2  and  N1_3 
REMARK    2  A    between atoms: N1_3  and  C2_5 
REMARK    3  A    between atoms: C2_5  and  C3_6 
REMARK    4  A    between atoms: C4_7  and  C5_8 
REMARK    5  A    between atoms: C5_8  and  C6_9 
ROOT
HETATM    1  C3  UNL     1      10.768  10.544  33.323  1.00  0.00    -0.011 C 
HETATM    2  C4  UNL     1       9.798  10.558  32.426  1.00  0.00    -0.029 C 
ENDROOT
BRANCH   2   3
HETATM    3  C5  UNL     1       9.976  10.122  31.018  1.00  0.00     0.031 C 
BRANCH   3   4
HETATM    4  C6  UNL     1       9.610  11.226  30.051  1.00  0.00    -0.011 C 
HETATM    5  C7  UNL     1       8.231  11.013  29.462  1.00  0.00     0.005 C 
HETATM    6  C8  UNL     1       7.989  12.386  28.827  1.00  0.00     0.000 C 
HETATM    7  C9  UNL     1       8.357  13.295  29.981  1.00  0.00     0.000 C 
HETATM    8  C10 UNL     1       9.482  12.562  30.704  1.00  0.00     0.005 C 
ENDBRANCH   3   4
ENDBRANCH   2   3
BRANCH   1   9
HETATM    9  C2  UNL     1      10.496  10.997  34.707  1.00  0.00     0.149 C 
BRANCH   9  10
HETATM   10  N1  UNL     1       9.358  11.897  34.742  1.00  0.00    -0.365 N 
ATOM     11  H1  UNL     1       8.429  11.537  34.960  1.00  0.00     0.162 HD
BRANCH  10  12
HETATM   12  C1  UNL     1       9.539  13.274  34.474  1.00  0.00     0.348 C 
HETATM   13  O1  UNL     1      10.233  13.984  35.230  1.00  0.00    -0.284 OA
ENDBRANCH  10  12
ENDBRANCH   9  10
ENDBRANCH   1   9
TORSDOF 5
ENDMDL
MODEL 3
REMARK VINA RESULT: -6.007466475      1.679      2.910
REMARK  5 active torsions:
REMARK  status: ('A' for Active; 'I' for Inactive)
REMARK    1  A    between atoms: C1_2  and  N1_3 
REMARK    2  A    between atoms: N1_3  and  C2_5 
REMARK    3  A    between atoms: C2_5  and  C3_6 
REMARK    4  A    between atoms: C4_7  and  C5_8 
REMARK    5  A    between atoms: C5_8  and  C6_9 
ROOT
HETATM    1  C3  UNL     1      10.245  11.227  32.501  1.00  0.00    -0.011 C 
HETATM    2  C4  UNL     1       9.524  10.368  31.801  1.00  0.00    -0.029 C 
ENDROOT
BRANCH   2   3
HETATM    3  C5  UNL     1       9.079  10.616  30.407  1.00  0.00     0.031 C 
BRANCH   3   4
HETATM    4  C6  UNL     1       7.604  10.945  30.350  1.00  0.00    -0.011 C 
HETATM    5  C7  UNL     1       6.863  10.375  31.542  1.00  0.00     0.005 C 
HETATM    6  C8  UNL     1       5.531  11.121  31.417  1.00  0.00     0.000 C 
HETATM    7  C9  UNL     1       6.022  12.543  31.245  1.00  0.00     0.000 C 
HETATM    8  C10 UNL     1       7.323  12.407  30.461  1.00  0.00     0.005 C 
ENDBRANCH   3   4
ENDBRANCH   2   3
BRANCH   1   9
HETATM    9  C2  UNL     1      10.643  10.893  33.888  1.00  0.00     0.149 C 
BRANCH   9  10
HETATM   10  N1  UNL     1       9.922  11.710  34.845  1.00  0.00    -0.365 N 
ATOM     11  H1  UNL     1       9.638  11.315  35.742  1.00  0.00     0.162 HD
BRANCH  10  12
HETATM   12  C1  UNL     1       9.614  13.055  34.534  1.00  0.00     0.348 C 
HETATM   13  O1  UNL     1      10.176  13.992  35.134  1.00  0.00    -0.284 OA
ENDBRANCH  10  12
ENDBRANCH   9  10
ENDBRANCH   1   9
TORSDOF 5
ENDMDL
MODEL 4
REMARK VINA RESULT: -5.896799486      1.192      1.395
REMARK  5 active torsions:
REMARK  status: ('A' for Active; 'I' for Inactive)
REMARK    1  A    between atoms: C1_2  and  N1_3 
REMARK    2  A    between atoms: N1_3  and  C2_5 
REMARK    3  A    between atoms: C2_5  and  C3_6 
REMARK    4  A    between atoms: C4_7  and  C5_8 
REMARK    5  A    between atoms: C5_8  and  C6_9 
ROOT
HETATM    1  C3  UNL     1       8.255  14.584  33.404  1.00  0.00    -0.011 C 
HETATM    2  C4  UNL     1       8.089  14.176  32.158  1.00  0.00    -0.029 C 
ENDROOT
BRANCH   2   3
HETATM    3  C5  UNL     1       6.765  14.092  31.492  1.00  0.00     0.031 C 
BRANCH   3   4
HETATM    4  C6  UNL     1       6.530  12.716  30.909  1.00  0.00    -0.011 C 
HETATM    5  C7  UNL     1       7.652  11.763  31.265  1.00  0.00     0.005 C 
HETATM    6  C8  UNL     1       7.014  10.428  30.869  1.00  0.00     0.000 C 
HETATM    7  C9  UNL     1       5.669  10.548  31.555  1.00  0.00     0.000 C 
HETATM    8  C10 UNL     1       5.331  12.033  31.480  1.00  0.00     0.005 C 
ENDBRANCH   3   4
ENDBRANCH   2   3
BRANCH   1   9
HETATM    9  C2  UNL     1       9.617  14.636  33.985  1.00  0.00     0.149 C 
BRANCH   9  10
HETATM   10  N1  UNL     1       9.808  13.571  34.951  1.00  0.00    -0.365 N 
ATOM     11  H1  UNL     1       9.969  13.797  35.933  1.00  0.00     0.162 HD
BRANCH  10  12
HETATM   12  C1  UNL     1       9.771  12.221  34.531  1.00  0.00     0.348 C 
HETATM   13  O1  UNL     1      10.651  11.416  34.897  1.00  0.00    -0.284 OA
ENDBRANCH  10  12
ENDBRANCH   9  10
ENDBRANCH   1   9
TORSDOF 5
ENDMDL
MODEL 5
REMARK VINA RESULT: -5.649584796      1.500      2.126
REMARK  5 active torsions:
REMARK  status: ('A' for Active; 'I' for Inactive)
REMARK    1  A    between atoms: C1_2  and  N1_3 
REMARK    2  A    between atoms: N1_3  and  C2_5 
REMARK    3  A    between atoms: C2_5  and  C3_6 
REMARK    4  A    between atoms: C4_7  and  C5_8 
REMARK    5  A    between atoms: C5_8  and  C6_9 
ROOT
HETATM    1  C3  UNL     1       7.555  13.873  31.642  1.00  0.00    -0.011 C 
HETATM    2  C4  UNL     1       6.870  12.766  31.870  1.00  0.00    -0.029 C 
ENDROOT
BRANCH   2   3
HETATM    3  C5  UNL     1       6.556  11.765  30.820  1.00  0.00     0.031 C 
BRANCH   3   4
HETATM    4  C6  UNL     1       7.608  10.680  30.761  1.00  0.00    -0.011 C 
HETATM    5  C7  UNL     1       8.655  10.980  29.708  1.00  0.00     0.005 C 
HETATM    6  C8  UNL     1       9.728   9.956  30.090  1.00  0.00     0.000 C 
HETATM    7  C9  UNL     1       9.836  10.208  31.580  1.00  0.00     0.000 C 
HETATM    8  C10 UNL     1       8.421  10.581  32.009  1.00  0.00     0.005 C 
ENDBRANCH   3   4
ENDBRANCH   2   3
BRANCH   1   9
HETATM    9  C2  UNL     1       7.821  14.814  32.754  1.00  0.00     0.149 C 
BRANCH   9  10
HETATM   10  N1  UNL     1       9.162  14.634  33.276  1.00  0.00    -0.365 N 
ATOM     11  H1  UNL     1       9.951  15.103  32.830  1.00  0.00     0.162 HD
BRANCH  10  12
HETATM   12  C1  UNL     1       9.375  13.807  34.403  1.00  0.00     0.348 C 
HETATM   13  O1  UNL     1      10.259  14.084  35.238  1.00  0.00    -0.284 OA
ENDBRANCH  10  12
ENDBRANCH   9  10
ENDBRANCH   1   9
TORSDOF 5
ENDMDL
