MODEL 1
REMARK VINA RESULT: -5.731768131      0.000      0.000
REMARK  5 active torsions:
REMARK  status: ('A' for Active; 'I' for Inactive)
REMARK    1  A    between atoms: C2_2  and  C3_3 
REMARK    2  A    between atoms: C3_3  and  C4_4 
REMARK    3  A    between atoms: C7_7  and  C8_8 
REMARK    4  A    between atoms: C8_8  and  N1_9 
REMARK    5  A    between atoms: N1_9  and  C9_11 
ROOT
HETATM    1  C4  UNL     1       7.683  11.018  30.796  1.00  0.00    -0.009 A 
HETATM    2  C5  UNL     1       8.371  10.580  29.551  1.00  0.00     0.005 A 
HETATM    3  C6  UNL     1       9.721  10.627  30.233  1.00  0.00     0.007 A 
HETATM    4  C7  UNL     1       9.011  11.013  31.516  1.00  0.00     0.007 A 
ENDROOT
BRANCH   4   5
HETATM    5  C8  UNL     1       9.508  12.343  31.971  1.00  0.00     0.127 C 
BRANCH   5   6
HETATM    6  N1  UNL     1       9.513  12.360  33.420  1.00  0.00    -0.368 N 
ATOM      7  H1  UNL     1       9.683  11.473  33.895  1.00  0.00     0.161 HD
BRANCH   6   8
HETATM    8  C9  UNL     1       9.302  13.493  34.227  1.00  0.00     0.348 C 
HETATM    9  O1  UNL     1      10.145  13.899  35.072  1.00  0.00    -0.284 OA
ENDBRANCH   6   8
ENDBRANCH   5   6
ENDBRANCH   4   5
BRANCH   1  10
HETATM   10  C3  UNL     1       6.985  12.351  30.754  1.00  0.00     0.005 C 
BRANCH  10  11
HETATM   11  C2  UNL     1       5.573  12.279  31.288  1.00  0.00    -0.004 C 
HETATM   12  C1  UNL     1       5.384  10.849  31.798  1.00  0.00     0.005 C 
ENDBRANCH  10  11
ENDBRANCH   1  10
TORSDOF 5
ENDMDL
MODEL 2
REMARK VINA RESULT: -5.628537161      1.845      2.197
REMARK  5 active torsions:
REMARK  status: ('A' for Active; 'I' for Inactive)
REMARK    1  A    between atoms: C2_2  and  C3_3 
REMARK    2  A    between atoms: C3_3  and  C4_4 
REMARK    3  A    between atoms: C7_7  and  C8_8 
REMARK    4  A    between atoms: C8_8  and  N1_9 
REMARK    5  A    between atoms: N1_9  and  C9_11 
ROOT
HETATM    1  C4  UNL     1       7.546  12.726  31.137  1.00  0.00    -0.009 A 
HETATM    2  C5  UNL     1       8.091  13.307  29.879  1.00  0.00     0.005 A 
HETATM    3  C6  UNL     1       8.940  14.290  30.656  1.00  0.00     0.007 A 
HETATM    4  C7  UNL     1       8.430  13.654  31.934  1.00  0.00     0.007 A 
ENDROOT
BRANCH   4   5
HETATM    5  C8  UNL     1       7.723  14.685  32.747  1.00  0.00     0.127 C 
BRANCH   5   6
HETATM    6  N1  UNL     1       8.386  14.792  34.030  1.00  0.00    -0.368 N 
ATOM      7  H1  UNL     1       8.186  15.620  34.591  1.00  0.00     0.161 HD
BRANCH   6   8
HETATM    8  C9  UNL     1       9.283  13.850  34.570  1.00  0.00     0.348 C 
HETATM    9  O1  UNL     1      10.275  14.176  35.276  1.00  0.00    -0.284 OA
ENDBRANCH   6   8
ENDBRANCH   5   6
ENDBRANCH   4   5
BRANCH   1  10
HETATM   10  C3  UNL     1       6.068  12.889  31.376  1.00  0.00     0.005 C 
BRANCH  10  11
HETATM   11  C2  UNL     1       5.362  11.564  31.547  1.00  0.00    -0.004 C 
HETATM   12  C1  UNL     1       6.450  10.490  31.473  1.00  0.00     0.005 C 
ENDBRANCH  10  11
ENDBRANCH   1  10
TORSDOF 5
ENDMDL
MODEL 3
REMARK VINA RESULT: -5.579878221      1.138      1.138
REMARK  5 active torsions:
REMARK  status: ('A' for Active; 'I' for Inactive)
REMARK    1  A    between atoms: C2_2  and  C3_3 
REMARK    2  A    between atoms: C3_3  and  C4_4 
REMARK    3  A    between atoms: C7_7  and  C8_8 
REMARK    4  A    between atoms: C8_8  and  N1_9 
REMARK    5  A    between atoms: N1_9  and  C9_11 
ROOT
HETATM    1  C4  UNL     1       7.674  10.924  30.757  1.00  0.00    -0.009 A 
HETATM    2  C5  UNL     1       8.347  10.437  29.522  1.00  0.00     0.005 A 
HETATM    3  C6  UNL     1       9.693  10.420  30.214  1.00  0.00     0.007 A 
HETATM    4  C7  UNL     1       8.994  10.857  31.487  1.00  0.00     0.007 A 
ENDROOT
BRANCH   4   5
HETATM    5  C8  UNL     1       9.558  12.164  31.932  1.00  0.00     0.127 C 
BRANCH   5   6
HETATM    6  N1  UNL     1       9.464  12.236  33.376  1.00  0.00    -0.368 N 
ATOM      7  H1  UNL     1       9.162  13.123  33.779  1.00  0.00     0.161 HD
BRANCH   6   8
HETATM    8  C9  UNL     1       9.754  11.188  34.270  1.00  0.00     0.348 C 
HETATM    9  O1  UNL     1      10.865  11.073  34.853  1.00  0.00    -0.284 OA
ENDBRANCH   6   8
ENDBRANCH   5   6
ENDBRANCH   4   5
BRANCH   1  10
HETATM   10  C3  UNL     1       7.048  12.292  30.695  1.00  0.00     0.005 C 
BRANCH  10  11
HETATM   11  C2  UNL     1       5.652  12.314  31.273  1.00  0.00    -0.004 C 
HETATM   12  C1  UNL     1       5.384  10.898  31.788  1.00  0.00     0.005 C 
ENDBRANCH  10  11
ENDBRANCH   1  10
TORSDOF 5
ENDMDL
MODEL 4
REMARK VINA RESULT: -5.563841741      1.367      1.639
REMARK  5 active torsions:
REMARK  status: ('A' for Active; 'I' for Inactive)
REMARK    1  A    between atoms: C2_2  and  C3_3 
REMARK    2  A    between atoms: C3_3  and  C4_4 
REMARK    3  A    between atoms: C7_7  and  C8_8 
REMARK    4  A    between atoms: C8_8  and  N1_9 
REMARK    5  A    between atoms: N1_9  and  C9_11 
ROOT
HETATM    1  C4  UNL     1       8.739  10.872  30.929  1.00  0.00    -0.009 A 
HETATM    2  C5  UNL     1       8.324  10.708  29.509  1.00  0.00     0.005 A 
HETATM    3  C6  UNL     1       8.733  12.129  29.185  1.00  0.00     0.007 A 
HETATM    4  C7  UNL     1       9.211  12.271  30.616  1.00  0.00     0.007 A 
ENDROOT
BRANCH   4   5
HETATM    5  C8  UNL     1       8.458  13.375  31.278  1.00  0.00     0.127 C 
BRANCH   5   6
HETATM    6  N1  UNL     1       9.355  14.067  32.180  1.00  0.00    -0.368 N 
ATOM      7  H1  UNL     1      10.121  14.595  31.761  1.00  0.00     0.161 HD
BRANCH   6   8
HETATM    8  C9  UNL     1       9.262  14.073  33.585  1.00  0.00     0.348 C 
HETATM    9  O1  UNL     1       8.462  14.814  34.215  1.00  0.00    -0.284 OA
ENDBRANCH   6   8
ENDBRANCH   5   6
ENDBRANCH   4   5
BRANCH   1  10
HETATM   10  C3  UNL     1       7.654  10.782  31.969  1.00  0.00     0.005 C 
BRANCH  10  11
HETATM   11  C2  UNL     1       6.344  10.297  31.394  1.00  0.00    -0.004 C 
HETATM   12  C1  UNL     1       5.346  11.442  31.583  1.00  0.00     0.005 C 
ENDBRANCH  10  11
ENDBRANCH   1  10
TORSDOF 5
ENDMDL
MODEL 5
REMARK VINA RESULT: -5.563342261      0.851      1.238
REMARK  5 active torsions:
REMARK  status: ('A' for Active; 'I' for Inactive)
REMARK    1  A    between atoms: C2_2  and  C3_3 
REMARK    2  A    between atoms: C3_3  and  C4_4 
REMARK    3  A    between atoms: C7_7  and  C8_8 
REMARK    4  A    between atoms: C8_8  and  N1_9 
REMARK    5  A    between atoms: N1_9  and  C9_11 
ROOT
HETATM    1  C4  UNL     1       7.740  11.202  30.668  1.00  0.00    -0.009 A 
HETATM    2  C5  UNL     1       8.479  10.518  29.571  1.00  0.00     0.005 A 
HETATM    3  C6  UNL     1       9.685  10.309  30.461  1.00  0.00     0.007 A 
HETATM    4  C7  UNL     1       8.906  10.950  31.593  1.00  0.00     0.007 A 
ENDROOT
BRANCH   4   5
HETATM    5  C8  UNL     1       9.635  12.163  32.064  1.00  0.00     0.127 C 
BRANCH   5   6
HETATM    6  N1  UNL     1       9.441  12.289  33.494  1.00  0.00    -0.368 N 
ATOM      7  H1  UNL     1       9.385  11.425  34.034  1.00  0.00     0.161 HD
BRANCH   6   8
HETATM    8  C9  UNL     1       9.324  13.499  34.203  1.00  0.00     0.348 C 
HETATM    9  O1  UNL     1      10.165  13.874  35.063  1.00  0.00    -0.284 OA
ENDBRANCH   6   8
ENDBRANCH   5   6
ENDBRANCH   4   5
BRANCH   1  10
HETATM   10  C3  UNL     1       7.396  12.652  30.454  1.00  0.00     0.005 C 
BRANCH  10  11
HETATM   11  C2  UNL     1       6.268  13.114  31.346  1.00  0.00    -0.004 C 
HETATM   12  C1  UNL     1       6.665  14.504  31.849  1.00  0.00     0.005 C 
ENDBRANCH  10  11
ENDBRANCH   1  10
TORSDOF 5
ENDMDL
