MODEL 1
REMARK VINA RESULT: -7.202747880      0.000      0.000
REMARK  9 active torsions:
REMARK  status: ('A' for Active; 'I' for Inactive)
REMARK    1  A    between atoms: C3_3  and  C5_5 
REMARK    2  A    between atoms: C5_5  and  O2_7 
REMARK    3  A    between atoms: O2_7  and  C6_8 
REMARK    4  A    between atoms: C6_8  and  C7_9 
REMARK    5  A    between atoms: C8_10  and  O3_11 
REMARK    6  A    between atoms: C9_13  and  O4_14 
REMARK    7  A    between atoms: C12_20  and  C13_21 
REMARK    8  A    between atoms: C14_23  and  O6_24 
REMARK    9  A    between atoms: C14_23  and  O7_26 
ROOT
HETATM    1  C7  UNL     1      46.064  56.465   4.226  1.00  0.00     0.046 C 
HETATM    2  C8  UNL     1      45.623  56.946   2.886  1.00  0.00     0.155 C 
HETATM    3  C9  UNL     1      44.758  58.148   2.860  1.00  0.00     0.170 C 
HETATM    4  C10 UNL     1      45.125  59.236   3.825  1.00  0.00     0.112 C 
HETATM    5  N1  UNL     1      44.053  59.561   4.727  1.00  0.00    -0.409 N 
ATOM      6  H1  UNL     1      43.641  60.492   4.774  1.00  0.00     0.154 HD
HETATM    7  C11 UNL     1      43.609  58.495   5.543  1.00  0.00     0.102 A 
HETATM    8  C12 UNL     1      43.425  58.849   7.008  1.00  0.00     0.133 A 
HETATM    9  C14 UNL     1      44.450  57.799   7.373  1.00  0.00     0.180 A 
HETATM   10  C17 UNL     1      44.579  57.459   5.909  1.00  0.00     0.077 A 
HETATM   11  C18 UNL     1      45.938  57.537   5.317  1.00  0.00     0.011 C 
HETATM   12  C19 UNL     1      46.306  58.817   4.675  1.00  0.00     0.012 C 
HETATM   13  C20 UNL     1      46.770  59.900   5.582  1.00  0.00     0.012 C 
ENDROOT
BRANCH   1  14
HETATM   14  C6  UNL     1      47.505  56.002   4.210  1.00  0.00     0.186 C 
BRANCH  14  15
HETATM   15  O2  UNL     1      48.272  56.441   5.281  1.00  0.00    -0.317 OA
BRANCH  15  16
HETATM   16  C5  UNL     1      49.513  57.014   5.263  1.00  0.00     0.288 C 
HETATM   17  O1  UNL     1      50.384  56.528   6.022  1.00  0.00    -0.260 OA
BRANCH  16  18
HETATM   18  C3  UNL     1      49.878  58.145   4.424  1.00  0.00     0.009 C 
HETATM   19  C2  UNL     1      49.710  58.129   3.115  1.00  0.00    -0.018 C 
HETATM   20  C1  UNL     1      50.090  59.291   2.293  1.00  0.00     0.036 C 
HETATM   21  C4  UNL     1      50.456  59.352   5.050  1.00  0.00     0.054 C 
ENDBRANCH  16  18
ENDBRANCH  15  16
ENDBRANCH  14  15
ENDBRANCH   1  14
BRANCH   2  22
HETATM   22  O3  UNL     1      44.945  55.896   2.260  1.00  0.00    -0.392 OA
ATOM     23  H3  UNL     1      44.279  56.275   1.699  1.00  0.00     0.210 HD
ENDBRANCH   2  22
BRANCH   3  24
HETATM   24  O4  UNL     1      44.783  58.696   1.576  1.00  0.00    -0.391 OA
ATOM     25  H4  UNL     1      43.918  58.619   1.192  1.00  0.00     0.210 HD
ENDBRANCH   3  24
BRANCH   9  26
HETATM   26  O6  UNL     1      45.591  58.271   7.981  1.00  0.00    -0.359 OA
HETATM   27  C15 UNL     1      45.301  59.271   8.884  1.00  0.00     0.205 C 
ENDBRANCH   9  26
BRANCH   9  28
HETATM   28  O7  UNL     1      43.846  56.824   8.166  1.00  0.00    -0.359 OA
HETATM   29  C16 UNL     1      44.741  56.294   9.095  1.00  0.00     0.205 C 
ENDBRANCH   9  28
BRANCH   8  30
HETATM   30  C13 UNL     1      42.076  58.651   7.554  1.00  0.00     0.243 C 
HETATM   31  O5  UNL     1      41.552  59.439   8.326  1.00  0.00    -0.306 OA
ENDBRANCH   8  30
TORSDOF 9
ENDMDL
MODEL 2
REMARK VINA RESULT: -7.000296449      2.293      5.593
REMARK  9 active torsions:
REMARK  status: ('A' for Active; 'I' for Inactive)
REMARK    1  A    between atoms: C3_3  and  C5_5 
REMARK    2  A    between atoms: C5_5  and  O2_7 
REMARK    3  A    between atoms: O2_7  and  C6_8 
REMARK    4  A    between atoms: C6_8  and  C7_9 
REMARK    5  A    between atoms: C8_10  and  O3_11 
REMARK    6  A    between atoms: C9_13  and  O4_14 
REMARK    7  A    between atoms: C12_20  and  C13_21 
REMARK    8  A    between atoms: C14_23  and  O6_24 
REMARK    9  A    between atoms: C14_23  and  O7_26 
ROOT
HETATM    1  C7  UNL     1      43.651  58.473   4.222  1.00  0.00     0.046 C 
HETATM    2  C8  UNL     1      43.190  57.317   3.402  1.00  0.00     0.155 C 
HETATM    3  C9  UNL     1      44.209  56.647   2.561  1.00  0.00     0.170 C 
HETATM    4  C10 UNL     1      45.559  56.469   3.190  1.00  0.00     0.112 C 
HETATM    5  N1  UNL     1      46.610  57.090   2.430  1.00  0.00    -0.409 N 
ATOM      6  H1  UNL     1      47.392  56.561   2.046  1.00  0.00     0.154 HD
HETATM    7  C11 UNL     1      46.481  58.487   2.254  1.00  0.00     0.102 A 
HETATM    8  C12 UNL     1      47.750  59.281   2.508  1.00  0.00     0.133 A 
HETATM    9  C14 UNL     1      47.034  60.042   3.601  1.00  0.00     0.180 A 
HETATM   10  C17 UNL     1      45.787  59.251   3.295  1.00  0.00     0.077 A 
HETATM   11  C18 UNL     1      45.173  58.499   4.418  1.00  0.00     0.011 C 
HETATM   12  C19 UNL     1      45.588  57.088   4.573  1.00  0.00     0.012 C 
HETATM   13  C20 UNL     1      46.875  56.853   5.278  1.00  0.00     0.012 C 
ENDROOT
BRANCH   1  14
HETATM   14  C6  UNL     1      43.018  58.475   5.597  1.00  0.00     0.186 C 
BRANCH  14  15
HETATM   15  O2  UNL     1      43.216  59.637   6.331  1.00  0.00    -0.317 OA
BRANCH  15  16
HETATM   16  C5  UNL     1      43.750  59.775   7.582  1.00  0.00     0.288 C 
HETATM   17  O1  UNL     1      42.995  59.556   8.558  1.00  0.00    -0.260 OA
BRANCH  16  18
HETATM   18  C3  UNL     1      45.129  60.157   7.843  1.00  0.00     0.009 C 
HETATM   19  C2  UNL     1      46.055  59.269   8.151  1.00  0.00    -0.018 C 
HETATM   20  C1  UNL     1      47.444  59.689   8.411  1.00  0.00     0.036 C 
HETATM   21  C4  UNL     1      45.511  61.582   7.763  1.00  0.00     0.054 C 
ENDBRANCH  16  18
ENDBRANCH  15  16
ENDBRANCH  14  15
ENDBRANCH   1  14
BRANCH   2  22
HETATM   22  O3  UNL     1      42.157  57.768   2.576  1.00  0.00    -0.392 OA
ATOM     23  H3  UNL     1      41.437  58.037   3.135  1.00  0.00     0.210 HD
ENDBRANCH   2  22
BRANCH   3  24
HETATM   24  O4  UNL     1      43.740  55.382   2.203  1.00  0.00    -0.391 OA
ATOM     25  H4  UNL     1      43.068  55.480   1.541  1.00  0.00     0.210 HD
ENDBRANCH   3  24
BRANCH   9  26
HETATM   26  O6  UNL     1      47.548  59.883   4.868  1.00  0.00    -0.359 OA
HETATM   27  C15 UNL     1      48.810  60.425   4.969  1.00  0.00     0.205 C 
ENDBRANCH   9  26
BRANCH   9  28
HETATM   28  O7  UNL     1      46.986  61.394   3.264  1.00  0.00    -0.359 OA
HETATM   29  C16 UNL     1      46.120  62.099   4.099  1.00  0.00     0.205 C 
ENDBRANCH   9  28
BRANCH   8  30
HETATM   30  C13 UNL     1      48.244  60.083   1.382  1.00  0.00     0.243 C 
HETATM   31  O5  UNL     1      49.360  59.936   0.904  1.00  0.00    -0.306 OA
ENDBRANCH   8  30
TORSDOF 9
ENDMDL
MODEL 3
REMARK VINA RESULT: -6.985691576      1.996      5.853
REMARK  9 active torsions:
REMARK  status: ('A' for Active; 'I' for Inactive)
REMARK    1  A    between atoms: C3_3  and  C5_5 
REMARK    2  A    between atoms: C5_5  and  O2_7 
REMARK    3  A    between atoms: O2_7  and  C6_8 
REMARK    4  A    between atoms: C6_8  and  C7_9 
REMARK    5  A    between atoms: C8_10  and  O3_11 
REMARK    6  A    between atoms: C9_13  and  O4_14 
REMARK    7  A    between atoms: C12_20  and  C13_21 
REMARK    8  A    between atoms: C14_23  and  O6_24 
REMARK    9  A    between atoms: C14_23  and  O7_26 
ROOT
HETATM    1  C7  UNL     1      44.209  57.845   5.914  1.00  0.00     0.046 C 
HETATM    2  C8  UNL     1      44.074  57.857   7.398  1.00  0.00     0.155 C 
HETATM    3  C9  UNL     1      45.267  58.271   8.173  1.00  0.00     0.170 C 
HETATM    4  C10 UNL     1      46.045  59.421   7.607  1.00  0.00     0.112 C 
HETATM    5  N1  UNL     1      47.419  59.083   7.344  1.00  0.00    -0.409 N 
ATOM      6  H1  UNL     1      48.195  59.568   7.793  1.00  0.00     0.154 HD
HETATM    7  C11 UNL     1      47.614  58.032   6.420  1.00  0.00     0.102 A 
HETATM    8  C12 UNL     1      48.667  58.301   5.361  1.00  0.00     0.133 A 
HETATM    9  C14 UNL     1      47.612  58.130   4.292  1.00  0.00     0.180 A 
HETATM   10  C17 UNL     1      46.604  57.837   5.375  1.00  0.00     0.077 A 
HETATM   11  C18 UNL     1      45.390  58.689   5.413  1.00  0.00     0.011 C 
HETATM   12  C19 UNL     1      45.443  59.876   6.293  1.00  0.00     0.012 C 
HETATM   13  C20 UNL     1      46.121  61.078   5.740  1.00  0.00     0.012 C 
ENDROOT
BRANCH   1  14
HETATM   14  C6  UNL     1      42.961  58.363   5.232  1.00  0.00     0.186 C 
BRANCH  14  15
HETATM   15  O2  UNL     1      43.018  58.381   3.844  1.00  0.00    -0.317 OA
BRANCH  15  16
HETATM   16  C5  UNL     1      42.725  57.376   2.965  1.00  0.00     0.288 C 
HETATM   17  O1  UNL     1      41.793  56.595   3.273  1.00  0.00    -0.260 OA
BRANCH  16  18
HETATM   18  C3  UNL     1      43.423  57.161   1.708  1.00  0.00     0.009 C 
HETATM   19  C2  UNL     1      44.645  57.613   1.500  1.00  0.00    -0.018 C 
HETATM   20  C1  UNL     1      45.326  57.378   0.214  1.00  0.00     0.036 C 
HETATM   21  C4  UNL     1      42.750  56.413   0.626  1.00  0.00     0.054 C 
ENDBRANCH  16  18
ENDBRANCH  15  16
ENDBRANCH  14  15
ENDBRANCH   1  14
BRANCH   2  22
HETATM   22  O3  UNL     1      43.705  56.571   7.801  1.00  0.00    -0.392 OA
ATOM     23  H3  UNL     1      43.270  56.645   8.642  1.00  0.00     0.210 HD
ENDBRANCH   2  22
BRANCH   3  24
HETATM   24  O4  UNL     1      44.867  58.626   9.463  1.00  0.00    -0.391 OA
ATOM     25  H4  UNL     1      43.932  58.788   9.461  1.00  0.00     0.210 HD
ENDBRANCH   3  24
BRANCH   9  26
HETATM   26  O6  UNL     1      47.359  59.244   3.524  1.00  0.00    -0.359 OA
HETATM   27  C15 UNL     1      48.000  59.170   2.307  1.00  0.00     0.205 C 
ENDBRANCH   9  26
BRANCH   9  28
HETATM   28  O7  UNL     1      47.953  57.049   3.479  1.00  0.00    -0.359 OA
HETATM   29  C16 UNL     1      46.933  56.099   3.437  1.00  0.00     0.205 C 
ENDBRANCH   9  28
BRANCH   8  30
HETATM   30  C13 UNL     1      49.791  57.358   5.315  1.00  0.00     0.243 C 
HETATM   31  O5  UNL     1      49.940  56.465   6.136  1.00  0.00    -0.306 OA
ENDBRANCH   8  30
TORSDOF 9
ENDMDL
MODEL 4
REMARK VINA RESULT: -6.961433481      2.956      5.029
REMARK  9 active torsions:
REMARK  status: ('A' for Active; 'I' for Inactive)
REMARK    1  A    between atoms: C3_3  and  C5_5 
REMARK    2  A    between atoms: C5_5  and  O2_7 
REMARK    3  A    between atoms: O2_7  and  C6_8 
REMARK    4  A    between atoms: C6_8  and  C7_9 
REMARK    5  A    between atoms: C8_10  and  O3_11 
REMARK    6  A    between atoms: C9_13  and  O4_14 
REMARK    7  A    between atoms: C12_20  and  C13_21 
REMARK    8  A    between atoms: C14_23  and  O6_24 
REMARK    9  A    between atoms: C14_23  and  O7_26 
ROOT
HETATM    1  C7  UNL     1      46.168  56.870   2.436  1.00  0.00     0.046 C 
HETATM    2  C8  UNL     1      44.687  56.928   2.276  1.00  0.00     0.155 C 
HETATM    3  C9  UNL     1      43.966  57.926   3.100  1.00  0.00     0.170 C 
HETATM    4  C10 UNL     1      44.633  59.263   3.237  1.00  0.00     0.112 C 
HETATM    5  N1  UNL     1      44.889  59.614   4.607  1.00  0.00    -0.409 N 
ATOM      6  H1  UNL     1      44.493  60.447   5.041  1.00  0.00     0.154 HD
HETATM    7  C11 UNL     1      45.731  58.722   5.311  1.00  0.00     0.102 A 
HETATM    8  C12 UNL     1      46.825  59.388   6.126  1.00  0.00     0.133 A 
HETATM    9  C14 UNL     1      47.860  58.645   5.313  1.00  0.00     0.180 A 
HETATM   10  C17 UNL     1      46.742  57.983   4.547  1.00  0.00     0.077 A 
HETATM   11  C18 UNL     1      46.751  58.140   3.071  1.00  0.00     0.011 C 
HETATM   12  C19 UNL     1      45.968  59.267   2.521  1.00  0.00     0.012 C 
HETATM   13  C20 UNL     1      46.625  60.600   2.546  1.00  0.00     0.012 C 
ENDROOT
BRANCH   1  14
HETATM   14  C6  UNL     1      46.868  56.664   1.111  1.00  0.00     0.186 C 
BRANCH  14  15
HETATM   15  O2  UNL     1      46.030  56.638   0.004  1.00  0.00    -0.317 OA
BRANCH  15  16
HETATM   16  C5  UNL     1      46.183  57.272  -1.198  1.00  0.00     0.288 C 
HETATM   17  O1  UNL     1      46.555  58.470  -1.174  1.00  0.00    -0.260 OA
BRANCH  16  18
HETATM   18  C3  UNL     1      45.942  56.647  -2.488  1.00  0.00     0.009 C 
HETATM   19  C2  UNL     1      44.794  56.776  -3.126  1.00  0.00    -0.018 C 
HETATM   20  C1  UNL     1      44.581  56.129  -4.433  1.00  0.00     0.036 C 
HETATM   21  C4  UNL     1      47.013  55.841  -3.111  1.00  0.00     0.054 C 
ENDBRANCH  16  18
ENDBRANCH  15  16
ENDBRANCH  14  15
ENDBRANCH   1  14
BRANCH   2  22
HETATM   22  O3  UNL     1      44.179  55.659   2.567  1.00  0.00    -0.392 OA
ATOM     23  H3  UNL     1      44.553  55.380   3.394  1.00  0.00     0.210 HD
ENDBRANCH   2  22
BRANCH   3  24
HETATM   24  O4  UNL     1      42.702  58.140   2.547  1.00  0.00    -0.391 OA
ATOM     25  H4  UNL     1      42.199  57.337   2.610  1.00  0.00     0.210 HD
ENDBRANCH   3  24
BRANCH   9  26
HETATM   26  O6  UNL     1      48.709  59.434   4.570  1.00  0.00    -0.359 OA
HETATM   27  C15 UNL     1      49.406  60.312   5.371  1.00  0.00     0.205 C 
ENDBRANCH   9  26
BRANCH   9  28
HETATM   28  O7  UNL     1      48.591  57.807   6.154  1.00  0.00    -0.359 OA
HETATM   29  C16 UNL     1      49.509  57.039   5.440  1.00  0.00     0.205 C 
ENDBRANCH   9  28
BRANCH   8  30
HETATM   30  C13 UNL     1      46.814  59.107   7.568  1.00  0.00     0.243 C 
HETATM   31  O5  UNL     1      45.978  58.388   8.096  1.00  0.00    -0.306 OA
ENDBRANCH   8  30
TORSDOF 9
ENDMDL
MODEL 5
REMARK VINA RESULT: -6.890474941      2.348      6.234
REMARK  9 active torsions:
REMARK  status: ('A' for Active; 'I' for Inactive)
REMARK    1  A    between atoms: C3_3  and  C5_5 
REMARK    2  A    between atoms: C5_5  and  O2_7 
REMARK    3  A    between atoms: O2_7  and  C6_8 
REMARK    4  A    between atoms: C6_8  and  C7_9 
REMARK    5  A    between atoms: C8_10  and  O3_11 
REMARK    6  A    between atoms: C9_13  and  O4_14 
REMARK    7  A    between atoms: C12_20  and  C13_21 
REMARK    8  A    between atoms: C14_23  and  O6_24 
REMARK    9  A    between atoms: C14_23  and  O7_26 
ROOT
HETATM    1  C7  UNL     1      43.701  58.172   4.307  1.00  0.00     0.046 C 
HETATM    2  C8  UNL     1      42.853  57.146   3.637  1.00  0.00     0.155 C 
HETATM    3  C9  UNL     1      43.356  56.598   2.356  1.00  0.00     0.170 C 
HETATM    4  C10 UNL     1      44.830  56.328   2.296  1.00  0.00     0.112 C 
HETATM    5  N1  UNL     1      45.481  57.047   1.234  1.00  0.00    -0.409 N 
ATOM      6  H1  UNL     1      45.980  56.575   0.480  1.00  0.00     0.154 HD
HETATM    7  C11 UNL     1      45.380  58.455   1.309  1.00  0.00     0.102 A 
HETATM    8  C12 UNL     1      46.681  59.201   1.074  1.00  0.00     0.133 A 
HETATM    9  C14 UNL     1      46.567  59.802   2.456  1.00  0.00     0.180 A 
HETATM   10  C17 UNL     1      45.262  59.067   2.637  1.00  0.00     0.077 A 
HETATM   11  C18 UNL     1      45.154  58.165   3.811  1.00  0.00     0.011 C 
HETATM   12  C19 UNL     1      45.501  56.745   3.588  1.00  0.00     0.012 C 
HETATM   13  C20 UNL     1      46.948  56.408   3.615  1.00  0.00     0.012 C 
ENDROOT
BRANCH   1  14
HETATM   14  C6  UNL     1      43.734  57.982   5.808  1.00  0.00     0.186 C 
BRANCH  14  15
HETATM   15  O2  UNL     1      42.641  58.503   6.488  1.00  0.00    -0.317 OA
BRANCH  15  16
HETATM   16  C5  UNL     1      42.605  59.092   7.721  1.00  0.00     0.288 C 
HETATM   17  O1  UNL     1      41.478  59.286   8.234  1.00  0.00    -0.260 OA
BRANCH  16  18
HETATM   18  C3  UNL     1      43.786  59.502   8.465  1.00  0.00     0.009 C 
HETATM   19  C2  UNL     1      44.249  58.805   9.485  1.00  0.00    -0.018 C 
HETATM   20  C1  UNL     1      45.448  59.248  10.218  1.00  0.00     0.036 C 
HETATM   21  C4  UNL     1      44.495  60.737   8.069  1.00  0.00     0.054 C 
ENDBRANCH  16  18
ENDBRANCH  15  16
ENDBRANCH  14  15
ENDBRANCH   1  14
BRANCH   2  22
HETATM   22  O3  UNL     1      41.595  57.712   3.417  1.00  0.00    -0.392 OA
ATOM     23  H3  UNL     1      41.691  58.656   3.459  1.00  0.00     0.210 HD
ENDBRANCH   2  22
BRANCH   3  24
HETATM   24  O4  UNL     1      42.696  55.398   2.087  1.00  0.00    -0.391 OA
ATOM     25  H4  UNL     1      42.183  55.152   2.847  1.00  0.00     0.210 HD
ENDBRANCH   3  24
BRANCH   9  26
HETATM   26  O6  UNL     1      47.571  59.464   3.335  1.00  0.00    -0.359 OA
HETATM   27  C15 UNL     1      48.786  59.969   2.926  1.00  0.00     0.205 C 
ENDBRANCH   9  26
BRANCH   9  28
HETATM   28  O7  UNL     1      46.465  61.188   2.348  1.00  0.00    -0.359 OA
HETATM   29  C16 UNL     1      46.109  61.772   3.563  1.00  0.00     0.205 C 
ENDBRANCH   9  28
BRANCH   8  30
HETATM   30  C13 UNL     1      46.684  60.152  -0.045  1.00  0.00     0.243 C 
HETATM   31  O5  UNL     1      47.601  60.225  -0.849  1.00  0.00    -0.306 OA
ENDBRANCH   8  30
TORSDOF 9
ENDMDL
