MODEL 1
REMARK VINA RESULT: -8.266616060      0.000      0.000
REMARK  15 active torsions:
REMARK  status: ('A' for Active; 'I' for Inactive)
REMARK    1  A    between atoms: C2_2  and  C3_3 
REMARK    2  A    between atoms: C3_3  and  N1_6 
REMARK    3  A    between atoms: N1_6  and  C6_8 
REMARK    4  A    between atoms: C10_14  and  C11_15 
REMARK    5  A    between atoms: C11_15  and  O1_16 
REMARK    6  A    between atoms: C11_15  and  N3_18 
REMARK    7  A    between atoms: N3_18  and  C12_20 
REMARK    8  A    between atoms: C14_22  and  O2_23 
REMARK    9  A    between atoms: C16_25  and  O3_26 
REMARK   10  A    between atoms: N4_31  and  C21_32 
REMARK   11  A    between atoms: C21_32  and  C22_33 
REMARK   12  A    between atoms: C22_33  and  O4_34 
REMARK   13  A    between atoms: O4_34  and  C23_35 
REMARK   14  A    between atoms: C23_35  and  C24_36 
REMARK   15  A    between atoms: C24_36  and  O5_37 
ROOT
HETATM    1  N3  UNL     1      18.191  24.805  17.871  1.00  0.00    -0.346 N 
ATOM      2  H3  UNL     1      18.418  24.056  18.526  1.00  0.00     0.164 HD
ENDROOT
BRANCH   1   3
HETATM    3  C11 UNL     1      16.824  25.058  17.608  1.00  0.00     0.253 C 
BRANCH   3   4
HETATM    4  C10 UNL     1      16.094  23.824  17.208  1.00  0.00    -0.009 A 
HETATM    5  C9  UNL     1      15.411  22.992  18.045  1.00  0.00     0.014 A 
HETATM    6  C8  UNL     1      14.741  21.868  17.658  1.00  0.00     0.031 A 
HETATM    7  C7  UNL     1      14.719  21.492  16.296  1.00  0.00     0.051 A 
HETATM    8  N2  UNL     1      14.121  20.450  15.783  1.00  0.00    -0.336 N 
HETATM    9  C26 UNL     1      15.401  22.321  15.446  1.00  0.00     0.035 A 
HETATM   10  C6  UNL     1      14.204  20.247  14.470  1.00  0.00     0.146 A 
ATOM     11  H2  UNL     1      13.601  19.804  16.377  1.00  0.00     0.168 HD
HETATM   12  S1  UNL     1      15.150  21.558  13.932  1.00  0.00    -0.052 SA
HETATM   13  C25 UNL     1      16.084  23.474  15.873  1.00  0.00     0.033 A 
BRANCH  10  14
HETATM   14  N1  UNL     1      13.688  19.280  13.762  1.00  0.00    -0.362 N 
ATOM     15  H1  UNL     1      14.290  18.509  13.472  1.00  0.00     0.162 HD
BRANCH  14  16
HETATM   16  C3  UNL     1      12.315  19.259  13.376  1.00  0.00     0.024 C 
HETATM   17  C4  UNL     1      11.523  20.451  13.847  1.00  0.00     0.038 C 
HETATM   18  C5  UNL     1      11.679  18.005  13.948  1.00  0.00     0.038 C 
BRANCH  16  19
HETATM   19  C2  UNL     1      12.276  19.245  11.861  1.00  0.00     0.026 C 
HETATM   20  C1  UNL     1      10.864  19.268  11.323  1.00  0.00     0.007 C 
ENDBRANCH  16  19
ENDBRANCH  14  16
ENDBRANCH  10  14
ENDBRANCH   3   4
BRANCH   3  21
HETATM   21  O1  UNL     1      16.169  25.541  18.771  1.00  0.00    -0.372 OA
ATOM     22  H1  UNL     1      16.354  24.910  19.456  1.00  0.00     0.212 HD
ENDBRANCH   3  21
ENDBRANCH   1   3
BRANCH   1  23
HETATM   23  C12 UNL     1      19.147  25.439  17.355  1.00  0.00     0.108 C 
HETATM   24  C13 UNL     1      19.219  25.635  15.991  1.00  0.00     0.088 C 
HETATM   25  C14 UNL     1      19.744  26.743  15.311  1.00  0.00     0.105 C 
HETATM   26  C16 UNL     1      20.621  27.678  15.863  1.00  0.00     0.103 C 
HETATM   27  C18 UNL     1      21.287  27.611  17.074  1.00  0.00     0.064 C 
HETATM   28  C19 UNL     1      20.902  26.918  18.223  1.00  0.00     0.012 C 
HETATM   29  C20 UNL     1      21.506  27.399  19.491  1.00  0.00     0.068 C 
HETATM   30  N4  UNL     1      20.058  25.889  18.270  1.00  0.00    -0.335 N 
BRANCH  25  31
HETATM   31  O2  UNL     1      19.347  26.899  13.998  1.00  0.00    -0.353 OA
HETATM   32  C15 UNL     1      20.032  26.189  12.990  1.00  0.00     0.210 C 
ENDBRANCH  25  31
BRANCH  26  33
HETATM   33  O3  UNL     1      20.833  28.799  15.084  1.00  0.00    -0.353 OA
HETATM   34  C17 UNL     1      22.098  29.081  14.523  1.00  0.00     0.210 C 
ENDBRANCH  26  33
BRANCH  30  35
HETATM   35  C21 UNL     1      20.095  25.105  19.467  1.00  0.00     0.156 C 
BRANCH  35  36
HETATM   36  C22 UNL     1      21.145  23.987  19.319  1.00  0.00     0.188 C 
BRANCH  36  37
HETATM   37  O4  UNL     1      20.431  22.825  19.118  1.00  0.00    -0.387 OA
BRANCH  37  38
HETATM   38  C23 UNL     1      19.469  22.567  20.077  1.00  0.00     0.193 C 
BRANCH  38  39
HETATM   39  C24 UNL     1      18.407  21.650  19.528  1.00  0.00     0.190 C 
BRANCH  39  40
HETATM   40  O5  UNL     1      18.647  21.547  18.149  1.00  0.00    -0.399 OA
ATOM     41  H5  UNL     1      18.296  20.707  17.878  1.00  0.00     0.209 HD
ENDBRANCH  39  40
ENDBRANCH  38  39
ENDBRANCH  37  38
ENDBRANCH  36  37
ENDBRANCH  35  36
ENDBRANCH  30  35
ENDBRANCH   1  23
TORSDOF 15
ENDMDL
MODEL 2
REMARK VINA RESULT: -7.946857325      0.902      1.233
REMARK  15 active torsions:
REMARK  status: ('A' for Active; 'I' for Inactive)
REMARK    1  A    between atoms: C2_2  and  C3_3 
REMARK    2  A    between atoms: C3_3  and  N1_6 
REMARK    3  A    between atoms: N1_6  and  C6_8 
REMARK    4  A    between atoms: C10_14  and  C11_15 
REMARK    5  A    between atoms: C11_15  and  O1_16 
REMARK    6  A    between atoms: C11_15  and  N3_18 
REMARK    7  A    between atoms: N3_18  and  C12_20 
REMARK    8  A    between atoms: C14_22  and  O2_23 
REMARK    9  A    between atoms: C16_25  and  O3_26 
REMARK   10  A    between atoms: N4_31  and  C21_32 
REMARK   11  A    between atoms: C21_32  and  C22_33 
REMARK   12  A    between atoms: C22_33  and  O4_34 
REMARK   13  A    between atoms: O4_34  and  C23_35 
REMARK   14  A    between atoms: C23_35  and  C24_36 
REMARK   15  A    between atoms: C24_36  and  O5_37 
ROOT
HETATM    1  N3  UNL     1      18.337  25.058  17.953  1.00  0.00    -0.346 N 
ATOM      2  H3  UNL     1      18.494  24.381  18.700  1.00  0.00     0.164 HD
ENDROOT
BRANCH   1   3
HETATM    3  C11 UNL     1      17.005  25.259  17.515  1.00  0.00     0.253 C 
BRANCH   3   4
HETATM    4  C10 UNL     1      16.555  24.188  16.585  1.00  0.00    -0.009 A 
HETATM    5  C9  UNL     1      17.035  23.964  15.329  1.00  0.00     0.014 A 
HETATM    6  C8  UNL     1      16.615  22.972  14.493  1.00  0.00     0.031 A 
HETATM    7  C7  UNL     1      15.605  22.075  14.912  1.00  0.00     0.051 A 
HETATM    8  N2  UNL     1      15.108  21.082  14.225  1.00  0.00    -0.336 N 
HETATM    9  C26 UNL     1      15.115  22.289  16.173  1.00  0.00     0.035 A 
HETATM   10  C6  UNL     1      14.156  20.335  14.779  1.00  0.00     0.146 A 
ATOM     11  H2  UNL     1      15.442  20.884  13.282  1.00  0.00     0.168 HD
HETATM   12  S1  UNL     1      13.949  21.043  16.315  1.00  0.00    -0.052 SA
HETATM   13  C25 UNL     1      15.568  23.323  17.013  1.00  0.00     0.033 A 
BRANCH  10  14
HETATM   14  N1  UNL     1      13.531  19.307  14.272  1.00  0.00    -0.362 N 
ATOM     15  H1  UNL     1      13.974  18.390  14.323  1.00  0.00     0.162 HD
BRANCH  14  16
HETATM   16  C3  UNL     1      12.251  19.416  13.651  1.00  0.00     0.024 C 
HETATM   17  C4  UNL     1      11.492  20.665  14.017  1.00  0.00     0.038 C 
HETATM   18  C5  UNL     1      11.421  18.213  14.060  1.00  0.00     0.038 C 
BRANCH  16  19
HETATM   19  C2  UNL     1      12.481  19.434  12.154  1.00  0.00     0.026 C 
HETATM   20  C1  UNL     1      11.196  19.278  11.373  1.00  0.00     0.007 C 
ENDBRANCH  16  19
ENDBRANCH  14  16
ENDBRANCH  10  14
ENDBRANCH   3   4
BRANCH   3  21
HETATM   21  O1  UNL     1      16.106  25.228  18.612  1.00  0.00    -0.372 OA
ATOM     22  H1  UNL     1      15.808  24.329  18.682  1.00  0.00     0.212 HD
ENDBRANCH   3  21
ENDBRANCH   1   3
BRANCH   1  23
HETATM   23  C12 UNL     1      19.340  25.656  17.485  1.00  0.00     0.108 C 
HETATM   24  C13 UNL     1      19.438  25.937  16.138  1.00  0.00     0.088 C 
HETATM   25  C14 UNL     1      20.046  27.049  15.537  1.00  0.00     0.105 C 
HETATM   26  C16 UNL     1      20.983  27.879  16.155  1.00  0.00     0.103 C 
HETATM   27  C18 UNL     1      21.631  27.684  17.362  1.00  0.00     0.064 C 
HETATM   28  C19 UNL     1      21.187  26.944  18.459  1.00  0.00     0.012 C 
HETATM   29  C20 UNL     1      21.812  27.294  19.760  1.00  0.00     0.068 C 
HETATM   30  N4  UNL     1      20.272  25.976  18.432  1.00  0.00    -0.335 N 
BRANCH  25  31
HETATM   31  O2  UNL     1      19.674  27.321  14.236  1.00  0.00    -0.353 OA
HETATM   32  C15 UNL     1      20.191  26.518  13.197  1.00  0.00     0.210 C 
ENDBRANCH  25  31
BRANCH  26  33
HETATM   33  O3  UNL     1      21.281  29.032  15.456  1.00  0.00    -0.353 OA
HETATM   34  C17 UNL     1      22.544  29.227  14.854  1.00  0.00     0.210 C 
ENDBRANCH  26  33
BRANCH  30  35
HETATM   35  C21 UNL     1      20.242  25.113  19.574  1.00  0.00     0.156 C 
BRANCH  35  36
HETATM   36  C22 UNL     1      21.099  23.862  19.297  1.00  0.00     0.188 C 
BRANCH  36  37
HETATM   37  O4  UNL     1      20.208  22.860  18.979  1.00  0.00    -0.387 OA
BRANCH  37  38
HETATM   38  C23 UNL     1      19.484  22.371  20.050  1.00  0.00     0.193 C 
BRANCH  38  39
HETATM   39  C24 UNL     1      18.099  21.969  19.614  1.00  0.00     0.190 C 
BRANCH  39  40
HETATM   40  O5  UNL     1      17.236  22.987  20.046  1.00  0.00    -0.399 OA
ATOM     41  H5  UNL     1      16.788  23.306  19.272  1.00  0.00     0.209 HD
ENDBRANCH  39  40
ENDBRANCH  38  39
ENDBRANCH  37  38
ENDBRANCH  36  37
ENDBRANCH  35  36
ENDBRANCH  30  35
ENDBRANCH   1  23
TORSDOF 15
ENDMDL
MODEL 3
REMARK VINA RESULT: -7.939841025      3.207      9.264
REMARK  15 active torsions:
REMARK  status: ('A' for Active; 'I' for Inactive)
REMARK    1  A    between atoms: C2_2  and  C3_3 
REMARK    2  A    between atoms: C3_3  and  N1_6 
REMARK    3  A    between atoms: N1_6  and  C6_8 
REMARK    4  A    between atoms: C10_14  and  C11_15 
REMARK    5  A    between atoms: C11_15  and  O1_16 
REMARK    6  A    between atoms: C11_15  and  N3_18 
REMARK    7  A    between atoms: N3_18  and  C12_20 
REMARK    8  A    between atoms: C14_22  and  O2_23 
REMARK    9  A    between atoms: C16_25  and  O3_26 
REMARK   10  A    between atoms: N4_31  and  C21_32 
REMARK   11  A    between atoms: C21_32  and  C22_33 
REMARK   12  A    between atoms: C22_33  and  O4_34 
REMARK   13  A    between atoms: O4_34  and  C23_35 
REMARK   14  A    between atoms: C23_35  and  C24_36 
REMARK   15  A    between atoms: C24_36  and  O5_37 
ROOT
HETATM    1  N3  UNL     1      15.807  21.046  16.508  1.00  0.00    -0.346 N 
ATOM      2  H3  UNL     1      16.621  20.451  16.660  1.00  0.00     0.164 HD
ENDROOT
BRANCH   1   3
HETATM    3  C11 UNL     1      15.916  22.076  15.542  1.00  0.00     0.253 C 
BRANCH   3   4
HETATM    4  C10 UNL     1      17.232  22.767  15.608  1.00  0.00    -0.009 A 
HETATM    5  C9  UNL     1      18.307  22.374  16.348  1.00  0.00     0.014 A 
HETATM    6  C8  UNL     1      19.509  23.017  16.390  1.00  0.00     0.031 A 
HETATM    7  C7  UNL     1      19.711  24.187  15.624  1.00  0.00     0.051 A 
HETATM    8  N2  UNL     1      20.803  24.903  15.564  1.00  0.00    -0.336 N 
HETATM    9  C26 UNL     1      18.639  24.592  14.875  1.00  0.00     0.035 A 
HETATM   10  C6  UNL     1      20.817  25.981  14.785  1.00  0.00     0.146 A 
ATOM     11  H2  UNL     1      21.627  24.639  16.103  1.00  0.00     0.168 HD
HETATM   12  S1  UNL     1      19.252  25.998  14.111  1.00  0.00    -0.052 SA
HETATM   13  C25 UNL     1      17.410  23.909  14.852  1.00  0.00     0.033 A 
BRANCH  10  14
HETATM   14  N1  UNL     1      21.792  26.826  14.582  1.00  0.00    -0.362 N 
ATOM     15  H1  UNL     1      22.180  26.909  13.642  1.00  0.00     0.162 HD
BRANCH  14  16
HETATM   16  C3  UNL     1      22.335  27.637  15.621  1.00  0.00     0.024 C 
HETATM   17  C4  UNL     1      21.449  27.762  16.833  1.00  0.00     0.038 C 
HETATM   18  C5  UNL     1      22.580  29.026  15.062  1.00  0.00     0.038 C 
BRANCH  16  19
HETATM   19  C2  UNL     1      23.633  26.991  16.060  1.00  0.00     0.026 C 
HETATM   20  C1  UNL     1      24.845  27.777  15.614  1.00  0.00     0.007 C 
ENDBRANCH  16  19
ENDBRANCH  14  16
ENDBRANCH  10  14
ENDBRANCH   3   4
BRANCH   3  21
HETATM   21  O1  UNL     1      15.817  21.546  14.230  1.00  0.00    -0.372 OA
ATOM     22  H1  UNL     1      14.893  21.557  14.011  1.00  0.00     0.212 HD
ENDBRANCH   3  21
ENDBRANCH   1   3
BRANCH   1  23
HETATM   23  C12 UNL     1      14.777  20.815  17.191  1.00  0.00     0.108 C 
HETATM   24  C13 UNL     1      13.516  20.948  16.648  1.00  0.00     0.088 C 
HETATM   25  C14 UNL     1      12.371  20.193  16.944  1.00  0.00     0.105 C 
HETATM   26  C16 UNL     1      12.196  19.424  18.095  1.00  0.00     0.103 C 
HETATM   27  C18 UNL     1      12.986  19.396  19.230  1.00  0.00     0.064 C 
HETATM   28  C19 UNL     1      14.345  19.694  19.332  1.00  0.00     0.012 C 
HETATM   29  C20 UNL     1      15.039  19.123  20.514  1.00  0.00     0.068 C 
HETATM   30  N4  UNL     1      15.051  20.430  18.475  1.00  0.00    -0.335 N 
BRANCH  25  31
HETATM   31  O2  UNL     1      11.357  20.231  16.009  1.00  0.00    -0.353 OA
HETATM   32  C15 UNL     1      11.463  21.124  14.923  1.00  0.00     0.210 C 
ENDBRANCH  25  31
BRANCH  26  33
HETATM   33  O3  UNL     1      11.090  18.597  18.072  1.00  0.00    -0.353 OA
HETATM   34  C17 UNL     1      11.191  17.218  18.363  1.00  0.00     0.210 C 
ENDBRANCH  26  33
BRANCH  30  35
HETATM   35  C21 UNL     1      16.310  20.914  18.955  1.00  0.00     0.156 C 
BRANCH  35  36
HETATM   36  C22 UNL     1      16.166  22.388  19.385  1.00  0.00     0.188 C 
BRANCH  36  37
HETATM   37  O4  UNL     1      17.447  22.834  19.629  1.00  0.00    -0.387 OA
BRANCH  37  38
HETATM   38  C23 UNL     1      17.666  24.160  19.302  1.00  0.00     0.193 C 
BRANCH  38  39
HETATM   39  C24 UNL     1      16.487  24.722  18.552  1.00  0.00     0.190 C 
BRANCH  39  40
HETATM   40  O5  UNL     1      16.971  25.808  17.807  1.00  0.00    -0.399 OA
ATOM     41  H5  UNL     1      16.228  26.377  17.648  1.00  0.00     0.209 HD
ENDBRANCH  39  40
ENDBRANCH  38  39
ENDBRANCH  37  38
ENDBRANCH  36  37
ENDBRANCH  35  36
ENDBRANCH  30  35
ENDBRANCH   1  23
TORSDOF 15
ENDMDL
MODEL 4
REMARK VINA RESULT: -7.859948823      2.468      3.268
REMARK  15 active torsions:
REMARK  status: ('A' for Active; 'I' for Inactive)
REMARK    1  A    between atoms: C2_2  and  C3_3 
REMARK    2  A    between atoms: C3_3  and  N1_6 
REMARK    3  A    between atoms: N1_6  and  C6_8 
REMARK    4  A    between atoms: C10_14  and  C11_15 
REMARK    5  A    between atoms: C11_15  and  O1_16 
REMARK    6  A    between atoms: C11_15  and  N3_18 
REMARK    7  A    between atoms: N3_18  and  C12_20 
REMARK    8  A    between atoms: C14_22  and  O2_23 
REMARK    9  A    between atoms: C16_25  and  O3_26 
REMARK   10  A    between atoms: N4_31  and  C21_32 
REMARK   11  A    between atoms: C21_32  and  C22_33 
REMARK   12  A    between atoms: C22_33  and  O4_34 
REMARK   13  A    between atoms: O4_34  and  C23_35 
REMARK   14  A    between atoms: C23_35  and  C24_36 
REMARK   15  A    between atoms: C24_36  and  O5_37 
ROOT
HETATM    1  N3  UNL     1      18.443  25.165  17.900  1.00  0.00    -0.346 N 
ATOM      2  H3  UNL     1      18.624  24.635  18.753  1.00  0.00     0.164 HD
ENDROOT
BRANCH   1   3
HETATM    3  C11 UNL     1      17.117  25.181  17.404  1.00  0.00     0.253 C 
BRANCH   3   4
HETATM    4  C10 UNL     1      16.534  23.814  17.322  1.00  0.00    -0.009 A 
HETATM    5  C9  UNL     1      16.474  23.035  16.205  1.00  0.00     0.014 A 
HETATM    6  C8  UNL     1      15.942  21.780  16.151  1.00  0.00     0.031 A 
HETATM    7  C7  UNL     1      15.398  21.192  17.316  1.00  0.00     0.051 A 
HETATM    8  N2  UNL     1      14.860  20.006  17.414  1.00  0.00    -0.336 N 
HETATM    9  C26 UNL     1      15.454  21.965  18.445  1.00  0.00     0.035 A 
HETATM   10  C6  UNL     1      14.396  19.611  18.596  1.00  0.00     0.146 A 
ATOM     11  H2  UNL     1      14.798  19.395  16.600  1.00  0.00     0.168 HD
HETATM   12  S1  UNL     1      14.722  20.943  19.608  1.00  0.00    -0.052 SA
HETATM   13  C25 UNL     1      16.008  23.258  18.470  1.00  0.00     0.033 A 
BRANCH  10  14
HETATM   14  N1  UNL     1      13.828  18.478  18.911  1.00  0.00    -0.362 N 
ATOM     15  H1  UNL     1      14.416  17.656  19.047  1.00  0.00     0.162 HD
BRANCH  14  16
HETATM   16  C3  UNL     1      12.417  18.345  19.073  1.00  0.00     0.024 C 
HETATM   17  C4  UNL     1      11.875  16.998  18.672  1.00  0.00     0.038 C 
HETATM   18  C5  UNL     1      11.739  19.406  18.225  1.00  0.00     0.038 C 
BRANCH  16  19
HETATM   19  C2  UNL     1      12.114  18.550  20.543  1.00  0.00     0.026 C 
HETATM   20  C1  UNL     1      13.180  17.957  21.437  1.00  0.00     0.007 C 
ENDBRANCH  16  19
ENDBRANCH  14  16
ENDBRANCH  10  14
ENDBRANCH   3   4
BRANCH   3  21
HETATM   21  O1  UNL     1      16.266  25.918  18.268  1.00  0.00    -0.372 OA
ATOM     22  H1  UNL     1      16.338  26.825  17.994  1.00  0.00     0.212 HD
ENDBRANCH   3  21
ENDBRANCH   1   3
BRANCH   1  23
HETATM   23  C12 UNL     1      19.414  25.757  17.362  1.00  0.00     0.108 C 
HETATM   24  C13 UNL     1      19.458  25.961  15.999  1.00  0.00     0.088 C 
HETATM   25  C14 UNL     1      20.017  27.049  15.313  1.00  0.00     0.105 C 
HETATM   26  C16 UNL     1      20.952  27.937  15.847  1.00  0.00     0.103 C 
HETATM   27  C18 UNL     1      21.645  27.829  17.039  1.00  0.00     0.064 C 
HETATM   28  C19 UNL     1      21.259  27.146  18.193  1.00  0.00     0.012 C 
HETATM   29  C20 UNL     1      21.918  27.587  19.449  1.00  0.00     0.068 C 
HETATM   30  N4  UNL     1      20.369  26.156  18.256  1.00  0.00    -0.335 N 
BRANCH  25  31
HETATM   31  O2  UNL     1      19.594  27.234  14.012  1.00  0.00    -0.353 OA
HETATM   32  C15 UNL     1      20.154  26.435  12.993  1.00  0.00     0.210 C 
ENDBRANCH  25  31
BRANCH  26  33
HETATM   33  O3  UNL     1      21.195  29.053  15.071  1.00  0.00    -0.353 OA
HETATM   34  C17 UNL     1      22.388  29.190  14.327  1.00  0.00     0.210 C 
ENDBRANCH  26  33
BRANCH  30  35
HETATM   35  C21 UNL     1      20.400  25.362  19.446  1.00  0.00     0.156 C 
BRANCH  35  36
HETATM   36  C22 UNL     1      21.331  24.152  19.235  1.00  0.00     0.188 C 
BRANCH  36  37
HETATM   37  O4  UNL     1      20.502  23.069  19.041  1.00  0.00    -0.387 OA
BRANCH  37  38
HETATM   38  C23 UNL     1      19.688  22.767  20.117  1.00  0.00     0.193 C 
BRANCH  38  39
HETATM   39  C24 UNL     1      18.821  21.575  19.806  1.00  0.00     0.190 C 
BRANCH  39  40
HETATM   40  O5  UNL     1      18.922  21.361  18.424  1.00  0.00    -0.399 OA
ATOM     41  H5  UNL     1      18.369  20.613  18.226  1.00  0.00     0.209 HD
ENDBRANCH  39  40
ENDBRANCH  38  39
ENDBRANCH  37  38
ENDBRANCH  36  37
ENDBRANCH  35  36
ENDBRANCH  30  35
ENDBRANCH   1  23
TORSDOF 15
ENDMDL
MODEL 5
REMARK VINA RESULT: -7.786600450      3.197      5.721
REMARK  15 active torsions:
REMARK  status: ('A' for Active; 'I' for Inactive)
REMARK    1  A    between atoms: C2_2  and  C3_3 
REMARK    2  A    between atoms: C3_3  and  N1_6 
REMARK    3  A    between atoms: N1_6  and  C6_8 
REMARK    4  A    between atoms: C10_14  and  C11_15 
REMARK    5  A    between atoms: C11_15  and  O1_16 
REMARK    6  A    between atoms: C11_15  and  N3_18 
REMARK    7  A    between atoms: N3_18  and  C12_20 
REMARK    8  A    between atoms: C14_22  and  O2_23 
REMARK    9  A    between atoms: C16_25  and  O3_26 
REMARK   10  A    between atoms: N4_31  and  C21_32 
REMARK   11  A    between atoms: C21_32  and  C22_33 
REMARK   12  A    between atoms: C22_33  and  O4_34 
REMARK   13  A    between atoms: O4_34  and  C23_35 
REMARK   14  A    between atoms: C23_35  and  C24_36 
REMARK   15  A    between atoms: C24_36  and  O5_37 
ROOT
HETATM    1  N3  UNL     1      20.593  25.989  16.043  1.00  0.00    -0.346 N 
ATOM      2  H3  UNL     1      20.120  26.788  15.622  1.00  0.00     0.164 HD
ENDROOT
BRANCH   1   3
HETATM    3  C11 UNL     1      20.566  24.761  15.339  1.00  0.00     0.253 C 
BRANCH   3   4
HETATM    4  C10 UNL     1      19.281  24.035  15.531  1.00  0.00    -0.009 A 
HETATM    5  C9  UNL     1      18.108  24.300  14.889  1.00  0.00     0.014 A 
HETATM    6  C8  UNL     1      16.940  23.618  15.073  1.00  0.00     0.031 A 
HETATM    7  C7  UNL     1      16.888  22.542  15.989  1.00  0.00     0.051 A 
HETATM    8  N2  UNL     1      15.847  21.802  16.265  1.00  0.00    -0.336 N 
HETATM    9  C26 UNL     1      18.061  22.266  16.639  1.00  0.00     0.035 A 
HETATM   10  C6  UNL     1      15.978  20.825  17.158  1.00  0.00     0.146 A 
ATOM     11  H2  UNL     1      14.953  21.970  15.805  1.00  0.00     0.168 HD
HETATM   12  S1  UNL     1      17.611  20.942  17.630  1.00  0.00    -0.052 SA
HETATM   13  C25 UNL     1      19.249  22.987  16.429  1.00  0.00     0.033 A 
BRANCH  10  14
HETATM   14  N1  UNL     1      15.076  19.978  17.576  1.00  0.00    -0.362 N 
ATOM     15  H1  UNL     1      14.820  19.198  16.972  1.00  0.00     0.162 HD
BRANCH  14  16
HETATM   16  C3  UNL     1      14.435  20.101  18.844  1.00  0.00     0.024 C 
HETATM   17  C4  UNL     1      12.953  19.835  18.815  1.00  0.00     0.038 C 
HETATM   18  C5  UNL     1      14.659  21.513  19.355  1.00  0.00     0.038 C 
BRANCH  16  19
HETATM   19  C2  UNL     1      15.072  19.082  19.768  1.00  0.00     0.026 C 
HETATM   20  C1  UNL     1      14.798  19.378  21.225  1.00  0.00     0.007 C 
ENDBRANCH  16  19
ENDBRANCH  14  16
ENDBRANCH  10  14
ENDBRANCH   3   4
BRANCH   3  21
HETATM   21  O1  UNL     1      20.686  24.980  13.942  1.00  0.00    -0.372 OA
ATOM     22  H1  UNL     1      21.503  25.449  13.820  1.00  0.00     0.212 HD
ENDBRANCH   3  21
ENDBRANCH   1   3
BRANCH   1  23
HETATM   23  C12 UNL     1      21.161  26.163  17.152  1.00  0.00     0.108 C 
HETATM   24  C13 UNL     1      20.490  25.950  18.338  1.00  0.00     0.088 C 
HETATM   25  C14 UNL     1      21.016  25.471  19.547  1.00  0.00     0.105 C 
HETATM   26  C16 UNL     1      22.370  25.476  19.886  1.00  0.00     0.103 C 
HETATM   27  C18 UNL     1      23.413  26.101  19.226  1.00  0.00     0.064 C 
HETATM   28  C19 UNL     1      23.492  26.427  17.871  1.00  0.00     0.012 C 
HETATM   29  C20 UNL     1      24.865  26.626  17.342  1.00  0.00     0.068 C 
HETATM   30  N4  UNL     1      22.462  26.568  17.039  1.00  0.00    -0.335 N 
BRANCH  25  31
HETATM   31  O2  UNL     1      20.106  24.963  20.451  1.00  0.00    -0.353 OA
HETATM   32  C15 UNL     1      19.360  23.819  20.098  1.00  0.00     0.210 C 
ENDBRANCH  25  31
BRANCH  26  33
HETATM   33  O3  UNL     1      22.680  24.760  21.026  1.00  0.00    -0.353 OA
HETATM   34  C17 UNL     1      23.051  25.406  22.227  1.00  0.00     0.210 C 
ENDBRANCH  26  33
BRANCH  30  35
HETATM   35  C21 UNL     1      22.738  27.257  15.815  1.00  0.00     0.156 C 
BRANCH  35  36
HETATM   36  C22 UNL     1      22.286  28.726  15.937  1.00  0.00     0.188 C 
BRANCH  36  37
HETATM   37  O4  UNL     1      21.334  28.909  14.958  1.00  0.00    -0.387 OA
BRANCH  37  38
HETATM   38  C23 UNL     1      21.806  28.782  13.665  1.00  0.00     0.193 C 
BRANCH  38  39
HETATM   39  C24 UNL     1      20.804  28.055  12.806  1.00  0.00     0.190 C 
BRANCH  39  40
HETATM   40  O5  UNL     1      19.721  27.739  13.639  1.00  0.00    -0.399 OA
ATOM     41  H5  UNL     1      19.970  26.956  14.117  1.00  0.00     0.209 HD
ENDBRANCH  39  40
ENDBRANCH  38  39
ENDBRANCH  37  38
ENDBRANCH  36  37
ENDBRANCH  35  36
ENDBRANCH  30  35
ENDBRANCH   1  23
TORSDOF 15
ENDMDL
