MODEL 1
REMARK VINA RESULT: -9.615011239      0.000      0.000
REMARK  13 active torsions:
REMARK  status: ('A' for Active; 'I' for Inactive)
REMARK    1  A    between atoms: C2_2  and  N1_3 
REMARK    2  A    between atoms: N1_3  and  C3_4 
REMARK    3  A    between atoms: N1_3  and  C5_6 
REMARK    4  A    between atoms: C5_6  and  C6_7 
REMARK    5  A    between atoms: C6_7  and  N2_8 
REMARK    6  A    between atoms: N2_8  and  C7_10 
REMARK    7  A    between atoms: N4_14  and  C9_16 
REMARK    8  A    between atoms: C9_16  and  C10_17 
REMARK    9  A    between atoms: C10_17  and  C11_18 
REMARK   10  A    between atoms: C14_21  and  O1_22 
REMARK   11  A    between atoms: C16_24  and  O2_25 
REMARK   12  A    between atoms: C19_30  and  N6_31 
REMARK   13  A    between atoms: N6_31  and  C20_33 
ROOT
HETATM    1  C20 UNL     1      14.396  20.988  18.907  1.00  0.00     0.070 A 
HETATM    2  C21 UNL     1      15.219  21.000  20.018  1.00  0.00     0.032 A 
HETATM    3  C22 UNL     1      15.124  19.962  20.932  1.00  0.00     0.009 A 
HETATM    4  C23 UNL     1      14.207  18.952  20.695  1.00  0.00    -0.060 A 
HETATM    5  C24 UNL     1      14.098  17.845  21.668  1.00  0.00     0.048 C 
HETATM    6  C25 UNL     1      13.390  18.957  19.575  1.00  0.00     0.031 A 
HETATM    7  C26 UNL     1      13.477  19.986  18.660  1.00  0.00     0.072 A 
HETATM    8  C27 UNL     1      12.642  20.014  17.494  1.00  0.00     0.102 C 
HETATM    9  N7  UNL     1      11.978  20.041  16.542  1.00  0.00    -0.191 NA
ENDROOT
BRANCH   1  10
HETATM   10  N6  UNL     1      14.477  22.057  17.962  1.00  0.00    -0.189 N 
ATOM     11  H6  UNL     1      13.685  22.265  17.354  1.00  0.00     0.184 HD
BRANCH  10  12
HETATM   12  C19 UNL     1      15.576  22.770  17.880  1.00  0.00     0.711 A 
HETATM   13  N5  UNL     1      16.211  22.851  16.721  1.00  0.00    -0.021 N 
HETATM   14  C8  UNL     1      17.364  23.571  16.525  1.00  0.00     0.707 A 
ATOM     15  H5  UNL     1      15.820  22.347  15.925  1.00  0.00     0.203 HD
HETATM   16  N3  UNL     1      17.858  24.219  17.576  1.00  0.00    -0.022 N 
HETATM   17  N4  UNL     1      17.918  23.592  15.377  1.00  0.00    -0.225 N 
HETATM   18  C7  UNL     1      17.236  24.166  18.797  1.00  0.00     0.707 A 
ATOM     19  H3  UNL     1      18.713  24.765  17.471  1.00  0.00     0.203 HD
HETATM   20  N8  UNL     1      16.095  23.433  18.923  1.00  0.00    -0.021 N 
ATOM     21  H8  UNL     1      15.626  23.389  19.827  1.00  0.00     0.203 HD
ATOM     22  H4  UNL     1      17.489  23.074  14.610  1.00  0.00     0.177 HD
BRANCH  18  23
HETATM   23  N2  UNL     1      17.785  24.816  19.732  1.00  0.00    -0.220 N 
ATOM     24  H2  UNL     1      17.785  25.828  19.608  1.00  0.00     0.178 HD
BRANCH  23  25
HETATM   25  C6  UNL     1      18.403  24.362  20.927  1.00  0.00     0.183 C 
BRANCH  25  26
HETATM   26  C5  UNL     1      19.702  23.614  20.655  1.00  0.00     0.088 C 
BRANCH  26  27
HETATM   27  N1  UNL     1      20.746  24.531  20.472  1.00  0.00    -0.353 N 
BRANCH  27  28
HETATM   28  C2  UNL     1      21.165  25.298  21.565  1.00  0.00     0.064 C 
HETATM   29  C1  UNL     1      21.112  26.791  21.410  1.00  0.00     0.055 C 
ENDBRANCH  27  28
BRANCH  27  30
HETATM   30  C3  UNL     1      21.631  24.325  19.397  1.00  0.00     0.064 C 
HETATM   31  C4  UNL     1      23.085  24.265  19.705  1.00  0.00     0.055 C 
ENDBRANCH  27  30
ENDBRANCH  26  27
ENDBRANCH  25  26
ENDBRANCH  23  25
ENDBRANCH  18  23
BRANCH  17  32
HETATM   32  C9  UNL     1      19.122  24.322  15.134  1.00  0.00     0.142 C 
BRANCH  32  33
HETATM   33  C10 UNL     1      18.882  25.276  13.969  1.00  0.00     0.058 C 
BRANCH  33  34
HETATM   34  C11 UNL     1      19.777  26.433  14.196  1.00  0.00    -0.054 A 
HETATM   35  C12 UNL     1      20.289  27.117  13.115  1.00  0.00     0.010 A 
HETATM   36  C13 UNL     1      21.132  28.198  13.295  1.00  0.00     0.040 A 
HETATM   37  C14 UNL     1      21.434  28.555  14.572  1.00  0.00     0.101 A 
HETATM   38  C16 UNL     1      20.924  27.872  15.686  1.00  0.00     0.102 A 
HETATM   39  C18 UNL     1      20.099  26.815  15.468  1.00  0.00     0.046 A 
BRANCH  37  40
HETATM   40  O1  UNL     1      22.275  29.631  14.795  1.00  0.00    -0.353 OA
HETATM   41  C15 UNL     1      23.662  29.447  14.714  1.00  0.00     0.210 C 
ENDBRANCH  37  40
BRANCH  38  42
HETATM   42  O2  UNL     1      21.292  28.316  16.949  1.00  0.00    -0.353 OA
HETATM   43  C17 UNL     1      22.233  27.560  17.684  1.00  0.00     0.210 C 
ENDBRANCH  38  42
ENDBRANCH  33  34
ENDBRANCH  32  33
ENDBRANCH  17  32
ENDBRANCH  10  12
ENDBRANCH   1  10
TORSDOF 13
ENDMDL
MODEL 2
REMARK VINA RESULT: -9.474598483      0.435      1.109
REMARK  13 active torsions:
REMARK  status: ('A' for Active; 'I' for Inactive)
REMARK    1  A    between atoms: C2_2  and  N1_3 
REMARK    2  A    between atoms: N1_3  and  C3_4 
REMARK    3  A    between atoms: N1_3  and  C5_6 
REMARK    4  A    between atoms: C5_6  and  C6_7 
REMARK    5  A    between atoms: C6_7  and  N2_8 
REMARK    6  A    between atoms: N2_8  and  C7_10 
REMARK    7  A    between atoms: N4_14  and  C9_16 
REMARK    8  A    between atoms: C9_16  and  C10_17 
REMARK    9  A    between atoms: C10_17  and  C11_18 
REMARK   10  A    between atoms: C14_21  and  O1_22 
REMARK   11  A    between atoms: C16_24  and  O2_25 
REMARK   12  A    between atoms: C19_30  and  N6_31 
REMARK   13  A    between atoms: N6_31  and  C20_33 
ROOT
HETATM    1  C20 UNL     1      14.327  20.844  18.903  1.00  0.00     0.070 A 
HETATM    2  C21 UNL     1      15.189  20.846  19.985  1.00  0.00     0.032 A 
HETATM    3  C22 UNL     1      15.054  19.859  20.949  1.00  0.00     0.009 A 
HETATM    4  C23 UNL     1      14.060  18.908  20.790  1.00  0.00    -0.060 A 
HETATM    5  C24 UNL     1      13.909  17.856  21.816  1.00  0.00     0.048 C 
HETATM    6  C25 UNL     1      13.206  18.922  19.698  1.00  0.00     0.031 A 
HETATM    7  C26 UNL     1      13.332  19.900  18.734  1.00  0.00     0.072 A 
HETATM    8  C27 UNL     1      12.460  19.936  17.596  1.00  0.00     0.102 C 
HETATM    9  N7  UNL     1      11.766  19.968  16.665  1.00  0.00    -0.191 NA
ENDROOT
BRANCH   1  10
HETATM   10  N6  UNL     1      14.449  21.861  17.907  1.00  0.00    -0.189 N 
ATOM     11  H6  UNL     1      13.690  22.024  17.246  1.00  0.00     0.184 HD
BRANCH  10  12
HETATM   12  C19 UNL     1      15.543  22.584  17.847  1.00  0.00     0.711 A 
HETATM   13  N5  UNL     1      16.160  22.730  16.685  1.00  0.00    -0.021 N 
HETATM   14  C8  UNL     1      17.306  23.466  16.510  1.00  0.00     0.707 A 
ATOM     15  H5  UNL     1      15.760  22.267  15.869  1.00  0.00     0.203 HD
HETATM   16  N3  UNL     1      17.812  24.061  17.586  1.00  0.00    -0.022 N 
HETATM   17  N4  UNL     1      17.843  23.552  15.357  1.00  0.00    -0.225 N 
HETATM   18  C7  UNL     1      17.209  23.940  18.812  1.00  0.00     0.707 A 
ATOM     19  H3  UNL     1      18.662  24.617  17.498  1.00  0.00     0.203 HD
HETATM   20  N8  UNL     1      16.073  23.195  18.915  1.00  0.00    -0.021 N 
ATOM     21  H8  UNL     1      15.618  23.101  19.823  1.00  0.00     0.203 HD
ATOM     22  H4  UNL     1      17.405  23.072  14.570  1.00  0.00     0.177 HD
BRANCH  18  23
HETATM   23  N2  UNL     1      17.768  24.543  19.772  1.00  0.00    -0.220 N 
ATOM     24  H2  UNL     1      17.289  25.386  20.086  1.00  0.00     0.178 HD
BRANCH  23  25
HETATM   25  C6  UNL     1      18.958  24.235  20.482  1.00  0.00     0.183 C 
BRANCH  25  26
HETATM   26  C5  UNL     1      20.090  25.200  20.155  1.00  0.00     0.088 C 
BRANCH  26  27
HETATM   27  N1  UNL     1      21.314  24.647  20.560  1.00  0.00    -0.353 N 
BRANCH  27  28
HETATM   28  C2  UNL     1      22.179  24.142  19.582  1.00  0.00     0.064 C 
HETATM   29  C1  UNL     1      23.631  24.503  19.706  1.00  0.00     0.055 C 
ENDBRANCH  27  28
BRANCH  27  30
HETATM   30  C3  UNL     1      21.838  25.036  21.806  1.00  0.00     0.064 C 
HETATM   31  C4  UNL     1      21.509  26.401  22.297  1.00  0.00     0.055 C 
ENDBRANCH  27  30
ENDBRANCH  26  27
ENDBRANCH  25  26
ENDBRANCH  23  25
ENDBRANCH  18  23
BRANCH  17  32
HETATM   32  C9  UNL     1      19.039  24.300  15.135  1.00  0.00     0.142 C 
BRANCH  32  33
HETATM   33  C10 UNL     1      18.790  25.282  13.995  1.00  0.00     0.058 C 
BRANCH  33  34
HETATM   34  C11 UNL     1      19.698  26.427  14.235  1.00  0.00    -0.054 A 
HETATM   35  C12 UNL     1      20.227  27.110  13.161  1.00  0.00     0.010 A 
HETATM   36  C13 UNL     1      21.082  28.179  13.353  1.00  0.00     0.040 A 
HETATM   37  C14 UNL     1      21.378  28.526  14.634  1.00  0.00     0.101 A 
HETATM   38  C16 UNL     1      20.851  27.844  15.741  1.00  0.00     0.102 A 
HETATM   39  C18 UNL     1      20.015  26.799  15.511  1.00  0.00     0.046 A 
BRANCH  37  40
HETATM   40  O1  UNL     1      22.231  29.590  14.870  1.00  0.00    -0.353 OA
HETATM   41  C15 UNL     1      23.606  29.431  14.649  1.00  0.00     0.210 C 
ENDBRANCH  37  40
BRANCH  38  42
HETATM   42  O2  UNL     1      21.215  28.277  17.009  1.00  0.00    -0.353 OA
HETATM   43  C17 UNL     1      22.113  27.487  17.762  1.00  0.00     0.210 C 
ENDBRANCH  38  42
ENDBRANCH  33  34
ENDBRANCH  32  33
ENDBRANCH  17  32
ENDBRANCH  10  12
ENDBRANCH   1  10
TORSDOF 13
ENDMDL
MODEL 3
REMARK VINA RESULT: -9.390434570      2.430      5.515
REMARK  13 active torsions:
REMARK  status: ('A' for Active; 'I' for Inactive)
REMARK    1  A    between atoms: C2_2  and  N1_3 
REMARK    2  A    between atoms: N1_3  and  C3_4 
REMARK    3  A    between atoms: N1_3  and  C5_6 
REMARK    4  A    between atoms: C5_6  and  C6_7 
REMARK    5  A    between atoms: C6_7  and  N2_8 
REMARK    6  A    between atoms: N2_8  and  C7_10 
REMARK    7  A    between atoms: N4_14  and  C9_16 
REMARK    8  A    between atoms: C9_16  and  C10_17 
REMARK    9  A    between atoms: C10_17  and  C11_18 
REMARK   10  A    between atoms: C14_21  and  O1_22 
REMARK   11  A    between atoms: C16_24  and  O2_25 
REMARK   12  A    between atoms: C19_30  and  N6_31 
REMARK   13  A    between atoms: N6_31  and  C20_33 
ROOT
HETATM    1  C20 UNL     1      13.321  21.407  14.390  1.00  0.00     0.070 A 
HETATM    2  C21 UNL     1      14.428  20.953  13.696  1.00  0.00     0.032 A 
HETATM    3  C22 UNL     1      14.376  19.703  13.099  1.00  0.00     0.009 A 
HETATM    4  C23 UNL     1      13.216  18.957  13.221  1.00  0.00    -0.060 A 
HETATM    5  C24 UNL     1      13.155  17.622  12.590  1.00  0.00     0.048 C 
HETATM    6  C25 UNL     1      12.116  19.430  13.920  1.00  0.00     0.031 A 
HETATM    7  C26 UNL     1      12.158  20.672  14.518  1.00  0.00     0.072 A 
HETATM    8  C27 UNL     1      11.034  21.183  15.248  1.00  0.00     0.102 C 
HETATM    9  N7  UNL     1      10.125  21.609  15.832  1.00  0.00    -0.191 NA
ENDROOT
BRANCH   1  10
HETATM   10  N6  UNL     1      13.365  22.689  15.018  1.00  0.00    -0.189 N 
ATOM     11  H6  UNL     1      12.776  23.448  14.675  1.00  0.00     0.184 HD
BRANCH  10  12
HETATM   12  C19 UNL     1      14.167  22.887  16.038  1.00  0.00     0.711 A 
HETATM   13  N5  UNL     1      15.141  23.778  15.934  1.00  0.00    -0.021 N 
HETATM   14  C8  UNL     1      16.031  24.065  16.939  1.00  0.00     0.707 A 
ATOM     15  H5  UNL     1      15.235  24.284  15.052  1.00  0.00     0.203 HD
HETATM   16  N3  UNL     1      15.891  23.396  18.079  1.00  0.00    -0.022 N 
HETATM   17  N4  UNL     1      16.946  24.935  16.756  1.00  0.00    -0.225 N 
HETATM   18  C7  UNL     1      14.899  22.463  18.235  1.00  0.00     0.707 A 
ATOM     19  H3  UNL     1      16.533  23.579  18.850  1.00  0.00     0.203 HD
HETATM   20  N8  UNL     1      14.048  22.227  17.198  1.00  0.00    -0.021 N 
ATOM     21  H8  UNL     1      13.307  21.536  17.307  1.00  0.00     0.203 HD
ATOM     22  H4  UNL     1      17.000  25.415  15.857  1.00  0.00     0.177 HD
BRANCH  18  23
HETATM   23  N2  UNL     1      14.851  21.881  19.357  1.00  0.00    -0.220 N 
ATOM     24  H2  UNL     1      14.206  22.296  20.029  1.00  0.00     0.178 HD
BRANCH  23  25
HETATM   25  C6  UNL     1      15.551  20.740  19.830  1.00  0.00     0.183 C 
BRANCH  25  26
HETATM   26  C5  UNL     1      14.908  19.438  19.371  1.00  0.00     0.088 C 
BRANCH  26  27
HETATM   27  N1  UNL     1      13.768  19.176  20.145  1.00  0.00    -0.353 N 
BRANCH  27  28
HETATM   28  C2  UNL     1      12.630  18.664  19.511  1.00  0.00     0.064 C 
HETATM   29  C1  UNL     1      12.167  19.370  18.269  1.00  0.00     0.055 C 
ENDBRANCH  27  28
BRANCH  27  30
HETATM   30  C3  UNL     1      13.936  18.972  21.527  1.00  0.00     0.064 C 
HETATM   31  C4  UNL     1      13.502  17.664  22.087  1.00  0.00     0.055 C 
ENDBRANCH  27  30
ENDBRANCH  26  27
ENDBRANCH  25  26
ENDBRANCH  23  25
ENDBRANCH  18  23
BRANCH  17  32
HETATM   32  C9  UNL     1      17.896  25.255  17.773  1.00  0.00     0.142 C 
BRANCH  32  33
HETATM   33  C10 UNL     1      19.207  24.547  17.449  1.00  0.00     0.058 C 
BRANCH  33  34
HETATM   34  C11 UNL     1      19.820  25.309  16.336  1.00  0.00    -0.054 A 
HETATM   35  C12 UNL     1      20.081  24.674  15.142  1.00  0.00     0.010 A 
HETATM   36  C13 UNL     1      20.658  25.356  14.087  1.00  0.00     0.040 A 
HETATM   37  C14 UNL     1      20.955  26.670  14.275  1.00  0.00     0.101 A 
HETATM   38  C16 UNL     1      20.698  27.336  15.482  1.00  0.00     0.102 A 
HETATM   39  C18 UNL     1      20.130  26.630  16.496  1.00  0.00     0.046 A 
BRANCH  37  40
HETATM   40  O1  UNL     1      21.534  27.389  13.244  1.00  0.00    -0.353 OA
HETATM   41  C15 UNL     1      20.755  27.748  12.135  1.00  0.00     0.210 C 
ENDBRANCH  37  40
BRANCH  38  42
HETATM   42  O2  UNL     1      21.038  28.678  15.574  1.00  0.00    -0.353 OA
HETATM   43  C17 UNL     1      22.388  29.019  15.820  1.00  0.00     0.210 C 
ENDBRANCH  38  42
ENDBRANCH  33  34
ENDBRANCH  32  33
ENDBRANCH  17  32
ENDBRANCH  10  12
ENDBRANCH   1  10
TORSDOF 13
ENDMDL
MODEL 4
REMARK VINA RESULT: -9.351538427      2.723      6.180
REMARK  13 active torsions:
REMARK  status: ('A' for Active; 'I' for Inactive)
REMARK    1  A    between atoms: C2_2  and  N1_3 
REMARK    2  A    between atoms: N1_3  and  C3_4 
REMARK    3  A    between atoms: N1_3  and  C5_6 
REMARK    4  A    between atoms: C5_6  and  C6_7 
REMARK    5  A    between atoms: C6_7  and  N2_8 
REMARK    6  A    between atoms: N2_8  and  C7_10 
REMARK    7  A    between atoms: N4_14  and  C9_16 
REMARK    8  A    between atoms: C9_16  and  C10_17 
REMARK    9  A    between atoms: C10_17  and  C11_18 
REMARK   10  A    between atoms: C14_21  and  O1_22 
REMARK   11  A    between atoms: C16_24  and  O2_25 
REMARK   12  A    between atoms: C19_30  and  N6_31 
REMARK   13  A    between atoms: N6_31  and  C20_33 
ROOT
HETATM    1  C20 UNL     1      14.142  20.725  18.835  1.00  0.00     0.070 A 
HETATM    2  C21 UNL     1      15.294  20.824  19.594  1.00  0.00     0.032 A 
HETATM    3  C22 UNL     1      15.592  19.813  20.494  1.00  0.00     0.009 A 
HETATM    4  C23 UNL     1      14.722  18.740  20.596  1.00  0.00    -0.060 A 
HETATM    5  C24 UNL     1      15.032  17.660  21.556  1.00  0.00     0.048 C 
HETATM    6  C25 UNL     1      13.573  18.657  19.826  1.00  0.00     0.031 A 
HETATM    7  C26 UNL     1      13.268  19.659  18.929  1.00  0.00     0.072 A 
HETATM    8  C27 UNL     1      12.083  19.598  18.122  1.00  0.00     0.102 C 
HETATM    9  N7  UNL     1      11.133  19.552  17.457  1.00  0.00    -0.191 NA
ENDROOT
BRANCH   1  10
HETATM   10  N6  UNL     1      13.819  21.765  17.911  1.00  0.00    -0.189 N 
ATOM     11  H6  UNL     1      13.019  22.374  18.084  1.00  0.00     0.184 HD
BRANCH  10  12
HETATM   12  C19 UNL     1      14.556  21.935  16.838  1.00  0.00     0.711 A 
HETATM   13  N5  UNL     1      15.540  22.820  16.861  1.00  0.00    -0.021 N 
HETATM   14  C8  UNL     1      16.371  23.073  15.797  1.00  0.00     0.707 A 
ATOM     15  H5  UNL     1      15.690  23.348  17.721  1.00  0.00     0.203 HD
HETATM   16  N3  UNL     1      16.159  22.376  14.686  1.00  0.00    -0.022 N 
HETATM   17  N4  UNL     1      17.293  23.948  15.899  1.00  0.00    -0.225 N 
HETATM   18  C7  UNL     1      15.152  21.447  14.613  1.00  0.00     0.707 A 
ATOM     19  H3  UNL     1      16.755  22.534  13.873  1.00  0.00     0.203 HD
HETATM   20  N8  UNL     1      14.364  21.245  15.705  1.00  0.00    -0.021 N 
ATOM     21  H8  UNL     1      13.614  20.556  15.660  1.00  0.00     0.203 HD
ATOM     22  H4  UNL     1      17.406  24.450  16.780  1.00  0.00     0.177 HD
BRANCH  18  23
HETATM   23  N2  UNL     1      15.033  20.838  13.512  1.00  0.00    -0.220 N 
ATOM     24  H2  UNL     1      15.900  20.728  12.986  1.00  0.00     0.178 HD
BRANCH  23  25
HETATM   25  C6  UNL     1      13.884  20.283  12.889  1.00  0.00     0.183 C 
BRANCH  25  26
HETATM   26  C5  UNL     1      13.566  18.887  13.409  1.00  0.00     0.088 C 
BRANCH  26  27
HETATM   27  N1  UNL     1      12.410  18.401  12.781  1.00  0.00    -0.353 N 
BRANCH  27  28
HETATM   28  C2  UNL     1      11.447  19.318  12.346  1.00  0.00     0.064 C 
HETATM   29  C1  UNL     1      10.907  19.131  10.957  1.00  0.00     0.055 C 
ENDBRANCH  27  28
BRANCH  27  30
HETATM   30  C3  UNL     1      12.463  17.126  12.188  1.00  0.00     0.064 C 
HETATM   31  C4  UNL     1      13.796  16.477  12.066  1.00  0.00     0.055 C 
ENDBRANCH  27  30
ENDBRANCH  26  27
ENDBRANCH  25  26
ENDBRANCH  23  25
ENDBRANCH  18  23
BRANCH  17  32
HETATM   32  C9  UNL     1      18.173  24.246  14.814  1.00  0.00     0.142 C 
BRANCH  32  33
HETATM   33  C10 UNL     1      19.610  24.153  15.317  1.00  0.00     0.058 C 
BRANCH  33  34
HETATM   34  C11 UNL     1      20.137  25.537  15.308  1.00  0.00    -0.054 A 
HETATM   35  C12 UNL     1      20.337  26.179  14.105  1.00  0.00     0.010 A 
HETATM   36  C13 UNL     1      20.834  27.468  14.064  1.00  0.00     0.040 A 
HETATM   37  C14 UNL     1      21.115  28.073  15.249  1.00  0.00     0.101 A 
HETATM   38  C16 UNL     1      20.919  27.438  16.484  1.00  0.00     0.102 A 
HETATM   39  C18 UNL     1      20.429  26.170  16.483  1.00  0.00     0.046 A 
BRANCH  37  40
HETATM   40  O1  UNL     1      21.615  29.363  15.251  1.00  0.00    -0.353 OA
HETATM   41  C15 UNL     1      22.923  29.594  14.804  1.00  0.00     0.210 C 
ENDBRANCH  37  40
BRANCH  38  42
HETATM   42  O2  UNL     1      21.237  28.140  17.638  1.00  0.00    -0.353 OA
HETATM   43  C17 UNL     1      21.484  27.415  18.826  1.00  0.00     0.210 C 
ENDBRANCH  38  42
ENDBRANCH  33  34
ENDBRANCH  32  33
ENDBRANCH  17  32
ENDBRANCH  10  12
ENDBRANCH   1  10
TORSDOF 13
ENDMDL
MODEL 5
REMARK VINA RESULT: -9.345115615      4.179     10.590
REMARK  13 active torsions:
REMARK  status: ('A' for Active; 'I' for Inactive)
REMARK    1  A    between atoms: C2_2  and  N1_3 
REMARK    2  A    between atoms: N1_3  and  C3_4 
REMARK    3  A    between atoms: N1_3  and  C5_6 
REMARK    4  A    between atoms: C5_6  and  C6_7 
REMARK    5  A    between atoms: C6_7  and  N2_8 
REMARK    6  A    between atoms: N2_8  and  C7_10 
REMARK    7  A    between atoms: N4_14  and  C9_16 
REMARK    8  A    between atoms: C9_16  and  C10_17 
REMARK    9  A    between atoms: C10_17  and  C11_18 
REMARK   10  A    between atoms: C14_21  and  O1_22 
REMARK   11  A    between atoms: C16_24  and  O2_25 
REMARK   12  A    between atoms: C19_30  and  N6_31 
REMARK   13  A    between atoms: N6_31  and  C20_33 
ROOT
HETATM    1  C20 UNL     1      20.429  25.506  15.276  1.00  0.00     0.070 A 
HETATM    2  C21 UNL     1      20.333  25.060  13.969  1.00  0.00     0.032 A 
HETATM    3  C22 UNL     1      20.498  25.972  12.938  1.00  0.00     0.009 A 
HETATM    4  C23 UNL     1      20.753  27.295  13.257  1.00  0.00    -0.060 A 
HETATM    5  C24 UNL     1      20.926  28.272  12.163  1.00  0.00     0.048 C 
HETATM    6  C25 UNL     1      20.847  27.722  14.573  1.00  0.00     0.031 A 
HETATM    7  C26 UNL     1      20.684  26.823  15.605  1.00  0.00     0.072 A 
HETATM    8  C27 UNL     1      20.775  27.241  16.975  1.00  0.00     0.102 C 
HETATM    9  N7  UNL     1      20.857  27.568  18.086  1.00  0.00    -0.191 NA
ENDROOT
BRANCH   1  10
HETATM   10  N6  UNL     1      20.252  24.578  16.347  1.00  0.00    -0.189 N 
ATOM     11  H6  UNL     1      21.033  24.351  16.963  1.00  0.00     0.184 HD
BRANCH  10  12
HETATM   12  C19 UNL     1      19.079  24.018  16.536  1.00  0.00     0.711 A 
HETATM   13  N5  UNL     1      18.691  23.729  17.768  1.00  0.00    -0.021 N 
HETATM   14  C8  UNL     1      17.486  23.147  18.076  1.00  0.00     0.707 A 
ATOM     15  H5  UNL     1      19.325  23.951  18.535  1.00  0.00     0.203 HD
HETATM   16  N3  UNL     1      16.674  22.865  17.063  1.00  0.00    -0.022 N 
HETATM   17  N4  UNL     1      17.189  22.894  19.291  1.00  0.00    -0.225 N 
HETATM   18  C7  UNL     1      17.032  23.146  15.769  1.00  0.00     0.707 A 
ATOM     19  H3  UNL     1      15.769  22.432  17.250  1.00  0.00     0.203 HD
HETATM   20  N8  UNL     1      18.242  23.724  15.533  1.00  0.00    -0.021 N 
ATOM     21  H8  UNL     1      18.515  23.937  14.574  1.00  0.00     0.203 HD
ATOM     22  H4  UNL     1      17.855  23.135  20.024  1.00  0.00     0.177 HD
BRANCH  18  23
HETATM   23  N2  UNL     1      16.190  22.838  14.877  1.00  0.00    -0.220 N 
ATOM     24  H2  UNL     1      15.927  23.601  14.254  1.00  0.00     0.178 HD
BRANCH  23  25
HETATM   25  C6  UNL     1      15.552  21.599  14.605  1.00  0.00     0.183 C 
BRANCH  25  26
HETATM   26  C5  UNL     1      14.048  21.662  14.840  1.00  0.00     0.088 C 
BRANCH  26  27
HETATM   27  N1  UNL     1      13.450  20.474  14.396  1.00  0.00    -0.353 N 
BRANCH  27  28
HETATM   28  C2  UNL     1      12.084  20.282  14.631  1.00  0.00     0.064 C 
HETATM   29  C1  UNL     1      11.203  21.496  14.555  1.00  0.00     0.055 C 
ENDBRANCH  27  28
BRANCH  27  30
HETATM   30  C3  UNL     1      14.074  19.767  13.352  1.00  0.00     0.064 C 
HETATM   31  C4  UNL     1      13.475  18.467  12.947  1.00  0.00     0.055 C 
ENDBRANCH  27  30
ENDBRANCH  26  27
ENDBRANCH  25  26
ENDBRANCH  23  25
ENDBRANCH  18  23
BRANCH  17  32
HETATM   32  C9  UNL     1      15.950  22.282  19.652  1.00  0.00     0.142 C 
BRANCH  32  33
HETATM   33  C10 UNL     1      16.194  20.793  19.876  1.00  0.00     0.058 C 
BRANCH  33  34
HETATM   34  C11 UNL     1      14.881  20.131  19.694  1.00  0.00    -0.054 A 
HETATM   35  C12 UNL     1      14.185  20.318  18.520  1.00  0.00     0.010 A 
HETATM   36  C13 UNL     1      12.955  19.718  18.323  1.00  0.00     0.040 A 
HETATM   37  C14 UNL     1      12.464  18.943  19.327  1.00  0.00     0.101 A 
HETATM   38  C16 UNL     1      13.157  18.741  20.530  1.00  0.00     0.102 A 
HETATM   39  C18 UNL     1      14.363  19.348  20.685  1.00  0.00     0.046 A 
BRANCH  37  40
HETATM   40  O1  UNL     1      11.236  18.326  19.169  1.00  0.00    -0.353 OA
HETATM   41  C15 UNL     1      11.103  17.291  18.234  1.00  0.00     0.210 C 
ENDBRANCH  37  40
BRANCH  38  42
HETATM   42  O2  UNL     1      12.570  17.931  21.493  1.00  0.00    -0.353 OA
HETATM   43  C17 UNL     1      13.409  17.216  22.378  1.00  0.00     0.210 C 
ENDBRANCH  38  42
ENDBRANCH  33  34
ENDBRANCH  32  33
ENDBRANCH  17  32
ENDBRANCH  10  12
ENDBRANCH   1  10
TORSDOF 13
ENDMDL
