MODEL 1
REMARK VINA RESULT: -8.305799257      0.000      0.000
REMARK  11 active torsions:
REMARK  status: ('A' for Active; 'I' for Inactive)
REMARK    1  A    between atoms: C4_9  and  C5_10 
REMARK    2  A    between atoms: N3_11  and  C6_13 
REMARK    3  A    between atoms: C9_16  and  O2_17 
REMARK    4  A    between atoms: O2_17  and  C10_18 
REMARK    5  A    between atoms: C10_18  and  C11_19 
REMARK    6  A    between atoms: C11_19  and  C12_20 
REMARK    7  A    between atoms: C12_20  and  N4_21 
REMARK    8  A    between atoms: N5_24  and  C15_25 
REMARK    9  A    between atoms: C15_25  and  C16_26 
REMARK   10  A    between atoms: C23_36  and  C24_37 
REMARK   11  A    between atoms: C24_37  and  N7_38 
ROOT
HETATM    1  C6  UNL     1      21.582  12.810  18.058  1.00  0.00     0.032 A 
HETATM    2  C7  UNL     1      20.234  12.856  17.777  1.00  0.00     0.032 A 
HETATM    3  C8  UNL     1      19.349  12.010  18.406  1.00  0.00     0.039 A 
HETATM    4  C9  UNL     1      19.752  11.090  19.332  1.00  0.00     0.076 A 
HETATM    5  C23 UNL     1      21.118  11.020  19.641  1.00  0.00    -0.005 A 
HETATM    6  C27 UNL     1      21.996  11.865  19.010  1.00  0.00     0.041 A 
ENDROOT
BRANCH   4   7
HETATM    7  O2  UNL     1      18.841  10.243  19.958  1.00  0.00    -0.350 OA
BRANCH   7   8
HETATM    8  C10 UNL     1      17.684   9.782  19.256  1.00  0.00     0.177 C 
BRANCH   8   9
HETATM    9  C11 UNL     1      17.984   8.540  18.449  1.00  0.00     0.057 C 
BRANCH   9  10
HETATM   10  C12 UNL     1      18.119   7.393  19.410  1.00  0.00     0.274 C 
BRANCH  10  11
HETATM   11  N4  UNL     1      16.990   7.234  20.275  1.00  0.00     0.091 N 
HETATM   12  C13 UNL     1      17.302   6.535  21.502  1.00  0.00     0.302 C 
HETATM   13  C14 UNL     1      15.986   6.383  22.233  1.00  0.00     0.302 C 
HETATM   14  N5  UNL     1      15.204   5.364  21.590  1.00  0.00     0.092 N 
HETATM   15  C21 UNL     1      15.264   5.482  20.159  1.00  0.00     0.302 C 
HETATM   16  C22 UNL     1      15.798   6.760  19.643  1.00  0.00     0.302 C 
BRANCH  14  17
HETATM   17  C15 UNL     1      15.623   4.025  21.935  1.00  0.00     0.277 C 
BRANCH  17  18
HETATM   18  C16 UNL     1      15.508   3.738  23.411  1.00  0.00     0.017 C 
HETATM   19  C17 UNL     1      16.723   2.947  23.831  1.00  0.00     0.034 C 
HETATM   20  C18 UNL     1      16.379   1.883  24.853  1.00  0.00     0.232 C 
HETATM   21  N6  UNL     1      15.412   1.002  24.233  1.00  0.00    -0.075 N 
HETATM   22  C19 UNL     1      14.187   1.635  23.862  1.00  0.00     0.232 C 
ATOM     23  H62 UNL     1      15.826   0.530  23.429  1.00  0.00     0.277 HD
ATOM     24  H61 UNL     1      15.229   0.197  24.832  1.00  0.00     0.277 HD
HETATM   25  C20 UNL     1      14.215   3.125  23.815  1.00  0.00     0.034 C 
ENDBRANCH  17  18
ENDBRANCH  14  17
ENDBRANCH  10  11
ENDBRANCH   9  10
ENDBRANCH   8   9
ENDBRANCH   7   8
ENDBRANCH   4   7
BRANCH   5  26
HETATM   26  C24 UNL     1      21.539   9.999  20.621  1.00  0.00     0.157 C 
BRANCH  26  27
HETATM   27  N7  UNL     1      22.444   9.065  20.065  1.00  0.00    -0.417 N 
HETATM   28  C25 UNL     1      23.520   8.661  20.911  1.00  0.00     0.142 C 
HETATM   29  C26 UNL     1      21.883   8.008  19.285  1.00  0.00     0.142 C 
ENDBRANCH  26  27
ENDBRANCH   5  26
BRANCH   1  30
HETATM   30  N3  UNL     1      22.541  13.654  17.440  1.00  0.00    -0.365 N 
HETATM   31  C5  UNL     1      23.643  13.204  16.956  1.00  0.00     0.107 C 
ATOM     32  H3  UNL     1      22.349  14.654  17.379  1.00  0.00     0.165 HD
BRANCH  31  33
HETATM   33  C4  UNL     1      24.596  14.093  16.334  1.00  0.00     0.072 A 
HETATM   34  C2  UNL     1      25.991  13.984  16.362  1.00  0.00     0.039 A 
HETATM   35  C1  UNL     1      26.733  12.898  17.063  1.00  0.00     0.071 C 
HETATM   36  N1  UNL     1      26.448  15.015  15.662  1.00  0.00    -0.301 N 
HETATM   37  N2  UNL     1      25.446  15.748  15.207  1.00  0.00    -0.266 N 
ATOM     38  H1  UNL     1      27.435  15.213  15.498  1.00  0.00     0.186 HD
HETATM   39  C3  UNL     1      24.267  15.230  15.589  1.00  0.00     0.273 A 
ATOM     40  H2  UNL     1      25.554  16.592  14.643  1.00  0.00     0.190 HD
HETATM   41  O1  UNL     1      23.097  15.646  15.350  1.00  0.00    -0.266 OA
ENDBRANCH  31  33
ENDBRANCH   1  30
TORSDOF 11
ENDMDL
MODEL 2
REMARK VINA RESULT: -8.292430797      1.363      1.727
REMARK  11 active torsions:
REMARK  status: ('A' for Active; 'I' for Inactive)
REMARK    1  A    between atoms: C4_9  and  C5_10 
REMARK    2  A    between atoms: N3_11  and  C6_13 
REMARK    3  A    between atoms: C9_16  and  O2_17 
REMARK    4  A    between atoms: O2_17  and  C10_18 
REMARK    5  A    between atoms: C10_18  and  C11_19 
REMARK    6  A    between atoms: C11_19  and  C12_20 
REMARK    7  A    between atoms: C12_20  and  N4_21 
REMARK    8  A    between atoms: N5_24  and  C15_25 
REMARK    9  A    between atoms: C15_25  and  C16_26 
REMARK   10  A    between atoms: C23_36  and  C24_37 
REMARK   11  A    between atoms: C24_37  and  N7_38 
ROOT
HETATM    1  C6  UNL     1      21.634  11.732  16.810  1.00  0.00     0.032 A 
HETATM    2  C7  UNL     1      20.280  11.748  16.556  1.00  0.00     0.032 A 
HETATM    3  C8  UNL     1      19.449  10.780  17.075  1.00  0.00     0.039 A 
HETATM    4  C9  UNL     1      19.915   9.763  17.861  1.00  0.00     0.076 A 
HETATM    5  C23 UNL     1      21.289   9.721  18.139  1.00  0.00    -0.005 A 
HETATM    6  C27 UNL     1      22.112  10.688  17.617  1.00  0.00     0.041 A 
ENDROOT
BRANCH   4   7
HETATM    7  O2  UNL     1      19.058   8.794  18.376  1.00  0.00    -0.350 OA
BRANCH   7   8
HETATM    8  C10 UNL     1      17.719   8.680  17.888  1.00  0.00     0.177 C 
BRANCH   8   9
HETATM    9  C11 UNL     1      16.710   9.082  18.939  1.00  0.00     0.057 C 
BRANCH   9  10
HETATM   10  C12 UNL     1      17.181   8.534  20.256  1.00  0.00     0.274 C 
BRANCH  10  11
HETATM   11  N4  UNL     1      16.625   7.255  20.577  1.00  0.00     0.091 N 
HETATM   12  C13 UNL     1      15.598   7.315  21.592  1.00  0.00     0.302 C 
HETATM   13  C14 UNL     1      15.203   5.878  21.861  1.00  0.00     0.302 C 
HETATM   14  N5  UNL     1      16.236   5.240  22.628  1.00  0.00     0.092 N 
HETATM   15  C21 UNL     1      17.543   5.586  22.138  1.00  0.00     0.302 C 
HETATM   16  C22 UNL     1      17.580   6.214  20.800  1.00  0.00     0.302 C 
BRANCH  14  17
HETATM   17  C15 UNL     1      16.193   5.582  24.031  1.00  0.00     0.277 C 
BRANCH  17  18
HETATM   18  C16 UNL     1      15.640   4.470  24.887  1.00  0.00     0.017 C 
HETATM   19  C17 UNL     1      15.840   3.168  24.151  1.00  0.00     0.034 C 
HETATM   20  C18 UNL     1      14.668   2.227  24.337  1.00  0.00     0.232 C 
HETATM   21  N6  UNL     1      13.498   2.906  23.821  1.00  0.00    -0.075 N 
HETATM   22  C19 UNL     1      13.171   4.119  24.499  1.00  0.00     0.232 C 
ATOM     23  H62 UNL     1      13.598   3.074  22.819  1.00  0.00     0.277 HD
ATOM     24  H61 UNL     1      12.696   2.276  23.813  1.00  0.00     0.277 HD
HETATM   25  C20 UNL     1      14.247   4.695  25.356  1.00  0.00     0.034 C 
ENDBRANCH  17  18
ENDBRANCH  14  17
ENDBRANCH  10  11
ENDBRANCH   9  10
ENDBRANCH   8   9
ENDBRANCH   7   8
ENDBRANCH   4   7
BRANCH   5  26
HETATM   26  C24 UNL     1      21.778   8.598  18.963  1.00  0.00     0.157 C 
BRANCH  26  27
HETATM   27  N7  UNL     1      21.874   8.942  20.332  1.00  0.00    -0.417 N 
HETATM   28  C25 UNL     1      20.993   8.244  21.212  1.00  0.00     0.142 C 
HETATM   29  C26 UNL     1      23.187   9.147  20.856  1.00  0.00     0.142 C 
ENDBRANCH  26  27
ENDBRANCH   5  26
BRANCH   1  30
HETATM   30  N3  UNL     1      22.539  12.700  16.302  1.00  0.00    -0.365 N 
HETATM   31  C5  UNL     1      23.671  12.942  16.859  1.00  0.00     0.107 C 
ATOM     32  H3  UNL     1      22.281  13.222  15.464  1.00  0.00     0.165 HD
BRANCH  31  33
HETATM   33  C4  UNL     1      24.567  13.935  16.313  1.00  0.00     0.072 A 
HETATM   34  C2  UNL     1      25.965  13.926  16.367  1.00  0.00     0.039 A 
HETATM   35  C1  UNL     1      26.773  12.858  17.019  1.00  0.00     0.071 C 
HETATM   36  N1  UNL     1      26.357  15.029  15.740  1.00  0.00    -0.301 N 
HETATM   37  N2  UNL     1      25.312  15.713  15.306  1.00  0.00    -0.266 N 
ATOM     38  H1  UNL     1      27.330  15.309  15.611  1.00  0.00     0.186 HD
HETATM   39  C3  UNL     1      24.168  15.088  15.629  1.00  0.00     0.273 A 
ATOM     40  H2  UNL     1      25.367  16.595  14.796  1.00  0.00     0.190 HD
HETATM   41  O1  UNL     1      22.975  15.431  15.388  1.00  0.00    -0.266 OA
ENDBRANCH  31  33
ENDBRANCH   1  30
TORSDOF 11
ENDMDL
MODEL 3
REMARK VINA RESULT: -8.291648916      1.017      1.293
REMARK  11 active torsions:
REMARK  status: ('A' for Active; 'I' for Inactive)
REMARK    1  A    between atoms: C4_9  and  C5_10 
REMARK    2  A    between atoms: N3_11  and  C6_13 
REMARK    3  A    between atoms: C9_16  and  O2_17 
REMARK    4  A    between atoms: O2_17  and  C10_18 
REMARK    5  A    between atoms: C10_18  and  C11_19 
REMARK    6  A    between atoms: C11_19  and  C12_20 
REMARK    7  A    between atoms: C12_20  and  N4_21 
REMARK    8  A    between atoms: N5_24  and  C15_25 
REMARK    9  A    between atoms: C15_25  and  C16_26 
REMARK   10  A    between atoms: C23_36  and  C24_37 
REMARK   11  A    between atoms: C24_37  and  N7_38 
ROOT
HETATM    1  C6  UNL     1      21.824  12.498  18.328  1.00  0.00     0.032 A 
HETATM    2  C7  UNL     1      20.477  12.445  18.046  1.00  0.00     0.032 A 
HETATM    3  C8  UNL     1      19.653  11.546  18.685  1.00  0.00     0.039 A 
HETATM    4  C9  UNL     1      20.119  10.668  19.623  1.00  0.00     0.076 A 
HETATM    5  C23 UNL     1      21.487  10.698  19.933  1.00  0.00    -0.005 A 
HETATM    6  C27 UNL     1      22.303  11.596  19.291  1.00  0.00     0.041 A 
ENDROOT
BRANCH   4   7
HETATM    7  O2  UNL     1      19.269   9.766  20.259  1.00  0.00    -0.350 OA
BRANCH   7   8
HETATM    8  C10 UNL     1      17.870   9.763  19.965  1.00  0.00     0.177 C 
BRANCH   8   9
HETATM    9  C11 UNL     1      17.494   8.603  19.072  1.00  0.00     0.057 C 
BRANCH   9  10
HETATM   10  C12 UNL     1      16.051   8.277  19.333  1.00  0.00     0.274 C 
BRANCH  10  11
HETATM   11  N4  UNL     1      15.846   6.965  19.866  1.00  0.00     0.091 N 
HETATM   12  C13 UNL     1      14.875   6.926  20.935  1.00  0.00     0.302 C 
HETATM   13  C14 UNL     1      14.863   5.494  21.427  1.00  0.00     0.302 C 
HETATM   14  N5  UNL     1      16.051   5.249  22.197  1.00  0.00     0.092 N 
HETATM   15  C21 UNL     1      17.210   5.824  21.570  1.00  0.00     0.302 C 
HETATM   16  C22 UNL     1      17.040   6.233  20.160  1.00  0.00     0.302 C 
BRANCH  14  17
HETATM   17  C15 UNL     1      15.974   5.778  23.539  1.00  0.00     0.277 C 
BRANCH  17  18
HETATM   18  C16 UNL     1      15.651   4.722  24.566  1.00  0.00     0.017 C 
HETATM   19  C17 UNL     1      15.934   3.371  23.955  1.00  0.00     0.034 C 
HETATM   20  C18 UNL     1      14.911   2.336  24.373  1.00  0.00     0.232 C 
HETATM   21  N6  UNL     1      13.620   2.816  23.926  1.00  0.00    -0.075 N 
HETATM   22  C19 UNL     1      13.217   4.057  24.504  1.00  0.00     0.232 C 
ATOM     23  H62 UNL     1      13.596   2.874  22.907  1.00  0.00     0.277 HD
ATOM     24  H61 UNL     1      12.904   2.105  24.077  1.00  0.00     0.277 HD
HETATM   25  C20 UNL     1      14.296   4.846  25.166  1.00  0.00     0.034 C 
ENDBRANCH  17  18
ENDBRANCH  14  17
ENDBRANCH  10  11
ENDBRANCH   9  10
ENDBRANCH   8   9
ENDBRANCH   7   8
ENDBRANCH   4   7
BRANCH   5  26
HETATM   26  C24 UNL     1      21.977   9.721  20.926  1.00  0.00     0.157 C 
BRANCH  26  27
HETATM   27  N7  UNL     1      22.874   8.786  20.357  1.00  0.00    -0.417 N 
HETATM   28  C25 UNL     1      23.912   8.317  21.218  1.00  0.00     0.142 C 
HETATM   29  C26 UNL     1      22.310   7.780  19.515  1.00  0.00     0.142 C 
ENDBRANCH  26  27
ENDBRANCH   5  26
BRANCH   1  30
HETATM   30  N3  UNL     1      22.722  13.400  17.701  1.00  0.00    -0.365 N 
HETATM   31  C5  UNL     1      23.704  13.000  16.974  1.00  0.00     0.107 C 
ATOM     32  H3  UNL     1      22.584  14.402  17.831  1.00  0.00     0.165 HD
BRANCH  31  33
HETATM   33  C4  UNL     1      24.598  13.947  16.351  1.00  0.00     0.072 A 
HETATM   34  C2  UNL     1      25.997  13.919  16.366  1.00  0.00     0.039 A 
HETATM   35  C1  UNL     1      26.808  12.874  17.052  1.00  0.00     0.071 C 
HETATM   36  N1  UNL     1      26.387  14.980  15.670  1.00  0.00    -0.301 N 
HETATM   37  N2  UNL     1      25.340  15.657  15.229  1.00  0.00    -0.266 N 
ATOM     38  H1  UNL     1      27.359  15.237  15.499  1.00  0.00     0.186 HD
HETATM   39  C3  UNL     1      24.196  15.068  15.617  1.00  0.00     0.273 A 
ATOM     40  H2  UNL     1      25.393  16.509  14.670  1.00  0.00     0.190 HD
HETATM   41  O1  UNL     1      23.001  15.417  15.391  1.00  0.00    -0.266 OA
ENDBRANCH  31  33
ENDBRANCH   1  30
TORSDOF 11
ENDMDL
MODEL 4
REMARK VINA RESULT: -8.263103846      1.457      1.914
REMARK  11 active torsions:
REMARK  status: ('A' for Active; 'I' for Inactive)
REMARK    1  A    between atoms: C4_9  and  C5_10 
REMARK    2  A    between atoms: N3_11  and  C6_13 
REMARK    3  A    between atoms: C9_16  and  O2_17 
REMARK    4  A    between atoms: O2_17  and  C10_18 
REMARK    5  A    between atoms: C10_18  and  C11_19 
REMARK    6  A    between atoms: C11_19  and  C12_20 
REMARK    7  A    between atoms: C12_20  and  N4_21 
REMARK    8  A    between atoms: N5_24  and  C15_25 
REMARK    9  A    between atoms: C15_25  and  C16_26 
REMARK   10  A    between atoms: C23_36  and  C24_37 
REMARK   11  A    between atoms: C24_37  and  N7_38 
ROOT
HETATM    1  C6  UNL     1      21.655  12.326  18.434  1.00  0.00     0.032 A 
HETATM    2  C7  UNL     1      20.291  12.261  18.248  1.00  0.00     0.032 A 
HETATM    3  C8  UNL     1      19.521  11.361  18.948  1.00  0.00     0.039 A 
HETATM    4  C9  UNL     1      20.059  10.493  19.857  1.00  0.00     0.076 A 
HETATM    5  C23 UNL     1      21.444  10.535  20.070  1.00  0.00    -0.005 A 
HETATM    6  C27 UNL     1      22.207  11.435  19.367  1.00  0.00     0.041 A 
ENDROOT
BRANCH   4   7
HETATM    7  O2  UNL     1      19.263   9.590  20.557  1.00  0.00    -0.350 OA
BRANCH   7   8
HETATM    8  C10 UNL     1      17.837   9.676  20.483  1.00  0.00     0.177 C 
BRANCH   8   9
HETATM    9  C11 UNL     1      17.237   8.429  19.876  1.00  0.00     0.057 C 
BRANCH   9  10
HETATM   10  C12 UNL     1      18.364   7.488  19.561  1.00  0.00     0.274 C 
BRANCH  10  11
HETATM   11  N4  UNL     1      18.212   6.192  20.148  1.00  0.00     0.091 N 
HETATM   12  C13 UNL     1      16.849   5.888  20.520  1.00  0.00     0.302 C 
HETATM   13  C14 UNL     1      16.900   4.535  21.199  1.00  0.00     0.302 C 
HETATM   14  N5  UNL     1      17.460   4.688  22.512  1.00  0.00     0.092 N 
HETATM   15  C21 UNL     1      18.594   5.571  22.500  1.00  0.00     0.302 C 
HETATM   16  C22 UNL     1      19.161   5.868  21.168  1.00  0.00     0.302 C 
BRANCH  14  17
HETATM   17  C15 UNL     1      16.516   5.206  23.475  1.00  0.00     0.277 C 
BRANCH  17  18
HETATM   18  C16 UNL     1      15.667   4.128  24.100  1.00  0.00     0.017 C 
HETATM   19  C17 UNL     1      14.220   4.438  23.803  1.00  0.00     0.034 C 
HETATM   20  C18 UNL     1      13.319   4.108  24.974  1.00  0.00     0.232 C 
HETATM   21  N6  UNL     1      13.772   4.909  26.092  1.00  0.00    -0.075 N 
HETATM   22  C19 UNL     1      15.111   4.640  26.508  1.00  0.00     0.232 C 
ATOM     23  H62 UNL     1      13.655   5.901  25.888  1.00  0.00     0.277 HD
ATOM     24  H61 UNL     1      13.130   4.815  26.880  1.00  0.00     0.277 HD
HETATM   25  C20 UNL     1      15.952   3.881  25.538  1.00  0.00     0.034 C 
ENDBRANCH  17  18
ENDBRANCH  14  17
ENDBRANCH  10  11
ENDBRANCH   9  10
ENDBRANCH   8   9
ENDBRANCH   7   8
ENDBRANCH   4   7
BRANCH   5  26
HETATM   26  C24 UNL     1      22.011   9.569  21.032  1.00  0.00     0.157 C 
BRANCH  26  27
HETATM   27  N7  UNL     1      22.846   8.616  20.404  1.00  0.00    -0.417 N 
HETATM   28  C25 UNL     1      23.860   8.040  21.226  1.00  0.00     0.142 C 
HETATM   29  C26 UNL     1      22.216   7.693  19.514  1.00  0.00     0.142 C 
ENDBRANCH  26  27
ENDBRANCH   5  26
BRANCH   1  30
HETATM   30  N3  UNL     1      22.500  13.230  17.739  1.00  0.00    -0.365 N 
HETATM   31  C5  UNL     1      23.599  12.859  17.187  1.00  0.00     0.107 C 
ATOM     32  H3  UNL     1      22.224  14.211  17.676  1.00  0.00     0.165 HD
BRANCH  31  33
HETATM   33  C4  UNL     1      24.434  13.807  16.488  1.00  0.00     0.072 A 
HETATM   34  C2  UNL     1      25.833  13.838  16.463  1.00  0.00     0.039 A 
HETATM   35  C1  UNL     1      26.706  12.865  17.177  1.00  0.00     0.071 C 
HETATM   36  N1  UNL     1      26.157  14.875  15.700  1.00  0.00    -0.301 N 
HETATM   37  N2  UNL     1      25.070  15.483  15.256  1.00  0.00    -0.266 N 
ATOM     38  H1  UNL     1      27.112  15.162  15.486  1.00  0.00     0.186 HD
HETATM   39  C3  UNL     1      23.964  14.870  15.709  1.00  0.00     0.273 A 
ATOM     40  H2  UNL     1      25.071  16.306  14.652  1.00  0.00     0.190 HD
HETATM   41  O1  UNL     1      22.750  15.157  15.502  1.00  0.00    -0.266 OA
ENDBRANCH  31  33
ENDBRANCH   1  30
TORSDOF 11
ENDMDL
MODEL 5
REMARK VINA RESULT: -8.173838191      1.399      1.881
REMARK  11 active torsions:
REMARK  status: ('A' for Active; 'I' for Inactive)
REMARK    1  A    between atoms: C4_9  and  C5_10 
REMARK    2  A    between atoms: N3_11  and  C6_13 
REMARK    3  A    between atoms: C9_16  and  O2_17 
REMARK    4  A    between atoms: O2_17  and  C10_18 
REMARK    5  A    between atoms: C10_18  and  C11_19 
REMARK    6  A    between atoms: C11_19  and  C12_20 
REMARK    7  A    between atoms: C12_20  and  N4_21 
REMARK    8  A    between atoms: N5_24  and  C15_25 
REMARK    9  A    between atoms: C15_25  and  C16_26 
REMARK   10  A    between atoms: C23_36  and  C24_37 
REMARK   11  A    between atoms: C24_37  and  N7_38 
ROOT
HETATM    1  C6  UNL     1      21.680  11.659  16.900  1.00  0.00     0.032 A 
HETATM    2  C7  UNL     1      20.314  11.705  16.729  1.00  0.00     0.032 A 
HETATM    3  C8  UNL     1      19.494  10.758  17.302  1.00  0.00     0.039 A 
HETATM    4  C9  UNL     1      19.984   9.733  18.062  1.00  0.00     0.076 A 
HETATM    5  C23 UNL     1      21.371   9.659  18.256  1.00  0.00    -0.005 A 
HETATM    6  C27 UNL     1      22.182  10.606  17.681  1.00  0.00     0.041 A 
ENDROOT
BRANCH   4   7
HETATM    7  O2  UNL     1      19.138   8.785  18.632  1.00  0.00    -0.350 OA
BRANCH   7   8
HETATM    8  C10 UNL     1      17.794   8.642  18.166  1.00  0.00     0.177 C 
BRANCH   8   9
HETATM    9  C11 UNL     1      16.794   8.879  19.274  1.00  0.00     0.057 C 
BRANCH   9  10
HETATM   10  C12 UNL     1      15.709   7.850  19.136  1.00  0.00     0.274 C 
BRANCH  10  11
HETATM   11  N4  UNL     1      15.400   7.174  20.359  1.00  0.00     0.091 N 
HETATM   12  C13 UNL     1      16.525   7.083  21.263  1.00  0.00     0.302 C 
HETATM   13  C14 UNL     1      16.038   6.266  22.442  1.00  0.00     0.302 C 
HETATM   14  N5  UNL     1      15.951   4.886  22.056  1.00  0.00     0.092 N 
HETATM   15  C21 UNL     1      15.374   4.742  20.747  1.00  0.00     0.302 C 
HETATM   16  C22 UNL     1      14.693   5.940  20.212  1.00  0.00     0.302 C 
BRANCH  14  17
HETATM   17  C15 UNL     1      17.233   4.219  22.042  1.00  0.00     0.277 C 
BRANCH  17  18
HETATM   18  C16 UNL     1      17.476   3.393  23.280  1.00  0.00     0.017 C 
HETATM   19  C17 UNL     1      16.136   3.008  23.858  1.00  0.00     0.034 C 
HETATM   20  C18 UNL     1      16.145   3.036  25.372  1.00  0.00     0.232 C 
HETATM   21  N6  UNL     1      16.477   4.390  25.766  1.00  0.00    -0.075 N 
HETATM   22  C19 UNL     1      17.764   4.832  25.333  1.00  0.00     0.232 C 
ATOM     23  H62 UNL     1      15.755   5.038  25.453  1.00  0.00     0.277 HD
ATOM     24  H61 UNL     1      16.385   4.499  26.775  1.00  0.00     0.277 HD
HETATM   25  C20 UNL     1      18.404   4.019  24.260  1.00  0.00     0.034 C 
ENDBRANCH  17  18
ENDBRANCH  14  17
ENDBRANCH  10  11
ENDBRANCH   9  10
ENDBRANCH   8   9
ENDBRANCH   7   8
ENDBRANCH   4   7
BRANCH   5  26
HETATM   26  C24 UNL     1      21.883   8.528  19.053  1.00  0.00     0.157 C 
BRANCH  26  27
HETATM   27  N7  UNL     1      22.123   8.888  20.400  1.00  0.00    -0.417 N 
HETATM   28  C25 UNL     1      21.269   8.279  21.368  1.00  0.00     0.142 C 
HETATM   29  C26 UNL     1      23.488   8.997  20.806  1.00  0.00     0.142 C 
ENDBRANCH  26  27
ENDBRANCH   5  26
BRANCH   1  30
HETATM   30  N3  UNL     1      22.574  12.603  16.334  1.00  0.00    -0.365 N 
HETATM   31  C5  UNL     1      23.648  12.979  16.932  1.00  0.00     0.107 C 
ATOM     32  H3  UNL     1      22.357  12.998  15.419  1.00  0.00     0.165 HD
BRANCH  31  33
HETATM   33  C4  UNL     1      24.535  13.943  16.325  1.00  0.00     0.072 A 
HETATM   34  C2  UNL     1      25.934  13.923  16.335  1.00  0.00     0.039 A 
HETATM   35  C1  UNL     1      26.752  12.869  16.998  1.00  0.00     0.071 C 
HETATM   36  N1  UNL     1      26.316  14.999  15.659  1.00  0.00    -0.301 N 
HETATM   37  N2  UNL     1      25.264  15.679  15.234  1.00  0.00    -0.266 N 
ATOM     38  H1  UNL     1      27.286  15.265  15.490  1.00  0.00     0.186 HD
HETATM   39  C3  UNL     1      24.124  15.077  15.614  1.00  0.00     0.273 A 
ATOM     40  H2  UNL     1      25.311  16.542  14.692  1.00  0.00     0.190 HD
HETATM   41  O1  UNL     1      22.927  15.423  15.399  1.00  0.00    -0.266 OA
ENDBRANCH  31  33
ENDBRANCH   1  30
TORSDOF 11
ENDMDL
