MODEL 1
REMARK VINA RESULT: -8.688377307      0.000      0.000
REMARK  6 active torsions:
REMARK  status: ('A' for Active; 'I' for Inactive)
REMARK    1  A    between atoms: O1_2  and  C2_3 
REMARK    2  A    between atoms: C4_8  and  C5_9 
REMARK    3  A    between atoms: C5_9  and  O2_10 
REMARK    4  A    between atoms: O2_10  and  C6_11 
REMARK    5  A    between atoms: C7_14  and  N3_15 
REMARK    6  A    between atoms: C13_28  and  N7_29 
ROOT
HETATM    1  C6  UNL     1      39.856   1.800  14.061  1.00  0.00     0.170 A 
HETATM    2  N2  UNL     1      40.449   2.133  15.249  1.00  0.00    -0.170 N 
ATOM      3  H2  UNL     1      40.206   3.021  15.688  1.00  0.00     0.186 HD
HETATM    4  C7  UNL     1      41.332   1.340  15.853  1.00  0.00     0.678 A 
HETATM    5  N4  UNL     1      41.668   0.170  15.294  1.00  0.00    -0.194 N 
ATOM      6  H4  UNL     1      42.345  -0.433  15.761  1.00  0.00     0.184 HD
HETATM    7  C8  UNL     1      41.122  -0.228  14.117  1.00  0.00     0.047 A 
HETATM    8  C9  UNL     1      40.193   0.605  13.480  1.00  0.00     0.054 A 
HETATM    9  C10 UNL     1      39.804  -0.115  12.244  1.00  0.00     0.042 A 
HETATM   10  C11 UNL     1      38.940   0.214  11.249  1.00  0.00     0.142 A 
HETATM   11  C12 UNL     1      38.164   1.382  11.145  1.00  0.00     0.119 C 
HETATM   12  N5  UNL     1      37.500   2.307  10.988  1.00  0.00    -0.190 NA
HETATM   13  N6  UNL     1      38.791  -0.689  10.207  1.00  0.00    -0.181 N 
ATOM     14  H6  UNL     1      38.144  -0.452   9.455  1.00  0.00     0.185 HD
HETATM   15  C13 UNL     1      39.437  -1.837  10.132  1.00  0.00     0.677 A 
HETATM   16  N8  UNL     1      40.272  -2.137  11.111  1.00  0.00    -0.195 N 
ATOM     17  H8  UNL     1      40.775  -3.023  11.060  1.00  0.00     0.184 HD
HETATM   18  C14 UNL     1      40.500  -1.337  12.178  1.00  0.00     0.046 A 
HETATM   19  C15 UNL     1      41.359  -1.466  13.347  1.00  0.00     0.117 A 
ENDROOT
BRANCH  15  20
HETATM   20  N7  UNL     1      39.264  -2.663   9.124  1.00  0.00    -0.234 N 
ATOM     21  H72 UNL     1      39.638  -2.441   8.202  1.00  0.00     0.174 HD
ATOM     22  H71 UNL     1      38.755  -3.540   9.231  1.00  0.00     0.174 HD
ENDBRANCH  15  20
BRANCH   1  23
HETATM   23  O2  UNL     1      38.971   2.667  13.527  1.00  0.00    -0.333 OA
BRANCH  23  24
HETATM   24  C5  UNL     1      39.035   4.063  13.588  1.00  0.00     0.210 C 
BRANCH  24  25
HETATM   25  C4  UNL     1      37.752   4.734  14.003  1.00  0.00     0.212 C 
HETATM   26  N1  UNL     1      38.047   6.119  14.333  1.00  0.00    -0.066 N 
HETATM   27  C3  UNL     1      38.163   6.231  15.756  1.00  0.00     0.264 C 
ATOM     28  H12 UNL     1      37.364   6.769  13.944  1.00  0.00     0.277 HD
ATOM     29  H11 UNL     1      38.869   6.472  13.844  1.00  0.00     0.277 HD
HETATM   30  C2  UNL     1      38.138   4.834  16.320  1.00  0.00     0.148 C 
HETATM   31  C16 UNL     1      37.286   4.099  15.314  1.00  0.00     0.069 C 
BRANCH  30  32
HETATM   32  O1  UNL     1      37.581   4.796  17.598  1.00  0.00    -0.389 OA
HETATM   33  C1  UNL     1      37.999   5.941  18.267  1.00  0.00     0.202 C 
ENDBRANCH  30  32
ENDBRANCH  24  25
ENDBRANCH  23  24
ENDBRANCH   1  23
BRANCH   4  34
HETATM   34  N3  UNL     1      41.846   1.722  16.968  1.00  0.00    -0.234 N 
ATOM     35  H32 UNL     1      41.837   2.703  17.249  1.00  0.00     0.174 HD
ATOM     36  H31 UNL     1      42.268   1.022  17.578  1.00  0.00     0.174 HD
ENDBRANCH   4  34
TORSDOF 6
ENDMDL
MODEL 2
REMARK VINA RESULT: -8.019099977      2.143      6.679
REMARK  6 active torsions:
REMARK  status: ('A' for Active; 'I' for Inactive)
REMARK    1  A    between atoms: O1_2  and  C2_3 
REMARK    2  A    between atoms: C4_8  and  C5_9 
REMARK    3  A    between atoms: C5_9  and  O2_10 
REMARK    4  A    between atoms: O2_10  and  C6_11 
REMARK    5  A    between atoms: C7_14  and  N3_15 
REMARK    6  A    between atoms: C13_28  and  N7_29 
ROOT
HETATM    1  C6  UNL     1      40.207   2.053  14.716  1.00  0.00     0.170 A 
HETATM    2  N2  UNL     1      41.210   1.609  15.534  1.00  0.00    -0.170 N 
ATOM      3  H2  UNL     1      41.875   0.927  15.170  1.00  0.00     0.186 HD
HETATM    4  C7  UNL     1      41.351   2.036  16.787  1.00  0.00     0.678 A 
HETATM    5  N4  UNL     1      40.488   2.931  17.287  1.00  0.00    -0.194 N 
ATOM      6  H4  UNL     1      40.601   3.254  18.248  1.00  0.00     0.184 HD
HETATM    7  C8  UNL     1      39.467   3.416  16.536  1.00  0.00     0.047 A 
HETATM    8  C9  UNL     1      39.318   2.969  15.217  1.00  0.00     0.054 A 
HETATM    9  C10 UNL     1      38.130   3.684  14.694  1.00  0.00     0.042 A 
HETATM   10  C11 UNL     1      37.523   3.643  13.480  1.00  0.00     0.142 A 
HETATM   11  C12 UNL     1      37.895   2.871  12.365  1.00  0.00     0.119 C 
HETATM   12  N5  UNL     1      38.135   2.273  11.413  1.00  0.00    -0.190 NA
HETATM   13  N6  UNL     1      36.407   4.446  13.296  1.00  0.00    -0.181 N 
ATOM     14  H6  UNL     1      35.943   4.424  12.387  1.00  0.00     0.185 HD
HETATM   15  C13 UNL     1      35.910   5.237  14.227  1.00  0.00     0.677 A 
HETATM   16  N8  UNL     1      36.517   5.261  15.401  1.00  0.00    -0.195 N 
ATOM     17  H8  UNL     1      36.138   5.870  16.126  1.00  0.00     0.184 HD
HETATM   18  C14 UNL     1      37.611   4.523  15.698  1.00  0.00     0.046 A 
HETATM   19  C15 UNL     1      38.423   4.396  16.900  1.00  0.00     0.117 A 
ENDROOT
BRANCH  15  20
HETATM   20  N7  UNL     1      34.849   5.981  14.007  1.00  0.00    -0.234 N 
ATOM     21  H72 UNL     1      34.900   6.786  13.383  1.00  0.00     0.174 HD
ATOM     22  H71 UNL     1      33.952   5.780  14.449  1.00  0.00     0.174 HD
ENDBRANCH  15  20
BRANCH   1  23
HETATM   23  O2  UNL     1      40.147   1.565  13.460  1.00  0.00    -0.333 OA
BRANCH  23  24
HETATM   24  C5  UNL     1      40.088   0.216  13.094  1.00  0.00     0.210 C 
BRANCH  24  25
HETATM   25  C4  UNL     1      41.427  -0.462  12.971  1.00  0.00     0.212 C 
HETATM   26  N1  UNL     1      42.140   0.134  11.853  1.00  0.00    -0.066 N 
HETATM   27  C3  UNL     1      41.989  -0.719  10.713  1.00  0.00     0.264 C 
ATOM     28  H12 UNL     1      43.118   0.329  12.070  1.00  0.00     0.277 HD
ATOM     29  H11 UNL     1      41.846   1.092  11.667  1.00  0.00     0.277 HD
HETATM   30  C2  UNL     1      40.984  -1.781  11.075  1.00  0.00     0.148 C 
HETATM   31  C16 UNL     1      41.188  -1.917  12.565  1.00  0.00     0.069 C 
BRANCH  30  32
HETATM   32  O1  UNL     1      41.226  -2.980  10.407  1.00  0.00    -0.389 OA
HETATM   33  C1  UNL     1      40.134  -3.811  10.638  1.00  0.00     0.202 C 
ENDBRANCH  30  32
ENDBRANCH  24  25
ENDBRANCH  23  24
ENDBRANCH   1  23
BRANCH   4  34
HETATM   34  N3  UNL     1      42.320   1.572  17.494  1.00  0.00    -0.234 N 
ATOM     35  H32 UNL     1      43.186   1.249  17.062  1.00  0.00     0.174 HD
ATOM     36  H31 UNL     1      42.212   1.531  18.508  1.00  0.00     0.174 HD
ENDBRANCH   4  34
TORSDOF 6
ENDMDL
MODEL 3
REMARK VINA RESULT: -7.940398964      3.118      6.784
REMARK  6 active torsions:
REMARK  status: ('A' for Active; 'I' for Inactive)
REMARK    1  A    between atoms: O1_2  and  C2_3 
REMARK    2  A    between atoms: C4_8  and  C5_9 
REMARK    3  A    between atoms: C5_9  and  O2_10 
REMARK    4  A    between atoms: O2_10  and  C6_11 
REMARK    5  A    between atoms: C7_14  and  N3_15 
REMARK    6  A    between atoms: C13_28  and  N7_29 
ROOT
HETATM    1  C6  UNL     1      38.907  -1.634  10.928  1.00  0.00     0.170 A 
HETATM    2  N2  UNL     1      39.205  -2.897  10.491  1.00  0.00    -0.170 N 
ATOM      3  H2  UNL     1      38.656  -3.295   9.729  1.00  0.00     0.186 HD
HETATM    4  C7  UNL     1      40.184  -3.623  11.024  1.00  0.00     0.678 A 
HETATM    5  N4  UNL     1      40.917  -3.121  12.027  1.00  0.00    -0.194 N 
ATOM      6  H4  UNL     1      41.666  -3.683  12.431  1.00  0.00     0.184 HD
HETATM    7  C8  UNL     1      40.680  -1.877  12.513  1.00  0.00     0.047 A 
HETATM    8  C9  UNL     1      39.651  -1.110  11.954  1.00  0.00     0.054 A 
HETATM    9  C10 UNL     1      39.663   0.169  12.703  1.00  0.00     0.042 A 
HETATM   10  C11 UNL     1      38.890   1.280  12.592  1.00  0.00     0.142 A 
HETATM   11  C12 UNL     1      37.833   1.498  11.690  1.00  0.00     0.119 C 
HETATM   12  N5  UNL     1      36.959   1.750  10.987  1.00  0.00    -0.190 NA
HETATM   13  N6  UNL     1      39.155   2.332  13.455  1.00  0.00    -0.181 N 
ATOM     14  H6  UNL     1      38.581   3.172  13.380  1.00  0.00     0.185 HD
HETATM   15  C13 UNL     1      40.107   2.311  14.369  1.00  0.00     0.677 A 
HETATM   16  N8  UNL     1      40.847   1.219  14.459  1.00  0.00    -0.195 N 
ATOM     17  H8  UNL     1      41.584   1.195  15.164  1.00  0.00     0.184 HD
HETATM   18  C14 UNL     1      40.683   0.131  13.673  1.00  0.00     0.046 A 
HETATM   19  C15 UNL     1      41.369  -1.151  13.601  1.00  0.00     0.117 A 
ENDROOT
BRANCH  15  20
HETATM   20  N7  UNL     1      40.322   3.333  15.167  1.00  0.00    -0.234 N 
ATOM     21  H72 UNL     1      40.260   3.222  16.179  1.00  0.00     0.174 HD
ATOM     22  H71 UNL     1      40.554   4.257  14.804  1.00  0.00     0.174 HD
ENDBRANCH  15  20
BRANCH   1  23
HETATM   23  O2  UNL     1      37.898  -0.974  10.324  1.00  0.00    -0.333 OA
BRANCH  23  24
HETATM   24  C5  UNL     1      37.586  -0.999   8.960  1.00  0.00     0.210 C 
BRANCH  24  25
HETATM   25  C4  UNL     1      38.683  -0.508   8.054  1.00  0.00     0.212 C 
HETATM   26  N1  UNL     1      39.221   0.722   8.612  1.00  0.00    -0.066 N 
HETATM   27  C3  UNL     1      38.628   1.829   7.925  1.00  0.00     0.264 C 
ATOM     28  H12 UNL     1      40.240   0.750   8.593  1.00  0.00     0.277 HD
ATOM     29  H11 UNL     1      39.100   0.779   9.623  1.00  0.00     0.277 HD
HETATM   30  C2  UNL     1      37.536   1.279   7.044  1.00  0.00     0.148 C 
HETATM   31  C16 UNL     1      38.054  -0.102   6.720  1.00  0.00     0.069 C 
BRANCH  30  32
HETATM   32  O1  UNL     1      37.354   2.047   5.895  1.00  0.00    -0.389 OA
HETATM   33  C1  UNL     1      38.616   2.365   5.404  1.00  0.00     0.202 C 
ENDBRANCH  30  32
ENDBRANCH  24  25
ENDBRANCH  23  24
ENDBRANCH   1  23
BRANCH   4  34
HETATM   34  N3  UNL     1      40.404  -4.802  10.559  1.00  0.00    -0.234 N 
ATOM     35  H32 UNL     1      39.749  -5.252   9.919  1.00  0.00     0.174 HD
ATOM     36  H31 UNL     1      41.255  -5.290  10.841  1.00  0.00     0.174 HD
ENDBRANCH   4  34
TORSDOF 6
ENDMDL
MODEL 4
REMARK VINA RESULT: -7.893581362      1.534      1.917
REMARK  6 active torsions:
REMARK  status: ('A' for Active; 'I' for Inactive)
REMARK    1  A    between atoms: O1_2  and  C2_3 
REMARK    2  A    between atoms: C4_8  and  C5_9 
REMARK    3  A    between atoms: C5_9  and  O2_10 
REMARK    4  A    between atoms: O2_10  and  C6_11 
REMARK    5  A    between atoms: C7_14  and  N3_15 
REMARK    6  A    between atoms: C13_28  and  N7_29 
ROOT
HETATM    1  C6  UNL     1      39.839   1.829  14.038  1.00  0.00     0.170 A 
HETATM    2  N2  UNL     1      40.422   2.196  15.221  1.00  0.00    -0.170 N 
ATOM      3  H2  UNL     1      40.164   3.089  15.639  1.00  0.00     0.186 HD
HETATM    4  C7  UNL     1      41.313   1.429  15.844  1.00  0.00     0.678 A 
HETATM    5  N4  UNL     1      41.668   0.251  15.313  1.00  0.00    -0.194 N 
ATOM      6  H4  UNL     1      42.352  -0.332  15.795  1.00  0.00     0.184 HD
HETATM    7  C8  UNL     1      41.133  -0.179  14.142  1.00  0.00     0.047 A 
HETATM    8  C9  UNL     1      40.195   0.626  13.484  1.00  0.00     0.054 A 
HETATM    9  C10 UNL     1      39.821  -0.126  12.263  1.00  0.00     0.042 A 
HETATM   10  C11 UNL     1      38.957   0.169  11.257  1.00  0.00     0.142 A 
HETATM   11  C12 UNL     1      38.165   1.324  11.125  1.00  0.00     0.119 C 
HETATM   12  N5  UNL     1      37.489   2.235  10.945  1.00  0.00    -0.190 NA
HETATM   13  N6  UNL     1      38.826  -0.758  10.235  1.00  0.00    -0.181 N 
ATOM     14  H6  UNL     1      38.178  -0.547   9.475  1.00  0.00     0.185 HD
HETATM   15  C13 UNL     1      39.488  -1.898  10.187  1.00  0.00     0.677 A 
HETATM   16  N8  UNL     1      40.323  -2.165  11.176  1.00  0.00    -0.195 N 
ATOM     17  H8  UNL     1      40.839  -3.044  11.145  1.00  0.00     0.184 HD
HETATM   18  C14 UNL     1      40.535  -1.339  12.226  1.00  0.00     0.046 A 
HETATM   19  C15 UNL     1      41.391  -1.431  13.401  1.00  0.00     0.117 A 
ENDROOT
BRANCH  15  20
HETATM   20  N7  UNL     1      39.331  -2.748   9.196  1.00  0.00    -0.234 N 
ATOM     21  H72 UNL     1      38.637  -3.493   9.257  1.00  0.00     0.174 HD
ATOM     22  H71 UNL     1      39.891  -2.689   8.346  1.00  0.00     0.174 HD
ENDBRANCH  15  20
BRANCH   1  23
HETATM   23  O2  UNL     1      38.944   2.671  13.482  1.00  0.00    -0.333 OA
BRANCH  23  24
HETATM   24  C5  UNL     1      38.450   3.852  14.048  1.00  0.00     0.210 C 
BRANCH  24  25
HETATM   25  C4  UNL     1      37.156   3.695  14.801  1.00  0.00     0.212 C 
HETATM   26  N1  UNL     1      36.203   3.018  13.936  1.00  0.00    -0.066 N 
HETATM   27  C3  UNL     1      35.344   4.002  13.350  1.00  0.00     0.264 C 
ATOM     28  H12 UNL     1      35.686   2.285  14.421  1.00  0.00     0.277 HD
ATOM     29  H11 UNL     1      36.657   2.429  13.239  1.00  0.00     0.277 HD
HETATM   30  C2  UNL     1      35.904   5.356  13.704  1.00  0.00     0.148 C 
HETATM   31  C16 UNL     1      36.569   5.088  15.033  1.00  0.00     0.069 C 
BRANCH  30  32
HETATM   32  O1  UNL     1      34.906   6.323  13.808  1.00  0.00    -0.389 OA
HETATM   33  C1  UNL     1      34.369   6.229  15.088  1.00  0.00     0.202 C 
ENDBRANCH  30  32
ENDBRANCH  24  25
ENDBRANCH  23  24
ENDBRANCH   1  23
BRANCH   4  34
HETATM   34  N3  UNL     1      41.817   1.842  16.953  1.00  0.00    -0.234 N 
ATOM     35  H32 UNL     1      41.828   1.250  17.785  1.00  0.00     0.174 HD
ATOM     36  H31 UNL     1      42.212   2.781  16.993  1.00  0.00     0.174 HD
ENDBRANCH   4  34
TORSDOF 6
ENDMDL
MODEL 5
REMARK VINA RESULT: -7.891364938      1.208      1.581
REMARK  6 active torsions:
REMARK  status: ('A' for Active; 'I' for Inactive)
REMARK    1  A    between atoms: O1_2  and  C2_3 
REMARK    2  A    between atoms: C4_8  and  C5_9 
REMARK    3  A    between atoms: C5_9  and  O2_10 
REMARK    4  A    between atoms: O2_10  and  C6_11 
REMARK    5  A    between atoms: C7_14  and  N3_15 
REMARK    6  A    between atoms: C13_28  and  N7_29 
ROOT
HETATM    1  C6  UNL     1      39.510   0.940  13.177  1.00  0.00     0.170 A 
HETATM    2  N2  UNL     1      40.368   1.012  14.242  1.00  0.00    -0.170 N 
ATOM      3  H2  UNL     1      40.261   1.776  14.908  1.00  0.00     0.186 HD
HETATM    4  C7  UNL     1      41.336   0.120  14.439  1.00  0.00     0.678 A 
HETATM    5  N4  UNL     1      41.497  -0.892  13.575  1.00  0.00    -0.194 N 
ATOM      6  H4  UNL     1      42.241  -1.572  13.732  1.00  0.00     0.184 HD
HETATM    7  C8  UNL     1      40.685  -1.028  12.496  1.00  0.00     0.047 A 
HETATM    8  C9  UNL     1      39.665  -0.092  12.287  1.00  0.00     0.054 A 
HETATM    9  C10 UNL     1      38.982  -0.527  11.046  1.00  0.00     0.042 A 
HETATM   10  C11 UNL     1      37.927  -0.000  10.372  1.00  0.00     0.142 A 
HETATM   11  C12 UNL     1      37.187   1.148  10.706  1.00  0.00     0.119 C 
HETATM   12  N5  UNL     1      36.537   2.074  10.912  1.00  0.00    -0.190 NA
HETATM   13  N6  UNL     1      37.514  -0.653   9.220  1.00  0.00    -0.181 N 
ATOM     14  H6  UNL     1      36.722  -0.267   8.706  1.00  0.00     0.185 HD
HETATM   15  C13 UNL     1      38.086  -1.745   8.750  1.00  0.00     0.677 A 
HETATM   16  N8  UNL     1      39.111  -2.240   9.421  1.00  0.00    -0.195 N 
ATOM     17  H8  UNL     1      39.559  -3.083   9.063  1.00  0.00     0.184 HD
HETATM   18  C14 UNL     1      39.602  -1.692  10.556  1.00  0.00     0.046 A 
HETATM   19  C15 UNL     1      40.699  -2.062  11.441  1.00  0.00     0.117 A 
ENDROOT
BRANCH  15  20
HETATM   20  N7  UNL     1      37.661  -2.330   7.652  1.00  0.00    -0.234 N 
ATOM     21  H72 UNL     1      36.897  -1.925   7.111  1.00  0.00     0.174 HD
ATOM     22  H71 UNL     1      38.077  -3.196   7.310  1.00  0.00     0.174 HD
ENDBRANCH  15  20
BRANCH   1  23
HETATM   23  O2  UNL     1      38.558   1.888  13.063  1.00  0.00    -0.333 OA
BRANCH  23  24
HETATM   24  C5  UNL     1      38.696   3.247  13.366  1.00  0.00     0.210 C 
BRANCH  24  25
HETATM   25  C4  UNL     1      37.442   3.911  13.867  1.00  0.00     0.212 C 
HETATM   26  N1  UNL     1      37.346   5.227  13.256  1.00  0.00    -0.066 N 
HETATM   27  C3  UNL     1      37.823   6.198  14.194  1.00  0.00     0.264 C 
ATOM     28  H12 UNL     1      36.406   5.436  12.921  1.00  0.00     0.277 HD
ATOM     29  H11 UNL     1      37.828   5.278  12.359  1.00  0.00     0.277 HD
HETATM   30  C2  UNL     1      38.424   5.446  15.353  1.00  0.00     0.148 C 
HETATM   31  C16 UNL     1      37.609   4.175  15.365  1.00  0.00     0.069 C 
BRANCH  30  32
HETATM   32  O1  UNL     1      38.304   6.150  16.551  1.00  0.00    -0.389 OA
HETATM   33  C1  UNL     1      38.110   5.216  17.563  1.00  0.00     0.202 C 
ENDBRANCH  30  32
ENDBRANCH  24  25
ENDBRANCH  23  24
ENDBRANCH   1  23
BRANCH   4  34
HETATM   34  N3  UNL     1      42.102   0.254  15.463  1.00  0.00    -0.234 N 
ATOM     35  H32 UNL     1      42.367   1.176  15.811  1.00  0.00     0.174 HD
ATOM     36  H31 UNL     1      42.447  -0.584  15.931  1.00  0.00     0.174 HD
ENDBRANCH   4  34
TORSDOF 6
ENDMDL
