MODEL 1
REMARK VINA RESULT: -5.427750802      0.000      0.000
REMARK  4 active torsions:
REMARK  status: ('A' for Active; 'I' for Inactive)
REMARK    1  A    between atoms: C2_2  and  O1_4 
REMARK    2  A    between atoms: C2_2  and  C4_6 
REMARK    3  A    between atoms: C5_7  and  C6_8 
REMARK    4  A    between atoms: C6_8  and  N1_9 
ROOT
HETATM    1  C4  UNL     1      15.676   1.977  16.333  1.00  0.00    -0.067 C 
HETATM    2  C5  UNL     1      16.306   2.591  15.497  1.00  0.00    -0.073 C 
ENDROOT
BRANCH   2   3
HETATM    3  C6  UNL     1      17.051   3.333  14.452  1.00  0.00     0.365 C 
BRANCH   3   4
HETATM    4  N1  UNL     1      17.611   4.495  15.071  1.00  0.00     0.100 N 
HETATM    5  C7  UNL     1      16.870   5.706  14.821  1.00  0.00     0.283 C 
HETATM    6  C8  UNL     1      16.411   5.717  13.377  1.00  0.00     0.104 C 
HETATM    7  S1  UNL     1      17.952   5.741  12.403  1.00  0.00    -0.166 SA
HETATM    8  C9  UNL     1      19.338   5.380  13.505  1.00  0.00     0.104 C 
HETATM    9  C10 UNL     1      19.004   4.602  14.719  1.00  0.00     0.283 C 
ENDBRANCH   3   4
ENDBRANCH   2   3
BRANCH   1  10
HETATM   10  C2  UNL     1      14.888   1.217  17.312  1.00  0.00     0.114 C 
HETATM   11  C1  UNL     1      13.403   1.212  16.932  1.00  0.00     0.060 C 
HETATM   12  C3  UNL     1      15.030   1.935  18.645  1.00  0.00     0.060 C 
BRANCH  10  13
HETATM   13  O1  UNL     1      15.372  -0.076  17.364  1.00  0.00    -0.378 OA
ATOM     14  H1  UNL     1      15.085  -0.565  16.602  1.00  0.00     0.211 HD
ENDBRANCH  10  13
ENDBRANCH   1  10
TORSDOF 4
ENDMDL
MODEL 2
REMARK VINA RESULT: -5.363708165      1.021      1.368
REMARK  4 active torsions:
REMARK  status: ('A' for Active; 'I' for Inactive)
REMARK    1  A    between atoms: C2_2  and  O1_4 
REMARK    2  A    between atoms: C2_2  and  C4_6 
REMARK    3  A    between atoms: C5_7  and  C6_8 
REMARK    4  A    between atoms: C6_8  and  N1_9 
ROOT
HETATM    1  C4  UNL     1      15.824   2.028  16.545  1.00  0.00    -0.067 C 
HETATM    2  C5  UNL     1      16.596   2.722  15.916  1.00  0.00    -0.073 C 
ENDROOT
BRANCH   2   3
HETATM    3  C6  UNL     1      17.548   3.586  15.178  1.00  0.00     0.365 C 
BRANCH   3   4
HETATM    4  N1  UNL     1      16.776   4.553  14.457  1.00  0.00     0.100 N 
HETATM    5  C7  UNL     1      16.817   4.383  13.026  1.00  0.00     0.283 C 
HETATM    6  C8  UNL     1      18.227   4.020  12.610  1.00  0.00     0.104 C 
HETATM    7  S1  UNL     1      19.234   5.467  13.074  1.00  0.00    -0.166 SA
HETATM    8  C9  UNL     1      18.243   6.543  14.135  1.00  0.00     0.104 C 
HETATM    9  C10 UNL     1      17.152   5.878  14.880  1.00  0.00     0.283 C 
ENDBRANCH   3   4
ENDBRANCH   2   3
BRANCH   1  10
HETATM   10  C2  UNL     1      14.892   1.217  17.339  1.00  0.00     0.114 C 
HETATM   11  C1  UNL     1      13.455   1.383  16.831  1.00  0.00     0.060 C 
HETATM   12  C3  UNL     1      14.951   1.747  18.764  1.00  0.00     0.060 C 
BRANCH  10  13
HETATM   13  O1  UNL     1      15.276  -0.107  17.261  1.00  0.00    -0.378 OA
ATOM     14  H1  UNL     1      15.880  -0.232  16.538  1.00  0.00     0.211 HD
ENDBRANCH  10  13
ENDBRANCH   1  10
TORSDOF 4
ENDMDL
MODEL 3
REMARK VINA RESULT: -5.269239862      1.072      1.210
REMARK  4 active torsions:
REMARK  status: ('A' for Active; 'I' for Inactive)
REMARK    1  A    between atoms: C2_2  and  O1_4 
REMARK    2  A    between atoms: C2_2  and  C4_6 
REMARK    3  A    between atoms: C5_7  and  C6_8 
REMARK    4  A    between atoms: C6_8  and  N1_9 
ROOT
HETATM    1  C4  UNL     1      15.496   1.736  15.971  1.00  0.00    -0.067 C 
HETATM    2  C5  UNL     1      16.031   2.241  15.005  1.00  0.00    -0.073 C 
ENDROOT
BRANCH   2   3
HETATM    3  C6  UNL     1      16.652   2.868  13.814  1.00  0.00     0.365 C 
BRANCH   3   4
HETATM    4  N1  UNL     1      16.693   4.279  14.046  1.00  0.00     0.100 N 
HETATM    5  C7  UNL     1      16.664   5.071  12.841  1.00  0.00     0.283 C 
HETATM    6  C8  UNL     1      17.537   4.410  11.794  1.00  0.00     0.104 C 
HETATM    7  S1  UNL     1      19.217   4.449  12.500  1.00  0.00    -0.166 SA
HETATM    8  C9  UNL     1      19.099   4.902  14.246  1.00  0.00     0.104 C 
HETATM    9  C10 UNL     1      17.809   4.592  14.901  1.00  0.00     0.283 C 
ENDBRANCH   3   4
ENDBRANCH   2   3
BRANCH   1  10
HETATM   10  C2  UNL     1      14.811   1.127  17.118  1.00  0.00     0.114 C 
HETATM   11  C1  UNL     1      13.289   1.203  16.947  1.00  0.00     0.060 C 
HETATM   12  C3  UNL     1      15.188   1.945  18.343  1.00  0.00     0.060 C 
BRANCH  10  13
HETATM   13  O1  UNL     1      15.213  -0.190  17.228  1.00  0.00    -0.378 OA
ATOM     14  H1  UNL     1      14.821  -0.712  16.538  1.00  0.00     0.211 HD
ENDBRANCH  10  13
ENDBRANCH   1  10
TORSDOF 4
ENDMDL
MODEL 4
REMARK VINA RESULT: -5.196389591      1.128      1.408
REMARK  4 active torsions:
REMARK  status: ('A' for Active; 'I' for Inactive)
REMARK    1  A    between atoms: C2_2  and  O1_4 
REMARK    2  A    between atoms: C2_2  and  C4_6 
REMARK    3  A    between atoms: C5_7  and  C6_8 
REMARK    4  A    between atoms: C6_8  and  N1_9 
ROOT
HETATM    1  C4  UNL     1      15.410   2.501  16.344  1.00  0.00    -0.067 C 
HETATM    2  C5  UNL     1      15.762   3.304  15.505  1.00  0.00    -0.073 C 
ENDROOT
BRANCH   2   3
HETATM    3  C6  UNL     1      16.160   4.301  14.483  1.00  0.00     0.365 C 
BRANCH   3   4
HETATM    4  N1  UNL     1      17.487   3.973  14.059  1.00  0.00     0.100 N 
HETATM    5  C7  UNL     1      18.495   4.889  14.531  1.00  0.00     0.283 C 
HETATM    6  C8  UNL     1      17.958   6.303  14.444  1.00  0.00     0.104 C 
HETATM    7  S1  UNL     1      17.676   6.582  12.665  1.00  0.00    -0.166 SA
HETATM    8  C9  UNL     1      17.793   4.995  11.806  1.00  0.00     0.104 C 
HETATM    9  C10 UNL     1      17.504   3.801  12.629  1.00  0.00     0.283 C 
ENDBRANCH   3   4
ENDBRANCH   2   3
BRANCH   1  10
HETATM   10  C2  UNL     1      14.943   1.541  17.353  1.00  0.00     0.114 C 
HETATM   11  C1  UNL     1      13.523   1.059  17.031  1.00  0.00     0.060 C 
HETATM   12  C3  UNL     1      14.898   2.283  18.680  1.00  0.00     0.060 C 
BRANCH  10  13
HETATM   13  O1  UNL     1      15.814   0.470  17.386  1.00  0.00    -0.378 OA
ATOM     14  H1  UNL     1      15.337  -0.337  17.539  1.00  0.00     0.211 HD
ENDBRANCH  10  13
ENDBRANCH   1  10
TORSDOF 4
ENDMDL
MODEL 5
REMARK VINA RESULT: -5.091614562      1.226      1.333
REMARK  4 active torsions:
REMARK  status: ('A' for Active; 'I' for Inactive)
REMARK    1  A    between atoms: C2_2  and  O1_4 
REMARK    2  A    between atoms: C2_2  and  C4_6 
REMARK    3  A    between atoms: C5_7  and  C6_8 
REMARK    4  A    between atoms: C6_8  and  N1_9 
ROOT
HETATM    1  C4  UNL     1      15.197   2.769  16.291  1.00  0.00    -0.067 C 
HETATM    2  C5  UNL     1      15.371   3.642  15.466  1.00  0.00    -0.073 C 
ENDROOT
BRANCH   2   3
HETATM    3  C6  UNL     1      15.550   4.701  14.445  1.00  0.00     0.365 C 
BRANCH   3   4
HETATM    4  N1  UNL     1      16.937   5.055  14.436  1.00  0.00     0.100 N 
HETATM    5  C7  UNL     1      17.225   6.274  13.721  1.00  0.00     0.283 C 
HETATM    6  C8  UNL     1      16.383   6.319  12.462  1.00  0.00     0.104 C 
HETATM    7  S1  UNL     1      16.949   4.894  11.476  1.00  0.00    -0.166 SA
HETATM    8  C9  UNL     1      17.976   3.838  12.524  1.00  0.00     0.104 C 
HETATM    9  C10 UNL     1      17.716   3.934  13.977  1.00  0.00     0.283 C 
ENDBRANCH   3   4
ENDBRANCH   2   3
BRANCH   1  10
HETATM   10  C2  UNL     1      14.953   1.698  17.266  1.00  0.00     0.114 C 
HETATM   11  C1  UNL     1      13.613   1.007  16.993  1.00  0.00     0.060 C 
HETATM   12  C3  UNL     1      14.872   2.357  18.635  1.00  0.00     0.060 C 
BRANCH  10  13
HETATM   13  O1  UNL     1      15.986   0.783  17.190  1.00  0.00    -0.378 OA
ATOM     14  H1  UNL     1      16.694   1.130  16.659  1.00  0.00     0.211 HD
ENDBRANCH  10  13
ENDBRANCH   1  10
TORSDOF 4
ENDMDL
