MODEL 1
REMARK VINA RESULT: -6.265788472      0.000      0.000
REMARK  2 active torsions:
REMARK  status: ('A' for Active; 'I' for Inactive)
REMARK    1  A    between atoms: C2_2  and  O2_4 
REMARK    2  A    between atoms: O2_4  and  C3_5 
ROOT
HETATM    1  C3  UNL     1      17.389   2.502  14.888  1.00  0.00     0.273 C 
HETATM    2  C4  UNL     1      17.441   1.688  16.202  1.00  0.00     0.116 C 
HETATM    3  C5  UNL     1      16.317   0.741  16.193  1.00  0.00     0.065 C 
HETATM    4  N1  UNL     1      15.100   1.134  16.762  1.00  0.00    -0.380 N 
ATOM      5  H1  UNL     1      14.466   0.427  17.135  1.00  0.00     0.164 HD
HETATM    6  C6  UNL     1      14.744   2.479  16.824  1.00  0.00     0.096 C 
HETATM    7  C7  UNL     1      15.662   3.473  16.212  1.00  0.00     0.267 C 
HETATM    8  C8  UNL     1      14.954   4.652  15.524  1.00  0.00     0.077 C 
HETATM    9  C9  UNL     1      16.055   4.389  14.483  1.00  0.00     0.230 C 
HETATM   10  C10 UNL     1      17.392   4.874  14.924  1.00  0.00     0.041 C 
HETATM   11  C11 UNL     1      18.273   3.629  14.976  1.00  0.00     0.075 C 
HETATM   12  N2  UNL     1      16.011   3.025  14.883  1.00  0.00     0.138 N 
ENDROOT
BRANCH   1  13
HETATM   13  O2  UNL     1      17.441   1.553  13.924  1.00  0.00    -0.278 OA
BRANCH  13  14
HETATM   14  C2  UNL     1      17.531   1.583  12.576  1.00  0.00     0.257 C 
HETATM   15  C1  UNL     1      16.376   1.596  11.637  1.00  0.00     0.126 C 
HETATM   16  O1  UNL     1      18.708   1.601  12.183  1.00  0.00    -0.266 OA
ENDBRANCH  13  14
ENDBRANCH   1  13
TORSDOF 2
ENDMDL
MODEL 2
REMARK VINA RESULT: -6.254347661      1.177      1.316
REMARK  2 active torsions:
REMARK  status: ('A' for Active; 'I' for Inactive)
REMARK    1  A    between atoms: C2_2  and  O2_4 
REMARK    2  A    between atoms: O2_4  and  C3_5 
ROOT
HETATM    1  C3  UNL     1      16.837   2.202  14.732  1.00  0.00     0.273 C 
HETATM    2  C4  UNL     1      17.604   1.322  15.747  1.00  0.00     0.116 C 
HETATM    3  C5  UNL     1      16.771   0.152  16.053  1.00  0.00     0.065 C 
HETATM    4  N1  UNL     1      15.886   0.218  17.136  1.00  0.00    -0.380 N 
ATOM      5  H1  UNL     1      15.613  -0.639  17.618  1.00  0.00     0.164 HD
HETATM    6  C6  UNL     1      15.376   1.441  17.565  1.00  0.00     0.096 C 
HETATM    7  C7  UNL     1      15.744   2.658  16.800  1.00  0.00     0.267 C 
HETATM    8  C8  UNL     1      14.616   3.697  16.678  1.00  0.00     0.077 C 
HETATM    9  C9  UNL     1      15.167   3.767  15.243  1.00  0.00     0.230 C 
HETATM   10  C10 UNL     1      16.458   4.504  15.157  1.00  0.00     0.041 C 
HETATM   11  C11 UNL     1      17.464   3.488  14.627  1.00  0.00     0.075 C 
HETATM   12  N2  UNL     1      15.535   2.402  15.392  1.00  0.00     0.138 N 
ENDROOT
BRANCH   1  13
HETATM   13  O2  UNL     1      16.614   1.364  13.691  1.00  0.00    -0.278 OA
BRANCH  13  14
HETATM   14  C2  UNL     1      16.815   1.445  12.357  1.00  0.00     0.257 C 
HETATM   15  C1  UNL     1      18.072   1.070  11.652  1.00  0.00     0.126 C 
HETATM   16  O1  UNL     1      15.818   1.874  11.757  1.00  0.00    -0.266 OA
ENDBRANCH  13  14
ENDBRANCH   1  13
TORSDOF 2
ENDMDL
MODEL 3
REMARK VINA RESULT: -6.220366258      1.800      3.836
REMARK  2 active torsions:
REMARK  status: ('A' for Active; 'I' for Inactive)
REMARK    1  A    between atoms: C2_2  and  O2_4 
REMARK    2  A    between atoms: O2_4  and  C3_5 
ROOT
HETATM    1  C3  UNL     1      16.504   2.660  14.240  1.00  0.00     0.273 C 
HETATM    2  C4  UNL     1      16.453   2.292  12.739  1.00  0.00     0.116 C 
HETATM    3  C5  UNL     1      17.664   1.524  12.419  1.00  0.00     0.065 C 
HETATM    4  N1  UNL     1      18.799   2.209  11.970  1.00  0.00    -0.380 N 
ATOM      5  H1  UNL     1      19.477   1.730  11.377  1.00  0.00     0.164 HD
HETATM    6  C6  UNL     1      19.014   3.539  12.324  1.00  0.00     0.096 C 
HETATM    7  C7  UNL     1      18.041   4.184  13.242  1.00  0.00     0.267 C 
HETATM    8  C8  UNL     1      18.669   5.165  14.246  1.00  0.00     0.077 C 
HETATM    9  C9  UNL     1      17.665   4.469  15.181  1.00  0.00     0.230 C 
HETATM   10  C10 UNL     1      16.262   4.911  14.951  1.00  0.00     0.041 C 
HETATM   11  C11 UNL     1      15.508   3.650  14.535  1.00  0.00     0.075 C 
HETATM   12  N2  UNL     1      17.820   3.310  14.372  1.00  0.00     0.138 N 
ENDROOT
BRANCH   1  13
HETATM   13  O2  UNL     1      16.606   1.460  14.859  1.00  0.00    -0.278 OA
BRANCH  13  14
HETATM   14  C2  UNL     1      16.824   1.074  16.135  1.00  0.00     0.257 C 
HETATM   15  C1  UNL     1      15.887   1.289  17.272  1.00  0.00     0.126 C 
HETATM   16  O1  UNL     1      17.917   0.502  16.272  1.00  0.00    -0.266 OA
ENDBRANCH  13  14
ENDBRANCH   1  13
TORSDOF 2
ENDMDL
MODEL 4
REMARK VINA RESULT: -5.808643401      2.452      4.573
REMARK  2 active torsions:
REMARK  status: ('A' for Active; 'I' for Inactive)
REMARK    1  A    between atoms: C2_2  and  O2_4 
REMARK    2  A    between atoms: O2_4  and  C3_5 
ROOT
HETATM    1  C3  UNL     1      17.182   1.707  13.035  1.00  0.00     0.273 C 
HETATM    2  C4  UNL     1      16.855   0.870  11.776  1.00  0.00     0.116 C 
HETATM    3  C5  UNL     1      17.996  -0.019  11.515  1.00  0.00     0.065 C 
HETATM    4  N1  UNL     1      19.016   0.425  10.666  1.00  0.00    -0.380 N 
ATOM      5  H1  UNL     1      19.577  -0.256  10.152  1.00  0.00     0.164 HD
HETATM    6  C6  UNL     1      19.275   1.785  10.514  1.00  0.00     0.096 C 
HETATM    7  C7  UNL     1      18.483   2.742  11.327  1.00  0.00     0.267 C 
HETATM    8  C8  UNL     1      19.274   3.965  11.818  1.00  0.00     0.077 C 
HETATM    9  C9  UNL     1      18.474   3.665  13.096  1.00  0.00     0.230 C 
HETATM   10  C10 UNL     1      17.046   4.075  12.992  1.00  0.00     0.041 C 
HETATM   11  C11 UNL     1      16.246   2.787  13.161  1.00  0.00     0.075 C 
HETATM   12  N2  UNL     1      18.491   2.299  12.703  1.00  0.00     0.138 N 
ENDROOT
BRANCH   1  13
HETATM   13  O2  UNL     1      17.415   0.773  13.987  1.00  0.00    -0.278 OA
BRANCH  13  14
HETATM   14  C2  UNL     1      17.096   0.660  15.295  1.00  0.00     0.257 C 
HETATM   15  C1  UNL     1      17.377   1.683  16.340  1.00  0.00     0.126 C 
HETATM   16  O1  UNL     1      16.528  -0.413  15.549  1.00  0.00    -0.266 OA
ENDBRANCH  13  14
ENDBRANCH   1  13
TORSDOF 2
ENDMDL
MODEL 5
REMARK VINA RESULT: -5.778344082      1.756      3.275
REMARK  2 active torsions:
REMARK  status: ('A' for Active; 'I' for Inactive)
REMARK    1  A    between atoms: C2_2  and  O2_4 
REMARK    2  A    between atoms: O2_4  and  C3_5 
ROOT
HETATM    1  C3  UNL     1      16.785   2.924  15.015  1.00  0.00     0.273 C 
HETATM    2  C4  UNL     1      15.409   3.600  14.808  1.00  0.00     0.116 C 
HETATM    3  C5  UNL     1      15.117   4.410  15.999  1.00  0.00     0.065 C 
HETATM    4  N1  UNL     1      14.406   3.826  17.054  1.00  0.00    -0.380 N 
ATOM      5  H1  UNL     1      13.851   4.415  17.675  1.00  0.00     0.164 HD
HETATM    6  C6  UNL     1      14.448   2.450  17.265  1.00  0.00     0.096 C 
HETATM    7  C7  UNL     1      15.318   1.634  16.382  1.00  0.00     0.267 C 
HETATM    8  C8  UNL     1      16.016   0.459  17.087  1.00  0.00     0.077 C 
HETATM    9  C9  UNL     1      17.187   0.949  16.218  1.00  0.00     0.230 C 
HETATM   10  C10 UNL     1      17.035   0.576  14.784  1.00  0.00     0.041 C 
HETATM   11  C11 UNL     1      16.981   1.901  14.029  1.00  0.00     0.075 C 
HETATM   12  N2  UNL     1      16.624   2.252  16.317  1.00  0.00     0.138 N 
ENDROOT
BRANCH   1  13
HETATM   13  O2  UNL     1      17.623   3.966  15.224  1.00  0.00    -0.278 OA
BRANCH  13  14
HETATM   14  C2  UNL     1      18.736   4.418  14.606  1.00  0.00     0.257 C 
HETATM   15  C1  UNL     1      18.759   5.369  13.461  1.00  0.00     0.126 C 
HETATM   16  O1  UNL     1      19.772   3.949  15.103  1.00  0.00    -0.266 OA
ENDBRANCH  13  14
ENDBRANCH   1  13
TORSDOF 2
ENDMDL
