MODEL 1
REMARK VINA RESULT: -6.395658014      0.000      0.000
REMARK  2 active torsions:
REMARK  status: ('A' for Active; 'I' for Inactive)
REMARK    1  A    between atoms: O1_2  and  C2_3 
REMARK    2  A    between atoms: C2_3  and  C3_5 
ROOT
HETATM    1  C3  UNL     1      17.071   1.927  15.477  1.00  0.00     0.081 C 
HETATM    2  C4  UNL     1      16.510   2.151  14.108  1.00  0.00     0.068 C 
HETATM    3  C5  UNL     1      17.479   2.757  13.159  1.00  0.00     0.076 C 
HETATM    4  C6  UNL     1      18.356   3.801  13.782  1.00  0.00     0.187 C 
HETATM    5  C7  UNL     1      18.304   3.878  15.269  1.00  0.00     0.188 C 
HETATM    6  N1  UNL     1      18.312   2.491  15.801  1.00  0.00    -0.383 N 
ATOM      7  H1  UNL     1      19.073   2.037  16.305  1.00  0.00     0.159 HD
HETATM    8  O3  UNL     1      19.682   3.739  13.344  1.00  0.00    -0.318 OA
HETATM    9  C8  UNL     1      19.455   4.732  12.410  1.00  0.00     0.164 C 
HETATM   10  C9  UNL     1      19.235   4.205  11.009  1.00  0.00     0.078 C 
HETATM   11  C10 UNL     1      20.437   5.874  12.408  1.00  0.00     0.078 C 
HETATM   12  O4  UNL     1      18.280   5.040  13.110  1.00  0.00    -0.318 OA
ENDROOT
BRANCH   1  13
HETATM   13  C2  UNL     1      16.759   0.536  15.873  1.00  0.00     0.305 C 
HETATM   14  O2  UNL     1      16.758  -0.438  15.274  1.00  0.00    -0.258 OA
BRANCH  13  15
HETATM   15  O1  UNL     1      16.475   0.464  17.303  1.00  0.00    -0.322 OA
HETATM   16  C1  UNL     1      15.508   1.314  17.844  1.00  0.00     0.213 C 
ENDBRANCH  13  15
ENDBRANCH   1  13
TORSDOF 2
ENDMDL
MODEL 2
REMARK VINA RESULT: -6.288332626      1.805      2.164
REMARK  2 active torsions:
REMARK  status: ('A' for Active; 'I' for Inactive)
REMARK    1  A    between atoms: O1_2  and  C2_3 
REMARK    2  A    between atoms: C2_3  and  C3_5 
ROOT
HETATM    1  C3  UNL     1      16.941   1.466  14.366  1.00  0.00     0.081 C 
HETATM    2  C4  UNL     1      17.118   0.525  13.216  1.00  0.00     0.068 C 
HETATM    3  C5  UNL     1      18.125   0.980  12.224  1.00  0.00     0.076 C 
HETATM    4  C6  UNL     1      18.098   2.458  11.976  1.00  0.00     0.187 C 
HETATM    5  C7  UNL     1      17.273   3.253  12.928  1.00  0.00     0.188 C 
HETATM    6  N1  UNL     1      17.528   2.736  14.298  1.00  0.00    -0.383 N 
ATOM      7  H1  UNL     1      18.032   3.214  15.045  1.00  0.00     0.159 HD
HETATM    8  O3  UNL     1      19.373   3.018  11.850  1.00  0.00    -0.318 OA
HETATM    9  C8  UNL     1      19.299   2.959  10.472  1.00  0.00     0.164 C 
HETATM   10  C9  UNL     1      20.038   1.780   9.877  1.00  0.00     0.078 C 
HETATM   11  C10 UNL     1      19.635   4.231   9.737  1.00  0.00     0.078 C 
HETATM   12  O4  UNL     1      17.917   2.773  10.612  1.00  0.00    -0.318 OA
ENDROOT
BRANCH   1  13
HETATM   13  C2  UNL     1      17.018   0.676  15.615  1.00  0.00     0.305 C 
HETATM   14  O2  UNL     1      17.911   0.362  16.257  1.00  0.00    -0.258 OA
BRANCH  13  15
HETATM   15  O1  UNL     1      15.680   0.327  16.081  1.00  0.00    -0.322 OA
HETATM   16  C1  UNL     1      15.319   0.639  17.394  1.00  0.00     0.213 C 
ENDBRANCH  13  15
ENDBRANCH   1  13
TORSDOF 2
ENDMDL
MODEL 3
REMARK VINA RESULT: -6.160858516      1.220      1.429
REMARK  2 active torsions:
REMARK  status: ('A' for Active; 'I' for Inactive)
REMARK    1  A    between atoms: O1_2  and  C2_3 
REMARK    2  A    between atoms: C2_3  and  C3_5 
ROOT
HETATM    1  C3  UNL     1      16.997   1.761  14.533  1.00  0.00     0.081 C 
HETATM    2  C4  UNL     1      16.895   1.190  13.154  1.00  0.00     0.068 C 
HETATM    3  C5  UNL     1      17.981   1.635  12.244  1.00  0.00     0.076 C 
HETATM    4  C6  UNL     1      18.368   3.071  12.426  1.00  0.00     0.187 C 
HETATM    5  C7  UNL     1      17.806   3.738  13.634  1.00  0.00     0.188 C 
HETATM    6  N1  UNL     1      17.916   2.791  14.774  1.00  0.00    -0.383 N 
ATOM      7  H1  UNL     1      18.540   2.875  15.576  1.00  0.00     0.159 HD
HETATM    8  O3  UNL     1      19.747   3.284  12.350  1.00  0.00    -0.318 OA
HETATM    9  C8  UNL     1      19.650   3.657  11.023  1.00  0.00     0.164 C 
HETATM   10  C9  UNL     1      20.024   2.555  10.056  1.00  0.00     0.078 C 
HETATM   11  C10 UNL     1      20.323   4.952  10.649  1.00  0.00     0.078 C 
HETATM   12  O4  UNL     1      18.271   3.812  11.228  1.00  0.00    -0.318 OA
ENDROOT
BRANCH   1  13
HETATM   13  C2  UNL     1      16.859   0.646  15.496  1.00  0.00     0.305 C 
HETATM   14  O2  UNL     1      16.756  -0.482  15.338  1.00  0.00    -0.258 OA
BRANCH  13  15
HETATM   15  O1  UNL     1      16.943   1.143  16.867  1.00  0.00    -0.322 OA
HETATM   16  C1  UNL     1      15.762   1.355  17.581  1.00  0.00     0.213 C 
ENDBRANCH  13  15
ENDBRANCH   1  13
TORSDOF 2
ENDMDL
MODEL 4
REMARK VINA RESULT: -6.064816651      2.827      5.504
REMARK  2 active torsions:
REMARK  status: ('A' for Active; 'I' for Inactive)
REMARK    1  A    between atoms: O1_2  and  C2_3 
REMARK    2  A    between atoms: C2_3  and  C3_5 
ROOT
HETATM    1  C3  UNL     1      17.108   2.001  12.892  1.00  0.00     0.081 C 
HETATM    2  C4  UNL     1      17.506   0.780  13.661  1.00  0.00     0.068 C 
HETATM    3  C5  UNL     1      16.744   0.597  14.922  1.00  0.00     0.076 C 
HETATM    4  C6  UNL     1      16.472   1.878  15.651  1.00  0.00     0.187 C 
HETATM    5  C7  UNL     1      16.767   3.124  14.889  1.00  0.00     0.188 C 
HETATM    6  N1  UNL     1      16.269   2.942  13.501  1.00  0.00    -0.383 N 
ATOM      7  H1  UNL     1      15.470   3.411  13.075  1.00  0.00     0.159 HD
HETATM    8  O3  UNL     1      15.189   1.936  16.203  1.00  0.00    -0.318 OA
HETATM    9  C8  UNL     1      15.665   1.535  17.436  1.00  0.00     0.164 C 
HETATM   10  C9  UNL     1      15.443   0.066  17.721  1.00  0.00     0.078 C 
HETATM   11  C10 UNL     1      15.248   2.380  18.612  1.00  0.00     0.078 C 
HETATM   12  O4  UNL     1      16.951   1.855  16.979  1.00  0.00    -0.318 OA
ENDROOT
BRANCH   1  13
HETATM   13  C2  UNL     1      16.877   1.596  11.487  1.00  0.00     0.305 C 
HETATM   14  O2  UNL     1      16.664   2.213  10.548  1.00  0.00    -0.258 OA
BRANCH  13  15
HETATM   15  O1  UNL     1      17.025   0.151  11.341  1.00  0.00    -0.322 OA
HETATM   16  C1  UNL     1      17.871  -0.344  10.346  1.00  0.00     0.213 C 
ENDBRANCH  13  15
ENDBRANCH   1  13
TORSDOF 2
ENDMDL
MODEL 5
REMARK VINA RESULT: -6.059499611      3.215      4.744
REMARK  2 active torsions:
REMARK  status: ('A' for Active; 'I' for Inactive)
REMARK    1  A    between atoms: O1_2  and  C2_3 
REMARK    2  A    between atoms: C2_3  and  C3_5 
ROOT
HETATM    1  C3  UNL     1      17.494   1.137  11.844  1.00  0.00     0.081 C 
HETATM    2  C4  UNL     1      17.556   0.671  13.264  1.00  0.00     0.068 C 
HETATM    3  C5  UNL     1      16.676   1.439  14.181  1.00  0.00     0.076 C 
HETATM    4  C6  UNL     1      16.632   2.907  13.882  1.00  0.00     0.187 C 
HETATM    5  C7  UNL     1      17.249   3.317  12.589  1.00  0.00     0.188 C 
HETATM    6  N1  UNL     1      16.834   2.337  11.552  1.00  0.00    -0.383 N 
ATOM      7  H1  UNL     1      16.192   2.506  10.777  1.00  0.00     0.159 HD
HETATM    8  O3  UNL     1      15.353   3.457  14.007  1.00  0.00    -0.318 OA
HETATM    9  C8  UNL     1      15.632   3.900  15.285  1.00  0.00     0.164 C 
HETATM   10  C9  UNL     1      15.075   3.004  16.370  1.00  0.00     0.078 C 
HETATM   11  C10 UNL     1      15.316   5.346  15.567  1.00  0.00     0.078 C 
HETATM   12  O4  UNL     1      16.989   3.696  14.997  1.00  0.00    -0.318 OA
ENDROOT
BRANCH   1  13
HETATM   13  C2  UNL     1      17.292  -0.052  10.986  1.00  0.00     0.305 C 
HETATM   14  O2  UNL     1      17.156  -0.154   9.855  1.00  0.00    -0.258 OA
BRANCH  13  15
HETATM   15  O1  UNL     1      17.353  -1.274  11.783  1.00  0.00    -0.322 OA
HETATM   16  C1  UNL     1      18.307  -2.242  11.463  1.00  0.00     0.213 C 
ENDBRANCH  13  15
ENDBRANCH   1  13
TORSDOF 2
ENDMDL
