MODEL 1
REMARK VINA RESULT: -4.731045109      0.000      0.000
REMARK  1 active torsions:
REMARK  status: ('A' for Active; 'I' for Inactive)
REMARK       I    between atoms: N1_2  and  C2_4 
REMARK       I    between atoms: C2_4  and  N4_9 
REMARK    1  A    between atoms: N4_9  and  N5_11 
ROOT
HETATM    1  C1  UNL     1      15.866   4.372  14.291  1.00  0.00     0.165 C 
HETATM    2  N1  UNL     1      16.794   3.298  14.624  1.00  0.00    -0.229 N 
ATOM      3  H1  UNL     1      17.552   3.431  15.293  1.00  0.00     0.177 HD
HETATM    4  C2  UNL     1      16.585   2.057  13.967  1.00  0.00     0.701 C 
HETATM    5  N2  UNL     1      16.374   0.949  14.562  1.00  0.00    -0.125 N 
ATOM      6  H2  UNL     1      16.236   0.110  13.999  1.00  0.00     0.197 HD
HETATM    7  C3  UNL     1      16.325   0.837  15.950  1.00  0.00     0.196 C 
HETATM    8  N3  UNL     1      16.282   0.726  17.088  1.00  0.00    -0.171 NA
HETATM    9  N4  UNL     1      16.614   2.055  12.549  1.00  0.00    -0.135 N 
ATOM     10  H4  UNL     1      16.253   2.852  12.024  1.00  0.00     0.205 HD
ENDROOT
BRANCH   9  11
HETATM   11  N5  UNL     1      17.133   0.969  11.890  1.00  0.00    -0.322 N 
HETATM   12  C4  UNL     1      16.254   0.335  10.963  1.00  0.00     0.171 C 
HETATM   13  C5  UNL     1      18.484   1.099  11.454  1.00  0.00     0.171 C 
ENDBRANCH   9  11
TORSDOF 1
ENDMDL
MODEL 2
REMARK VINA RESULT: -4.242283427      1.957      3.301
REMARK  1 active torsions:
REMARK  status: ('A' for Active; 'I' for Inactive)
REMARK       I    between atoms: N1_2  and  C2_4 
REMARK       I    between atoms: C2_4  and  N4_9 
REMARK    1  A    between atoms: N4_9  and  N5_11 
ROOT
HETATM    1  C1  UNL     1      17.573  -1.087  11.359  1.00  0.00     0.165 C 
HETATM    2  N1  UNL     1      16.587  -0.244  12.026  1.00  0.00    -0.229 N 
ATOM      3  H1  UNL     1      15.617  -0.537  12.137  1.00  0.00     0.177 HD
HETATM    4  C2  UNL     1      17.052   1.007  12.511  1.00  0.00     0.701 C 
HETATM    5  N2  UNL     1      16.985   1.381  13.728  1.00  0.00    -0.125 N 
ATOM      6  H2  UNL     1      17.346   2.302  13.976  1.00  0.00     0.197 HD
HETATM    7  C3  UNL     1      16.438   0.585  14.732  1.00  0.00     0.196 C 
HETATM    8  N3  UNL     1      15.992  -0.054  15.569  1.00  0.00    -0.171 NA
HETATM    9  N4  UNL     1      17.629   1.899  11.571  1.00  0.00    -0.135 N 
ATOM     10  H4  UNL     1      18.182   1.541  10.792  1.00  0.00     0.205 HD
ENDROOT
BRANCH   9  11
HETATM   11  N5  UNL     1      17.436   3.249  11.722  1.00  0.00    -0.322 N 
HETATM   12  C4  UNL     1      18.566   3.983  12.191  1.00  0.00     0.171 C 
HETATM   13  C5  UNL     1      16.687   3.884  10.689  1.00  0.00     0.171 C 
ENDBRANCH   9  11
TORSDOF 1
ENDMDL
MODEL 3
REMARK VINA RESULT: -4.226684784      1.495      4.199
REMARK  1 active torsions:
REMARK  status: ('A' for Active; 'I' for Inactive)
REMARK       I    between atoms: N1_2  and  C2_4 
REMARK       I    between atoms: C2_4  and  N4_9 
REMARK    1  A    between atoms: N4_9  and  N5_11 
ROOT
HETATM    1  C1  UNL     1      18.953   3.606  12.085  1.00  0.00     0.165 C 
HETATM    2  N1  UNL     1      17.573   3.224  11.809  1.00  0.00    -0.229 N 
ATOM      3  H1  UNL     1      17.075   3.564  10.987  1.00  0.00     0.177 HD
HETATM    4  C2  UNL     1      16.960   2.354  12.749  1.00  0.00     0.701 C 
HETATM    5  N2  UNL     1      16.468   1.213  12.464  1.00  0.00    -0.125 N 
ATOM      6  H2  UNL     1      16.047   0.662  13.212  1.00  0.00     0.197 HD
HETATM    7  C3  UNL     1      16.481   0.687  11.174  1.00  0.00     0.196 C 
HETATM    8  N3  UNL     1      16.482   0.241  10.120  1.00  0.00    -0.171 NA
HETATM    9  N4  UNL     1      16.892   2.790  14.097  1.00  0.00    -0.135 N 
ATOM     10  H4  UNL     1      17.648   3.345  14.498  1.00  0.00     0.205 HD
ENDROOT
BRANCH   9  11
HETATM   11  N5  UNL     1      15.797   2.458  14.855  1.00  0.00    -0.322 N 
HETATM   12  C4  UNL     1      16.066   1.660  16.006  1.00  0.00     0.171 C 
HETATM   13  C5  UNL     1      14.841   3.498  15.048  1.00  0.00     0.171 C 
ENDBRANCH   9  11
TORSDOF 1
ENDMDL
MODEL 4
REMARK VINA RESULT: -4.196180097      1.280      3.625
REMARK  1 active torsions:
REMARK  status: ('A' for Active; 'I' for Inactive)
REMARK       I    between atoms: N1_2  and  C2_4 
REMARK       I    between atoms: C2_4  and  N4_9 
REMARK    1  A    between atoms: N4_9  and  N5_11 
ROOT
HETATM    1  C1  UNL     1      17.190   1.188  12.000  1.00  0.00     0.165 C 
HETATM    2  N1  UNL     1      16.178   1.519  12.996  1.00  0.00    -0.229 N 
ATOM      3  H1  UNL     1      15.246   1.105  12.973  1.00  0.00     0.177 HD
HETATM    4  C2  UNL     1      16.560   2.448  14.000  1.00  0.00     0.701 C 
HETATM    5  N2  UNL     1      16.536   2.212  15.252  1.00  0.00    -0.125 N 
ATOM      6  H2  UNL     1      16.830   2.948  15.894  1.00  0.00     0.197 HD
HETATM    7  C3  UNL     1      16.126   0.990  15.780  1.00  0.00     0.196 C 
HETATM    8  N3  UNL     1      15.791  -0.007  16.231  1.00  0.00    -0.171 NA
HETATM    9  N4  UNL     1      16.996   3.729  13.572  1.00  0.00    -0.135 N 
ATOM     10  H4  UNL     1      17.528   3.831  12.707  1.00  0.00     0.205 HD
ENDROOT
BRANCH   9  11
HETATM   11  N5  UNL     1      16.694   4.829  14.335  1.00  0.00    -0.322 N 
HETATM   12  C4  UNL     1      17.660   5.878  14.309  1.00  0.00     0.171 C 
HETATM   13  C5  UNL     1      15.334   5.255  14.292  1.00  0.00     0.171 C 
ENDBRANCH   9  11
TORSDOF 1
ENDMDL
MODEL 5
REMARK VINA RESULT: -4.178016247      1.407      3.745
REMARK  1 active torsions:
REMARK  status: ('A' for Active; 'I' for Inactive)
REMARK       I    between atoms: N1_2  and  C2_4 
REMARK       I    between atoms: C2_4  and  N4_9 
REMARK    1  A    between atoms: N4_9  and  N5_11 
ROOT
HETATM    1  C1  UNL     1      15.368   1.084  16.491  1.00  0.00     0.165 C 
HETATM    2  N1  UNL     1      16.495   1.133  15.568  1.00  0.00    -0.229 N 
ATOM      3  H1  UNL     1      17.300   0.516  15.669  1.00  0.00     0.177 HD
HETATM    4  C2  UNL     1      16.410   2.087  14.519  1.00  0.00     0.701 C 
HETATM    5  N2  UNL     1      16.463   1.804  13.277  1.00  0.00    -0.125 N 
ATOM      6  H2  UNL     1      16.394   2.563  12.600  1.00  0.00     0.197 HD
HETATM    7  C3  UNL     1      16.611   0.502  12.807  1.00  0.00     0.196 C 
HETATM    8  N3  UNL     1      16.733  -0.562  12.403  1.00  0.00    -0.171 NA
HETATM    9  N4  UNL     1      16.258   3.449  14.886  1.00  0.00    -0.135 N 
ATOM     10  H4  UNL     1      15.707   3.704  15.706  1.00  0.00     0.205 HD
ENDROOT
BRANCH   9  11
HETATM   11  N5  UNL     1      16.859   4.419  14.125  1.00  0.00    -0.322 N 
HETATM   12  C4  UNL     1      16.004   5.471  13.681  1.00  0.00     0.171 C 
HETATM   13  C5  UNL     1      18.152   4.833  14.562  1.00  0.00     0.171 C 
ENDBRANCH   9  11
TORSDOF 1
ENDMDL
