MODEL 1
REMARK VINA RESULT: -5.381009844      0.000      0.000
REMARK  2 active torsions:
REMARK  status: ('A' for Active; 'I' for Inactive)
REMARK    1  A    between atoms: O1_1  and  C1_3 
REMARK    2  A    between atoms: C1_3  and  C2_4 
ROOT
HETATM    1  C2  UNL     1      16.333   3.767  14.839  1.00  0.00     0.169 C 
HETATM    2  C3  UNL     1      17.552   3.338  15.592  1.00  0.00     0.205 C 
HETATM    3  O2  UNL     1      17.495   2.008  16.024  1.00  0.00    -0.356 OA
HETATM    4  C4  UNL     1      16.368   1.902  16.807  1.00  0.00     0.288 C 
HETATM    5  O3  UNL     1      16.085   0.656  17.279  1.00  0.00    -0.359 OA
HETATM    6  C5  UNL     1      14.729   0.519  17.440  1.00  0.00     0.173 C 
HETATM    7  C6  UNL     1      14.063   1.716  16.774  1.00  0.00     0.063 C 
HETATM    8  C7  UNL     1      15.188   2.136  15.848  1.00  0.00     0.179 C 
HETATM    9  O4  UNL     1      15.140   3.436  15.453  1.00  0.00    -0.371 OA
ENDROOT
BRANCH   1  10
HETATM   10  C1  UNL     1      16.434   3.233  13.430  1.00  0.00     0.198 C 
BRANCH  10  11
HETATM   11  O1  UNL     1      17.591   2.530  13.191  1.00  0.00    -0.398 OA
ATOM     12  H1  UNL     1      17.523   1.604  13.395  1.00  0.00     0.209 HD
ENDBRANCH  10  11
ENDBRANCH   1  10
TORSDOF 2
ENDMDL
MODEL 2
REMARK VINA RESULT: -5.346389052      1.619      4.100
REMARK  2 active torsions:
REMARK  status: ('A' for Active; 'I' for Inactive)
REMARK    1  A    between atoms: O1_1  and  C1_3 
REMARK    2  A    between atoms: C1_3  and  C2_4 
ROOT
HETATM    1  C2  UNL     1      16.200   2.408  16.239  1.00  0.00     0.169 C 
HETATM    2  C3  UNL     1      14.836   2.965  15.983  1.00  0.00     0.205 C 
HETATM    3  O2  UNL     1      14.710   3.562  14.724  1.00  0.00    -0.356 OA
HETATM    4  C4  UNL     1      15.665   4.552  14.665  1.00  0.00     0.288 C 
HETATM    5  O3  UNL     1      15.760   5.219  13.483  1.00  0.00    -0.359 OA
HETATM    6  C5  UNL     1      17.050   5.650  13.297  1.00  0.00     0.173 C 
HETATM    7  C6  UNL     1      17.916   4.978  14.355  1.00  0.00     0.063 C 
HETATM    8  C7  UNL     1      17.013   3.812  14.703  1.00  0.00     0.179 C 
HETATM    9  O4  UNL     1      17.233   3.274  15.932  1.00  0.00    -0.371 OA
ENDROOT
BRANCH   1  10
HETATM   10  C1  UNL     1      16.313   1.084  15.523  1.00  0.00     0.198 C 
BRANCH  10  11
HETATM   11  O1  UNL     1      17.350   0.302  15.972  1.00  0.00    -0.398 OA
ATOM     12  H1  UNL     1      17.774  -0.199  15.285  1.00  0.00     0.209 HD
ENDBRANCH  10  11
ENDBRANCH   1  10
TORSDOF 2
ENDMDL
MODEL 3
REMARK VINA RESULT: -5.284958527      1.331      3.691
REMARK  2 active torsions:
REMARK  status: ('A' for Active; 'I' for Inactive)
REMARK    1  A    between atoms: O1_1  and  C1_3 
REMARK    2  A    between atoms: C1_3  and  C2_4 
ROOT
HETATM    1  C2  UNL     1      14.988   1.511  16.257  1.00  0.00     0.169 C 
HETATM    2  C3  UNL     1      16.321   0.872  16.033  1.00  0.00     0.205 C 
HETATM    3  O2  UNL     1      17.392   1.758  16.188  1.00  0.00    -0.356 OA
HETATM    4  C4  UNL     1      17.181   2.784  15.295  1.00  0.00     0.288 C 
HETATM    5  O3  UNL     1      18.085   3.802  15.331  1.00  0.00    -0.359 OA
HETATM    6  C5  UNL     1      17.478   4.972  14.951  1.00  0.00     0.173 C 
HETATM    7  C6  UNL     1      15.977   4.718  14.901  1.00  0.00     0.063 C 
HETATM    8  C7  UNL     1      15.909   3.493  15.790  1.00  0.00     0.179 C 
HETATM    9  O4  UNL     1      14.815   2.710  15.592  1.00  0.00    -0.371 OA
ENDROOT
BRANCH   1  10
HETATM   10  C1  UNL     1      14.765   1.630  17.746  1.00  0.00     0.198 C 
BRANCH  10  11
HETATM   11  O1  UNL     1      15.615   0.851  18.493  1.00  0.00    -0.398 OA
ATOM     12  H1  UNL     1      15.176   0.355  19.175  1.00  0.00     0.209 HD
ENDBRANCH  10  11
ENDBRANCH   1  10
TORSDOF 2
ENDMDL
MODEL 4
REMARK VINA RESULT: -5.249529786      1.702      4.045
REMARK  2 active torsions:
REMARK  status: ('A' for Active; 'I' for Inactive)
REMARK    1  A    between atoms: O1_1  and  C1_3 
REMARK    2  A    between atoms: C1_3  and  C2_4 
ROOT
HETATM    1  C2  UNL     1      16.612   1.475  16.095  1.00  0.00     0.169 C 
HETATM    2  C3  UNL     1      16.477   2.936  15.809  1.00  0.00     0.205 C 
HETATM    3  O2  UNL     1      15.806   3.205  14.611  1.00  0.00    -0.356 OA
HETATM    4  C4  UNL     1      16.516   2.572  13.616  1.00  0.00     0.288 C 
HETATM    5  O3  UNL     1      15.989   2.650  12.364  1.00  0.00    -0.359 OA
HETATM    6  C5  UNL     1      16.336   1.535  11.644  1.00  0.00     0.173 C 
HETATM    7  C6  UNL     1      16.944   0.531  12.616  1.00  0.00     0.063 C 
HETATM    8  C7  UNL     1      16.369   1.069  13.911  1.00  0.00     0.179 C 
HETATM    9  O4  UNL     1      17.068   0.727  15.026  1.00  0.00    -0.371 OA
ENDROOT
BRANCH   1  10
HETATM   10  C1  UNL     1      15.295   0.975  16.640  1.00  0.00     0.198 C 
BRANCH  10  11
HETATM   11  O1  UNL     1      15.330  -0.337  17.045  1.00  0.00    -0.398 OA
ATOM     12  H1  UNL     1      15.009  -0.471  17.930  1.00  0.00     0.209 HD
ENDBRANCH  10  11
ENDBRANCH   1  10
TORSDOF 2
ENDMDL
MODEL 5
REMARK VINA RESULT: -5.217739856      2.297      2.868
REMARK  2 active torsions:
REMARK  status: ('A' for Active; 'I' for Inactive)
REMARK    1  A    between atoms: O1_1  and  C1_3 
REMARK    2  A    between atoms: C1_3  and  C2_4 
ROOT
HETATM    1  C2  UNL     1      17.126   1.613  12.401  1.00  0.00     0.169 C 
HETATM    2  C3  UNL     1      17.343   0.150  12.623  1.00  0.00     0.205 C 
HETATM    3  O2  UNL     1      16.513  -0.389  13.611  1.00  0.00    -0.356 OA
HETATM    4  C4  UNL     1      16.761   0.326  14.761  1.00  0.00     0.288 C 
HETATM    5  O3  UNL     1      15.998   0.003  15.841  1.00  0.00    -0.359 OA
HETATM    6  C5  UNL     1      15.837   1.106  16.641  1.00  0.00     0.173 C 
HETATM    7  C6  UNL     1      16.349   2.314  15.866  1.00  0.00     0.063 C 
HETATM    8  C7  UNL     1      16.271   1.753  14.461  1.00  0.00     0.179 C 
HETATM    9  O4  UNL     1      17.088   2.363  13.562  1.00  0.00    -0.371 OA
ENDROOT
BRANCH   1  10
HETATM   10  C1  UNL     1      15.889   1.784  11.553  1.00  0.00     0.198 C 
BRANCH  10  11
HETATM   11  O1  UNL     1      16.094   1.511  10.221  1.00  0.00    -0.398 OA
ATOM     12  H1  UNL     1      15.364   1.760   9.666  1.00  0.00     0.209 HD
ENDBRANCH  10  11
ENDBRANCH   1  10
TORSDOF 2
ENDMDL
