MODEL 1
REMARK VINA RESULT: -6.841798570      0.000      0.000
REMARK  3 active torsions:
REMARK  status: ('A' for Active; 'I' for Inactive)
REMARK    1  A    between atoms: S1_2  and  C2_3 
REMARK    2  A    between atoms: C3_6  and  C4_7 
REMARK    3  A    between atoms: C7_20  and  N6_21 
ROOT
HETATM    1  C2  UNL     1      45.197   3.638  22.310  1.00  0.00     0.160 A 
HETATM    2  N1  UNL     1      45.919   3.346  21.225  1.00  0.00    -0.320 N 
ATOM      3  H1  UNL     1      46.245   2.389  21.096  1.00  0.00     0.169 HD
HETATM    4  C3  UNL     1      46.238   4.281  20.284  1.00  0.00     0.157 A 
HETATM    5  N5  UNL     1      45.787   5.506  20.511  1.00  0.00    -0.174 N 
ATOM      6  H5  UNL     1      46.004   6.236  19.832  1.00  0.00     0.186 HD
HETATM    7  C7  UNL     1      45.042   5.840  21.612  1.00  0.00     0.679 A 
HETATM    8  N7  UNL     1      44.756   4.890  22.506  1.00  0.00    -0.171 N 
ATOM      9  H7  UNL     1      44.206   5.115  23.334  1.00  0.00     0.186 HD
ENDROOT
BRANCH   4  10
HETATM   10  C4  UNL     1      47.020   3.815  19.177  1.00  0.00     0.161 A 
HETATM   11  N2  UNL     1      46.795   2.586  18.635  1.00  0.00    -0.288 N 
HETATM   12  N3  UNL     1      47.451   2.084  17.634  1.00  0.00    -0.251 N 
ATOM     13  H2  UNL     1      46.056   2.017  19.047  1.00  0.00     0.187 HD
HETATM   14  C5  UNL     1      48.436   2.795  17.057  1.00  0.00     0.341 A 
ATOM     15  H3  UNL     1      47.221   1.154  17.286  1.00  0.00     0.191 HD
HETATM   16  O1  UNL     1      49.087   2.332  16.085  1.00  0.00    -0.245 OA
HETATM   17  N4  UNL     1      48.702   4.010  17.546  1.00  0.00    -0.272 N 
HETATM   18  C6  UNL     1      48.010   4.541  18.602  1.00  0.00     0.281 A 
ATOM     19  H4  UNL     1      49.446   4.561  17.117  1.00  0.00     0.174 HD
HETATM   20  O2  UNL     1      48.361   5.693  18.962  1.00  0.00    -0.265 OA
ENDBRANCH   4  10
BRANCH   1  21
HETATM   21  S1  UNL     1      44.826   2.330  23.500  1.00  0.00    -0.098 SA
HETATM   22  C1  UNL     1      46.181   2.282  24.701  1.00  0.00     0.099 C 
ENDBRANCH   1  21
BRANCH   7  23
HETATM   23  N6  UNL     1      44.626   7.047  21.786  1.00  0.00    -0.234 N 
ATOM     24  H62 UNL     1      43.778   7.374  21.322  1.00  0.00     0.174 HD
ATOM     25  H61 UNL     1      45.134   7.693  22.390  1.00  0.00     0.174 HD
ENDBRANCH   7  23
TORSDOF 3
ENDMDL
MODEL 2
REMARK VINA RESULT: -6.665670611      2.646      3.532
REMARK  3 active torsions:
REMARK  status: ('A' for Active; 'I' for Inactive)
REMARK    1  A    between atoms: S1_2  and  C2_3 
REMARK    2  A    between atoms: C3_6  and  C4_7 
REMARK    3  A    between atoms: C7_20  and  N6_21 
ROOT
HETATM    1  C2  UNL     1      43.758   6.049  18.696  1.00  0.00     0.160 A 
HETATM    2  N1  UNL     1      44.730   5.204  18.344  1.00  0.00    -0.320 N 
ATOM      3  H1  UNL     1      44.709   4.792  17.412  1.00  0.00     0.169 HD
HETATM    4  C3  UNL     1      45.751   4.871  19.186  1.00  0.00     0.157 A 
HETATM    5  N5  UNL     1      45.721   5.439  20.383  1.00  0.00    -0.174 N 
ATOM      6  H5  UNL     1      46.465   5.216  21.044  1.00  0.00     0.186 HD
HETATM    7  C7  UNL     1      44.739   6.310  20.776  1.00  0.00     0.679 A 
HETATM    8  N7  UNL     1      43.760   6.605  19.917  1.00  0.00    -0.171 N 
ATOM      9  H7  UNL     1      43.017   7.248  20.188  1.00  0.00     0.186 HD
ENDROOT
BRANCH   4  10
HETATM   10  C4  UNL     1      46.720   3.952  18.665  1.00  0.00     0.161 A 
HETATM   11  N2  UNL     1      46.364   2.680  18.333  1.00  0.00    -0.288 N 
HETATM   12  N3  UNL     1      47.171   1.783  17.856  1.00  0.00    -0.251 N 
ATOM     13  H2  UNL     1      45.389   2.412  18.471  1.00  0.00     0.187 HD
HETATM   14  C5  UNL     1      48.466   2.087  17.659  1.00  0.00     0.341 A 
ATOM     15  H3  UNL     1      46.825   0.850  17.633  1.00  0.00     0.191 HD
HETATM   16  O1  UNL     1      49.270   1.236  17.197  1.00  0.00    -0.245 OA
HETATM   17  N4  UNL     1      48.874   3.322  17.966  1.00  0.00    -0.272 N 
HETATM   18  C6  UNL     1      48.023   4.270  18.468  1.00  0.00     0.281 A 
ATOM     19  H4  UNL     1      49.854   3.567  17.820  1.00  0.00     0.174 HD
HETATM   20  O2  UNL     1      48.536   5.390  18.715  1.00  0.00    -0.265 OA
ENDBRANCH   4  10
BRANCH   1  21
HETATM   21  S1  UNL     1      42.448   6.427  17.510  1.00  0.00    -0.098 SA
HETATM   22  C1  UNL     1      43.021   5.898  15.874  1.00  0.00     0.099 C 
ENDBRANCH   1  21
BRANCH   7  23
HETATM   23  N6  UNL     1      44.755   6.836  21.953  1.00  0.00    -0.234 N 
ATOM     24  H62 UNL     1      43.917   7.276  22.334  1.00  0.00     0.174 HD
ATOM     25  H61 UNL     1      45.602   6.819  22.521  1.00  0.00     0.174 HD
ENDBRANCH   7  23
TORSDOF 3
ENDMDL
MODEL 3
REMARK VINA RESULT: -6.634643613      3.292      4.818
REMARK  3 active torsions:
REMARK  status: ('A' for Active; 'I' for Inactive)
REMARK    1  A    between atoms: S1_2  and  C2_3 
REMARK    2  A    between atoms: C3_6  and  C4_7 
REMARK    3  A    between atoms: C7_20  and  N6_21 
ROOT
HETATM    1  C2  UNL     1      46.080   5.012  17.950  1.00  0.00     0.160 A 
HETATM    2  N1  UNL     1      46.360   3.818  18.477  1.00  0.00    -0.320 N 
ATOM      3  H1  UNL     1      45.763   3.457  19.220  1.00  0.00     0.169 HD
HETATM    4  C3  UNL     1      47.416   3.062  18.057  1.00  0.00     0.157 A 
HETATM    5  N5  UNL     1      48.154   3.587  17.090  1.00  0.00    -0.174 N 
ATOM      6  H5  UNL     1      48.954   3.056  16.748  1.00  0.00     0.186 HD
HETATM    7  C7  UNL     1      47.894   4.810  16.527  1.00  0.00     0.679 A 
HETATM    8  N7  UNL     1      46.849   5.513  16.971  1.00  0.00    -0.171 N 
ATOM      9  H7  UNL     1      46.637   6.426  16.569  1.00  0.00     0.186 HD
ENDROOT
BRANCH   4  10
HETATM   10  C4  UNL     1      47.589   1.802  18.719  1.00  0.00     0.161 A 
HETATM   11  N2  UNL     1      46.767   1.435  19.741  1.00  0.00    -0.288 N 
HETATM   12  N3  UNL     1      46.849   0.317  20.395  1.00  0.00    -0.251 N 
ATOM     13  H2  UNL     1      46.032   2.088  20.014  1.00  0.00     0.187 HD
HETATM   14  C5  UNL     1      47.801  -0.576  20.074  1.00  0.00     0.341 A 
ATOM     15  H3  UNL     1      46.193   0.116  21.150  1.00  0.00     0.191 HD
HETATM   16  O1  UNL     1      47.902  -1.668  20.691  1.00  0.00    -0.245 OA
HETATM   17  N4  UNL     1      48.637  -0.271  19.077  1.00  0.00    -0.272 N 
HETATM   18  C6  UNL     1      48.552   0.908  18.386  1.00  0.00     0.281 A 
ATOM     19  H4  UNL     1      49.364  -0.940  18.822  1.00  0.00     0.174 HD
HETATM   20  O2  UNL     1      49.400   1.070  17.473  1.00  0.00    -0.265 OA
ENDBRANCH   4  10
BRANCH   1  21
HETATM   21  S1  UNL     1      44.658   5.938  18.574  1.00  0.00    -0.098 SA
HETATM   22  C1  UNL     1      44.757   5.940  20.383  1.00  0.00     0.099 C 
ENDBRANCH   1  21
BRANCH   7  23
HETATM   23  N6  UNL     1      48.643   5.276  15.587  1.00  0.00    -0.234 N 
ATOM     24  H62 UNL     1      49.579   5.623  15.796  1.00  0.00     0.174 HD
ATOM     25  H61 UNL     1      48.313   5.305  14.622  1.00  0.00     0.174 HD
ENDBRANCH   7  23
TORSDOF 3
ENDMDL
MODEL 4
REMARK VINA RESULT: -6.564108135      3.387      4.469
REMARK  3 active torsions:
REMARK  status: ('A' for Active; 'I' for Inactive)
REMARK    1  A    between atoms: S1_2  and  C2_3 
REMARK    2  A    between atoms: C3_6  and  C4_7 
REMARK    3  A    between atoms: C7_20  and  N6_21 
ROOT
HETATM    1  C2  UNL     1      45.716   0.638  20.625  1.00  0.00     0.160 A 
HETATM    2  N1  UNL     1      46.164   1.516  19.725  1.00  0.00    -0.320 N 
ATOM      3  H1  UNL     1      45.646   2.384  19.585  1.00  0.00     0.169 HD
HETATM    4  C3  UNL     1      47.289   1.297  18.986  1.00  0.00     0.157 A 
HETATM    5  N5  UNL     1      47.916   0.152  19.213  1.00  0.00    -0.174 N 
ATOM      6  H5  UNL     1      48.761  -0.053  18.680  1.00  0.00     0.186 HD
HETATM    7  C7  UNL     1      47.483  -0.771  20.130  1.00  0.00     0.679 A 
HETATM    8  N7  UNL     1      46.376  -0.512  20.829  1.00  0.00    -0.171 N 
ATOM      9  H7  UNL     1      46.034  -1.185  21.515  1.00  0.00     0.186 HD
ENDROOT
BRANCH   4  10
HETATM   10  C4  UNL     1      47.644   2.332  18.060  1.00  0.00     0.161 A 
HETATM   11  N2  UNL     1      48.809   3.023  18.203  1.00  0.00    -0.288 N 
HETATM   12  N3  UNL     1      49.210   3.974  17.415  1.00  0.00    -0.251 N 
ATOM     13  H2  UNL     1      49.410   2.777  18.989  1.00  0.00     0.187 HD
HETATM   14  C5  UNL     1      48.452   4.336  16.367  1.00  0.00     0.341 A 
ATOM     15  H3  UNL     1      50.098   4.443  17.592  1.00  0.00     0.191 HD
HETATM   16  O1  UNL     1      48.819   5.254  15.587  1.00  0.00    -0.245 OA
HETATM   17  N4  UNL     1      47.297   3.692  16.174  1.00  0.00    -0.272 N 
HETATM   18  C6  UNL     1      46.872   2.689  17.004  1.00  0.00     0.281 A 
ATOM     19  H4  UNL     1      46.712   3.957  15.381  1.00  0.00     0.174 HD
HETATM   20  O2  UNL     1      45.767   2.167  16.711  1.00  0.00    -0.265 OA
ENDBRANCH   4  10
BRANCH   1  21
HETATM   21  S1  UNL     1      44.214   1.020  21.556  1.00  0.00    -0.098 SA
HETATM   22  C1  UNL     1      43.163  -0.455  21.530  1.00  0.00     0.099 C 
ENDBRANCH   1  21
BRANCH   7  23
HETATM   23  N6  UNL     1      48.130  -1.871  20.314  1.00  0.00    -0.234 N 
ATOM     24  H62 UNL     1      47.630  -2.735  20.527  1.00  0.00     0.174 HD
ATOM     25  H61 UNL     1      49.147  -1.896  20.250  1.00  0.00     0.174 HD
ENDBRANCH   7  23
TORSDOF 3
ENDMDL
MODEL 5
REMARK VINA RESULT: -6.472465282      3.104      4.416
REMARK  3 active torsions:
REMARK  status: ('A' for Active; 'I' for Inactive)
REMARK    1  A    between atoms: S1_2  and  C2_3 
REMARK    2  A    between atoms: C3_6  and  C4_7 
REMARK    3  A    between atoms: C7_20  and  N6_21 
ROOT
HETATM    1  C2  UNL     1      45.558   0.567  20.857  1.00  0.00     0.160 A 
HETATM    2  N1  UNL     1      46.044   1.450  19.980  1.00  0.00    -0.320 N 
ATOM      3  H1  UNL     1      45.555   2.336  19.854  1.00  0.00     0.169 HD
HETATM    4  C3  UNL     1      47.170   1.211  19.248  1.00  0.00     0.157 A 
HETATM    5  N5  UNL     1      47.758   0.043  19.457  1.00  0.00    -0.174 N 
ATOM      6  H5  UNL     1      48.602  -0.177  18.929  1.00  0.00     0.186 HD
HETATM    7  C7  UNL     1      47.287  -0.886  20.349  1.00  0.00     0.679 A 
HETATM    8  N7  UNL     1      46.181  -0.607  21.043  1.00  0.00    -0.171 N 
ATOM      9  H7  UNL     1      45.811  -1.283  21.710  1.00  0.00     0.186 HD
ENDROOT
BRANCH   4  10
HETATM   10  C4  UNL     1      47.567   2.255  18.349  1.00  0.00     0.161 A 
HETATM   11  N2  UNL     1      46.940   3.464  18.367  1.00  0.00    -0.288 N 
HETATM   12  N3  UNL     1      47.233   4.463  17.592  1.00  0.00    -0.251 N 
ATOM     13  H2  UNL     1      46.185   3.594  19.039  1.00  0.00     0.187 HD
HETATM   14  C5  UNL     1      48.220   4.341  16.688  1.00  0.00     0.341 A 
ATOM     15  H3  UNL     1      46.715   5.338  17.668  1.00  0.00     0.191 HD
HETATM   16  O1  UNL     1      48.524   5.295  15.925  1.00  0.00    -0.245 OA
HETATM   17  N4  UNL     1      48.872   3.176  16.624  1.00  0.00    -0.272 N 
HETATM   18  C6  UNL     1      48.565   2.121  17.442  1.00  0.00     0.281 A 
ATOM     19  H4  UNL     1      49.625   3.069  15.943  1.00  0.00     0.174 HD
HETATM   20  O2  UNL     1      49.255   1.083  17.277  1.00  0.00    -0.265 OA
ENDBRANCH   4  10
BRANCH   1  21
HETATM   21  S1  UNL     1      44.059   0.976  21.780  1.00  0.00    -0.098 SA
HETATM   22  C1  UNL     1      42.961  -0.463  21.707  1.00  0.00     0.099 C 
ENDBRANCH   1  21
BRANCH   7  23
HETATM   23  N6  UNL     1      47.897  -2.009  20.517  1.00  0.00    -0.234 N 
ATOM     24  H62 UNL     1      48.858  -2.129  20.194  1.00  0.00     0.174 HD
ATOM     25  H61 UNL     1      47.432  -2.793  20.975  1.00  0.00     0.174 HD
ENDBRANCH   7  23
TORSDOF 3
ENDMDL
