MODEL 1
REMARK VINA RESULT: -7.151719208      0.000      0.000
REMARK  4 active torsions:
REMARK  status: ('A' for Active; 'I' for Inactive)
REMARK    1  A    between atoms: C2_2  and  N1_4 
REMARK    2  A    between atoms: N1_4  and  C4_6 
REMARK    3  A    between atoms: C8_18  and  N6_19 
REMARK    4  A    between atoms: N6_19  and  C9_21 
ROOT
HETATM    1  C4  UNL     1      45.593   2.665  18.767  1.00  0.00     0.120 A 
HETATM    2  N2  UNL     1      44.652   2.510  19.692  1.00  0.00    -0.338 N 
ATOM      3  H2  UNL     1      43.840   3.128  19.680  1.00  0.00     0.168 HD
HETATM    4  C5  UNL     1      44.739   1.565  20.643  1.00  0.00     0.183 A 
HETATM    5  N3  UNL     1      45.780   0.719  20.714  1.00  0.00    -0.338 N 
ATOM      6  H3  UNL     1      45.827   0.008  21.443  1.00  0.00     0.168 HD
HETATM    7  C6  UNL     1      46.774   0.836  19.785  1.00  0.00     0.124 A 
HETATM    8  N4  UNL     1      47.844  -0.000  19.825  1.00  0.00    -0.338 N 
ATOM      9  H4  UNL     1      47.919  -0.721  20.543  1.00  0.00     0.168 HD
HETATM   10  C7  UNL     1      48.802   0.145  18.893  1.00  0.00     0.183 A 
HETATM   11  N5  UNL     1      48.725   1.089  17.937  1.00  0.00    -0.338 N 
ATOM     12  H5  UNL     1      49.475   1.164  17.250  1.00  0.00     0.168 HD
HETATM   13  C8  UNL     1      47.693   1.930  17.864  1.00  0.00     0.122 A 
HETATM   14  C10 UNL     1      46.685   1.807  18.810  1.00  0.00     0.096 A 
ENDROOT
BRANCH  13  15
HETATM   15  N6  UNL     1      47.568   2.849  16.973  1.00  0.00    -0.339 N 
ATOM     16  H6  UNL     1      46.679   2.930  16.479  1.00  0.00     0.164 HD
BRANCH  15  17
HETATM   17  C9  UNL     1      48.626   3.769  16.641  1.00  0.00     0.315 C 
HETATM   18  N7  UNL     1      48.045   4.964  16.056  1.00  0.00    -0.285 N 
HETATM   19  N8  UNL     1      47.953   5.886  16.913  1.00  0.00    -0.231 N 
ATOM     20  H7  UNL     1      47.751   5.047  15.083  1.00  0.00     0.185 HD
HETATM   21  N9  UNL     1      48.448   5.414  18.118  1.00  0.00    -0.012 NA
ATOM     22  H8  UNL     1      47.578   6.820  16.746  1.00  0.00     0.205 HD
HETATM   23  N10 UNL     1      49.268   4.318  17.842  1.00  0.00    -0.077 NA
ENDBRANCH  15  17
ENDBRANCH  13  15
BRANCH   1  24
HETATM   24  N1  UNL     1      45.556   3.556  17.835  1.00  0.00    -0.371 N 
ATOM     25  H1  UNL     1      46.298   3.550  17.136  1.00  0.00     0.161 HD
BRANCH  24  26
HETATM   26  C2  UNL     1      44.538   4.551  17.725  1.00  0.00     0.075 C 
HETATM   27  C1  UNL     1      44.951   5.740  18.593  1.00  0.00     0.031 C 
HETATM   28  C3  UNL     1      44.346   5.075  16.323  1.00  0.00     0.031 C 
ENDBRANCH  24  26
ENDBRANCH   1  24
TORSDOF 4
ENDMDL
MODEL 2
REMARK VINA RESULT: -6.892769969      2.014      4.585
REMARK  4 active torsions:
REMARK  status: ('A' for Active; 'I' for Inactive)
REMARK    1  A    between atoms: C2_2  and  N1_4 
REMARK    2  A    between atoms: N1_4  and  C4_6 
REMARK    3  A    between atoms: C8_18  and  N6_19 
REMARK    4  A    between atoms: N6_19  and  C9_21 
ROOT
HETATM    1  C4  UNL     1      47.001   1.953  19.336  1.00  0.00     0.120 A 
HETATM    2  N2  UNL     1      47.749   0.868  19.167  1.00  0.00    -0.338 N 
ATOM      3  H2  UNL     1      47.564   0.045  19.741  1.00  0.00     0.168 HD
HETATM    4  C5  UNL     1      48.743   0.823  18.264  1.00  0.00     0.183 A 
HETATM    5  N3  UNL     1      49.037   1.870  17.476  1.00  0.00    -0.338 N 
ATOM      6  H3  UNL     1      49.794   1.816  16.795  1.00  0.00     0.168 HD
HETATM    7  C6  UNL     1      48.297   3.009  17.610  1.00  0.00     0.124 A 
HETATM    8  N4  UNL     1      48.565   4.091  16.831  1.00  0.00    -0.338 N 
ATOM      9  H4  UNL     1      49.317   4.066  16.142  1.00  0.00     0.168 HD
HETATM   10  C7  UNL     1      47.814   5.194  16.991  1.00  0.00     0.183 A 
HETATM   11  N5  UNL     1      46.817   5.249  17.894  1.00  0.00    -0.338 N 
ATOM     12  H5  UNL     1      46.273   6.108  17.982  1.00  0.00     0.168 HD
HETATM   13  C8  UNL     1      46.523   4.212  18.677  1.00  0.00     0.122 A 
HETATM   14  C10 UNL     1      47.278   3.056  18.538  1.00  0.00     0.096 A 
ENDROOT
BRANCH  13  15
HETATM   15  N6  UNL     1      45.583   4.210  19.555  1.00  0.00    -0.339 N 
ATOM     16  H6  UNL     1      44.998   3.379  19.640  1.00  0.00     0.164 HD
BRANCH  15  17
HETATM   17  C9  UNL     1      45.318   5.329  20.423  1.00  0.00     0.315 C 
HETATM   18  N7  UNL     1      44.285   4.955  21.371  1.00  0.00    -0.285 N 
HETATM   19  N8  UNL     1      44.787   4.629  22.482  1.00  0.00    -0.231 N 
ATOM     20  H7  UNL     1      43.285   4.956  21.166  1.00  0.00     0.185 HD
HETATM   21  N9  UNL     1      46.165   4.748  22.390  1.00  0.00    -0.012 NA
ATOM     22  H8  UNL     1      44.267   4.328  23.306  1.00  0.00     0.205 HD
HETATM   23  N10 UNL     1      46.448   5.601  21.321  1.00  0.00    -0.077 NA
ENDBRANCH  15  17
ENDBRANCH  13  15
BRANCH   1  24
HETATM   24  N1  UNL     1      46.038   2.046  20.189  1.00  0.00    -0.371 N 
ATOM     25  H1  UNL     1      45.843   2.962  20.594  1.00  0.00     0.161 HD
BRANCH  24  26
HETATM   26  C2  UNL     1      45.229   0.944  20.600  1.00  0.00     0.075 C 
HETATM   27  C1  UNL     1      44.544   1.331  21.911  1.00  0.00     0.031 C 
HETATM   28  C3  UNL     1      44.137   0.590  19.621  1.00  0.00     0.031 C 
ENDBRANCH  24  26
ENDBRANCH   1  24
TORSDOF 4
ENDMDL
MODEL 3
REMARK VINA RESULT: -6.653929939      1.760      4.138
REMARK  4 active torsions:
REMARK  status: ('A' for Active; 'I' for Inactive)
REMARK    1  A    between atoms: C2_2  and  N1_4 
REMARK    2  A    between atoms: N1_4  and  C4_6 
REMARK    3  A    between atoms: C8_18  and  N6_19 
REMARK    4  A    between atoms: N6_19  and  C9_21 
ROOT
HETATM    1  C4  UNL     1      47.075   1.815  19.329  1.00  0.00     0.120 A 
HETATM    2  N2  UNL     1      47.690   0.655  19.535  1.00  0.00    -0.338 N 
ATOM      3  H2  UNL     1      47.434   0.097  20.350  1.00  0.00     0.168 HD
HETATM    4  C5  UNL     1      48.639   0.195  18.702  1.00  0.00     0.183 A 
HETATM    5  N3  UNL     1      49.022   0.880  17.612  1.00  0.00    -0.338 N 
ATOM      6  H3  UNL     1      49.744   0.514  16.991  1.00  0.00     0.168 HD
HETATM    7  C6  UNL     1      48.420   2.078  17.355  1.00  0.00     0.124 A 
HETATM    8  N4  UNL     1      48.781   2.800  16.261  1.00  0.00    -0.338 N 
ATOM      9  H4  UNL     1      49.501   2.460  15.623  1.00  0.00     0.168 HD
HETATM   10  C7  UNL     1      48.165   3.974  16.041  1.00  0.00     0.183 A 
HETATM   11  N5  UNL     1      47.214   4.444  16.870  1.00  0.00    -0.338 N 
ATOM     12  H5  UNL     1      46.773   5.340  16.664  1.00  0.00     0.168 HD
HETATM   13  C8  UNL     1      46.832   3.767  17.952  1.00  0.00     0.122 A 
HETATM   14  C10 UNL     1      47.447   2.550  18.210  1.00  0.00     0.096 A 
ENDROOT
BRANCH  13  15
HETATM   15  N6  UNL     1      45.929   4.168  18.777  1.00  0.00    -0.339 N 
ATOM     16  H6  UNL     1      45.141   3.550  18.973  1.00  0.00     0.164 HD
BRANCH  15  17
HETATM   17  C9  UNL     1      45.980   5.448  19.435  1.00  0.00     0.315 C 
HETATM   18  N7  UNL     1      44.829   5.574  20.309  1.00  0.00    -0.285 N 
HETATM   19  N8  UNL     1      45.138   5.312  21.504  1.00  0.00    -0.231 N 
ATOM     20  H7  UNL     1      43.894   5.840  19.999  1.00  0.00     0.185 HD
HETATM   21  N9  UNL     1      46.486   4.993  21.547  1.00  0.00    -0.012 NA
ATOM     22  H8  UNL     1      44.503   5.331  22.303  1.00  0.00     0.205 HD
HETATM   23  N10 UNL     1      47.084   5.520  20.401  1.00  0.00    -0.077 NA
ENDBRANCH  15  17
ENDBRANCH  13  15
BRANCH   1  24
HETATM   24  N1  UNL     1      46.160   2.298  20.098  1.00  0.00    -0.371 N 
ATOM     25  H1  UNL     1      46.266   3.259  20.424  1.00  0.00     0.161 HD
BRANCH  24  26
HETATM   26  C2  UNL     1      45.007   1.570  20.519  1.00  0.00     0.075 C 
HETATM   27  C1  UNL     1      44.490   0.778  19.318  1.00  0.00     0.031 C 
HETATM   28  C3  UNL     1      45.282   0.573  21.618  1.00  0.00     0.031 C 
ENDBRANCH  24  26
ENDBRANCH   1  24
TORSDOF 4
ENDMDL
MODEL 4
REMARK VINA RESULT: -6.627132964      1.713      4.596
REMARK  4 active torsions:
REMARK  status: ('A' for Active; 'I' for Inactive)
REMARK    1  A    between atoms: C2_2  and  N1_4 
REMARK    2  A    between atoms: N1_4  and  C4_6 
REMARK    3  A    between atoms: C8_18  and  N6_19 
REMARK    4  A    between atoms: N6_19  and  C9_21 
ROOT
HETATM    1  C4  UNL     1      46.649   4.408  18.526  1.00  0.00     0.120 A 
HETATM    2  N2  UNL     1      46.784   5.437  17.698  1.00  0.00    -0.338 N 
ATOM      3  H2  UNL     1      46.253   6.290  17.877  1.00  0.00     0.168 HD
HETATM    4  C5  UNL     1      47.599   5.389  16.630  1.00  0.00     0.183 A 
HETATM    5  N3  UNL     1      48.326   4.299  16.339  1.00  0.00    -0.338 N 
ATOM      6  H3  UNL     1      48.940   4.282  15.524  1.00  0.00     0.168 HD
HETATM    7  C6  UNL     1      48.224   3.213  17.160  1.00  0.00     0.124 A 
HETATM    8  N4  UNL     1      48.944   2.090  16.897  1.00  0.00    -0.338 N 
ATOM      9  H4  UNL     1      49.565   2.044  16.089  1.00  0.00     0.168 HD
HETATM   10  C7  UNL     1      48.818   1.042  17.729  1.00  0.00     0.183 A 
HETATM   11  N5  UNL     1      48.003   1.081  18.801  1.00  0.00    -0.338 N 
ATOM     12  H5  UNL     1      47.938   0.261  19.405  1.00  0.00     0.168 HD
HETATM   13  C8  UNL     1      47.280   2.161  19.093  1.00  0.00     0.122 A 
HETATM   14  C10 UNL     1      47.387   3.262  18.255  1.00  0.00     0.096 A 
ENDROOT
BRANCH  13  15
HETATM   15  N6  UNL     1      46.488   2.252  20.102  1.00  0.00    -0.339 N 
ATOM     16  H6  UNL     1      46.573   3.063  20.716  1.00  0.00     0.164 HD
BRANCH  15  17
HETATM   17  C9  UNL     1      45.486   1.262  20.405  1.00  0.00     0.315 C 
HETATM   18  N7  UNL     1      45.459   1.042  21.839  1.00  0.00    -0.285 N 
HETATM   19  N8  UNL     1      44.519   1.688  22.378  1.00  0.00    -0.231 N 
ATOM     20  H7  UNL     1      46.115   0.445  22.344  1.00  0.00     0.185 HD
HETATM   21  N9  UNL     1      43.842   2.383  21.387  1.00  0.00    -0.012 NA
ATOM     22  H8  UNL     1      44.294   1.697  23.373  1.00  0.00     0.205 HD
HETATM   23  N10 UNL     1      44.129   1.769  20.166  1.00  0.00    -0.077 NA
ENDBRANCH  15  17
ENDBRANCH  13  15
BRANCH   1  24
HETATM   24  N1  UNL     1      45.881   4.405  19.562  1.00  0.00    -0.371 N 
ATOM     25  H1  UNL     1      45.352   3.556  19.765  1.00  0.00     0.161 HD
BRANCH  24  26
HETATM   26  C2  UNL     1      45.726   5.518  20.442  1.00  0.00     0.075 C 
HETATM   27  C1  UNL     1      44.263   5.958  20.386  1.00  0.00     0.031 C 
HETATM   28  C3  UNL     1      46.036   5.204  21.885  1.00  0.00     0.031 C 
ENDBRANCH  24  26
ENDBRANCH   1  24
TORSDOF 4
ENDMDL
MODEL 5
REMARK VINA RESULT: -6.573194206      1.445      4.244
REMARK  4 active torsions:
REMARK  status: ('A' for Active; 'I' for Inactive)
REMARK    1  A    between atoms: C2_2  and  N1_4 
REMARK    2  A    between atoms: N1_4  and  C4_6 
REMARK    3  A    between atoms: C8_18  and  N6_19 
REMARK    4  A    between atoms: N6_19  and  C9_21 
ROOT
HETATM    1  C4  UNL     1      47.096   4.260  17.555  1.00  0.00     0.120 A 
HETATM    2  N2  UNL     1      47.573   4.835  16.457  1.00  0.00    -0.338 N 
ATOM      3  H2  UNL     1      47.231   5.760  16.195  1.00  0.00     0.168 HD
HETATM    4  C5  UNL     1      48.493   4.236  15.683  1.00  0.00     0.183 A 
HETATM    5  N3  UNL     1      48.986   3.021  15.973  1.00  0.00    -0.338 N 
ATOM      6  H3  UNL     1      49.685   2.583  15.373  1.00  0.00     0.168 HD
HETATM    7  C6  UNL     1      48.528   2.387  17.091  1.00  0.00     0.124 A 
HETATM    8  N4  UNL     1      49.002   1.155  17.418  1.00  0.00    -0.338 N 
ATOM      9  H4  UNL     1      49.700   0.692  16.836  1.00  0.00     0.168 HD
HETATM   10  C7  UNL     1      48.527   0.563  18.527  1.00  0.00     0.183 A 
HETATM   11  N5  UNL     1      47.605   1.154  19.309  1.00  0.00    -0.338 N 
ATOM     12  H5  UNL     1      47.273   0.667  20.142  1.00  0.00     0.168 HD
HETATM   13  C8  UNL     1      47.115   2.360  19.024  1.00  0.00     0.122 A 
HETATM   14  C10 UNL     1      47.583   3.001  17.886  1.00  0.00     0.096 A 
ENDROOT
BRANCH  13  15
HETATM   15  N6  UNL     1      46.234   2.971  19.735  1.00  0.00    -0.339 N 
ATOM     16  H6  UNL     1      46.079   3.966  19.569  1.00  0.00     0.164 HD
BRANCH  15  17
HETATM   17  C9  UNL     1      45.456   2.315  20.755  1.00  0.00     0.315 C 
HETATM   18  N7  UNL     1      45.644   3.013  22.013  1.00  0.00    -0.285 N 
HETATM   19  N8  UNL     1      44.684   3.798  22.242  1.00  0.00    -0.231 N 
ATOM     20  H7  UNL     1      46.447   2.886  22.630  1.00  0.00     0.185 HD
HETATM   21  N9  UNL     1      43.784   3.706  21.192  1.00  0.00    -0.012 NA
ATOM     22  H8  UNL     1      44.586   4.398  23.061  1.00  0.00     0.205 HD
HETATM   23  N10 UNL     1      44.014   2.494  20.540  1.00  0.00    -0.077 NA
ENDBRANCH  15  17
ENDBRANCH  13  15
BRANCH   1  24
HETATM   24  N1  UNL     1      46.213   4.793  18.330  1.00  0.00    -0.371 N 
ATOM     25  H1  UNL     1      46.210   4.519  19.312  1.00  0.00     0.161 HD
BRANCH  24  26
HETATM   26  C2  UNL     1      45.241   5.743  17.894  1.00  0.00     0.075 C 
HETATM   27  C1  UNL     1      44.263   5.020  16.968  1.00  0.00     0.031 C 
HETATM   28  C3  UNL     1      44.426   6.340  19.014  1.00  0.00     0.031 C 
ENDBRANCH  24  26
ENDBRANCH   1  24
TORSDOF 4
ENDMDL
