MODEL 1
REMARK VINA RESULT: -8.728381629      0.000      0.000
REMARK  5 active torsions:
REMARK  status: ('A' for Active; 'I' for Inactive)
REMARK    1  A    between atoms: C2_2  and  N1_3 
REMARK    2  A    between atoms: C3_8  and  C4_9 
REMARK    3  A    between atoms: C4_9  and  C5_10 
REMARK    4  A    between atoms: C5_10  and  O1_13 
REMARK    5  A    between atoms: O1_13  and  C7_14 
ROOT
HETATM    1  C5  UNL     1      26.441  -5.694  -4.512  1.00  0.00     0.241 C 
HETATM    2  C6  UNL     1      25.600  -4.744  -3.699  1.00  0.00     0.092 C 
HETATM    3  N4  UNL     1      24.954  -3.977  -3.088  1.00  0.00    -0.194 NA
ENDROOT
BRANCH   1   4
HETATM    4  C4  UNL     1      27.774  -5.010  -4.565  1.00  0.00     0.108 C 
BRANCH   4   5
HETATM    5  C3  UNL     1      27.822  -3.647  -5.068  1.00  0.00     0.054 A 
HETATM    6  N3  UNL     1      27.561  -3.251  -6.342  1.00  0.00    -0.288 N 
HETATM    7  N2  UNL     1      27.710  -1.942  -6.410  1.00  0.00    -0.240 N 
ATOM      8  H3  UNL     1      27.295  -3.863  -7.114  1.00  0.00     0.188 HD
HETATM    9  N1  UNL     1      28.059  -1.475  -5.226  1.00  0.00    -0.281 N 
ATOM     10  H2  UNL     1      27.577  -1.378  -7.250  1.00  0.00     0.208 HD
HETATM   11  C14 UNL     1      28.141  -2.485  -4.363  1.00  0.00     0.050 A 
HETATM   12  C15 UNL     1      28.497  -2.439  -2.926  1.00  0.00     0.072 C 
BRANCH   9  13
HETATM   13  C2  UNL     1      28.300  -0.077  -4.965  1.00  0.00     0.146 C 
HETATM   14  C1  UNL     1      27.018   0.619  -4.570  1.00  0.00     0.028 C 
ENDBRANCH   9  13
ENDBRANCH   4   5
ENDBRANCH   1   4
BRANCH   1  15
HETATM   15  O1  UNL     1      26.541  -6.942  -3.935  1.00  0.00    -0.329 OA
BRANCH  15  16
HETATM   16  C7  UNL     1      26.801  -8.174  -4.471  1.00  0.00     0.100 A 
HETATM   17  C8  UNL     1      26.355  -8.640  -5.686  1.00  0.00     0.069 A 
HETATM   18 CL1  UNL     1      25.358  -7.602  -6.676  1.00  0.00    -0.081 Cl
HETATM   19  C9  UNL     1      26.660  -9.904  -6.173  1.00  0.00     0.052 A 
HETATM   20  C10 UNL     1      27.438 -10.776  -5.457  1.00  0.00     0.058 A 
HETATM   21 CL2  UNL     1      27.824 -12.377  -6.071  1.00  0.00    -0.082 Cl
HETATM   22  C11 UNL     1      27.901 -10.349  -4.248  1.00  0.00     0.064 A 
HETATM   23 CL3  UNL     1      28.904 -11.450  -3.307  1.00  0.00    -0.082 Cl
HETATM   24  C12 UNL     1      27.597  -9.074  -3.754  1.00  0.00    -0.003 A 
HETATM   25  C13 UNL     1      28.202  -8.726  -2.467  1.00  0.00     0.053 C 
ENDBRANCH  15  16
ENDBRANCH   1  15
TORSDOF 5
ENDMDL
MODEL 2
REMARK VINA RESULT: -8.610626181      1.835      2.823
REMARK  5 active torsions:
REMARK  status: ('A' for Active; 'I' for Inactive)
REMARK    1  A    between atoms: C2_2  and  N1_3 
REMARK    2  A    between atoms: C3_8  and  C4_9 
REMARK    3  A    between atoms: C4_9  and  C5_10 
REMARK    4  A    between atoms: C5_10  and  O1_13 
REMARK    5  A    between atoms: O1_13  and  C7_14 
ROOT
HETATM    1  C5  UNL     1      27.182  -6.649  -4.043  1.00  0.00     0.241 C 
HETATM    2  C6  UNL     1      26.425  -5.864  -5.083  1.00  0.00     0.092 C 
HETATM    3  N4  UNL     1      25.855  -5.223  -5.884  1.00  0.00    -0.194 NA
ENDROOT
BRANCH   1   4
HETATM    4  C4  UNL     1      26.995  -5.834  -2.798  1.00  0.00     0.108 C 
BRANCH   4   5
HETATM    5  C3  UNL     1      26.926  -4.388  -2.933  1.00  0.00     0.054 A 
HETATM    6  N3  UNL     1      25.812  -3.621  -2.805  1.00  0.00    -0.288 N 
HETATM    7  N2  UNL     1      26.149  -2.360  -2.999  1.00  0.00    -0.240 N 
ATOM      8  H3  UNL     1      24.874  -3.963  -2.593  1.00  0.00     0.188 HD
HETATM    9  N1  UNL     1      27.442  -2.282  -3.250  1.00  0.00    -0.281 N 
ATOM     10  H2  UNL     1      25.508  -1.567  -2.961  1.00  0.00     0.208 HD
HETATM   11  C14 UNL     1      27.969  -3.504  -3.221  1.00  0.00     0.050 A 
HETATM   12  C15 UNL     1      29.378  -3.904  -3.443  1.00  0.00     0.072 C 
BRANCH   9  13
HETATM   13  C2  UNL     1      28.126  -1.039  -3.508  1.00  0.00     0.146 C 
HETATM   14  C1  UNL     1      28.168  -0.753  -4.992  1.00  0.00     0.028 C 
ENDBRANCH   9  13
ENDBRANCH   4   5
ENDBRANCH   1   4
BRANCH   1  15
HETATM   15  O1  UNL     1      26.692  -7.928  -3.882  1.00  0.00    -0.329 OA
BRANCH  15  16
HETATM   16  C7  UNL     1      27.255  -9.153  -4.113  1.00  0.00     0.100 A 
HETATM   17  C8  UNL     1      28.057  -9.854  -3.244  1.00  0.00     0.069 A 
HETATM   18 CL1  UNL     1      28.424  -9.159  -1.684  1.00  0.00    -0.081 Cl
HETATM   19  C9  UNL     1      28.595 -11.100  -3.543  1.00  0.00     0.052 A 
HETATM   20  C10 UNL     1      28.352 -11.711  -4.745  1.00  0.00     0.058 A 
HETATM   21 CL2  UNL     1      29.032 -13.287  -5.126  1.00  0.00    -0.082 Cl
HETATM   22  C11 UNL     1      27.558 -11.048  -5.633  1.00  0.00     0.064 A 
HETATM   23 CL3  UNL     1      27.229 -11.812  -7.185  1.00  0.00    -0.082 Cl
HETATM   24  C12 UNL     1      27.013  -9.793  -5.334  1.00  0.00    -0.003 A 
HETATM   25  C13 UNL     1      26.138  -9.216  -6.356  1.00  0.00     0.053 C 
ENDBRANCH  15  16
ENDBRANCH   1  15
TORSDOF 5
ENDMDL
MODEL 3
REMARK VINA RESULT: -8.568556719      1.718      2.068
REMARK  5 active torsions:
REMARK  status: ('A' for Active; 'I' for Inactive)
REMARK    1  A    between atoms: C2_2  and  N1_3 
REMARK    2  A    between atoms: C3_8  and  C4_9 
REMARK    3  A    between atoms: C4_9  and  C5_10 
REMARK    4  A    between atoms: C5_10  and  O1_13 
REMARK    5  A    between atoms: O1_13  and  C7_14 
ROOT
HETATM    1  C5  UNL     1      26.665  -7.636  -3.893  1.00  0.00     0.241 C 
HETATM    2  C6  UNL     1      26.249  -7.017  -2.583  1.00  0.00     0.092 C 
HETATM    3  N4  UNL     1      25.921  -6.503  -1.580  1.00  0.00    -0.194 NA
ENDROOT
BRANCH   1   4
HETATM    4  C4  UNL     1      27.799  -6.761  -4.339  1.00  0.00     0.108 C 
BRANCH   4   5
HETATM    5  C3  UNL     1      27.490  -5.400  -4.747  1.00  0.00     0.054 A 
HETATM    6  N3  UNL     1      26.469  -5.017  -5.558  1.00  0.00    -0.288 N 
HETATM    7  N2  UNL     1      26.517  -3.705  -5.697  1.00  0.00    -0.240 N 
ATOM      8  H3  UNL     1      25.782  -5.638  -5.985  1.00  0.00     0.188 HD
HETATM    9  N1  UNL     1      27.533  -3.225  -5.005  1.00  0.00    -0.281 N 
ATOM     10  H2  UNL     1      25.868  -3.149  -6.254  1.00  0.00     0.208 HD
HETATM   11  C14 UNL     1      28.165  -4.228  -4.401  1.00  0.00     0.050 A 
HETATM   12  C15 UNL     1      29.357  -4.167  -3.523  1.00  0.00     0.072 C 
BRANCH   9  13
HETATM   13  C2  UNL     1      27.861  -1.822  -4.949  1.00  0.00     0.146 C 
HETATM   14  C1  UNL     1      27.847  -1.216  -6.334  1.00  0.00     0.028 C 
ENDBRANCH   9  13
ENDBRANCH   4   5
ENDBRANCH   1   4
BRANCH   1  15
HETATM   15  O1  UNL     1      27.070  -8.947  -3.756  1.00  0.00    -0.329 OA
BRANCH  15  16
HETATM   16  C7  UNL     1      27.255  -9.942  -4.678  1.00  0.00     0.100 A 
HETATM   17  C8  UNL     1      26.699  -9.997  -5.934  1.00  0.00     0.069 A 
HETATM   18 CL1  UNL     1      25.648  -8.702  -6.452  1.00  0.00    -0.081 Cl
HETATM   19  C9  UNL     1      26.932 -11.039  -6.823  1.00  0.00     0.052 A 
HETATM   20  C10 UNL     1      27.746 -12.090  -6.491  1.00  0.00     0.058 A 
HETATM   21 CL2  UNL     1      28.042 -13.410  -7.614  1.00  0.00    -0.082 Cl
HETATM   22  C11 UNL     1      28.318 -12.070  -5.254  1.00  0.00     0.064 A 
HETATM   23 CL3  UNL     1      29.369 -13.410  -4.803  1.00  0.00    -0.082 Cl
HETATM   24  C12 UNL     1      28.086 -11.021  -4.356  1.00  0.00    -0.003 A 
HETATM   25  C13 UNL     1      28.804 -11.099  -3.082  1.00  0.00     0.053 C 
ENDBRANCH  15  16
ENDBRANCH   1  15
TORSDOF 5
ENDMDL
MODEL 4
REMARK VINA RESULT: -8.243741496      1.196      1.366
REMARK  5 active torsions:
REMARK  status: ('A' for Active; 'I' for Inactive)
REMARK    1  A    between atoms: C2_2  and  N1_3 
REMARK    2  A    between atoms: C3_8  and  C4_9 
REMARK    3  A    between atoms: C4_9  and  C5_10 
REMARK    4  A    between atoms: C5_10  and  O1_13 
REMARK    5  A    between atoms: O1_13  and  C7_14 
ROOT
HETATM    1  C5  UNL     1      26.947  -5.761  -4.328  1.00  0.00     0.241 C 
HETATM    2  C6  UNL     1      25.821  -4.934  -4.893  1.00  0.00     0.092 C 
HETATM    3  N4  UNL     1      24.966  -4.261  -5.334  1.00  0.00    -0.194 NA
ENDROOT
BRANCH   1   4
HETATM    4  C4  UNL     1      27.398  -4.960  -3.143  1.00  0.00     0.108 C 
BRANCH   4   5
HETATM    5  C3  UNL     1      27.808  -3.583  -3.367  1.00  0.00     0.054 A 
HETATM    6  N3  UNL     1      28.798  -3.164  -4.197  1.00  0.00    -0.288 N 
HETATM    7  N2  UNL     1      28.872  -1.848  -4.128  1.00  0.00    -0.240 N 
ATOM      8  H3  UNL     1      29.385  -3.765  -4.776  1.00  0.00     0.188 HD
HETATM    9  N1  UNL     1      27.964  -1.399  -3.282  1.00  0.00    -0.281 N 
ATOM     10  H2  UNL     1      29.530  -1.268  -4.649  1.00  0.00     0.208 HD
HETATM   11  C14 UNL     1      27.281  -2.428  -2.785  1.00  0.00     0.050 A 
HETATM   12  C15 UNL     1      26.171  -2.406  -1.805  1.00  0.00     0.072 C 
BRANCH   9  13
HETATM   13  C2  UNL     1      27.785  -0.000  -2.981  1.00  0.00     0.146 C 
HETATM   14  C1  UNL     1      27.272   0.743  -4.193  1.00  0.00     0.028 C 
ENDBRANCH   9  13
ENDBRANCH   4   5
ENDBRANCH   1   4
BRANCH   1  15
HETATM   15  O1  UNL     1      26.542  -7.025  -3.953  1.00  0.00    -0.329 OA
BRANCH  15  16
HETATM   16  C7  UNL     1      26.803  -8.258  -4.485  1.00  0.00     0.100 A 
HETATM   17  C8  UNL     1      26.348  -8.733  -5.693  1.00  0.00     0.069 A 
HETATM   18 CL1  UNL     1      25.338  -7.705  -6.680  1.00  0.00    -0.081 Cl
HETATM   19  C9  UNL     1      26.655  -9.999  -6.176  1.00  0.00     0.052 A 
HETATM   20  C10 UNL     1      27.443 -10.863  -5.461  1.00  0.00     0.058 A 
HETATM   21 CL2  UNL     1      27.831 -12.465  -6.070  1.00  0.00    -0.082 Cl
HETATM   22  C11 UNL     1      27.915 -10.427  -4.259  1.00  0.00     0.064 A 
HETATM   23 CL3  UNL     1      28.930 -11.518  -3.320  1.00  0.00    -0.082 Cl
HETATM   24  C12 UNL     1      27.609  -9.151  -3.770  1.00  0.00    -0.003 A 
HETATM   25  C13 UNL     1      28.224  -8.793  -2.490  1.00  0.00     0.053 C 
ENDBRANCH  15  16
ENDBRANCH   1  15
TORSDOF 5
ENDMDL
MODEL 5
REMARK VINA RESULT: -8.237477802      1.444      1.896
REMARK  5 active torsions:
REMARK  status: ('A' for Active; 'I' for Inactive)
REMARK    1  A    between atoms: C2_2  and  N1_3 
REMARK    2  A    between atoms: C3_8  and  C4_9 
REMARK    3  A    between atoms: C4_9  and  C5_10 
REMARK    4  A    between atoms: C5_10  and  O1_13 
REMARK    5  A    between atoms: O1_13  and  C7_14 
ROOT
HETATM    1  C5  UNL     1      27.147  -6.620  -4.157  1.00  0.00     0.241 C 
HETATM    2  C6  UNL     1      26.409  -5.739  -5.132  1.00  0.00     0.092 C 
HETATM    3  N4  UNL     1      25.856  -5.026  -5.883  1.00  0.00    -0.194 NA
ENDROOT
BRANCH   1   4
HETATM    4  C4  UNL     1      27.042  -5.862  -2.867  1.00  0.00     0.108 C 
BRANCH   4   5
HETATM    5  C3  UNL     1      26.955  -4.412  -2.934  1.00  0.00     0.054 A 
HETATM    6  N3  UNL     1      25.837  -3.665  -2.743  1.00  0.00    -0.288 N 
HETATM    7  N2  UNL     1      26.156  -2.392  -2.887  1.00  0.00    -0.240 N 
ATOM      8  H3  UNL     1      24.908  -4.026  -2.525  1.00  0.00     0.188 HD
HETATM    9  N1  UNL     1      27.442  -2.288  -3.164  1.00  0.00    -0.281 N 
ATOM     10  H2  UNL     1      25.507  -1.609  -2.797  1.00  0.00     0.208 HD
HETATM   11  C14 UNL     1      27.981  -3.504  -3.204  1.00  0.00     0.050 A 
HETATM   12  C15 UNL     1      29.389  -3.877  -3.479  1.00  0.00     0.072 C 
BRANCH   9  13
HETATM   13  C2  UNL     1      28.107  -1.027  -3.381  1.00  0.00     0.146 C 
HETATM   14  C1  UNL     1      28.077  -0.654  -4.846  1.00  0.00     0.028 C 
ENDBRANCH   9  13
ENDBRANCH   4   5
ENDBRANCH   1   4
BRANCH   1  15
HETATM   15  O1  UNL     1      26.586  -7.875  -4.045  1.00  0.00    -0.329 OA
BRANCH  15  16
HETATM   16  C7  UNL     1      26.859  -9.052  -4.687  1.00  0.00     0.100 A 
HETATM   17  C8  UNL     1      26.360  -9.444  -5.907  1.00  0.00     0.069 A 
HETATM   18 CL1  UNL     1      25.272  -8.376  -6.760  1.00  0.00    -0.081 Cl
HETATM   19  C9  UNL     1      26.681 -10.656  -6.506  1.00  0.00     0.052 A 
HETATM   20  C10 UNL     1      27.530 -11.547  -5.901  1.00  0.00     0.058 A 
HETATM   21 CL2  UNL     1      27.937 -13.082  -6.656  1.00  0.00    -0.082 Cl
HETATM   22  C11 UNL     1      28.046 -11.193  -4.690  1.00  0.00     0.064 A 
HETATM   23 CL3  UNL     1      29.139 -12.319  -3.892  1.00  0.00    -0.082 Cl
HETATM   24  C12 UNL     1      27.725  -9.971  -4.085  1.00  0.00    -0.003 A 
HETATM   25  C13 UNL     1      28.390  -9.695  -2.810  1.00  0.00     0.053 C 
ENDBRANCH  15  16
ENDBRANCH   1  15
TORSDOF 5
ENDMDL
