MODEL 1
REMARK VINA RESULT: -8.513258953      0.000      0.000
REMARK  6 active torsions:
REMARK  status: ('A' for Active; 'I' for Inactive)
REMARK    1  A    between atoms: N1_7  and  S1_8 
REMARK    2  A    between atoms: S1_8  and  N2_11 
REMARK    3  A    between atoms: N2_11  and  C6_13 
REMARK    4  A    between atoms: C6_13  and  C7_14 
REMARK    5  A    between atoms: C7_14  and  C8_15 
REMARK       I    between atoms: C8_15  and  N3_17 
REMARK    6  A    between atoms: N3_17  and  C9_18 
ROOT
HETATM    1  C7  UNL     1     -17.858 -11.357 -20.245  1.00  0.00     0.139 C 
ENDROOT
BRANCH   1   2
HETATM    2  C6  UNL     1     -16.518 -10.954 -19.774  1.00  0.00     0.143 C 
BRANCH   2   3
HETATM    3  N2  UNL     1     -15.881  -9.789 -20.265  1.00  0.00    -0.306 N 
ATOM      4  H2  UNL     1     -16.352  -8.925 -20.535  1.00  0.00     0.173 HD
BRANCH   3   5
HETATM    5  S1  UNL     1     -14.155 -10.072 -20.331  1.00  0.00     0.299 S 
HETATM    6  O1  UNL     1     -13.817 -11.092 -19.298  1.00  0.00    -0.188 OA
HETATM    7  O2  UNL     1     -13.503  -8.751 -19.872  1.00  0.00    -0.188 OA
BRANCH   5   8
HETATM    8  N1  UNL     1     -13.610 -10.455 -21.902  1.00  0.00    -0.186 NA
HETATM    9  C2  UNL     1     -12.237 -10.127 -22.063  1.00  0.00     0.074 C 
HETATM   10  C1  UNL     1     -11.894  -9.644 -23.456  1.00  0.00     0.027 C 
HETATM   11  C3  UNL     1     -11.444 -11.395 -21.808  1.00  0.00     0.058 C 
HETATM   12  C4  UNL     1     -12.438 -12.517 -22.027  1.00  0.00     0.185 C 
HETATM   13  F1  UNL     1     -12.351 -13.378 -20.952  1.00  0.00    -0.248 F 
HETATM   14  C5  UNL     1     -13.786 -11.862 -22.134  1.00  0.00     0.146 C 
ENDBRANCH   5   8
ENDBRANCH   3   5
ENDBRANCH   2   3
ENDBRANCH   1   2
BRANCH   1  15
HETATM   15  C8  UNL     1     -17.905 -12.376 -21.347  1.00  0.00     0.288 C 
HETATM   16  O3  UNL     1     -16.929 -13.213 -21.263  1.00  0.00    -0.258 OA
HETATM   17  N3  UNL     1     -18.874 -12.398 -22.302  1.00  0.00    -0.409 NA
BRANCH  17  18
HETATM   18  C9  UNL     1     -19.856 -12.422 -23.272  1.00  0.00     0.175 C 
HETATM   19  C10 UNL     1     -19.468 -12.850 -24.690  1.00  0.00     0.023 C 
HETATM   20  C11 UNL     1     -19.319 -14.317 -24.861  1.00  0.00     0.012 C 
HETATM   21  C15 UNL     1     -20.554 -12.365 -25.618  1.00  0.00     0.012 C 
HETATM   22  C12 UNL     1     -20.655 -14.991 -24.494  1.00  0.00    -0.013 C 
HETATM   23  C13 UNL     1     -21.735 -14.495 -25.411  1.00  0.00     0.009 C 
HETATM   24  C18 UNL     1     -20.903 -14.667 -23.039  1.00  0.00     0.012 C 
HETATM   25  C14 UNL     1     -21.864 -13.009 -25.250  1.00  0.00    -0.013 C 
HETATM   26  C16 UNL     1     -22.225 -12.737 -23.806  1.00  0.00     0.012 C 
HETATM   27  C17 UNL     1     -21.107 -13.167 -22.902  1.00  0.00     0.023 C 
ENDBRANCH  17  18
ENDBRANCH   1  15
TORSDOF 6
ENDMDL
MODEL 2
REMARK VINA RESULT: -8.369810649      1.816      2.158
REMARK  6 active torsions:
REMARK  status: ('A' for Active; 'I' for Inactive)
REMARK    1  A    between atoms: N1_7  and  S1_8 
REMARK    2  A    between atoms: S1_8  and  N2_11 
REMARK    3  A    between atoms: N2_11  and  C6_13 
REMARK    4  A    between atoms: C6_13  and  C7_14 
REMARK    5  A    between atoms: C7_14  and  C8_15 
REMARK       I    between atoms: C8_15  and  N3_17 
REMARK    6  A    between atoms: N3_17  and  C9_18 
ROOT
HETATM    1  C7  UNL     1     -18.724 -11.340 -20.198  1.00  0.00     0.139 C 
ENDROOT
BRANCH   1   2
HETATM    2  C6  UNL     1     -17.406 -11.252 -19.538  1.00  0.00     0.143 C 
BRANCH   2   3
HETATM    3  N2  UNL     1     -16.321 -10.571 -20.139  1.00  0.00    -0.306 N 
ATOM      4  H2  UNL     1     -16.214  -9.558 -20.194  1.00  0.00     0.173 HD
BRANCH   3   5
HETATM    5  S1  UNL     1     -15.193 -11.749 -20.774  1.00  0.00     0.299 S 
HETATM    6  O1  UNL     1     -15.632 -12.109 -22.152  1.00  0.00    -0.188 OA
HETATM    7  O2  UNL     1     -15.385 -13.012 -19.908  1.00  0.00    -0.188 OA
BRANCH   5   8
HETATM    8  N1  UNL     1     -13.570 -11.231 -20.666  1.00  0.00    -0.186 NA
HETATM    9  C2  UNL     1     -13.041 -10.933 -21.951  1.00  0.00     0.074 C 
HETATM   10  C1  UNL     1     -11.573 -11.274 -22.090  1.00  0.00     0.027 C 
HETATM   11  C3  UNL     1     -13.187  -9.436 -22.155  1.00  0.00     0.058 C 
HETATM   12  C4  UNL     1     -13.316  -8.871 -20.756  1.00  0.00     0.185 C 
HETATM   13  F1  UNL     1     -14.398  -8.015 -20.742  1.00  0.00    -0.248 F 
HETATM   14  C5  UNL     1     -13.502 -10.053 -19.847  1.00  0.00     0.146 C 
ENDBRANCH   5   8
ENDBRANCH   3   5
ENDBRANCH   2   3
ENDBRANCH   1   2
BRANCH   1  15
HETATM   15  C8  UNL     1     -18.947 -12.521 -21.097  1.00  0.00     0.288 C 
HETATM   16  O3  UNL     1     -18.366 -13.580 -20.646  1.00  0.00    -0.258 OA
HETATM   17  N3  UNL     1     -19.684 -12.461 -22.239  1.00  0.00    -0.409 NA
BRANCH  17  18
HETATM   18  C9  UNL     1     -20.431 -12.402 -23.399  1.00  0.00     0.175 C 
HETATM   19  C10 UNL     1     -19.764 -12.807 -24.716  1.00  0.00     0.023 C 
HETATM   20  C11 UNL     1     -19.651 -14.274 -24.911  1.00  0.00     0.012 C 
HETATM   21  C15 UNL     1     -20.597 -12.235 -25.835  1.00  0.00     0.012 C 
HETATM   22  C12 UNL     1     -21.065 -14.885 -24.869  1.00  0.00    -0.013 C 
HETATM   23  C13 UNL     1     -21.895 -14.301 -25.977  1.00  0.00     0.009 C 
HETATM   24  C18 UNL     1     -21.609 -14.591 -23.490  1.00  0.00     0.012 C 
HETATM   25  C14 UNL     1     -21.985 -12.816 -25.787  1.00  0.00    -0.013 C 
HETATM   26  C16 UNL     1     -22.639 -12.568 -24.445  1.00  0.00     0.012 C 
HETATM   27  C17 UNL     1     -21.767 -13.087 -23.339  1.00  0.00     0.023 C 
ENDBRANCH  17  18
ENDBRANCH   1  15
TORSDOF 6
ENDMDL
MODEL 3
REMARK VINA RESULT: -8.303102081      1.918      2.852
REMARK  6 active torsions:
REMARK  status: ('A' for Active; 'I' for Inactive)
REMARK    1  A    between atoms: N1_7  and  S1_8 
REMARK    2  A    between atoms: S1_8  and  N2_11 
REMARK    3  A    between atoms: N2_11  and  C6_13 
REMARK    4  A    between atoms: C6_13  and  C7_14 
REMARK    5  A    between atoms: C7_14  and  C8_15 
REMARK       I    between atoms: C8_15  and  N3_17 
REMARK    6  A    between atoms: N3_17  and  C9_18 
ROOT
HETATM    1  C7  UNL     1     -18.819 -11.130 -21.027  1.00  0.00     0.139 C 
ENDROOT
BRANCH   1   2
HETATM    2  C6  UNL     1     -17.751 -11.181 -20.008  1.00  0.00     0.143 C 
BRANCH   2   3
HETATM    3  N2  UNL     1     -16.479 -10.606 -20.239  1.00  0.00    -0.306 N 
ATOM      4  H2  UNL     1     -16.236  -9.626 -20.091  1.00  0.00     0.173 HD
BRANCH   3   5
HETATM    5  S1  UNL     1     -15.392 -11.848 -20.821  1.00  0.00     0.299 S 
HETATM    6  O1  UNL     1     -15.782 -12.179 -22.221  1.00  0.00    -0.188 OA
HETATM    7  O2  UNL     1     -15.702 -13.098 -19.971  1.00  0.00    -0.188 OA
BRANCH   5   8
HETATM    8  N1  UNL     1     -13.749 -11.426 -20.630  1.00  0.00    -0.186 NA
HETATM    9  C2  UNL     1     -13.143 -11.145 -21.884  1.00  0.00     0.074 C 
HETATM   10  C1  UNL     1     -11.692 -11.570 -21.959  1.00  0.00     0.027 C 
HETATM   11  C3  UNL     1     -13.191  -9.641 -22.073  1.00  0.00     0.058 C 
HETATM   12  C4  UNL     1     -13.355  -9.085 -20.674  1.00  0.00     0.185 C 
HETATM   13  F1  UNL     1     -14.385  -8.167 -20.699  1.00  0.00    -0.248 F 
HETATM   14  C5  UNL     1     -13.652 -10.264 -19.792  1.00  0.00     0.146 C 
ENDBRANCH   5   8
ENDBRANCH   3   5
ENDBRANCH   2   3
ENDBRANCH   1   2
BRANCH   1  15
HETATM   15  C8  UNL     1     -19.959 -12.091 -20.854  1.00  0.00     0.288 C 
HETATM   16  O3  UNL     1     -20.386 -12.109 -19.638  1.00  0.00    -0.258 OA
HETATM   17  N3  UNL     1     -20.468 -12.837 -21.873  1.00  0.00    -0.409 NA
BRANCH  17  18
HETATM   18  C9  UNL     1     -20.986 -13.593 -22.904  1.00  0.00     0.175 C 
HETATM   19  C10 UNL     1     -22.326 -13.173 -23.514  1.00  0.00     0.023 C 
HETATM   20  C11 UNL     1     -22.232 -12.028 -24.453  1.00  0.00     0.012 C 
HETATM   21  C15 UNL     1     -22.874 -14.364 -24.259  1.00  0.00     0.012 C 
HETATM   22  C12 UNL     1     -21.272 -12.410 -25.597  1.00  0.00    -0.013 C 
HETATM   23  C13 UNL     1     -21.814 -13.605 -26.327  1.00  0.00     0.009 C 
HETATM   24  C18 UNL     1     -19.928 -12.656 -24.952  1.00  0.00     0.012 C 
HETATM   25  C14 UNL     1     -21.929 -14.751 -25.366  1.00  0.00    -0.013 C 
HETATM   26  C16 UNL     1     -20.543 -15.038 -24.831  1.00  0.00     0.012 C 
HETATM   27  C17 UNL     1     -20.040 -13.867 -24.039  1.00  0.00     0.023 C 
ENDBRANCH  17  18
ENDBRANCH   1  15
TORSDOF 6
ENDMDL
MODEL 4
REMARK VINA RESULT: -8.260634282      0.939      1.633
REMARK  6 active torsions:
REMARK  status: ('A' for Active; 'I' for Inactive)
REMARK    1  A    between atoms: N1_7  and  S1_8 
REMARK    2  A    between atoms: S1_8  and  N2_11 
REMARK    3  A    between atoms: N2_11  and  C6_13 
REMARK    4  A    between atoms: C6_13  and  C7_14 
REMARK    5  A    between atoms: C7_14  and  C8_15 
REMARK       I    between atoms: C8_15  and  N3_17 
REMARK    6  A    between atoms: N3_17  and  C9_18 
ROOT
HETATM    1  C7  UNL     1     -17.163 -11.909 -20.874  1.00  0.00     0.139 C 
ENDROOT
BRANCH   1   2
HETATM    2  C6  UNL     1     -16.436 -11.081 -19.891  1.00  0.00     0.143 C 
BRANCH   2   3
HETATM    3  N2  UNL     1     -15.843  -9.849 -20.257  1.00  0.00    -0.306 N 
ATOM      4  H2  UNL     1     -16.346  -8.979 -20.436  1.00  0.00     0.173 HD
BRANCH   3   5
HETATM    5  S1  UNL     1     -14.108 -10.059 -20.351  1.00  0.00     0.299 S 
HETATM    6  O1  UNL     1     -13.712 -11.061 -19.320  1.00  0.00    -0.188 OA
HETATM    7  O2  UNL     1     -13.504  -8.711 -19.907  1.00  0.00    -0.188 OA
BRANCH   5   8
HETATM    8  N1  UNL     1     -13.575 -10.426 -21.930  1.00  0.00    -0.186 NA
HETATM    9  C2  UNL     1     -12.216 -10.051 -22.112  1.00  0.00     0.074 C 
HETATM   10  C1  UNL     1     -11.911  -9.559 -23.510  1.00  0.00     0.027 C 
HETATM   11  C3  UNL     1     -11.376 -11.291 -21.867  1.00  0.00     0.058 C 
HETATM   12  C4  UNL     1     -12.333 -12.447 -22.070  1.00  0.00     0.185 C 
HETATM   13  F1  UNL     1     -12.201 -13.302 -20.996  1.00  0.00    -0.248 F 
HETATM   14  C5  UNL     1     -13.705 -11.839 -22.157  1.00  0.00     0.146 C 
ENDBRANCH   5   8
ENDBRANCH   3   5
ENDBRANCH   2   3
ENDBRANCH   1   2
BRANCH   1  15
HETATM   15  C8  UNL     1     -18.632 -11.639 -21.025  1.00  0.00     0.288 C 
HETATM   16  O3  UNL     1     -18.998 -10.607 -20.345  1.00  0.00    -0.258 OA
HETATM   17  N3  UNL     1     -19.456 -12.399 -21.797  1.00  0.00    -0.409 NA
BRANCH  17  18
HETATM   18  C9  UNL     1     -20.292 -13.169 -22.580  1.00  0.00     0.175 C 
HETATM   19  C10 UNL     1     -21.418 -12.471 -23.347  1.00  0.00     0.023 C 
HETATM   20  C11 UNL     1     -20.971 -11.775 -24.579  1.00  0.00     0.012 C 
HETATM   21  C15 UNL     1     -22.424 -13.528 -23.729  1.00  0.00     0.012 C 
HETATM   22  C12 UNL     1     -20.309 -12.808 -25.512  1.00  0.00    -0.013 C 
HETATM   23  C13 UNL     1     -21.311 -13.866 -25.878  1.00  0.00     0.009 C 
HETATM   24  C18 UNL     1     -19.112 -13.344 -24.763  1.00  0.00     0.012 C 
HETATM   25  C14 UNL     1     -21.776 -14.548 -24.626  1.00  0.00    -0.013 C 
HETATM   26  C16 UNL     1     -20.563 -15.168 -23.968  1.00  0.00     0.012 C 
HETATM   27  C17 UNL     1     -19.602 -14.098 -23.538  1.00  0.00     0.023 C 
ENDBRANCH  17  18
ENDBRANCH   1  15
TORSDOF 6
ENDMDL
MODEL 5
REMARK VINA RESULT: -8.203666631      1.082      1.452
REMARK  6 active torsions:
REMARK  status: ('A' for Active; 'I' for Inactive)
REMARK    1  A    between atoms: N1_7  and  S1_8 
REMARK    2  A    between atoms: S1_8  and  N2_11 
REMARK    3  A    between atoms: N2_11  and  C6_13 
REMARK    4  A    between atoms: C6_13  and  C7_14 
REMARK    5  A    between atoms: C7_14  and  C8_15 
REMARK       I    between atoms: C8_15  and  N3_17 
REMARK    6  A    between atoms: N3_17  and  C9_18 
ROOT
HETATM    1  C7  UNL     1     -17.029 -12.107 -20.267  1.00  0.00     0.139 C 
ENDROOT
BRANCH   1   2
HETATM    2  C6  UNL     1     -16.275 -11.092 -19.504  1.00  0.00     0.143 C 
BRANCH   2   3
HETATM    3  N2  UNL     1     -15.774  -9.922 -20.124  1.00  0.00    -0.306 N 
ATOM      4  H2  UNL     1     -16.335  -9.124 -20.424  1.00  0.00     0.173 HD
BRANCH   3   5
HETATM    5  S1  UNL     1     -14.038 -10.067 -20.291  1.00  0.00     0.299 S 
HETATM    6  O1  UNL     1     -13.559 -11.038 -19.266  1.00  0.00    -0.188 OA
HETATM    7  O2  UNL     1     -13.469  -8.689 -19.891  1.00  0.00    -0.188 OA
BRANCH   5   8
HETATM    8  N1  UNL     1     -13.559 -10.435 -21.887  1.00  0.00    -0.186 NA
HETATM    9  C2  UNL     1     -12.193 -10.108 -22.100  1.00  0.00     0.074 C 
HETATM   10  C1  UNL     1     -11.905  -9.612 -23.501  1.00  0.00     0.027 C 
HETATM   11  C3  UNL     1     -11.394 -11.381 -21.891  1.00  0.00     0.058 C 
HETATM   12  C4  UNL     1     -12.398 -12.498 -22.081  1.00  0.00     0.185 C 
HETATM   13  F1  UNL     1     -12.270 -13.370 -21.019  1.00  0.00    -0.248 F 
HETATM   14  C5  UNL     1     -13.748 -11.839 -22.126  1.00  0.00     0.146 C 
ENDBRANCH   5   8
ENDBRANCH   3   5
ENDBRANCH   2   3
ENDBRANCH   1   2
BRANCH   1  15
HETATM   15  C8  UNL     1     -18.359 -11.683 -20.818  1.00  0.00     0.288 C 
HETATM   16  O3  UNL     1     -18.726 -10.539 -20.349  1.00  0.00    -0.258 OA
HETATM   17  N3  UNL     1     -19.070 -12.427 -21.709  1.00  0.00    -0.409 NA
BRANCH  17  18
HETATM   18  C9  UNL     1     -19.792 -13.180 -22.613  1.00  0.00     0.175 C 
HETATM   19  C10 UNL     1     -19.510 -12.993 -24.106  1.00  0.00     0.023 C 
HETATM   20  C11 UNL     1     -18.280 -13.676 -24.579  1.00  0.00     0.012 C 
HETATM   21  C15 UNL     1     -20.691 -13.551 -24.859  1.00  0.00     0.012 C 
HETATM   22  C12 UNL     1     -18.414 -15.184 -24.291  1.00  0.00    -0.013 C 
HETATM   23  C13 UNL     1     -19.600 -15.732 -25.032  1.00  0.00     0.009 C 
HETATM   24  C18 UNL     1     -18.528 -15.315 -22.790  1.00  0.00     0.012 C 
HETATM   25  C14 UNL     1     -20.836 -15.020 -24.565  1.00  0.00    -0.013 C 
HETATM   26  C16 UNL     1     -20.973 -15.273 -23.080  1.00  0.00     0.012 C 
HETATM   27  C17 UNL     1     -19.822 -14.657 -22.340  1.00  0.00     0.023 C 
ENDBRANCH  17  18
ENDBRANCH   1  15
TORSDOF 6
ENDMDL
