MODEL 1
REMARK VINA RESULT: -7.208084792      0.000      0.000
REMARK  7 active torsions:
REMARK  status: ('A' for Active; 'I' for Inactive)
REMARK    1  A    between atoms: C1_2  and  C2_3 
REMARK       I    between atoms: C1_2  and  N2_18 
REMARK    2  A    between atoms: C2_3  and  N1_4 
REMARK    3  A    between atoms: N1_4  and  C3_5 
REMARK    4  A    between atoms: N1_4  and  S1_10 
REMARK    5  A    between atoms: S1_10  and  C8_13 
REMARK    6  A    between atoms: N2_18  and  C10_20 
REMARK    7  A    between atoms: C10_20  and  C11_21 
ROOT
HETATM    1  N1  UNL     1      43.944 -14.985  37.338  1.00  0.00    -0.293 N 
ENDROOT
BRANCH   1   2
HETATM    2  C2  UNL     1      44.737 -14.420  36.280  1.00  0.00     0.238 C 
BRANCH   2   3
HETATM    3  C1  UNL     1      43.965 -13.604  35.327  1.00  0.00     0.236 C 
HETATM    4  O1  UNL     1      43.637 -14.094  34.225  1.00  0.00    -0.272 OA
HETATM    5  N2  UNL     1      43.598 -12.276  35.661  1.00  0.00    -0.357 N 
ATOM      6  H2  UNL     1      43.875 -11.894  36.566  1.00  0.00     0.162 HD
BRANCH   5   7
HETATM    7  C10 UNL     1      42.840 -11.449  34.747  1.00  0.00     0.154 C 
BRANCH   7   8
HETATM    8  C11 UNL     1      42.861 -10.024  35.204  1.00  0.00     0.139 C 
HETATM    9  C12 UNL     1      43.365  -9.861  36.607  1.00  0.00     0.035 C 
HETATM   10  C13 UNL     1      43.910  -8.462  36.623  1.00  0.00     0.029 C 
HETATM   11  C14 UNL     1      44.123  -8.174  35.169  1.00  0.00     0.168 C 
HETATM   12  O4  UNL     1      43.784  -9.297  34.456  1.00  0.00    -0.384 OA
ENDBRANCH   7   8
ENDBRANCH   5   7
ENDBRANCH   2   3
ENDBRANCH   1   2
BRANCH   1  13
HETATM   13  C3  UNL     1      44.019 -16.372  37.340  1.00  0.00     0.096 C 
HETATM   14  C4  UNL     1      43.048 -17.109  36.455  1.00  0.00     0.026 C 
HETATM   15  C5  UNL     1      43.766 -18.425  36.147  1.00  0.00     0.002 C 
HETATM   16  C6  UNL     1      45.176 -17.971  35.958  1.00  0.00     0.002 C 
HETATM   17  C7  UNL     1      45.373 -16.980  37.082  1.00  0.00     0.026 C 
ENDBRANCH   1  13
BRANCH   1  18
HETATM   18  S1  UNL     1      43.985 -14.072  38.710  1.00  0.00     0.270 S 
HETATM   19  O2  UNL     1      44.798 -12.792  38.607  1.00  0.00    -0.200 OA
HETATM   20  O3  UNL     1      42.600 -13.578  39.039  1.00  0.00    -0.200 OA
BRANCH  18  21
HETATM   21  C8  UNL     1      44.517 -14.946  40.169  1.00  0.00     0.151 A 
HETATM   22  S2  UNL     1      45.411 -16.313  40.361  1.00  0.00    -0.036 SA
HETATM   23  S3  UNL     1      45.064 -15.892  42.250  1.00  0.00    -0.042 SA
HETATM   24  C9  UNL     1      44.284 -14.667  41.458  1.00  0.00     0.089 A 
HETATM   25 BR1  UNL     1      43.293 -13.216  42.371  1.00  0.00    -0.040 Br
ENDBRANCH  18  21
ENDBRANCH   1  18
TORSDOF 7
ENDMDL
MODEL 2
REMARK VINA RESULT: -7.169317235      2.168      6.206
REMARK  7 active torsions:
REMARK  status: ('A' for Active; 'I' for Inactive)
REMARK    1  A    between atoms: C1_2  and  C2_3 
REMARK       I    between atoms: C1_2  and  N2_18 
REMARK    2  A    between atoms: C2_3  and  N1_4 
REMARK    3  A    between atoms: N1_4  and  C3_5 
REMARK    4  A    between atoms: N1_4  and  S1_10 
REMARK    5  A    between atoms: S1_10  and  C8_13 
REMARK    6  A    between atoms: N2_18  and  C10_20 
REMARK    7  A    between atoms: C10_20  and  C11_21 
ROOT
HETATM    1  N1  UNL     1      44.168 -12.179  36.475  1.00  0.00    -0.293 N 
ENDROOT
BRANCH   1   2
HETATM    2  C2  UNL     1      43.063 -13.099  36.473  1.00  0.00     0.238 C 
BRANCH   2   3
HETATM    3  C1  UNL     1      43.334 -14.354  35.748  1.00  0.00     0.236 C 
HETATM    4  O1  UNL     1      43.642 -14.308  34.538  1.00  0.00    -0.272 OA
HETATM    5  N2  UNL     1      43.245 -15.598  36.422  1.00  0.00    -0.357 N 
ATOM      6  H2  UNL     1      42.993 -15.614  37.410  1.00  0.00     0.162 HD
BRANCH   5   7
HETATM    7  C10 UNL     1      43.506 -16.847  35.738  1.00  0.00     0.154 C 
BRANCH   7   8
HETATM    8  C11 UNL     1      44.334 -17.744  36.604  1.00  0.00     0.139 C 
HETATM    9  C12 UNL     1      43.719 -19.096  36.813  1.00  0.00     0.035 C 
HETATM   10  C13 UNL     1      44.901 -19.979  37.092  1.00  0.00     0.029 C 
HETATM   11  C14 UNL     1      46.042 -19.191  36.529  1.00  0.00     0.168 C 
HETATM   12  O4  UNL     1      45.536 -18.045  35.967  1.00  0.00    -0.384 OA
ENDBRANCH   7   8
ENDBRANCH   5   7
ENDBRANCH   2   3
ENDBRANCH   1   2
BRANCH   1  13
HETATM   13  C3  UNL     1      43.775 -10.917  36.050  1.00  0.00     0.096 C 
HETATM   14  C4  UNL     1      43.119 -10.827  34.697  1.00  0.00     0.026 C 
HETATM   15  C5  UNL     1      42.242  -9.577  34.801  1.00  0.00     0.002 C 
HETATM   16  C6  UNL     1      41.704  -9.691  36.190  1.00  0.00     0.002 C 
HETATM   17  C7  UNL     1      42.911 -10.121  36.993  1.00  0.00     0.026 C 
ENDBRANCH   1  13
BRANCH   1  18
HETATM   18  S1  UNL     1      45.194 -12.432  37.741  1.00  0.00     0.270 S 
HETATM   19  O2  UNL     1      46.248 -13.502  37.511  1.00  0.00    -0.200 OA
HETATM   20  O3  UNL     1      46.008 -11.190  37.996  1.00  0.00    -0.200 OA
BRANCH  18  21
HETATM   21  C8  UNL     1      44.388 -12.777  39.293  1.00  0.00     0.151 A 
HETATM   22  S2  UNL     1      43.503 -11.826  40.302  1.00  0.00    -0.036 SA
HETATM   23  S3  UNL     1      43.439 -13.510  41.314  1.00  0.00    -0.042 SA
HETATM   24  C9  UNL     1      44.339 -13.920  39.988  1.00  0.00     0.089 A 
HETATM   25 BR1  UNL     1      45.085 -15.727  39.675  1.00  0.00    -0.040 Br
ENDBRANCH  18  21
ENDBRANCH   1  18
TORSDOF 7
ENDMDL
MODEL 3
REMARK VINA RESULT: -7.099354787      3.300      6.552
REMARK  7 active torsions:
REMARK  status: ('A' for Active; 'I' for Inactive)
REMARK    1  A    between atoms: C1_2  and  C2_3 
REMARK       I    between atoms: C1_2  and  N2_18 
REMARK    2  A    between atoms: C2_3  and  N1_4 
REMARK    3  A    between atoms: N1_4  and  C3_5 
REMARK    4  A    between atoms: N1_4  and  S1_10 
REMARK    5  A    between atoms: S1_10  and  C8_13 
REMARK    6  A    between atoms: N2_18  and  C10_20 
REMARK    7  A    between atoms: C10_20  and  C11_21 
ROOT
HETATM    1  N1  UNL     1      43.612 -12.679  37.044  1.00  0.00    -0.293 N 
ENDROOT
BRANCH   1   2
HETATM    2  C2  UNL     1      44.475 -13.500  36.238  1.00  0.00     0.238 C 
BRANCH   2   3
HETATM    3  C1  UNL     1      43.817 -14.703  35.696  1.00  0.00     0.236 C 
HETATM    4  O1  UNL     1      43.372 -14.683  34.528  1.00  0.00    -0.272 OA
HETATM    5  N2  UNL     1      43.692 -15.867  36.494  1.00  0.00    -0.357 N 
ATOM      6  H2  UNL     1      44.062 -15.863  37.445  1.00  0.00     0.162 HD
BRANCH   5   7
HETATM    7  C10 UNL     1      43.051 -17.063  35.990  1.00  0.00     0.154 C 
BRANCH   7   8
HETATM    8  C11 UNL     1      44.032 -18.193  35.949  1.00  0.00     0.139 C 
HETATM    9  C12 UNL     1      45.342 -17.863  36.600  1.00  0.00     0.035 C 
HETATM   10  C13 UNL     1      45.868 -19.203  37.027  1.00  0.00     0.029 C 
HETATM   11  C14 UNL     1      44.635 -20.052  37.042  1.00  0.00     0.168 C 
HETATM   12  O4  UNL     1      43.564 -19.259  36.714  1.00  0.00    -0.384 OA
ENDBRANCH   7   8
ENDBRANCH   5   7
ENDBRANCH   2   3
ENDBRANCH   1   2
BRANCH   1  13
HETATM   13  C3  UNL     1      43.931 -12.783  38.391  1.00  0.00     0.096 C 
HETATM   14  C4  UNL     1      42.854 -13.295  39.310  1.00  0.00     0.026 C 
HETATM   15  C5  UNL     1      43.632 -13.918  40.471  1.00  0.00     0.002 C 
HETATM   16  C6  UNL     1      44.768 -14.580  39.763  1.00  0.00     0.002 C 
HETATM   17  C7  UNL     1      45.182 -13.550  38.737  1.00  0.00     0.026 C 
ENDBRANCH   1  13
BRANCH   1  18
HETATM   18  S1  UNL     1      43.235 -11.253  36.308  1.00  0.00     0.270 S 
HETATM   19  O2  UNL     1      43.673 -11.142  34.857  1.00  0.00    -0.200 OA
HETATM   20  O3  UNL     1      41.738 -11.095  36.233  1.00  0.00    -0.200 OA
BRANCH  18  21
HETATM   21  C8  UNL     1      43.805  -9.799  37.168  1.00  0.00     0.151 A 
HETATM   22  S2  UNL     1      44.800  -9.615  38.464  1.00  0.00    -0.036 SA
HETATM   23  S3  UNL     1      44.384  -7.726  38.111  1.00  0.00    -0.042 SA
HETATM   24  C9  UNL     1      43.526  -8.511  36.934  1.00  0.00     0.089 A 
HETATM   25 BR1  UNL     1      42.406  -7.592  35.585  1.00  0.00    -0.040 Br
ENDBRANCH  18  21
ENDBRANCH   1  18
TORSDOF 7
ENDMDL
MODEL 4
REMARK VINA RESULT: -7.064107116      1.702      1.876
REMARK  7 active torsions:
REMARK  status: ('A' for Active; 'I' for Inactive)
REMARK    1  A    between atoms: C1_2  and  C2_3 
REMARK       I    between atoms: C1_2  and  N2_18 
REMARK    2  A    between atoms: C2_3  and  N1_4 
REMARK    3  A    between atoms: N1_4  and  C3_5 
REMARK    4  A    between atoms: N1_4  and  S1_10 
REMARK    5  A    between atoms: S1_10  and  C8_13 
REMARK    6  A    between atoms: N2_18  and  C10_20 
REMARK    7  A    between atoms: C10_20  and  C11_21 
ROOT
HETATM    1  N1  UNL     1      44.015 -14.272  36.774  1.00  0.00    -0.293 N 
ENDROOT
BRANCH   1   2
HETATM    2  C2  UNL     1      44.309 -13.894  35.418  1.00  0.00     0.238 C 
BRANCH   2   3
HETATM    3  C1  UNL     1      43.569 -12.705  34.958  1.00  0.00     0.236 C 
HETATM    4  O1  UNL     1      43.719 -12.306  33.783  1.00  0.00    -0.272 OA
HETATM    5  N2  UNL     1      42.696 -12.023  35.843  1.00  0.00    -0.357 N 
ATOM      6  H2  UNL     1      42.587 -12.365  36.799  1.00  0.00     0.162 HD
BRANCH   5   7
HETATM    7  C10 UNL     1      41.956 -10.853  35.421  1.00  0.00     0.154 C 
BRANCH   7   8
HETATM    8  C11 UNL     1      42.579  -9.617  35.992  1.00  0.00     0.139 C 
HETATM    9  C12 UNL     1      42.837  -9.713  37.467  1.00  0.00     0.035 C 
HETATM   10  C13 UNL     1      43.976  -8.759  37.685  1.00  0.00     0.029 C 
HETATM   11  C14 UNL     1      44.559  -8.621  36.313  1.00  0.00     0.168 C 
HETATM   12  O4  UNL     1      43.855  -9.439  35.464  1.00  0.00    -0.384 OA
ENDBRANCH   7   8
ENDBRANCH   5   7
ENDBRANCH   2   3
ENDBRANCH   1   2
BRANCH   1  13
HETATM   13  C3  UNL     1      43.650 -15.609  36.857  1.00  0.00     0.096 C 
HETATM   14  C4  UNL     1      43.098 -16.244  35.609  1.00  0.00     0.026 C 
HETATM   15  C5  UNL     1      43.430 -17.729  35.779  1.00  0.00     0.002 C 
HETATM   16  C6  UNL     1      44.797 -17.674  36.376  1.00  0.00     0.002 C 
HETATM   17  C7  UNL     1      44.684 -16.564  37.397  1.00  0.00     0.026 C 
ENDBRANCH   1  13
BRANCH   1  18
HETATM   18  S1  UNL     1      45.011 -13.534  37.862  1.00  0.00     0.270 S 
HETATM   19  O2  UNL     1      46.414 -14.113  37.945  1.00  0.00    -0.200 OA
HETATM   20  O3  UNL     1      45.248 -12.104  37.452  1.00  0.00    -0.200 OA
BRANCH  18  21
HETATM   21  C8  UNL     1      44.358 -13.433  39.517  1.00  0.00     0.151 A 
HETATM   22  S2  UNL     1      43.487 -12.265  40.281  1.00  0.00    -0.036 SA
HETATM   23  S3  UNL     1      43.629 -13.567  41.748  1.00  0.00    -0.042 SA
HETATM   24  C9  UNL     1      44.450 -14.314  40.521  1.00  0.00     0.089 A 
HETATM   25 BR1  UNL     1      45.303 -16.093  40.686  1.00  0.00    -0.040 Br
ENDBRANCH  18  21
ENDBRANCH   1  18
TORSDOF 7
ENDMDL
MODEL 5
REMARK VINA RESULT: -6.972035486      4.048      7.101
REMARK  7 active torsions:
REMARK  status: ('A' for Active; 'I' for Inactive)
REMARK    1  A    between atoms: C1_2  and  C2_3 
REMARK       I    between atoms: C1_2  and  N2_18 
REMARK    2  A    between atoms: C2_3  and  N1_4 
REMARK    3  A    between atoms: N1_4  and  C3_5 
REMARK    4  A    between atoms: N1_4  and  S1_10 
REMARK    5  A    between atoms: S1_10  and  C8_13 
REMARK    6  A    between atoms: N2_18  and  C10_20 
REMARK    7  A    between atoms: C10_20  and  C11_21 
ROOT
HETATM    1  N1  UNL     1      42.797  -9.583  36.337  1.00  0.00    -0.293 N 
ENDROOT
BRANCH   1   2
HETATM    2  C2  UNL     1      41.969 -10.477  35.573  1.00  0.00     0.238 C 
BRANCH   2   3
HETATM    3  C1  UNL     1      42.713 -11.576  34.932  1.00  0.00     0.236 C 
HETATM    4  O1  UNL     1      43.415 -11.335  33.926  1.00  0.00    -0.272 OA
HETATM    5  N2  UNL     1      42.630 -12.891  35.453  1.00  0.00    -0.357 N 
ATOM      6  H2  UNL     1      42.052 -13.067  36.275  1.00  0.00     0.162 HD
BRANCH   5   7
HETATM    7  C10 UNL     1      43.349 -13.991  34.846  1.00  0.00     0.154 C 
BRANCH   7   8
HETATM    8  C11 UNL     1      44.223 -14.658  35.862  1.00  0.00     0.139 C 
HETATM    9  C12 UNL     1      43.807 -14.375  37.275  1.00  0.00     0.035 C 
HETATM   10  C13 UNL     1      44.320 -15.565  38.035  1.00  0.00     0.029 C 
HETATM   11  C14 UNL     1      44.502 -16.590  36.959  1.00  0.00     0.168 C 
HETATM   12  O4  UNL     1      44.091 -16.041  35.770  1.00  0.00    -0.384 OA
ENDBRANCH   7   8
ENDBRANCH   5   7
ENDBRANCH   2   3
ENDBRANCH   1   2
BRANCH   1  13
HETATM   13  C3  UNL     1      43.690 -10.283  37.138  1.00  0.00     0.096 C 
HETATM   14  C4  UNL     1      44.945  -9.561  37.552  1.00  0.00     0.026 C 
HETATM   15  C5  UNL     1      45.337 -10.240  38.867  1.00  0.00     0.002 C 
HETATM   16  C6  UNL     1      44.010 -10.434  39.522  1.00  0.00     0.002 C 
HETATM   17  C7  UNL     1      43.131 -10.913  38.388  1.00  0.00     0.026 C 
ENDBRANCH   1  13
BRANCH   1  18
HETATM   18  S1  UNL     1      43.207  -8.229  35.491  1.00  0.00     0.270 S 
HETATM   19  O2  UNL     1      44.412  -8.382  34.576  1.00  0.00    -0.200 OA
HETATM   20  O3  UNL     1      42.096  -7.860  34.543  1.00  0.00    -0.200 OA
BRANCH  18  21
HETATM   21  C8  UNL     1      43.457  -6.775  36.491  1.00  0.00     0.151 A 
HETATM   22  S2  UNL     1      44.415  -5.454  36.283  1.00  0.00    -0.036 SA
HETATM   23  S3  UNL     1      43.594  -4.983  38.006  1.00  0.00    -0.042 SA
HETATM   24  C9  UNL     1      42.902  -6.447  37.665  1.00  0.00     0.089 A 
HETATM   25 BR1  UNL     1      41.584  -7.347  38.837  1.00  0.00    -0.040 Br
ENDBRANCH  18  21
ENDBRANCH   1  18
TORSDOF 7
ENDMDL
