MODEL 1
REMARK VINA RESULT: -5.992182740      0.000      0.000
REMARK  9 active torsions:
REMARK  status: ('A' for Active; 'I' for Inactive)
REMARK    1  A    between atoms: C2_2  and  O1_3 
REMARK    2  A    between atoms: O1_3  and  C3_4 
REMARK    3  A    between atoms: C3_4  and  C4_6 
REMARK    4  A    between atoms: C4_6  and  C5_7 
REMARK    5  A    between atoms: C5_7  and  C6_8 
REMARK    6  A    between atoms: C11_13  and  O3_14 
REMARK    7  A    between atoms: C12_16  and  C14_18 
REMARK    8  A    between atoms: C14_18  and  C15_19 
REMARK    9  A    between atoms: C15_19  and  C16_20 
ROOT
HETATM    1  C4  UNL     1      13.531 -27.692  -8.083  1.00  0.00     0.114 C 
HETATM    2  C10 UNL     1      13.971 -29.124  -8.375  1.00  0.00     0.061 C 
HETATM    3  C11 UNL     1      15.191 -28.973  -9.272  1.00  0.00     0.135 C 
HETATM    4  C12 UNL     1      15.872 -27.709  -8.800  1.00  0.00     0.044 C 
HETATM    5  C13 UNL     1      16.932 -28.089  -7.762  1.00  0.00     0.026 C 
HETATM    6  C17 UNL     1      14.784 -26.896  -8.201  1.00  0.00     0.156 C 
HETATM    7  O6  UNL     1      14.901 -25.741  -7.859  1.00  0.00    -0.296 OA
ENDROOT
BRANCH   1   8
HETATM    8  C3  UNL     1      12.960 -27.659  -6.740  1.00  0.00     0.275 C 
HETATM    9  O2  UNL     1      11.955 -27.108  -6.309  1.00  0.00    -0.264 OA
BRANCH   8  10
HETATM   10  O1  UNL     1      13.648 -28.375  -5.706  1.00  0.00    -0.321 OA
BRANCH  10  11
HETATM   11  C2  UNL     1      14.065 -27.826  -4.518  1.00  0.00     0.174 C 
HETATM   12  C1  UNL     1      15.427 -27.198  -4.482  1.00  0.00     0.034 C 
ENDBRANCH  10  11
ENDBRANCH   8  10
ENDBRANCH   1   8
BRANCH   1  13
HETATM   13  C5  UNL     1      12.530 -27.237  -9.104  1.00  0.00     0.055 C 
BRANCH  13  14
HETATM   14  C6  UNL     1      12.725 -25.885  -9.635  1.00  0.00    -0.023 C 
HETATM   15  C7  UNL     1      11.849 -24.905  -9.544  1.00  0.00    -0.091 C 
HETATM   16  C8  UNL     1      10.532 -25.079  -8.876  1.00  0.00     0.042 C 
HETATM   17  C9  UNL     1      12.168 -23.583 -10.126  1.00  0.00     0.042 C 
ENDBRANCH  13  14
ENDBRANCH   1  13
BRANCH   3  18
HETATM   18  O3  UNL     1      14.727 -28.919 -10.566  1.00  0.00    -0.394 OA
ATOM     19  H3  UNL     1      14.986 -28.074 -10.914  1.00  0.00     0.210 HD
ENDBRANCH   3  18
BRANCH   4  20
HETATM   20  C14 UNL     1      16.594 -27.015  -9.929  1.00  0.00     0.030 C 
BRANCH  20  21
HETATM   21  C15 UNL     1      18.003 -27.525 -10.004  1.00  0.00     0.114 C 
BRANCH  21  22
HETATM   22  C16 UNL     1      18.289 -28.240 -11.261  1.00  0.00     0.172 C 
HETATM   23  O4  UNL     1      17.559 -29.186 -11.638  1.00  0.00    -0.648 OA
HETATM   24  O5  UNL     1      19.374 -27.901 -12.073  1.00  0.00    -0.648 OA
ENDBRANCH  21  22
ENDBRANCH  20  21
ENDBRANCH   4  20
TORSDOF 9
ENDMDL
MODEL 2
REMARK VINA RESULT: -5.944546624      0.922      1.408
REMARK  9 active torsions:
REMARK  status: ('A' for Active; 'I' for Inactive)
REMARK    1  A    between atoms: C2_2  and  O1_3 
REMARK    2  A    between atoms: O1_3  and  C3_4 
REMARK    3  A    between atoms: C3_4  and  C4_6 
REMARK    4  A    between atoms: C4_6  and  C5_7 
REMARK    5  A    between atoms: C5_7  and  C6_8 
REMARK    6  A    between atoms: C11_13  and  O3_14 
REMARK    7  A    between atoms: C12_16  and  C14_18 
REMARK    8  A    between atoms: C14_18  and  C15_19 
REMARK    9  A    between atoms: C15_19  and  C16_20 
ROOT
HETATM    1  C4  UNL     1      13.725 -27.845  -7.878  1.00  0.00     0.114 C 
HETATM    2  C10 UNL     1      14.181 -29.249  -8.268  1.00  0.00     0.061 C 
HETATM    3  C11 UNL     1      15.308 -29.022  -9.264  1.00  0.00     0.135 C 
HETATM    4  C12 UNL     1      15.990 -27.754  -8.803  1.00  0.00     0.044 C 
HETATM    5  C13 UNL     1      17.151 -28.137  -7.882  1.00  0.00     0.026 C 
HETATM    6  C17 UNL     1      14.937 -27.003  -8.076  1.00  0.00     0.156 C 
HETATM    7  O6  UNL     1      15.049 -25.859  -7.697  1.00  0.00    -0.296 OA
ENDROOT
BRANCH   1   8
HETATM    8  C3  UNL     1      13.279 -27.885  -6.488  1.00  0.00     0.275 C 
HETATM    9  O2  UNL     1      13.752 -28.449  -5.510  1.00  0.00    -0.264 OA
BRANCH   8  10
HETATM   10  O1  UNL     1      12.091 -27.158  -6.150  1.00  0.00    -0.321 OA
BRANCH  10  11
HETATM   11  C2  UNL     1      11.623 -26.975  -4.871  1.00  0.00     0.174 C 
HETATM   12  C1  UNL     1      10.146 -27.114  -4.645  1.00  0.00     0.034 C 
ENDBRANCH  10  11
ENDBRANCH   8  10
ENDBRANCH   1   8
BRANCH   1  13
HETATM   13  C5  UNL     1      12.621 -27.387  -8.784  1.00  0.00     0.055 C 
BRANCH  13  14
HETATM   14  C6  UNL     1      12.813 -26.077  -9.415  1.00  0.00    -0.023 C 
HETATM   15  C7  UNL     1      11.931 -25.098  -9.402  1.00  0.00    -0.091 C 
HETATM   16  C8  UNL     1      10.612 -25.227  -8.730  1.00  0.00     0.042 C 
HETATM   17  C9  UNL     1      12.246 -23.821 -10.081  1.00  0.00     0.042 C 
ENDBRANCH  13  14
ENDBRANCH   1  13
BRANCH   3  18
HETATM   18  O3  UNL     1      14.726 -28.933 -10.507  1.00  0.00    -0.394 OA
ATOM     19  H3  UNL     1      15.430 -28.795 -11.130  1.00  0.00     0.210 HD
ENDBRANCH   3  18
BRANCH   4  20
HETATM   20  C14 UNL     1      16.584 -26.992  -9.963  1.00  0.00     0.030 C 
BRANCH  20  21
HETATM   21  C15 UNL     1      18.035 -27.345 -10.097  1.00  0.00     0.114 C 
BRANCH  21  22
HETATM   22  C16 UNL     1      18.328 -28.125 -11.313  1.00  0.00     0.172 C 
HETATM   23  O4  UNL     1      17.581 -29.069 -11.661  1.00  0.00    -0.648 OA
HETATM   24  O5  UNL     1      19.437 -27.851 -12.117  1.00  0.00    -0.648 OA
ENDBRANCH  21  22
ENDBRANCH  20  21
ENDBRANCH   4  20
TORSDOF 9
ENDMDL
MODEL 3
REMARK VINA RESULT: -5.879768236      0.944      1.157
REMARK  9 active torsions:
REMARK  status: ('A' for Active; 'I' for Inactive)
REMARK    1  A    between atoms: C2_2  and  O1_3 
REMARK    2  A    between atoms: O1_3  and  C3_4 
REMARK    3  A    between atoms: C3_4  and  C4_6 
REMARK    4  A    between atoms: C4_6  and  C5_7 
REMARK    5  A    between atoms: C5_7  and  C6_8 
REMARK    6  A    between atoms: C11_13  and  O3_14 
REMARK    7  A    between atoms: C12_16  and  C14_18 
REMARK    8  A    between atoms: C14_18  and  C15_19 
REMARK    9  A    between atoms: C15_19  and  C16_20 
ROOT
HETATM    1  C4  UNL     1      13.546 -27.702  -8.105  1.00  0.00     0.114 C 
HETATM    2  C10 UNL     1      14.006 -29.124  -8.414  1.00  0.00     0.061 C 
HETATM    3  C11 UNL     1      15.218 -28.946  -9.315  1.00  0.00     0.135 C 
HETATM    4  C12 UNL     1      15.883 -27.677  -8.835  1.00  0.00     0.044 C 
HETATM    5  C13 UNL     1      16.954 -28.050  -7.806  1.00  0.00     0.026 C 
HETATM    6  C17 UNL     1      14.786 -26.886  -8.223  1.00  0.00     0.156 C 
HETATM    7  O6  UNL     1      14.888 -25.732  -7.870  1.00  0.00    -0.296 OA
ENDROOT
BRANCH   1   8
HETATM    8  C3  UNL     1      12.982 -27.690  -6.758  1.00  0.00     0.275 C 
HETATM    9  O2  UNL     1      11.974 -27.155  -6.316  1.00  0.00    -0.264 OA
BRANCH   8  10
HETATM   10  O1  UNL     1      13.683 -28.411  -5.737  1.00  0.00    -0.321 OA
BRANCH  10  11
HETATM   11  C2  UNL     1      14.096 -27.873  -4.543  1.00  0.00     0.174 C 
HETATM   12  C1  UNL     1      15.440 -27.207  -4.508  1.00  0.00     0.034 C 
ENDBRANCH  10  11
ENDBRANCH   8  10
ENDBRANCH   1   8
BRANCH   1  13
HETATM   13  C5  UNL     1      12.532 -27.253  -9.116  1.00  0.00     0.055 C 
BRANCH  13  14
HETATM   14  C6  UNL     1      12.718 -25.902  -9.653  1.00  0.00    -0.023 C 
HETATM   15  C7  UNL     1      11.843 -24.921  -9.548  1.00  0.00    -0.091 C 
HETATM   16  C8  UNL     1      10.539 -25.093  -8.856  1.00  0.00     0.042 C 
HETATM   17  C9  UNL     1      12.152 -23.600 -10.138  1.00  0.00     0.042 C 
ENDBRANCH  13  14
ENDBRANCH   1  13
BRANCH   3  18
HETATM   18  O3  UNL     1      14.746 -28.886 -10.606  1.00  0.00    -0.394 OA
ATOM     19  H3  UNL     1      15.299 -29.456 -11.126  1.00  0.00     0.210 HD
ENDBRANCH   3  18
BRANCH   4  20
HETATM   20  C14 UNL     1      16.588 -26.961  -9.962  1.00  0.00     0.030 C 
BRANCH  20  21
HETATM   21  C15 UNL     1      17.880 -26.391  -9.455  1.00  0.00     0.114 C 
BRANCH  21  22
HETATM   22  C16 UNL     1      18.751 -25.893 -10.535  1.00  0.00     0.172 C 
HETATM   23  O4  UNL     1      19.371 -26.693 -11.275  1.00  0.00    -0.648 OA
HETATM   24  O5  UNL     1      18.925 -24.528 -10.773  1.00  0.00    -0.648 OA
ENDBRANCH  21  22
ENDBRANCH  20  21
ENDBRANCH   4  20
TORSDOF 9
ENDMDL
MODEL 4
REMARK VINA RESULT: -5.577409863      1.856      5.385
REMARK  9 active torsions:
REMARK  status: ('A' for Active; 'I' for Inactive)
REMARK    1  A    between atoms: C2_2  and  O1_3 
REMARK    2  A    between atoms: O1_3  and  C3_4 
REMARK    3  A    between atoms: C3_4  and  C4_6 
REMARK    4  A    between atoms: C4_6  and  C5_7 
REMARK    5  A    between atoms: C5_7  and  C6_8 
REMARK    6  A    between atoms: C11_13  and  O3_14 
REMARK    7  A    between atoms: C12_16  and  C14_18 
REMARK    8  A    between atoms: C14_18  and  C15_19 
REMARK    9  A    between atoms: C15_19  and  C16_20 
ROOT
HETATM    1  C4  UNL     1      14.565 -28.099  -8.547  1.00  0.00     0.114 C 
HETATM    2  C10 UNL     1      14.915 -27.000  -7.547  1.00  0.00     0.061 C 
HETATM    3  C11 UNL     1      14.639 -27.622  -6.186  1.00  0.00     0.135 C 
HETATM    4  C12 UNL     1      14.981 -29.085  -6.345  1.00  0.00     0.044 C 
HETATM    5  C13 UNL     1      16.437 -29.292  -5.921  1.00  0.00     0.026 C 
HETATM    6  C17 UNL     1      14.785 -29.362  -7.790  1.00  0.00     0.156 C 
HETATM    7  O6  UNL     1      14.801 -30.467  -8.284  1.00  0.00    -0.296 OA
ENDROOT
BRANCH   1   8
HETATM    8  C3  UNL     1      15.453 -27.962  -9.698  1.00  0.00     0.275 C 
HETATM    9  O2  UNL     1      15.563 -28.641 -10.711  1.00  0.00    -0.264 OA
BRANCH   8  10
HETATM   10  O1  UNL     1      16.377 -26.867  -9.700  1.00  0.00    -0.321 OA
BRANCH  10  11
HETATM   11  C2  UNL     1      17.682 -26.944 -10.122  1.00  0.00     0.174 C 
HETATM   12  C1  UNL     1      18.384 -25.658 -10.449  1.00  0.00     0.034 C 
ENDBRANCH  10  11
ENDBRANCH   8  10
ENDBRANCH   1   8
BRANCH   1  13
HETATM   13  C5  UNL     1      13.128 -27.986  -8.962  1.00  0.00     0.055 C 
BRANCH  13  14
HETATM   14  C6  UNL     1      12.797 -26.849  -9.825  1.00  0.00    -0.023 C 
HETATM   15  C7  UNL     1      11.964 -25.878  -9.506  1.00  0.00    -0.091 C 
HETATM   16  C8  UNL     1      11.253 -25.839  -8.202  1.00  0.00     0.042 C 
HETATM   17  C9  UNL     1      11.714 -24.784 -10.471  1.00  0.00     0.042 C 
ENDBRANCH  13  14
ENDBRANCH   1  13
BRANCH   3  18
HETATM   18  O3  UNL     1      13.316 -27.375  -5.899  1.00  0.00    -0.394 OA
ATOM     19  H3  UNL     1      12.930 -28.208  -5.656  1.00  0.00     0.210 HD
ENDBRANCH   3  18
BRANCH   4  20
HETATM   20  C14 UNL     1      14.134 -29.952  -5.444  1.00  0.00     0.030 C 
BRANCH  20  21
HETATM   21  C15 UNL     1      14.591 -29.786  -4.026  1.00  0.00     0.114 C 
BRANCH  21  22
HETATM   22  C16 UNL     1      13.516 -29.331  -3.125  1.00  0.00     0.172 C 
HETATM   23  O4  UNL     1      12.753 -30.159  -2.574  1.00  0.00    -0.648 OA
HETATM   24  O5  UNL     1      13.302 -27.978  -2.854  1.00  0.00    -0.648 OA
ENDBRANCH  21  22
ENDBRANCH  20  21
ENDBRANCH   4  20
TORSDOF 9
ENDMDL
MODEL 5
REMARK VINA RESULT: -5.576276131      0.513      1.036
REMARK  9 active torsions:
REMARK  status: ('A' for Active; 'I' for Inactive)
REMARK    1  A    between atoms: C2_2  and  O1_3 
REMARK    2  A    between atoms: O1_3  and  C3_4 
REMARK    3  A    between atoms: C3_4  and  C4_6 
REMARK    4  A    between atoms: C4_6  and  C5_7 
REMARK    5  A    between atoms: C5_7  and  C6_8 
REMARK    6  A    between atoms: C11_13  and  O3_14 
REMARK    7  A    between atoms: C12_16  and  C14_18 
REMARK    8  A    between atoms: C14_18  and  C15_19 
REMARK    9  A    between atoms: C15_19  and  C16_20 
ROOT
HETATM    1  C4  UNL     1      13.724 -27.839  -8.155  1.00  0.00     0.114 C 
HETATM    2  C10 UNL     1      14.235 -29.245  -8.462  1.00  0.00     0.061 C 
HETATM    3  C11 UNL     1      15.472 -29.023  -9.318  1.00  0.00     0.135 C 
HETATM    4  C12 UNL     1      16.084 -27.741  -8.801  1.00  0.00     0.044 C 
HETATM    5  C13 UNL     1      17.128 -28.096  -7.740  1.00  0.00     0.026 C 
HETATM    6  C17 UNL     1      14.945 -26.988  -8.220  1.00  0.00     0.156 C 
HETATM    7  O6  UNL     1      15.001 -25.836  -7.852  1.00  0.00    -0.296 OA
ENDROOT
BRANCH   1   8
HETATM    8  C3  UNL     1      13.114 -27.859  -6.829  1.00  0.00     0.275 C 
HETATM    9  O2  UNL     1      12.146 -27.255  -6.383  1.00  0.00    -0.264 OA
BRANCH   8  10
HETATM   10  O1  UNL     1      13.702 -28.709  -5.837  1.00  0.00    -0.321 OA
BRANCH  10  11
HETATM   11  C2  UNL     1      14.092 -28.299  -4.586  1.00  0.00     0.174 C 
HETATM   12  C1  UNL     1      15.248 -27.346  -4.494  1.00  0.00     0.034 C 
ENDBRANCH  10  11
ENDBRANCH   8  10
ENDBRANCH   1   8
BRANCH   1  13
HETATM   13  C5  UNL     1      12.734 -27.406  -9.196  1.00  0.00     0.055 C 
BRANCH  13  14
HETATM   14  C6  UNL     1      11.763 -26.393  -8.775  1.00  0.00    -0.023 C 
HETATM   15  C7  UNL     1      11.538 -25.257  -9.404  1.00  0.00    -0.091 C 
HETATM   16  C8  UNL     1      12.271 -24.876 -10.640  1.00  0.00     0.042 C 
HETATM   17  C9  UNL     1      10.528 -24.315  -8.873  1.00  0.00     0.042 C 
ENDBRANCH  13  14
ENDBRANCH   1  13
BRANCH   3  18
HETATM   18  O3  UNL     1      15.044 -28.961 -10.624  1.00  0.00    -0.394 OA
ATOM     19  H3  UNL     1      14.989 -29.856 -10.936  1.00  0.00     0.210 HD
ENDBRANCH   3  18
BRANCH   4  20
HETATM   20  C14 UNL     1      16.807 -26.993  -9.895  1.00  0.00     0.030 C 
BRANCH  20  21
HETATM   21  C15 UNL     1      18.223 -27.481  -9.975  1.00  0.00     0.114 C 
BRANCH  21  22
HETATM   22  C16 UNL     1      18.533 -28.137 -11.259  1.00  0.00     0.172 C 
HETATM   23  O4  UNL     1      19.426 -27.680 -12.010  1.00  0.00    -0.648 OA
HETATM   24  O5  UNL     1      17.853 -29.279 -11.688  1.00  0.00    -0.648 OA
ENDBRANCH  21  22
ENDBRANCH  20  21
ENDBRANCH   4  20
TORSDOF 9
ENDMDL
