MODEL 1
REMARK VINA RESULT: -7.448712417      0.000      0.000
REMARK  6 active torsions:
REMARK  status: ('A' for Active; 'I' for Inactive)
REMARK    1  A    between atoms: C4_4  and  N1_5 
REMARK       I    between atoms: N1_5  and  C6_7 
REMARK    2  A    between atoms: C6_7  and  C7_9 
REMARK    3  A    between atoms: C7_9  and  N2_10 
REMARK    4  A    between atoms: N3_15  and  C13_17 
REMARK    5  A    between atoms: C13_17  and  C14_18 
REMARK    6  A    between atoms: C14_18  and  C15_19 
ROOT
HETATM    1  C1  UNL     1      14.910 -14.329  20.863  1.00  0.00     0.040 C 
HETATM    2  C2  UNL     1      16.056 -13.697  20.153  1.00  0.00     0.188 C 
HETATM    3  C3  UNL     1      17.338 -14.186  20.819  1.00  0.00     0.060 C 
HETATM    4  C4  UNL     1      17.998 -12.965  21.413  1.00  0.00     0.114 C 
HETATM    5  C11 UNL     1      16.792 -12.021  21.516  1.00  0.00     0.262 C 
HETATM    6  N3  UNL     1      16.158 -12.282  20.261  1.00  0.00    -0.065 N 
HETATM    7  C12 UNL     1      17.064 -11.841  19.215  1.00  0.00     0.273 C 
ENDROOT
BRANCH   6   8
HETATM    8  C13 UNL     1      14.896 -11.574  20.096  1.00  0.00     0.241 C 
BRANCH   8   9
HETATM    9  C14 UNL     1      14.649 -10.576  21.148  1.00  0.00     0.057 C 
BRANCH   9  10
HETATM   10  C15 UNL     1      13.453 -10.737  21.932  1.00  0.00     0.010 C 
HETATM   11  C16 UNL     1      12.814  -9.968  22.764  1.00  0.00     0.101 A 
HETATM   12  N4  UNL     1      13.071  -8.664  23.209  1.00  0.00    -0.304 N 
HETATM   13  C18 UNL     1      11.551 -10.360  23.478  1.00  0.00     0.276 A 
HETATM   14  C17 UNL     1      12.076  -8.201  24.146  1.00  0.00     0.327 A 
ATOM     15  H4  UNL     1      13.870  -8.107  22.906  1.00  0.00     0.171 HD
HETATM   16  O2  UNL     1      12.009  -7.100  24.726  1.00  0.00    -0.247 OA
HETATM   17  N5  UNL     1      11.170  -9.262  24.282  1.00  0.00    -0.274 N 
ATOM     18  H5  UNL     1      10.344  -9.244  24.881  1.00  0.00     0.173 HD
HETATM   19  O3  UNL     1      10.972 -11.465  23.359  1.00  0.00    -0.266 OA
ENDBRANCH   9  10
ENDBRANCH   8   9
ENDBRANCH   6   8
BRANCH   4  20
HETATM   20  N1  UNL     1      18.625 -13.202  22.672  1.00  0.00    -0.349 N 
HETATM   21  C5  UNL     1      17.807 -13.577  23.813  1.00  0.00     0.153 C 
HETATM   22  C6  UNL     1      20.028 -13.067  22.782  1.00  0.00     0.246 C 
HETATM   23  O1  UNL     1      20.718 -12.744  21.794  1.00  0.00    -0.272 OA
BRANCH  22  24
HETATM   24  C7  UNL     1      20.679 -13.311  24.079  1.00  0.00     0.338 C 
BRANCH  24  25
HETATM   25  N2  UNL     1      21.269 -14.632  24.110  1.00  0.00    -0.070 N 
HETATM   26  C8  UNL     1      22.705 -14.468  24.180  1.00  0.00     0.272 C 
HETATM   27  C9  UNL     1      20.931 -15.376  22.927  1.00  0.00     0.272 C 
HETATM   28  C10 UNL     1      20.747 -15.298  25.292  1.00  0.00     0.272 C 
ENDBRANCH  24  25
ENDBRANCH  22  24
ENDBRANCH   4  20
TORSDOF 6
ENDMDL
MODEL 2
REMARK VINA RESULT: -7.331336494      1.280      1.605
REMARK  6 active torsions:
REMARK  status: ('A' for Active; 'I' for Inactive)
REMARK    1  A    between atoms: C4_4  and  N1_5 
REMARK       I    between atoms: N1_5  and  C6_7 
REMARK    2  A    between atoms: C6_7  and  C7_9 
REMARK    3  A    between atoms: C7_9  and  N2_10 
REMARK    4  A    between atoms: N3_15  and  C13_17 
REMARK    5  A    between atoms: C13_17  and  C14_18 
REMARK    6  A    between atoms: C14_18  and  C15_19 
ROOT
HETATM    1  C1  UNL     1      13.207 -13.786  19.815  1.00  0.00     0.040 C 
HETATM    2  C2  UNL     1      14.415 -13.337  19.070  1.00  0.00     0.188 C 
HETATM    3  C3  UNL     1      15.596 -14.168  19.562  1.00  0.00     0.060 C 
HETATM    4  C4  UNL     1      16.553 -13.198  20.213  1.00  0.00     0.114 C 
HETATM    5  C11 UNL     1      15.600 -12.035  20.521  1.00  0.00     0.262 C 
HETATM    6  N3  UNL     1      14.841 -12.002  19.310  1.00  0.00    -0.065 N 
HETATM    7  C12 UNL     1      15.750 -11.646  18.235  1.00  0.00     0.273 C 
ENDROOT
BRANCH   6   8
HETATM    8  C13 UNL     1      13.762 -11.022  19.335  1.00  0.00     0.241 C 
BRANCH   8   9
HETATM    9  C14 UNL     1      13.813 -10.132  20.504  1.00  0.00     0.057 C 
BRANCH   9  10
HETATM   10  C15 UNL     1      12.894 -10.411  21.576  1.00  0.00     0.010 C 
HETATM   11  C16 UNL     1      12.501  -9.740  22.619  1.00  0.00     0.101 A 
HETATM   12  N4  UNL     1      12.845  -8.465  23.088  1.00  0.00    -0.304 N 
HETATM   13  C18 UNL     1      11.504 -10.247  23.624  1.00  0.00     0.276 A 
HETATM   14  C17 UNL     1      12.148  -8.124  24.305  1.00  0.00     0.327 A 
ATOM     15  H4  UNL     1      13.511  -7.849  22.623  1.00  0.00     0.171 HD
HETATM   16  O2  UNL     1      12.224  -7.077  24.976  1.00  0.00    -0.247 OA
HETATM   17  N5  UNL     1      11.343  -9.235  24.596  1.00  0.00    -0.274 N 
ATOM     18  H5  UNL     1      10.722  -9.303  25.403  1.00  0.00     0.173 HD
HETATM   19  O3  UNL     1      10.940 -11.365  23.575  1.00  0.00    -0.266 OA
ENDBRANCH   9  10
ENDBRANCH   8   9
ENDBRANCH   6   8
BRANCH   4  20
HETATM   20  N1  UNL     1      17.194 -13.713  21.379  1.00  0.00    -0.349 N 
HETATM   21  C5  UNL     1      16.730 -14.966  21.949  1.00  0.00     0.153 C 
HETATM   22  C6  UNL     1      18.267 -12.994  21.953  1.00  0.00     0.246 C 
HETATM   23  O1  UNL     1      18.655 -11.918  21.453  1.00  0.00    -0.272 OA
BRANCH  22  24
HETATM   24  C7  UNL     1      18.931 -13.521  23.154  1.00  0.00     0.338 C 
BRANCH  24  25
HETATM   25  N2  UNL     1      20.202 -14.121  22.810  1.00  0.00    -0.070 N 
HETATM   26  C8  UNL     1      21.233 -13.140  23.068  1.00  0.00     0.272 C 
HETATM   27  C9  UNL     1      20.236 -14.496  21.423  1.00  0.00     0.272 C 
HETATM   28  C10 UNL     1      20.356 -15.294  23.654  1.00  0.00     0.272 C 
ENDBRANCH  24  25
ENDBRANCH  22  24
ENDBRANCH   4  20
TORSDOF 6
ENDMDL
MODEL 3
REMARK VINA RESULT: -6.941624534      3.777      5.457
REMARK  6 active torsions:
REMARK  status: ('A' for Active; 'I' for Inactive)
REMARK    1  A    between atoms: C4_4  and  N1_5 
REMARK       I    between atoms: N1_5  and  C6_7 
REMARK    2  A    between atoms: C6_7  and  C7_9 
REMARK    3  A    between atoms: C7_9  and  N2_10 
REMARK    4  A    between atoms: N3_15  and  C13_17 
REMARK    5  A    between atoms: C13_17  and  C14_18 
REMARK    6  A    between atoms: C14_18  and  C15_19 
ROOT
HETATM    1  C1  UNL     1      15.363 -11.716  17.952  1.00  0.00     0.040 C 
HETATM    2  C2  UNL     1      15.808 -12.283  19.255  1.00  0.00     0.188 C 
HETATM    3  C3  UNL     1      15.673 -13.799  19.170  1.00  0.00     0.060 C 
HETATM    4  C4  UNL     1      14.641 -14.191  20.201  1.00  0.00     0.114 C 
HETATM    5  C11 UNL     1      13.904 -12.856  20.374  1.00  0.00     0.262 C 
HETATM    6  N3  UNL     1      15.013 -11.954  20.388  1.00  0.00    -0.065 N 
HETATM    7  C12 UNL     1      15.806 -12.255  21.566  1.00  0.00     0.273 C 
ENDROOT
BRANCH   6   8
HETATM    8  C13 UNL     1      14.615 -10.553  20.455  1.00  0.00     0.241 C 
BRANCH   8   9
HETATM    9  C14 UNL     1      13.157 -10.363  20.425  1.00  0.00     0.057 C 
BRANCH   9  10
HETATM   10  C15 UNL     1      12.449 -10.552  21.665  1.00  0.00     0.010 C 
HETATM   11  C16 UNL     1      12.258  -9.805  22.713  1.00  0.00     0.101 A 
HETATM   12  N4  UNL     1      12.688  -8.507  23.019  1.00  0.00    -0.304 N 
HETATM   13  C18 UNL     1      11.461 -10.224  23.916  1.00  0.00     0.276 A 
HETATM   14  C17 UNL     1      12.229  -8.071  24.316  1.00  0.00     0.327 A 
ATOM     15  H4  UNL     1      13.260  -7.935  22.397  1.00  0.00     0.171 HD
HETATM   16  O2  UNL     1      12.430  -6.982  24.886  1.00  0.00    -0.247 OA
HETATM   17  N5  UNL     1      11.485  -9.146  24.828  1.00  0.00    -0.274 N 
ATOM     18  H5  UNL     1      11.024  -9.147  25.737  1.00  0.00     0.173 HD
HETATM   19  O3  UNL     1      10.893 -11.333  24.050  1.00  0.00    -0.266 OA
ENDBRANCH   9  10
ENDBRANCH   8   9
ENDBRANCH   6   8
BRANCH   4  20
HETATM   20  N1  UNL     1      13.780 -15.249  19.785  1.00  0.00    -0.349 N 
HETATM   21  C5  UNL     1      13.487 -15.411  18.371  1.00  0.00     0.153 C 
HETATM   22  C6  UNL     1      13.232 -16.118  20.757  1.00  0.00     0.246 C 
HETATM   23  O1  UNL     1      13.493 -15.966  21.968  1.00  0.00    -0.272 OA
BRANCH  22  24
HETATM   24  C7  UNL     1      12.344 -17.210  20.332  1.00  0.00     0.338 C 
BRANCH  24  25
HETATM   25  N2  UNL     1      13.049 -18.474  20.352  1.00  0.00    -0.070 N 
HETATM   26  C8  UNL     1      12.689 -19.157  21.575  1.00  0.00     0.272 C 
HETATM   27  C9  UNL     1      14.472 -18.271  20.320  1.00  0.00     0.272 C 
HETATM   28  C10 UNL     1      12.619 -19.215  19.178  1.00  0.00     0.272 C 
ENDBRANCH  24  25
ENDBRANCH  22  24
ENDBRANCH   4  20
TORSDOF 6
ENDMDL
MODEL 4
REMARK VINA RESULT: -6.935751458      3.555      5.790
REMARK  6 active torsions:
REMARK  status: ('A' for Active; 'I' for Inactive)
REMARK    1  A    between atoms: C4_4  and  N1_5 
REMARK       I    between atoms: N1_5  and  C6_7 
REMARK    2  A    between atoms: C6_7  and  C7_9 
REMARK    3  A    between atoms: C7_9  and  N2_10 
REMARK    4  A    between atoms: N3_15  and  C13_17 
REMARK    5  A    between atoms: C13_17  and  C14_18 
REMARK    6  A    between atoms: C14_18  and  C15_19 
ROOT
HETATM    1  C1  UNL     1      16.020 -12.398  18.050  1.00  0.00     0.040 C 
HETATM    2  C2  UNL     1      16.255 -12.879  19.439  1.00  0.00     0.188 C 
HETATM    3  C3  UNL     1      15.695 -14.294  19.539  1.00  0.00     0.060 C 
HETATM    4  C4  UNL     1      14.572 -14.235  20.547  1.00  0.00     0.114 C 
HETATM    5  C11 UNL     1      14.242 -12.736  20.504  1.00  0.00     0.262 C 
HETATM    6  N3  UNL     1      15.561 -12.187  20.470  1.00  0.00    -0.065 N 
HETATM    7  C12 UNL     1      16.209 -12.531  21.723  1.00  0.00     0.273 C 
ENDROOT
BRANCH   6   8
HETATM    8  C13 UNL     1      15.577 -10.736  20.334  1.00  0.00     0.241 C 
BRANCH   8   9
HETATM    9  C14 UNL     1      14.232 -10.143  20.297  1.00  0.00     0.057 C 
BRANCH   9  10
HETATM   10  C15 UNL     1      13.822  -9.384  21.450  1.00  0.00     0.010 C 
HETATM   11  C16 UNL     1      13.014  -9.622  22.441  1.00  0.00     0.101 A 
HETATM   12  N4  UNL     1      12.227 -10.739  22.750  1.00  0.00    -0.304 N 
HETATM   13  C18 UNL     1      12.739  -8.656  23.559  1.00  0.00     0.276 A 
HETATM   14  C17 UNL     1      11.477 -10.559  23.970  1.00  0.00     0.327 A 
ATOM     15  H4  UNL     1      12.188 -11.584  22.179  1.00  0.00     0.171 HD
HETATM   16  O2  UNL     1      10.690 -11.351  24.522  1.00  0.00    -0.247 OA
HETATM   17  N5  UNL     1      11.818  -9.279  24.430  1.00  0.00    -0.274 N 
ATOM     18  H5  UNL     1      11.450  -8.854  25.282  1.00  0.00     0.173 HD
HETATM   19  O3  UNL     1      13.251  -7.517  23.666  1.00  0.00    -0.266 OA
ENDBRANCH   9  10
ENDBRANCH   8   9
ENDBRANCH   6   8
BRANCH   4  20
HETATM   20  N1  UNL     1      13.455 -15.058  20.217  1.00  0.00    -0.349 N 
HETATM   21  C5  UNL     1      12.668 -14.747  19.036  1.00  0.00     0.153 C 
HETATM   22  C6  UNL     1      13.138 -16.159  21.046  1.00  0.00     0.246 C 
HETATM   23  O1  UNL     1      13.823 -16.414  22.058  1.00  0.00    -0.272 OA
BRANCH  22  24
HETATM   24  C7  UNL     1      11.987 -17.010  20.709  1.00  0.00     0.338 C 
BRANCH  24  25
HETATM   25  N2  UNL     1      12.427 -18.218  20.045  1.00  0.00    -0.070 N 
HETATM   26  C8  UNL     1      12.343 -19.300  21.002  1.00  0.00     0.272 C 
HETATM   27  C9  UNL     1      13.783 -18.090  19.587  1.00  0.00     0.272 C 
HETATM   28  C10 UNL     1      11.532 -18.429  18.920  1.00  0.00     0.272 C 
ENDBRANCH  24  25
ENDBRANCH  22  24
ENDBRANCH   4  20
TORSDOF 6
ENDMDL
MODEL 5
REMARK VINA RESULT: -6.770205274      1.660      2.173
REMARK  6 active torsions:
REMARK  status: ('A' for Active; 'I' for Inactive)
REMARK    1  A    between atoms: C4_4  and  N1_5 
REMARK       I    between atoms: N1_5  and  C6_7 
REMARK    2  A    between atoms: C6_7  and  C7_9 
REMARK    3  A    between atoms: C7_9  and  N2_10 
REMARK    4  A    between atoms: N3_15  and  C13_17 
REMARK    5  A    between atoms: C13_17  and  C14_18 
REMARK    6  A    between atoms: C14_18  and  C15_19 
ROOT
HETATM    1  C1  UNL     1      16.071 -16.093  21.757  1.00  0.00     0.040 C 
HETATM    2  C2  UNL     1      16.808 -15.121  20.902  1.00  0.00     0.188 C 
HETATM    3  C3  UNL     1      18.213 -14.976  21.475  1.00  0.00     0.060 C 
HETATM    4  C4  UNL     1      18.341 -13.539  21.923  1.00  0.00     0.114 C 
HETATM    5  C11 UNL     1      16.860 -13.165  22.075  1.00  0.00     0.262 C 
HETATM    6  N3  UNL     1      16.320 -13.785  20.906  1.00  0.00    -0.065 N 
HETATM    7  C12 UNL     1      16.899 -13.119  19.752  1.00  0.00     0.273 C 
ENDROOT
BRANCH   6   8
HETATM    8  C13 UNL     1      14.870 -13.675  20.813  1.00  0.00     0.241 C 
BRANCH   8   9
HETATM    9  C14 UNL     1      14.419 -12.957  19.612  1.00  0.00     0.057 C 
BRANCH   9  10
HETATM   10  C15 UNL     1      13.918 -11.621  19.801  1.00  0.00     0.010 C 
HETATM   11  C16 UNL     1      13.206 -11.051  20.729  1.00  0.00     0.101 A 
HETATM   12  N4  UNL     1      12.655 -11.552  21.916  1.00  0.00    -0.304 N 
HETATM   13  C18 UNL     1      12.798  -9.605  20.713  1.00  0.00     0.276 A 
HETATM   14  C17 UNL     1      11.932 -10.542  22.651  1.00  0.00     0.327 A 
ATOM     15  H4  UNL     1      12.754 -12.519  22.225  1.00  0.00     0.171 HD
HETATM   16  O2  UNL     1      11.328 -10.654  23.735  1.00  0.00    -0.247 OA
HETATM   17  N5  UNL     1      12.043  -9.373  21.885  1.00  0.00    -0.274 N 
ATOM     18  H5  UNL     1      11.634  -8.474  22.140  1.00  0.00     0.173 HD
HETATM   19  O3  UNL     1      13.090  -8.785  19.811  1.00  0.00    -0.266 OA
ENDBRANCH   9  10
ENDBRANCH   8   9
ENDBRANCH   6   8
BRANCH   4  20
HETATM   20  N1  UNL     1      19.081 -13.373  23.131  1.00  0.00    -0.349 N 
HETATM   21  C5  UNL     1      18.412 -13.566  24.406  1.00  0.00     0.153 C 
HETATM   22  C6  UNL     1      20.450 -13.024  23.060  1.00  0.00     0.246 C 
HETATM   23  O1  UNL     1      21.011 -12.861  21.958  1.00  0.00    -0.272 OA
BRANCH  22  24
HETATM   24  C7  UNL     1      21.217 -12.852  24.303  1.00  0.00     0.338 C 
BRANCH  24  25
HETATM   25  N2  UNL     1      22.083 -13.990  24.527  1.00  0.00    -0.070 N 
HETATM   26  C8  UNL     1      23.416 -13.615  24.107  1.00  0.00     0.272 C 
HETATM   27  C9  UNL     1      21.645 -15.128  23.766  1.00  0.00     0.272 C 
HETATM   28  C10 UNL     1      22.032 -14.284  25.949  1.00  0.00     0.272 C 
ENDBRANCH  24  25
ENDBRANCH  22  24
ENDBRANCH   4  20
TORSDOF 6
ENDMDL
