MODEL 1
REMARK VINA RESULT: -9.975850592      0.000      0.000
REMARK  14 active torsions:
REMARK  status: ('A' for Active; 'I' for Inactive)
REMARK    1  A    between atoms: C2_2  and  C5_5 
REMARK    2  A    between atoms: C5_5  and  C6_6 
REMARK    3  A    between atoms: C5_5  and  N3_18 
REMARK    4  A    between atoms: C6_6  and  N1_7 
REMARK    5  A    between atoms: N1_7  and  S1_9 
REMARK    6  A    between atoms: S1_9  and  N2_12 
REMARK       I    between atoms: N3_18  and  C11_20 
REMARK       I    between atoms: C11_20  and  N4_22 
REMARK    7  A    between atoms: C15_26  and  N5_27 
REMARK    8  A    between atoms: C15_26  and  C16_31 
REMARK    9  A    between atoms: N5_27  and  O5_29 
REMARK   10  A    between atoms: C16_31  and  O6_32 
REMARK   11  A    between atoms: C16_31  and  N6_34 
REMARK       I    between atoms: N7_37  and  C19_38 
REMARK   12  A    between atoms: C19_38  and  O8_40 
REMARK   13  A    between atoms: O8_40  and  C20_41 
REMARK   14  A    between atoms: C26_47  and  C27_48 
ROOT
HETATM    1  N3  UNL     1     -39.469  -7.161 -19.757  1.00  0.00    -0.336 N 
ATOM      2  H3  UNL     1     -39.029  -7.004 -20.664  1.00  0.00     0.164 HD
HETATM    3  C11 UNL     1     -39.788  -6.072 -18.927  1.00  0.00     0.318 C 
HETATM    4  O4  UNL     1     -40.343  -6.301 -17.795  1.00  0.00    -0.247 OA
HETATM    5  N4  UNL     1     -39.519  -4.749 -19.294  1.00  0.00    -0.331 N 
HETATM    6  C12 UNL     1     -38.895  -4.441 -20.553  1.00  0.00     0.128 C 
HETATM    7  C13 UNL     1     -39.215  -2.982 -20.861  1.00  0.00     0.023 C 
HETATM    8  C14 UNL     1     -38.463  -2.165 -19.799  1.00  0.00     0.045 C 
HETATM    9  C15 UNL     1     -38.828  -2.582 -18.425  1.00  0.00     0.132 C 
HETATM   10  C29 UNL     1     -39.865  -3.674 -18.379  1.00  0.00     0.169 C 
ENDROOT
BRANCH   9  11
HETATM   11  N5  UNL     1     -37.610  -3.223 -17.874  1.00  0.00    -0.285 N 
ATOM     12  H5  UNL     1     -37.647  -3.728 -16.989  1.00  0.00     0.188 HD
BRANCH  11  13
HETATM   13  O5  UNL     1     -36.586  -3.141 -18.482  1.00  0.00    -0.293 OA
ATOM     14  H5  UNL     1     -35.791  -2.912 -18.016  1.00  0.00     0.244 HD
ENDBRANCH  11  13
ENDBRANCH   9  11
BRANCH   9  15
HETATM   15  C16 UNL     1     -39.221  -1.468 -17.555  1.00  0.00     0.146 C 
BRANCH  15  16
HETATM   16  O6  UNL     1     -40.415  -1.551 -16.991  1.00  0.00    -0.347 OA
ATOM     17  H6  UNL     1     -40.467  -2.041 -16.180  1.00  0.00     0.219 HD
ENDBRANCH  15  16
BRANCH  15  18
HETATM   18  N6  UNL     1     -38.543  -0.306 -17.207  1.00  0.00    -0.359 N 
HETATM   19  C17 UNL     1     -39.003   1.021 -17.408  1.00  0.00     0.145 C 
HETATM   20  C18 UNL     1     -37.922   2.082 -17.106  1.00  0.00     0.149 C 
HETATM   21  N7  UNL     1     -36.668   1.683 -17.638  1.00  0.00    -0.310 N 
HETATM   22  C19 UNL     1     -35.827   2.499 -18.443  1.00  0.00     0.364 C 
HETATM   23  C26 UNL     1     -36.190   0.346 -17.328  1.00  0.00     0.208 C 
HETATM   24  O7  UNL     1     -34.716   2.053 -18.892  1.00  0.00    -0.238 OA
HETATM   25  C28 UNL     1     -37.212  -0.444 -16.575  1.00  0.00     0.161 C 
BRANCH  22  26
HETATM   26  O8  UNL     1     -36.115   3.802 -18.801  1.00  0.00    -0.298 OA
BRANCH  26  27
HETATM   27  C20 UNL     1     -35.613   4.401 -19.969  1.00  0.00     0.133 C 
HETATM   28  C21 UNL     1     -35.608   5.908 -19.905  1.00  0.00     0.032 C 
HETATM   29  C22 UNL     1     -34.679   6.399 -20.995  1.00  0.00     0.002 C 
HETATM   30  C23 UNL     1     -34.965   5.834 -22.343  1.00  0.00     0.000 C 
HETATM   31  C24 UNL     1     -35.430   4.420 -22.376  1.00  0.00     0.002 C 
HETATM   32  C25 UNL     1     -36.303   4.003 -21.235  1.00  0.00     0.032 C 
ENDBRANCH  26  27
ENDBRANCH  22  26
BRANCH  23  33
HETATM   33  C27 UNL     1     -35.011   0.514 -16.416  1.00  0.00     0.198 C 
HETATM   34  O9  UNL     1     -35.057   1.227 -15.377  1.00  0.00    -0.646 OA
HETATM   35  O10 UNL     1     -33.848  -0.144 -16.750  1.00  0.00    -0.646 OA
ENDBRANCH  23  33
ENDBRANCH  15  18
ENDBRANCH   9  15
BRANCH   1  36
HETATM   36  C5  UNL     1     -39.764  -8.499 -19.321  1.00  0.00     0.112 C 
BRANCH  36  37
HETATM   37  C2  UNL     1     -38.564  -9.370 -19.617  1.00  0.00    -0.029 C 
HETATM   38  C1  UNL     1     -38.921 -10.826 -19.704  1.00  0.00     0.016 C 
HETATM   39  C3  UNL     1     -38.046  -8.959 -20.987  1.00  0.00     0.016 C 
HETATM   40  C4  UNL     1     -37.447  -9.134 -18.619  1.00  0.00     0.016 C 
ENDBRANCH  36  37
BRANCH  36  41
HETATM   41  C6  UNL     1     -41.034  -8.978 -19.945  1.00  0.00     0.159 C 
BRANCH  41  42
HETATM   42  N1  UNL     1     -41.494  -8.169 -21.036  1.00  0.00    -0.305 N 
ATOM     43  H1  UNL     1     -41.688  -7.171 -20.969  1.00  0.00     0.173 HD
BRANCH  42  44
HETATM   44  S1  UNL     1     -41.679  -9.099 -22.475  1.00  0.00     0.299 S 
HETATM   45  O1  UNL     1     -40.671  -8.692 -23.522  1.00  0.00    -0.188 OA
HETATM   46  O2  UNL     1     -43.033  -8.776 -23.074  1.00  0.00    -0.188 OA
BRANCH  44  47
HETATM   47  N2  UNL     1     -41.645 -10.779 -22.173  1.00  0.00    -0.189 NA
HETATM   48  C7  UNL     1     -42.946 -11.314 -22.070  1.00  0.00     0.135 C 
HETATM   49  C8  UNL     1     -43.193 -12.597 -22.810  1.00  0.00     0.183 C 
HETATM   50  O3  UNL     1     -42.033 -13.360 -22.947  1.00  0.00    -0.389 OA
HETATM   51  C9  UNL     1     -41.178 -12.620 -23.755  1.00  0.00     0.183 C 
HETATM   52  C10 UNL     1     -40.676 -11.448 -22.937  1.00  0.00     0.135 C 
ENDBRANCH  44  47
ENDBRANCH  42  44
ENDBRANCH  41  42
ENDBRANCH  36  41
ENDBRANCH   1  36
TORSDOF 14
ENDMDL
MODEL 2
REMARK VINA RESULT: -9.863211453      0.831      1.363
REMARK  14 active torsions:
REMARK  status: ('A' for Active; 'I' for Inactive)
REMARK    1  A    between atoms: C2_2  and  C5_5 
REMARK    2  A    between atoms: C5_5  and  C6_6 
REMARK    3  A    between atoms: C5_5  and  N3_18 
REMARK    4  A    between atoms: C6_6  and  N1_7 
REMARK    5  A    between atoms: N1_7  and  S1_9 
REMARK    6  A    between atoms: S1_9  and  N2_12 
REMARK       I    between atoms: N3_18  and  C11_20 
REMARK       I    between atoms: C11_20  and  N4_22 
REMARK    7  A    between atoms: C15_26  and  N5_27 
REMARK    8  A    between atoms: C15_26  and  C16_31 
REMARK    9  A    between atoms: N5_27  and  O5_29 
REMARK   10  A    between atoms: C16_31  and  O6_32 
REMARK   11  A    between atoms: C16_31  and  N6_34 
REMARK       I    between atoms: N7_37  and  C19_38 
REMARK   12  A    between atoms: C19_38  and  O8_40 
REMARK   13  A    between atoms: O8_40  and  C20_41 
REMARK   14  A    between atoms: C26_47  and  C27_48 
ROOT
HETATM    1  N3  UNL     1     -39.457  -6.954 -19.897  1.00  0.00    -0.336 N 
ATOM      2  H3  UNL     1     -39.025  -6.765 -20.801  1.00  0.00     0.164 HD
HETATM    3  C11 UNL     1     -39.749  -5.897 -19.018  1.00  0.00     0.318 C 
HETATM    4  O4  UNL     1     -40.296  -6.165 -17.890  1.00  0.00    -0.247 OA
HETATM    5  N4  UNL     1     -39.464  -4.564 -19.332  1.00  0.00    -0.331 N 
HETATM    6  C12 UNL     1     -38.850  -4.212 -20.584  1.00  0.00     0.128 C 
HETATM    7  C13 UNL     1     -39.150  -2.737 -20.826  1.00  0.00     0.023 C 
HETATM    8  C14 UNL     1     -38.373  -1.977 -19.739  1.00  0.00     0.045 C 
HETATM    9  C15 UNL     1     -38.729  -2.446 -18.380  1.00  0.00     0.132 C 
HETATM   10  C29 UNL     1     -39.783  -3.523 -18.368  1.00  0.00     0.169 C 
ENDROOT
BRANCH   9  11
HETATM   11  N5  UNL     1     -37.516  -3.129 -17.871  1.00  0.00    -0.285 N 
ATOM     12  H5  UNL     1     -37.560  -3.702 -17.029  1.00  0.00     0.188 HD
BRANCH  11  13
HETATM   13  O5  UNL     1     -36.487  -2.999 -18.461  1.00  0.00    -0.293 OA
ATOM     14  H5  UNL     1     -36.497  -3.000 -19.412  1.00  0.00     0.244 HD
ENDBRANCH  11  13
ENDBRANCH   9  11
BRANCH   9  15
HETATM   15  C16 UNL     1     -39.095  -1.364 -17.459  1.00  0.00     0.146 C 
BRANCH  15  16
HETATM   16  O6  UNL     1     -40.247  -1.494 -16.822  1.00  0.00    -0.347 OA
ATOM     17  H6  UNL     1     -40.973  -0.976 -17.148  1.00  0.00     0.219 HD
ENDBRANCH  15  16
BRANCH  15  18
HETATM   18  N6  UNL     1     -38.427  -0.192 -17.126  1.00  0.00    -0.359 N 
HETATM   19  C17 UNL     1     -38.895   1.128 -17.351  1.00  0.00     0.145 C 
HETATM   20  C18 UNL     1     -37.824   2.202 -17.061  1.00  0.00     0.149 C 
HETATM   21  N7  UNL     1     -36.564   1.803 -17.580  1.00  0.00    -0.310 N 
HETATM   22  C19 UNL     1     -35.725   2.612 -18.393  1.00  0.00     0.364 C 
HETATM   23  C26 UNL     1     -36.078   0.476 -17.245  1.00  0.00     0.208 C 
HETATM   24  O7  UNL     1     -34.609   2.168 -18.830  1.00  0.00    -0.238 OA
HETATM   25  C28 UNL     1     -37.098  -0.310 -16.485  1.00  0.00     0.161 C 
BRANCH  22  26
HETATM   26  O8  UNL     1     -36.021   3.907 -18.774  1.00  0.00    -0.298 OA
BRANCH  26  27
HETATM   27  C20 UNL     1     -35.559   4.474 -19.974  1.00  0.00     0.133 C 
HETATM   28  C21 UNL     1     -35.574   5.982 -19.960  1.00  0.00     0.032 C 
HETATM   29  C22 UNL     1     -34.681   6.449 -21.090  1.00  0.00     0.002 C 
HETATM   30  C23 UNL     1     -34.995   5.836 -22.411  1.00  0.00     0.000 C 
HETATM   31  C24 UNL     1     -35.440   4.415 -22.385  1.00  0.00     0.002 C 
HETATM   32  C25 UNL     1     -36.276   4.025 -21.207  1.00  0.00     0.032 C 
ENDBRANCH  26  27
ENDBRANCH  22  26
BRANCH  23  33
HETATM   33  C27 UNL     1     -34.906   0.667 -16.330  1.00  0.00     0.198 C 
HETATM   34  O9  UNL     1     -34.958   1.405 -15.309  1.00  0.00    -0.646 OA
HETATM   35  O10 UNL     1     -33.740   0.001 -16.640  1.00  0.00    -0.646 OA
ENDBRANCH  23  33
ENDBRANCH  15  18
ENDBRANCH   9  15
BRANCH   1  36
HETATM   36  C5  UNL     1     -39.769  -8.304 -19.514  1.00  0.00     0.112 C 
BRANCH  36  37
HETATM   37  C2  UNL     1     -38.570  -9.174 -19.824  1.00  0.00    -0.029 C 
HETATM   38  C1  UNL     1     -37.789  -8.672 -21.003  1.00  0.00     0.016 C 
HETATM   39  C3  UNL     1     -37.647  -9.099 -18.617  1.00  0.00     0.016 C 
HETATM   40  C4  UNL     1     -38.969 -10.625 -20.002  1.00  0.00     0.016 C 
ENDBRANCH  36  37
BRANCH  36  41
HETATM   41  C6  UNL     1     -41.032  -8.751 -20.175  1.00  0.00     0.159 C 
BRANCH  41  42
HETATM   42  N1  UNL     1     -41.133  -8.385 -21.559  1.00  0.00    -0.305 N 
ATOM     43  H1  UNL     1     -40.684  -7.568 -21.970  1.00  0.00     0.173 HD
BRANCH  42  44
HETATM   44  S1  UNL     1     -42.108  -9.502 -22.436  1.00  0.00     0.299 S 
HETATM   45  O1  UNL     1     -43.242  -8.800 -23.142  1.00  0.00    -0.188 OA
HETATM   46  O2  UNL     1     -42.771 -10.432 -21.439  1.00  0.00    -0.188 OA
BRANCH  44  47
HETATM   47  N2  UNL     1     -41.191 -10.470 -23.501  1.00  0.00    -0.189 NA
HETATM   48  C7  UNL     1     -39.921  -9.908 -23.751  1.00  0.00     0.135 C 
HETATM   49  C8  UNL     1     -38.756 -10.854 -23.693  1.00  0.00     0.183 C 
HETATM   50  O3  UNL     1     -39.120 -12.160 -24.019  1.00  0.00    -0.389 OA
HETATM   51  C9  UNL     1     -39.992 -12.578 -23.022  1.00  0.00     0.183 C 
HETATM   52  C10 UNL     1     -41.300 -11.841 -23.219  1.00  0.00     0.135 C 
ENDBRANCH  44  47
ENDBRANCH  42  44
ENDBRANCH  41  42
ENDBRANCH  36  41
ENDBRANCH   1  36
TORSDOF 14
ENDMDL
MODEL 3
REMARK VINA RESULT: -9.157626264      2.361      3.514
REMARK  14 active torsions:
REMARK  status: ('A' for Active; 'I' for Inactive)
REMARK    1  A    between atoms: C2_2  and  C5_5 
REMARK    2  A    between atoms: C5_5  and  C6_6 
REMARK    3  A    between atoms: C5_5  and  N3_18 
REMARK    4  A    between atoms: C6_6  and  N1_7 
REMARK    5  A    between atoms: N1_7  and  S1_9 
REMARK    6  A    between atoms: S1_9  and  N2_12 
REMARK       I    between atoms: N3_18  and  C11_20 
REMARK       I    between atoms: C11_20  and  N4_22 
REMARK    7  A    between atoms: C15_26  and  N5_27 
REMARK    8  A    between atoms: C15_26  and  C16_31 
REMARK    9  A    between atoms: N5_27  and  O5_29 
REMARK   10  A    between atoms: C16_31  and  O6_32 
REMARK   11  A    between atoms: C16_31  and  N6_34 
REMARK       I    between atoms: N7_37  and  C19_38 
REMARK   12  A    between atoms: C19_38  and  O8_40 
REMARK   13  A    between atoms: O8_40  and  C20_41 
REMARK   14  A    between atoms: C26_47  and  C27_48 
ROOT
HETATM    1  N3  UNL     1     -39.870  -7.155 -19.623  1.00  0.00    -0.336 N 
ATOM      2  H3  UNL     1     -39.542  -7.165 -20.589  1.00  0.00     0.164 HD
HETATM    3  C11 UNL     1     -39.850  -5.960 -18.883  1.00  0.00     0.318 C 
HETATM    4  O4  UNL     1     -40.272  -5.977 -17.673  1.00  0.00    -0.247 OA
HETATM    5  N4  UNL     1     -39.385  -4.755 -19.421  1.00  0.00    -0.331 N 
HETATM    6  C12 UNL     1     -38.900  -4.685 -20.773  1.00  0.00     0.128 C 
HETATM    7  C13 UNL     1     -38.971  -3.222 -21.195  1.00  0.00     0.023 C 
HETATM    8  C14 UNL     1     -37.932  -2.495 -20.329  1.00  0.00     0.045 C 
HETATM    9  C15 UNL     1     -38.171  -2.714 -18.883  1.00  0.00     0.132 C 
HETATM   10  C29 UNL     1     -39.383  -3.561 -18.592  1.00  0.00     0.169 C 
ENDROOT
BRANCH   9  11
HETATM   11  N5  UNL     1     -37.035  -3.546 -18.421  1.00  0.00    -0.285 N 
ATOM     12  H5  UNL     1     -37.148  -4.184 -17.632  1.00  0.00     0.188 HD
BRANCH  11  13
HETATM   13  O5  UNL     1     -35.986  -3.461 -18.984  1.00  0.00    -0.293 OA
ATOM     14  H5  UNL     1     -35.641  -4.222 -19.434  1.00  0.00     0.244 HD
ENDBRANCH  11  13
ENDBRANCH   9  11
BRANCH   9  15
HETATM   15  C16 UNL     1     -38.213  -1.476 -18.097  1.00  0.00     0.146 C 
BRANCH  15  16
HETATM   16  O6  UNL     1     -39.412  -1.028 -17.763  1.00  0.00    -0.347 OA
ATOM     17  H6  UNL     1     -39.995  -0.804 -18.478  1.00  0.00     0.219 HD
ENDBRANCH  15  16
BRANCH  15  18
HETATM   18  N6  UNL     1     -37.187  -0.666 -17.626  1.00  0.00    -0.359 N 
HETATM   19  C17 UNL     1     -36.751  -0.571 -16.279  1.00  0.00     0.145 C 
HETATM   20  C18 UNL     1     -35.738   0.573 -16.056  1.00  0.00     0.149 C 
HETATM   21  N7  UNL     1     -36.146   1.743 -16.749  1.00  0.00    -0.310 N 
HETATM   22  C19 UNL     1     -36.227   3.042 -16.178  1.00  0.00     0.364 C 
HETATM   23  C26 UNL     1     -36.492   1.617 -18.154  1.00  0.00     0.208 C 
HETATM   24  O7  UNL     1     -36.618   4.041 -16.873  1.00  0.00    -0.238 OA
HETATM   25  C28 UNL     1     -36.476   0.191 -18.601  1.00  0.00     0.161 C 
BRANCH  22  26
HETATM   26  O8  UNL     1     -35.901   3.341 -14.868  1.00  0.00    -0.298 OA
BRANCH  26  27
HETATM   27  C20 UNL     1     -35.219   4.513 -14.500  1.00  0.00     0.133 C 
HETATM   28  C21 UNL     1     -33.867   4.242 -13.888  1.00  0.00     0.032 C 
HETATM   29  C22 UNL     1     -33.086   5.538 -13.938  1.00  0.00     0.002 C 
HETATM   30  C23 UNL     1     -33.806   6.709 -13.364  1.00  0.00     0.000 C 
HETATM   31  C24 UNL     1     -35.277   6.746 -13.585  1.00  0.00     0.002 C 
HETATM   32  C25 UNL     1     -35.964   5.417 -13.571  1.00  0.00     0.032 C 
ENDBRANCH  26  27
ENDBRANCH  22  26
BRANCH  23  33
HETATM   33  C27 UNL     1     -35.419   2.327 -18.925  1.00  0.00     0.198 C 
HETATM   34  O9  UNL     1     -34.192   2.136 -18.706  1.00  0.00    -0.646 OA
HETATM   35  O10 UNL     1     -35.816   3.214 -19.901  1.00  0.00    -0.646 OA
ENDBRANCH  23  33
ENDBRANCH  15  18
ENDBRANCH   9  15
BRANCH   1  36
HETATM   36  C5  UNL     1     -40.354  -8.363 -19.012  1.00  0.00     0.112 C 
BRANCH  36  37
HETATM   37  C2  UNL     1     -39.163  -9.234 -18.677  1.00  0.00    -0.029 C 
HETATM   38  C1  UNL     1     -38.727  -9.082 -17.248  1.00  0.00     0.016 C 
HETATM   39  C3  UNL     1     -39.608 -10.678 -18.852  1.00  0.00     0.016 C 
HETATM   40  C4  UNL     1     -38.013  -8.994 -19.634  1.00  0.00     0.016 C 
ENDBRANCH  36  37
BRANCH  36  41
HETATM   41  C6  UNL     1     -41.362  -9.022 -19.895  1.00  0.00     0.159 C 
BRANCH  41  42
HETATM   42  N1  UNL     1     -41.690  -8.274 -21.074  1.00  0.00    -0.305 N 
ATOM     43  H1  UNL     1     -41.606  -7.261 -21.152  1.00  0.00     0.173 HD
BRANCH  42  44
HETATM   44  S1  UNL     1     -42.243  -9.303 -22.340  1.00  0.00     0.299 S 
HETATM   45  O1  UNL     1     -43.289  -8.618 -23.184  1.00  0.00    -0.188 OA
HETATM   46  O2  UNL     1     -42.949 -10.487 -21.709  1.00  0.00    -0.188 OA
BRANCH  44  47
HETATM   47  N2  UNL     1     -40.961  -9.920 -23.283  1.00  0.00    -0.189 NA
HETATM   48  C7  UNL     1     -39.984  -8.935 -23.539  1.00  0.00     0.135 C 
HETATM   49  C8  UNL     1     -38.555  -9.359 -23.358  1.00  0.00     0.183 C 
HETATM   50  O3  UNL     1     -38.377 -10.725 -23.579  1.00  0.00    -0.389 OA
HETATM   51  C9  UNL     1     -39.090 -11.374 -22.578  1.00  0.00     0.183 C 
HETATM   52  C10 UNL     1     -40.564 -11.207 -22.884  1.00  0.00     0.135 C 
ENDBRANCH  44  47
ENDBRANCH  42  44
ENDBRANCH  41  42
ENDBRANCH  36  41
ENDBRANCH   1  36
TORSDOF 14
ENDMDL
MODEL 4
REMARK VINA RESULT: -9.100095067      3.186     11.635
REMARK  14 active torsions:
REMARK  status: ('A' for Active; 'I' for Inactive)
REMARK    1  A    between atoms: C2_2  and  C5_5 
REMARK    2  A    between atoms: C5_5  and  C6_6 
REMARK    3  A    between atoms: C5_5  and  N3_18 
REMARK    4  A    between atoms: C6_6  and  N1_7 
REMARK    5  A    between atoms: N1_7  and  S1_9 
REMARK    6  A    between atoms: S1_9  and  N2_12 
REMARK       I    between atoms: N3_18  and  C11_20 
REMARK       I    between atoms: C11_20  and  N4_22 
REMARK    7  A    between atoms: C15_26  and  N5_27 
REMARK    8  A    between atoms: C15_26  and  C16_31 
REMARK    9  A    between atoms: N5_27  and  O5_29 
REMARK   10  A    between atoms: C16_31  and  O6_32 
REMARK   11  A    between atoms: C16_31  and  N6_34 
REMARK       I    between atoms: N7_37  and  C19_38 
REMARK   12  A    between atoms: C19_38  and  O8_40 
REMARK   13  A    between atoms: O8_40  and  C20_41 
REMARK   14  A    between atoms: C26_47  and  C27_48 
ROOT
HETATM    1  N3  UNL     1     -36.389   1.070 -17.647  1.00  0.00    -0.336 N 
ATOM      2  H3  UNL     1     -36.123   1.355 -18.590  1.00  0.00     0.164 HD
HETATM    3  C11 UNL     1     -36.945  -0.201 -17.423  1.00  0.00     0.318 C 
HETATM    4  O4  UNL     1     -37.266  -0.533 -16.228  1.00  0.00    -0.247 OA
HETATM    5  N4  UNL     1     -37.160  -1.116 -18.460  1.00  0.00    -0.331 N 
HETATM    6  C12 UNL     1     -36.818  -0.791 -19.818  1.00  0.00     0.128 C 
HETATM    7  C13 UNL     1     -36.682  -2.111 -20.569  1.00  0.00     0.023 C 
HETATM    8  C14 UNL     1     -38.099  -2.704 -20.615  1.00  0.00     0.045 C 
HETATM    9  C15 UNL     1     -38.680  -2.843 -19.259  1.00  0.00     0.132 C 
HETATM   10  C29 UNL     1     -37.750  -2.410 -18.155  1.00  0.00     0.169 C 
ENDROOT
BRANCH   9  11
HETATM   11  N5  UNL     1     -39.784  -1.855 -19.204  1.00  0.00    -0.285 N 
ATOM     12  H5  UNL     1     -40.128  -1.415 -20.058  1.00  0.00     0.188 HD
BRANCH  11  13
HETATM   13  O5  UNL     1     -40.265  -1.582 -18.147  1.00  0.00    -0.293 OA
ATOM     14  H5  UNL     1     -41.151  -1.868 -17.955  1.00  0.00     0.244 HD
ENDBRANCH  11  13
ENDBRANCH   9  11
BRANCH   9  15
HETATM   15  C16 UNL     1     -39.215  -4.180 -18.980  1.00  0.00     0.146 C 
BRANCH  15  16
HETATM   16  O6  UNL     1     -40.087  -4.273 -17.990  1.00  0.00    -0.347 OA
ATOM     17  H6  UNL     1     -39.842  -4.828 -17.260  1.00  0.00     0.219 HD
ENDBRANCH  15  16
BRANCH  15  18
HETATM   18  N6  UNL     1     -38.962  -5.403 -19.589  1.00  0.00    -0.359 N 
HETATM   19  C17 UNL     1     -39.361  -5.782 -20.897  1.00  0.00     0.145 C 
HETATM   20  C18 UNL     1     -39.111  -7.277 -21.191  1.00  0.00     0.149 C 
HETATM   21  N7  UNL     1     -39.491  -8.075 -20.079  1.00  0.00    -0.310 N 
HETATM   22  C19 UNL     1     -40.323  -9.225 -20.148  1.00  0.00     0.364 C 
HETATM   23  C26 UNL     1     -38.982  -7.706 -18.770  1.00  0.00     0.208 C 
HETATM   24  O7  UNL     1     -40.627  -9.878 -19.092  1.00  0.00    -0.238 OA
HETATM   25  C28 UNL     1     -38.218  -6.422 -18.816  1.00  0.00     0.161 C 
BRANCH  22  26
HETATM   26  O8  UNL     1     -40.862  -9.730 -21.316  1.00  0.00    -0.298 OA
BRANCH  26  27
HETATM   27  C20 UNL     1     -40.102 -10.440 -22.262  1.00  0.00     0.133 C 
HETATM   28  C21 UNL     1     -39.982  -9.722 -23.583  1.00  0.00     0.032 C 
HETATM   29  C22 UNL     1     -38.828 -10.354 -24.332  1.00  0.00     0.002 C 
HETATM   30  C23 UNL     1     -38.905 -11.838 -24.434  1.00  0.00     0.000 C 
HETATM   31  C24 UNL     1     -39.473 -12.548 -23.255  1.00  0.00     0.002 C 
HETATM   32  C25 UNL     1     -40.575 -11.830 -22.542  1.00  0.00     0.032 C 
ENDBRANCH  26  27
ENDBRANCH  22  26
BRANCH  23  33
HETATM   33  C27 UNL     1     -38.009  -8.777 -18.371  1.00  0.00     0.198 C 
HETATM   34  O9  UNL     1     -37.194  -9.287 -19.187  1.00  0.00    -0.646 OA
HETATM   35  O10 UNL     1     -38.030  -9.200 -17.061  1.00  0.00    -0.646 OA
ENDBRANCH  23  33
ENDBRANCH  15  18
ENDBRANCH   9  15
BRANCH   1  36
HETATM   36  C5  UNL     1     -36.199   1.968 -16.541  1.00  0.00     0.112 C 
BRANCH  36  37
HETATM   37  C2  UNL     1     -37.025   3.211 -16.792  1.00  0.00    -0.029 C 
HETATM   38  C1  UNL     1     -38.498   2.923 -16.820  1.00  0.00     0.016 C 
HETATM   39  C3  UNL     1     -36.779   4.150 -15.620  1.00  0.00     0.016 C 
HETATM   40  C4  UNL     1     -36.578   3.928 -18.050  1.00  0.00     0.016 C 
ENDBRANCH  36  37
BRANCH  36  41
HETATM   41  C6  UNL     1     -34.744   2.236 -16.335  1.00  0.00     0.159 C 
BRANCH  41  42
HETATM   42  N1  UNL     1     -33.881   1.203 -16.831  1.00  0.00    -0.305 N 
ATOM     43  H1  UNL     1     -33.578   1.123 -17.801  1.00  0.00     0.173 HD
BRANCH  42  44
HETATM   44  S1  UNL     1     -33.421   0.113 -15.578  1.00  0.00     0.299 S 
HETATM   45  O1  UNL     1     -34.455   0.074 -14.480  1.00  0.00    -0.188 OA
HETATM   46  O2  UNL     1     -32.163   0.650 -14.925  1.00  0.00    -0.188 OA
BRANCH  44  47
HETATM   47  N2  UNL     1     -33.059  -1.446 -16.172  1.00  0.00    -0.189 NA
HETATM   48  C7  UNL     1     -33.952  -2.414 -15.669  1.00  0.00     0.135 C 
HETATM   49  C8  UNL     1     -34.498  -3.393 -16.669  1.00  0.00     0.183 C 
HETATM   50  O3  UNL     1     -33.622  -3.603 -17.734  1.00  0.00    -0.389 OA
HETATM   51  C9  UNL     1     -33.534  -2.391 -18.407  1.00  0.00     0.183 C 
HETATM   52  C10 UNL     1     -32.733  -1.443 -17.539  1.00  0.00     0.135 C 
ENDBRANCH  44  47
ENDBRANCH  42  44
ENDBRANCH  41  42
ENDBRANCH  36  41
ENDBRANCH   1  36
TORSDOF 14
ENDMDL
MODEL 5
REMARK VINA RESULT: -9.071954020      3.086     11.542
REMARK  14 active torsions:
REMARK  status: ('A' for Active; 'I' for Inactive)
REMARK    1  A    between atoms: C2_2  and  C5_5 
REMARK    2  A    between atoms: C5_5  and  C6_6 
REMARK    3  A    between atoms: C5_5  and  N3_18 
REMARK    4  A    between atoms: C6_6  and  N1_7 
REMARK    5  A    between atoms: N1_7  and  S1_9 
REMARK    6  A    between atoms: S1_9  and  N2_12 
REMARK       I    between atoms: N3_18  and  C11_20 
REMARK       I    between atoms: C11_20  and  N4_22 
REMARK    7  A    between atoms: C15_26  and  N5_27 
REMARK    8  A    between atoms: C15_26  and  C16_31 
REMARK    9  A    between atoms: N5_27  and  O5_29 
REMARK   10  A    between atoms: C16_31  and  O6_32 
REMARK   11  A    between atoms: C16_31  and  N6_34 
REMARK       I    between atoms: N7_37  and  C19_38 
REMARK   12  A    between atoms: C19_38  and  O8_40 
REMARK   13  A    between atoms: O8_40  and  C20_41 
REMARK   14  A    between atoms: C26_47  and  C27_48 
ROOT
HETATM    1  N3  UNL     1     -36.599   1.028 -17.655  1.00  0.00    -0.336 N 
ATOM      2  H3  UNL     1     -36.562   1.401 -18.604  1.00  0.00     0.164 HD
HETATM    3  C11 UNL     1     -37.039  -0.288 -17.430  1.00  0.00     0.318 C 
HETATM    4  O4  UNL     1     -37.070  -0.730 -16.227  1.00  0.00    -0.247 OA
HETATM    5  N4  UNL     1     -37.443  -1.130 -18.472  1.00  0.00    -0.331 N 
HETATM    6  C12 UNL     1     -37.428  -0.680 -19.837  1.00  0.00     0.128 C 
HETATM    7  C13 UNL     1     -37.411  -1.926 -20.715  1.00  0.00     0.023 C 
HETATM    8  C14 UNL     1     -38.777  -2.596 -20.501  1.00  0.00     0.045 C 
HETATM    9  C15 UNL     1     -39.033  -2.875 -19.069  1.00  0.00     0.132 C 
HETATM   10  C29 UNL     1     -37.898  -2.476 -18.162  1.00  0.00     0.169 C 
ENDROOT
BRANCH   9  11
HETATM   11  N5  UNL     1     -40.136  -1.962 -18.684  1.00  0.00    -0.285 N 
ATOM     12  H5  UNL     1     -40.704  -1.507 -19.399  1.00  0.00     0.188 HD
BRANCH  11  13
HETATM   13  O5  UNL     1     -40.349  -1.766 -17.526  1.00  0.00    -0.293 OA
ATOM     14  H5  UNL     1     -41.133  -1.291 -17.275  1.00  0.00     0.244 HD
ENDBRANCH  11  13
ENDBRANCH   9  11
BRANCH   9  15
HETATM   15  C16 UNL     1     -39.438  -4.259 -18.800  1.00  0.00     0.146 C 
BRANCH  15  16
HETATM   16  O6  UNL     1     -40.229  -4.452 -17.757  1.00  0.00    -0.347 OA
ATOM     17  H6  UNL     1     -40.041  -5.209 -17.216  1.00  0.00     0.219 HD
ENDBRANCH  15  16
BRANCH  15  18
HETATM   18  N6  UNL     1     -39.130  -5.440 -19.466  1.00  0.00    -0.359 N 
HETATM   19  C17 UNL     1     -39.458  -5.748 -20.811  1.00  0.00     0.145 C 
HETATM   20  C18 UNL     1     -39.162  -7.219 -21.179  1.00  0.00     0.149 C 
HETATM   21  N7  UNL     1     -39.579  -8.087 -20.135  1.00  0.00    -0.310 N 
HETATM   22  C19 UNL     1     -40.382  -9.246 -20.311  1.00  0.00     0.364 C 
HETATM   23  C26 UNL     1     -39.140  -7.787 -18.783  1.00  0.00     0.208 C 
HETATM   24  O7  UNL     1     -40.723  -9.966 -19.311  1.00  0.00    -0.238 OA
HETATM   25  C28 UNL     1     -38.402  -6.488 -18.717  1.00  0.00     0.161 C 
BRANCH  22  26
HETATM   26  O8  UNL     1     -40.853  -9.691 -21.532  1.00  0.00    -0.298 OA
BRANCH  26  27
HETATM   27  C20 UNL     1     -40.041 -10.359 -22.466  1.00  0.00     0.133 C 
HETATM   28  C21 UNL     1     -39.880  -9.599 -23.758  1.00  0.00     0.032 C 
HETATM   29  C22 UNL     1     -38.684 -10.188 -24.477  1.00  0.00     0.002 C 
HETATM   30  C23 UNL     1     -38.728 -11.669 -24.626  1.00  0.00     0.000 C 
HETATM   31  C24 UNL     1     -39.332 -12.424 -23.494  1.00  0.00     0.002 C 
HETATM   32  C25 UNL     1     -40.476 -11.748 -22.807  1.00  0.00     0.032 C 
ENDBRANCH  26  27
ENDBRANCH  22  26
BRANCH  23  33
HETATM   33  C27 UNL     1     -38.166  -8.861 -18.400  1.00  0.00     0.198 C 
HETATM   34  O9  UNL     1     -37.228  -9.225 -19.160  1.00  0.00    -0.646 OA
HETATM   35  O10 UNL     1     -38.325  -9.456 -17.168  1.00  0.00    -0.646 OA
ENDBRANCH  23  33
ENDBRANCH  15  18
ENDBRANCH   9  15
BRANCH   1  36
HETATM   36  C5  UNL     1     -36.202   1.846 -16.542  1.00  0.00     0.112 C 
BRANCH  36  37
HETATM   37  C2  UNL     1     -36.862   3.200 -16.690  1.00  0.00    -0.029 C 
HETATM   38  C1  UNL     1     -36.478   3.887 -17.968  1.00  0.00     0.016 C 
HETATM   39  C3  UNL     1     -38.362   2.956 -16.751  1.00  0.00     0.016 C 
HETATM   40  C4  UNL     1     -36.593   4.081 -15.486  1.00  0.00     0.016 C 
ENDBRANCH  36  37
BRANCH  36  41
HETATM   41  C6  UNL     1     -34.712   1.902 -16.446  1.00  0.00     0.159 C 
BRANCH  41  42
HETATM   42  N1  UNL     1     -34.102   0.664 -16.057  1.00  0.00    -0.305 N 
ATOM     43  H1  UNL     1     -34.241   0.214 -15.153  1.00  0.00     0.173 HD
BRANCH  42  44
HETATM   44  S1  UNL     1     -33.104   0.033 -17.312  1.00  0.00     0.299 S 
HETATM   45  O1  UNL     1     -31.794   0.777 -17.395  1.00  0.00    -0.188 OA
HETATM   46  O2  UNL     1     -33.795   0.290 -18.636  1.00  0.00    -0.188 OA
BRANCH  44  47
HETATM   47  N2  UNL     1     -32.876  -1.653 -17.176  1.00  0.00    -0.189 NA
HETATM   48  C7  UNL     1     -32.402  -2.011 -15.897  1.00  0.00     0.135 C 
HETATM   49  C8  UNL     1     -33.072  -3.190 -15.251  1.00  0.00     0.183 C 
HETATM   50  O3  UNL     1     -33.574  -4.092 -16.189  1.00  0.00    -0.389 OA
HETATM   51  C9  UNL     1     -34.579  -3.418 -16.872  1.00  0.00     0.183 C 
HETATM   52  C10 UNL     1     -33.916  -2.390 -17.765  1.00  0.00     0.135 C 
ENDBRANCH  44  47
ENDBRANCH  42  44
ENDBRANCH  41  42
ENDBRANCH  36  41
ENDBRANCH   1  36
TORSDOF 14
ENDMDL
