MODEL 1
REMARK VINA RESULT: -5.850821335      0.000      0.000
REMARK  6 active torsions:
REMARK  status: ('A' for Active; 'I' for Inactive)
REMARK    1  A    between atoms: C2_2  and  N1_3 
REMARK    2  A    between atoms: C2_2  and  C3_7 
REMARK    3  A    between atoms: C3_7  and  S1_8 
REMARK    4  A    between atoms: S1_8  and  C4_9 
REMARK    5  A    between atoms: C4_9  and  C6_14 
REMARK    6  A    between atoms: C9_17  and  C10_18 
ROOT
HETATM    1  C4  UNL     1      -3.105  83.999  26.258  1.00  0.00     0.077 C 
HETATM    2  N2  UNL     1      -3.898  84.933  26.383  1.00  0.00    -0.290 N 
ATOM      3  H2  UNL     1      -4.835  84.744  26.027  1.00  0.00     0.178 HD
HETATM    4  C5  UNL     1      -3.738  86.171  26.913  1.00  0.00     0.182 C 
HETATM    5  N3  UNL     1      -3.627  87.257  27.363  1.00  0.00    -0.172 NA
ENDROOT
BRANCH   1   6
HETATM    6  S1  UNL     1      -3.663  82.475  25.494  1.00  0.00    -0.112 SA
BRANCH   6   7
HETATM    7  C3  UNL     1      -4.433  82.683  23.914  1.00  0.00     0.113 C 
BRANCH   7   8
HETATM    8  C2  UNL     1      -5.865  83.076  24.026  1.00  0.00     0.189 C 
HETATM    9  C1  UNL     1      -6.624  82.339  22.913  1.00  0.00     0.040 C 
BRANCH   8  10
HETATM   10  N1  UNL     1      -6.517  82.776  25.249  1.00  0.00    -0.075 N 
ATOM     11  H13 UNL     1      -6.217  83.373  26.019  1.00  0.00     0.274 HD
ATOM     12  H12 UNL     1      -7.502  83.042  25.252  1.00  0.00     0.274 HD
ATOM     13  H11 UNL     1      -6.372  81.783  25.433  1.00  0.00     0.274 HD
ENDBRANCH   8  10
ENDBRANCH   7   8
ENDBRANCH   6   7
ENDBRANCH   1   6
BRANCH   1  14
HETATM   14  C6  UNL     1      -1.705  83.996  26.711  1.00  0.00     0.164 C 
HETATM   15  C7  UNL     1      -0.847  84.747  25.703  1.00  0.00     0.033 C 
HETATM   16  C8  UNL     1       0.558  84.255  25.661  1.00  0.00     0.037 C 
HETATM   17  C9  UNL     1       0.979  83.373  26.782  1.00  0.00     0.154 C 
HETATM   18  O1  UNL     1      -0.018  82.740  27.478  1.00  0.00    -0.280 OA
HETATM   19  N4  UNL     1      -1.198  82.673  26.822  1.00  0.00    -0.089 NA
BRANCH  17  20
HETATM   20  C10 UNL     1       2.008  82.338  26.380  1.00  0.00    -0.023 C 
HETATM   21  C11 UNL     1       3.169  82.946  25.638  1.00  0.00     0.017 C 
HETATM   22  C12 UNL     1       2.565  81.767  27.681  1.00  0.00     0.017 C 
HETATM   23  C13 UNL     1       1.420  81.179  25.628  1.00  0.00     0.017 C 
ENDBRANCH  17  20
ENDBRANCH   1  14
TORSDOF 6
ENDMDL
MODEL 2
REMARK VINA RESULT: -5.827495897      2.669      6.302
REMARK  6 active torsions:
REMARK  status: ('A' for Active; 'I' for Inactive)
REMARK    1  A    between atoms: C2_2  and  N1_3 
REMARK    2  A    between atoms: C2_2  and  C3_7 
REMARK    3  A    between atoms: C3_7  and  S1_8 
REMARK    4  A    between atoms: S1_8  and  C4_9 
REMARK    5  A    between atoms: C4_9  and  C6_14 
REMARK    6  A    between atoms: C9_17  and  C10_18 
ROOT
HETATM    1  C4  UNL     1      -2.847  83.668  25.691  1.00  0.00     0.077 C 
HETATM    2  N2  UNL     1      -3.444  82.724  25.171  1.00  0.00    -0.290 N 
ATOM      3  H2  UNL     1      -3.252  81.817  25.596  1.00  0.00     0.178 HD
HETATM    4  C5  UNL     1      -4.314  82.685  24.131  1.00  0.00     0.182 C 
HETATM    5  N3  UNL     1      -5.068  82.619  23.226  1.00  0.00    -0.172 NA
ENDROOT
BRANCH   1   6
HETATM    6  S1  UNL     1      -1.751  83.354  27.076  1.00  0.00    -0.112 SA
BRANCH   6   7
HETATM    7  C3  UNL     1      -0.364  82.322  26.697  1.00  0.00     0.113 C 
BRANCH   7   8
HETATM    8  C2  UNL     1       0.935  83.034  26.856  1.00  0.00     0.189 C 
HETATM    9  C1  UNL     1       2.009  81.964  27.097  1.00  0.00     0.040 C 
BRANCH   8  10
HETATM   10  N1  UNL     1       1.369  83.827  25.764  1.00  0.00    -0.075 N 
ATOM     11  H13 UNL     1       1.153  84.817  25.878  1.00  0.00     0.274 HD
ATOM     12  H12 UNL     1       2.383  83.918  25.714  1.00  0.00     0.274 HD
ATOM     13  H11 UNL     1       0.963  83.425  24.918  1.00  0.00     0.274 HD
ENDBRANCH   8  10
ENDBRANCH   7   8
ENDBRANCH   6   7
ENDBRANCH   1   6
BRANCH   1  14
HETATM   14  C6  UNL     1      -2.965  85.080  25.294  1.00  0.00     0.164 C 
HETATM   15  C7  UNL     1      -1.576  85.693  25.193  1.00  0.00     0.033 C 
HETATM   16  C8  UNL     1      -1.568  87.154  25.479  1.00  0.00     0.037 C 
HETATM   17  C9  UNL     1      -2.894  87.828  25.495  1.00  0.00     0.154 C 
HETATM   18  O1  UNL     1      -3.990  87.029  25.696  1.00  0.00    -0.280 OA
HETATM   19  N4  UNL     1      -3.708  85.827  26.247  1.00  0.00    -0.089 NA
BRANCH  17  20
HETATM   20  C10 UNL     1      -2.968  88.988  26.465  1.00  0.00    -0.023 C 
HETATM   21  C11 UNL     1      -2.616  88.581  27.871  1.00  0.00     0.017 C 
HETATM   22  C12 UNL     1      -1.904  89.985  26.014  1.00  0.00     0.017 C 
HETATM   23  C13 UNL     1      -4.279  89.719  26.415  1.00  0.00     0.017 C 
ENDBRANCH  17  20
ENDBRANCH   1  14
TORSDOF 6
ENDMDL
MODEL 3
REMARK VINA RESULT: -5.674208358      2.316      6.611
REMARK  6 active torsions:
REMARK  status: ('A' for Active; 'I' for Inactive)
REMARK    1  A    between atoms: C2_2  and  N1_3 
REMARK    2  A    between atoms: C2_2  and  C3_7 
REMARK    3  A    between atoms: C3_7  and  S1_8 
REMARK    4  A    between atoms: S1_8  and  C4_9 
REMARK    5  A    between atoms: C4_9  and  C6_14 
REMARK    6  A    between atoms: C9_17  and  C10_18 
ROOT
HETATM    1  C4  UNL     1      -2.377  84.535  25.816  1.00  0.00     0.077 C 
HETATM    2  N2  UNL     1      -1.743  85.562  26.061  1.00  0.00    -0.290 N 
ATOM      3  H2  UNL     1      -1.020  85.453  26.772  1.00  0.00     0.178 HD
HETATM    4  C5  UNL     1      -1.844  86.814  25.548  1.00  0.00     0.182 C 
HETATM    5  N3  UNL     1      -1.912  87.913  25.125  1.00  0.00    -0.172 NA
ENDROOT
BRANCH   1   6
HETATM    6  S1  UNL     1      -1.974  83.027  26.700  1.00  0.00    -0.112 SA
BRANCH   6   7
HETATM    7  C3  UNL     1      -0.421  83.065  27.549  1.00  0.00     0.113 C 
BRANCH   7   8
HETATM    8  C2  UNL     1       0.699  82.555  26.709  1.00  0.00     0.189 C 
HETATM    9  C1  UNL     1       1.229  83.745  25.896  1.00  0.00     0.040 C 
BRANCH   8  10
HETATM   10  N1  UNL     1       1.804  81.987  27.392  1.00  0.00    -0.075 N 
ATOM     11  H13 UNL     1       2.091  81.087  27.007  1.00  0.00     0.274 HD
ATOM     12  H12 UNL     1       2.677  82.487  27.223  1.00  0.00     0.274 HD
ATOM     13  H11 UNL     1       1.557  81.940  28.380  1.00  0.00     0.274 HD
ENDBRANCH   8  10
ENDBRANCH   7   8
ENDBRANCH   6   7
ENDBRANCH   1   6
BRANCH   1  14
HETATM   14  C6  UNL     1      -3.451  84.407  24.818  1.00  0.00     0.164 C 
HETATM   15  C7  UNL     1      -4.645  85.244  25.253  1.00  0.00     0.033 C 
HETATM   16  C8  UNL     1      -5.941  84.696  24.765  1.00  0.00     0.037 C 
HETATM   17  C9  UNL     1      -5.858  83.656  23.704  1.00  0.00     0.154 C 
HETATM   18  O1  UNL     1      -4.668  82.985  23.590  1.00  0.00    -0.280 OA
HETATM   19  N4  UNL     1      -3.881  83.059  24.687  1.00  0.00    -0.089 NA
BRANCH  17  20
HETATM   20  C10 UNL     1      -6.974  82.637  23.771  1.00  0.00    -0.023 C 
HETATM   21  C11 UNL     1      -7.000  81.903  25.086  1.00  0.00     0.017 C 
HETATM   22  C12 UNL     1      -8.276  83.428  23.679  1.00  0.00     0.017 C 
HETATM   23  C13 UNL     1      -6.977  81.684  22.610  1.00  0.00     0.017 C 
ENDBRANCH  17  20
ENDBRANCH   1  14
TORSDOF 6
ENDMDL
MODEL 4
REMARK VINA RESULT: -5.660785664      3.078      5.427
REMARK  6 active torsions:
REMARK  status: ('A' for Active; 'I' for Inactive)
REMARK    1  A    between atoms: C2_2  and  N1_3 
REMARK    2  A    between atoms: C2_2  and  C3_7 
REMARK    3  A    between atoms: C3_7  and  S1_8 
REMARK    4  A    between atoms: S1_8  and  C4_9 
REMARK    5  A    between atoms: C4_9  and  C6_14 
REMARK    6  A    between atoms: C9_17  and  C10_18 
ROOT
HETATM    1  C4  UNL     1       0.549  83.559  26.441  1.00  0.00     0.077 C 
HETATM    2  N2  UNL     1       1.603  82.939  26.585  1.00  0.00    -0.290 N 
ATOM      3  H2  UNL     1       1.619  82.313  27.390  1.00  0.00     0.178 HD
HETATM    4  C5  UNL     1       2.746  82.946  25.855  1.00  0.00     0.182 C 
HETATM    5  N3  UNL     1       3.756  82.936  25.244  1.00  0.00    -0.172 NA
ENDROOT
BRANCH   1   6
HETATM    6  S1  UNL     1      -0.783  83.304  27.616  1.00  0.00    -0.112 SA
BRANCH   6   7
HETATM    7  C3  UNL     1      -2.086  82.257  27.034  1.00  0.00     0.113 C 
BRANCH   7   8
HETATM    8  C2  UNL     1      -3.014  82.966  26.108  1.00  0.00     0.189 C 
HETATM    9  C1  UNL     1      -4.189  82.015  25.834  1.00  0.00     0.040 C 
BRANCH   8  10
HETATM   10  N1  UNL     1      -3.562  84.191  26.564  1.00  0.00    -0.075 N 
ATOM     11  H13 UNL     1      -3.932  84.768  25.809  1.00  0.00     0.274 HD
ATOM     12  H12 UNL     1      -4.435  84.071  27.079  1.00  0.00     0.274 HD
ATOM     13  H11 UNL     1      -2.839  84.661  27.109  1.00  0.00     0.274 HD
ENDBRANCH   8  10
ENDBRANCH   7   8
ENDBRANCH   6   7
ENDBRANCH   1   6
BRANCH   1  14
HETATM   14  C6  UNL     1       0.249  84.502  25.351  1.00  0.00     0.164 C 
HETATM   15  C7  UNL     1       1.510  85.276  24.994  1.00  0.00     0.033 C 
HETATM   16  C8  UNL     1       1.220  86.636  24.461  1.00  0.00     0.037 C 
HETATM   17  C9  UNL     1      -0.190  86.900  24.066  1.00  0.00     0.154 C 
HETATM   18  O1  UNL     1      -1.147  86.090  24.617  1.00  0.00    -0.280 OA
HETATM   19  N4  UNL     1      -0.749  85.437  25.733  1.00  0.00    -0.089 NA
BRANCH  17  20
HETATM   20  C10 UNL     1      -0.611  88.340  24.268  1.00  0.00    -0.023 C 
HETATM   21  C11 UNL     1      -1.812  88.462  25.169  1.00  0.00     0.017 C 
HETATM   22  C12 UNL     1       0.551  89.025  24.982  1.00  0.00     0.017 C 
HETATM   23  C13 UNL     1      -0.812  89.084  22.979  1.00  0.00     0.017 C 
ENDBRANCH  17  20
ENDBRANCH   1  14
TORSDOF 6
ENDMDL
MODEL 5
REMARK VINA RESULT: -5.660409744      3.475      5.453
REMARK  6 active torsions:
REMARK  status: ('A' for Active; 'I' for Inactive)
REMARK    1  A    between atoms: C2_2  and  N1_3 
REMARK    2  A    between atoms: C2_2  and  C3_7 
REMARK    3  A    between atoms: C3_7  and  S1_8 
REMARK    4  A    between atoms: S1_8  and  C4_9 
REMARK    5  A    between atoms: C4_9  and  C6_14 
REMARK    6  A    between atoms: C9_17  and  C10_18 
ROOT
HETATM    1  C4  UNL     1      -1.742  88.023  24.792  1.00  0.00     0.077 C 
HETATM    2  N2  UNL     1      -1.061  88.769  24.087  1.00  0.00    -0.290 N 
ATOM      3  H2  UNL     1      -1.266  89.762  24.201  1.00  0.00     0.178 HD
HETATM    4  C5  UNL     1      -0.087  88.496  23.184  1.00  0.00     0.182 C 
HETATM    5  N3  UNL     1       0.760  88.289  22.389  1.00  0.00    -0.172 NA
ENDROOT
BRANCH   1   6
HETATM    6  S1  UNL     1      -2.966  88.736  25.893  1.00  0.00    -0.112 SA
BRANCH   6   7
HETATM    7  C3  UNL     1      -2.300  89.796  27.144  1.00  0.00     0.113 C 
BRANCH   7   8
HETATM    8  C2  UNL     1      -2.531  89.268  28.518  1.00  0.00     0.189 C 
HETATM    9  C1  UNL     1      -3.827  89.909  29.036  1.00  0.00     0.040 C 
BRANCH   8  10
HETATM   10  N1  UNL     1      -2.675  87.864  28.649  1.00  0.00    -0.075 N 
ATOM     11  H13 UNL     1      -2.462  87.359  27.788  1.00  0.00     0.274 HD
ATOM     12  H12 UNL     1      -1.953  87.441  29.232  1.00  0.00     0.274 HD
ATOM     13  H11 UNL     1      -3.619  87.688  28.992  1.00  0.00     0.274 HD
ENDBRANCH   8  10
ENDBRANCH   7   8
ENDBRANCH   6   7
ENDBRANCH   1   6
BRANCH   1  14
HETATM   14  C6  UNL     1      -1.631  86.557  24.845  1.00  0.00     0.164 C 
HETATM   15  C7  UNL     1      -2.843  85.986  25.567  1.00  0.00     0.033 C 
HETATM   16  C8  UNL     1      -2.548  84.704  26.265  1.00  0.00     0.037 C 
HETATM   17  C9  UNL     1      -1.269  84.036  25.901  1.00  0.00     0.154 C 
HETATM   18  O1  UNL     1      -0.301  84.824  25.335  1.00  0.00    -0.280 OA
HETATM   19  N4  UNL     1      -0.466  86.149  25.549  1.00  0.00    -0.089 NA
BRANCH  17  20
HETATM   20  C10 UNL     1      -0.646  83.264  27.044  1.00  0.00    -0.023 C 
HETATM   21  C11 UNL     1      -0.850  83.945  28.372  1.00  0.00     0.017 C 
HETATM   22  C12 UNL     1      -1.389  81.933  27.110  1.00  0.00     0.017 C 
HETATM   23  C13 UNL     1       0.800  82.929  26.813  1.00  0.00     0.017 C 
ENDBRANCH  17  20
ENDBRANCH   1  14
TORSDOF 6
ENDMDL
