MODEL 1
REMARK VINA RESULT: -8.200896292      0.000      0.000
REMARK  17 active torsions:
REMARK  status: ('A' for Active; 'I' for Inactive)
REMARK    1  A    between atoms: C2_2  and  C3_3 
REMARK       I    between atoms: N2_6  and  C4_7 
REMARK    2  A    between atoms: C4_7  and  C5_9 
REMARK    3  A    between atoms: C5_9  and  N3_10 
REMARK    4  A    between atoms: N3_10  and  C6_12 
REMARK    5  A    between atoms: C6_12  and  O2_13 
REMARK    6  A    between atoms: C6_12  and  C7_15 
REMARK    7  A    between atoms: C7_15  and  C8_16 
REMARK    8  A    between atoms: C7_15  and  C15_25 
REMARK    9  A    between atoms: C8_16  and  C9_17 
REMARK   10  A    between atoms: C9_17  and  C11_19 
REMARK   11  A    between atoms: C11_19  and  C12_20 
REMARK   12  A    between atoms: C11_19  and  C14_22 
REMARK   13  A    between atoms: C14_22  and  O3_23 
REMARK   14  A    between atoms: C15_25  and  O4_28 
REMARK   15  A    between atoms: O4_28  and  C18_29 
REMARK   16  A    between atoms: C18_29  and  C19_31 
REMARK   17  A    between atoms: C20_32  and  C21_33 
ROOT
HETATM    1  C7  UNL     1      -3.240   3.036   9.830  1.00  0.00     0.023 C 
ENDROOT
BRANCH   1   2
HETATM    2  C6  UNL     1      -3.418   2.723   8.441  1.00  0.00     0.145 C 
BRANCH   2   3
HETATM    3  N3  UNL     1      -3.504   3.483   7.287  1.00  0.00    -0.362 N 
ATOM      4  H3  UNL     1      -3.346   3.034   6.385  1.00  0.00     0.162 HD
BRANCH   3   5
HETATM    5  C5  UNL     1      -3.820   4.929   7.324  1.00  0.00     0.226 C 
BRANCH   5   6
HETATM    6  C4  UNL     1      -4.994   5.242   6.515  1.00  0.00     0.257 C 
HETATM    7  N2  UNL     1      -4.962   6.178   5.395  1.00  0.00    -0.239 N 
HETATM    8  N1  UNL     1      -6.072   6.463   4.660  1.00  0.00    -0.292 N 
HETATM    9  C22 UNL     1      -3.739   6.833   5.015  1.00  0.00     0.103 A 
HETATM   10  C3  UNL     1      -6.035   7.285   3.732  1.00  0.00     0.064 A 
ATOM     11  H1  UNL     1      -6.951   5.992   4.877  1.00  0.00     0.187 HD
HETATM   12  S1  UNL     1      -4.370   7.890   3.653  1.00  0.00    -0.082 SA
HETATM   13  C23 UNL     1      -3.188   7.778   6.046  1.00  0.00     0.053 C 
HETATM   14  C24 UNL     1      -2.685   5.887   4.484  1.00  0.00     0.053 C 
HETATM   15  O1  UNL     1      -6.102   4.668   6.802  1.00  0.00    -0.270 OA
BRANCH  10  16
HETATM   16  C2  UNL     1      -7.127   7.710   2.842  1.00  0.00     0.061 C 
HETATM   17  C1  UNL     1      -8.447   7.177   3.414  1.00  0.00     0.012 C 
ENDBRANCH  10  16
ENDBRANCH   5   6
ENDBRANCH   3   5
ENDBRANCH   2   3
BRANCH   2  18
HETATM   18  O2  UNL     1      -3.519   1.432   8.212  1.00  0.00    -0.346 OA
ATOM     19  H2  UNL     1      -3.811   0.943   8.972  1.00  0.00     0.219 HD
ENDBRANCH   2  18
ENDBRANCH   1   2
BRANCH   1  20
HETATM   20  C8  UNL     1      -2.159   3.256  10.455  1.00  0.00    -0.008 C 
BRANCH  20  21
HETATM   21  C9  UNL     1      -0.928   4.027  10.193  1.00  0.00     0.011 C 
HETATM   22  C10 UNL     1      -1.397   5.432   9.796  1.00  0.00     0.015 C 
BRANCH  21  23
HETATM   23  C11 UNL     1      -0.215   4.151  11.535  1.00  0.00     0.016 C 
BRANCH  23  24
HETATM   24  C12 UNL     1      -0.567   5.374  12.306  1.00  0.00     0.003 C 
HETATM   25  C13 UNL     1       0.545   5.585  13.346  1.00  0.00     0.005 C 
ENDBRANCH  23  24
BRANCH  23  26
HETATM   26  C14 UNL     1       1.263   3.956  11.470  1.00  0.00     0.169 C 
BRANCH  26  27
HETATM   27  O3  UNL     1       1.729   2.776  12.006  1.00  0.00    -0.400 OA
ATOM     28  H3  UNL     1       2.484   2.856  12.577  1.00  0.00     0.209 HD
ENDBRANCH  26  27
ENDBRANCH  23  26
ENDBRANCH  21  23
ENDBRANCH  20  21
ENDBRANCH   1  20
BRANCH   1  29
HETATM   29  C15 UNL     1      -4.561   3.118  10.660  1.00  0.00     0.094 C 
HETATM   30  C16 UNL     1      -4.284   2.852  12.098  1.00  0.00     0.052 C 
HETATM   31  C17 UNL     1      -5.003   4.540  10.515  1.00  0.00     0.052 C 
BRANCH  29  32
HETATM   32  O4  UNL     1      -5.424   2.167  10.157  1.00  0.00    -0.302 OA
BRANCH  32  33
HETATM   33  C18 UNL     1      -6.752   2.225   9.848  1.00  0.00     0.284 C 
HETATM   34  O5  UNL     1      -7.536   2.405  10.835  1.00  0.00    -0.260 OA
BRANCH  33  35
HETATM   35  C19 UNL     1      -7.273   2.096   8.490  1.00  0.00     0.089 C 
HETATM   36  C20 UNL     1      -8.416   2.634   8.137  1.00  0.00     0.090 C 
BRANCH  36  37
HETATM   37  C21 UNL     1      -8.963   2.525   6.801  1.00  0.00     0.198 C 
HETATM   38  O6  UNL     1      -8.791   1.517   6.080  1.00  0.00    -0.645 OA
HETATM   39  O7  UNL     1      -9.710   3.573   6.289  1.00  0.00    -0.645 OA
ENDBRANCH  36  37
ENDBRANCH  33  35
ENDBRANCH  32  33
ENDBRANCH  29  32
ENDBRANCH   1  29
TORSDOF 17
ENDMDL
MODEL 2
REMARK VINA RESULT: -8.143074704      3.145      7.256
REMARK  17 active torsions:
REMARK  status: ('A' for Active; 'I' for Inactive)
REMARK    1  A    between atoms: C2_2  and  C3_3 
REMARK       I    between atoms: N2_6  and  C4_7 
REMARK    2  A    between atoms: C4_7  and  C5_9 
REMARK    3  A    between atoms: C5_9  and  N3_10 
REMARK    4  A    between atoms: N3_10  and  C6_12 
REMARK    5  A    between atoms: C6_12  and  O2_13 
REMARK    6  A    between atoms: C6_12  and  C7_15 
REMARK    7  A    between atoms: C7_15  and  C8_16 
REMARK    8  A    between atoms: C7_15  and  C15_25 
REMARK    9  A    between atoms: C8_16  and  C9_17 
REMARK   10  A    between atoms: C9_17  and  C11_19 
REMARK   11  A    between atoms: C11_19  and  C12_20 
REMARK   12  A    between atoms: C11_19  and  C14_22 
REMARK   13  A    between atoms: C14_22  and  O3_23 
REMARK   14  A    between atoms: C15_25  and  O4_28 
REMARK   15  A    between atoms: O4_28  and  C18_29 
REMARK   16  A    between atoms: C18_29  and  C19_31 
REMARK   17  A    between atoms: C20_32  and  C21_33 
ROOT
HETATM    1  C7  UNL     1      -4.819   3.425   8.207  1.00  0.00     0.023 C 
ENDROOT
BRANCH   1   2
HETATM    2  C6  UNL     1      -3.624   2.694   8.519  1.00  0.00     0.145 C 
BRANCH   2   3
HETATM    3  N3  UNL     1      -2.446   3.011   9.170  1.00  0.00    -0.362 N 
ATOM      4  H3  UNL     1      -1.570   2.610   8.833  1.00  0.00     0.162 HD
BRANCH   3   5
HETATM    5  C5  UNL     1      -2.417   3.915  10.343  1.00  0.00     0.226 C 
BRANCH   5   6
HETATM    6  C4  UNL     1      -2.083   3.194  11.567  1.00  0.00     0.257 C 
HETATM    7  N2  UNL     1      -0.878   3.464  12.346  1.00  0.00    -0.239 N 
HETATM    8  N1  UNL     1      -0.581   2.772  13.480  1.00  0.00    -0.292 N 
HETATM    9  C22 UNL     1       0.044   4.492  11.946  1.00  0.00     0.103 A 
HETATM   10  C3  UNL     1       0.463   2.992  14.113  1.00  0.00     0.064 A 
ATOM     11  H1  UNL     1      -1.229   2.058  13.816  1.00  0.00     0.187 HD
HETATM   12  S1  UNL     1       1.325   4.274  13.243  1.00  0.00    -0.082 SA
HETATM   13  C23 UNL     1       0.739   4.236  10.638  1.00  0.00     0.053 C 
HETATM   14  C24 UNL     1      -0.532   5.888  12.023  1.00  0.00     0.053 C 
HETATM   15  O1  UNL     1      -2.885   2.283  11.975  1.00  0.00    -0.270 OA
BRANCH  10  16
HETATM   16  C2  UNL     1       0.939   2.346  15.346  1.00  0.00     0.061 C 
HETATM   17  C1  UNL     1      -0.270   2.107  16.260  1.00  0.00     0.012 C 
ENDBRANCH  10  16
ENDBRANCH   5   6
ENDBRANCH   3   5
ENDBRANCH   2   3
BRANCH   2  18
HETATM   18  O2  UNL     1      -3.657   1.449   8.095  1.00  0.00    -0.346 OA
ATOM     19  H2  UNL     1      -4.541   1.122   7.974  1.00  0.00     0.219 HD
ENDBRANCH   2  18
ENDBRANCH   1   2
BRANCH   1  20
HETATM   20  C8  UNL     1      -4.958   4.405   7.414  1.00  0.00    -0.008 C 
BRANCH  20  21
HETATM   21  C9  UNL     1      -5.170   4.564   5.962  1.00  0.00     0.011 C 
HETATM   22  C10 UNL     1      -6.519   5.280   5.818  1.00  0.00     0.015 C 
BRANCH  21  23
HETATM   23  C11 UNL     1      -4.092   5.530   5.482  1.00  0.00     0.016 C 
BRANCH  23  24
HETATM   24  C12 UNL     1      -3.489   6.360   6.561  1.00  0.00     0.003 C 
HETATM   25  C13 UNL     1      -3.160   7.728   5.943  1.00  0.00     0.005 C 
ENDBRANCH  23  24
BRANCH  23  26
HETATM   26  C14 UNL     1      -4.487   6.364   4.311  1.00  0.00     0.169 C 
BRANCH  26  27
HETATM   27  O3  UNL     1      -4.383   5.749   3.083  1.00  0.00    -0.400 OA
ATOM     28  H3  UNL     1      -3.546   5.849   2.646  1.00  0.00     0.209 HD
ENDBRANCH  26  27
ENDBRANCH  23  26
ENDBRANCH  21  23
ENDBRANCH  20  21
ENDBRANCH   1  20
BRANCH   1  29
HETATM   29  C15 UNL     1      -6.104   2.932   8.946  1.00  0.00     0.094 C 
HETATM   30  C16 UNL     1      -5.742   2.302  10.246  1.00  0.00     0.052 C 
HETATM   31  C17 UNL     1      -6.878   4.181   9.221  1.00  0.00     0.052 C 
BRANCH  29  32
HETATM   32  O4  UNL     1      -6.723   2.011   8.127  1.00  0.00    -0.302 OA
BRANCH  32  33
HETATM   33  C18 UNL     1      -8.035   1.835   7.794  1.00  0.00     0.284 C 
HETATM   34  O5  UNL     1      -8.748   1.251   8.672  1.00  0.00    -0.260 OA
BRANCH  33  35
HETATM   35  C19 UNL     1      -8.614   2.274   6.528  1.00  0.00     0.089 C 
HETATM   36  C20 UNL     1      -9.406   3.316   6.459  1.00  0.00     0.090 C 
BRANCH  36  37
HETATM   37  C21 UNL     1      -9.999   3.780   5.222  1.00  0.00     0.198 C 
HETATM   38  O6  UNL     1     -10.598   4.875   5.128  1.00  0.00    -0.645 OA
HETATM   39  O7  UNL     1      -9.907   2.987   4.089  1.00  0.00    -0.645 OA
ENDBRANCH  36  37
ENDBRANCH  33  35
ENDBRANCH  32  33
ENDBRANCH  29  32
ENDBRANCH   1  29
TORSDOF 17
ENDMDL
MODEL 3
REMARK VINA RESULT: -7.964321356      3.000      6.923
REMARK  17 active torsions:
REMARK  status: ('A' for Active; 'I' for Inactive)
REMARK    1  A    between atoms: C2_2  and  C3_3 
REMARK       I    between atoms: N2_6  and  C4_7 
REMARK    2  A    between atoms: C4_7  and  C5_9 
REMARK    3  A    between atoms: C5_9  and  N3_10 
REMARK    4  A    between atoms: N3_10  and  C6_12 
REMARK    5  A    between atoms: C6_12  and  O2_13 
REMARK    6  A    between atoms: C6_12  and  C7_15 
REMARK    7  A    between atoms: C7_15  and  C8_16 
REMARK    8  A    between atoms: C7_15  and  C15_25 
REMARK    9  A    between atoms: C8_16  and  C9_17 
REMARK   10  A    between atoms: C9_17  and  C11_19 
REMARK   11  A    between atoms: C11_19  and  C12_20 
REMARK   12  A    between atoms: C11_19  and  C14_22 
REMARK   13  A    between atoms: C14_22  and  O3_23 
REMARK   14  A    between atoms: C15_25  and  O4_28 
REMARK   15  A    between atoms: O4_28  and  C18_29 
REMARK   16  A    between atoms: C18_29  and  C19_31 
REMARK   17  A    between atoms: C20_32  and  C21_33 
ROOT
HETATM    1  C7  UNL     1      -2.583   2.769  11.244  1.00  0.00     0.023 C 
ENDROOT
BRANCH   1   2
HETATM    2  C6  UNL     1      -3.071   2.063  10.094  1.00  0.00     0.145 C 
BRANCH   2   3
HETATM    3  N3  UNL     1      -4.320   1.909   9.519  1.00  0.00    -0.362 N 
ATOM      4  H3  UNL     1      -4.545   1.030   9.052  1.00  0.00     0.162 HD
BRANCH   3   5
HETATM    5  C5  UNL     1      -5.341   2.981   9.563  1.00  0.00     0.226 C 
BRANCH   5   6
HETATM    6  C4  UNL     1      -5.561   3.565   8.243  1.00  0.00     0.257 C 
HETATM    7  N2  UNL     1      -6.816   3.422   7.510  1.00  0.00    -0.239 N 
HETATM    8  N1  UNL     1      -6.996   3.967   6.275  1.00  0.00    -0.292 N 
HETATM    9  C22 UNL     1      -7.925   2.704   8.078  1.00  0.00     0.103 A 
HETATM   10  C3  UNL     1      -8.058   3.809   5.653  1.00  0.00     0.064 A 
ATOM     11  H1  UNL     1      -6.245   4.513   5.854  1.00  0.00     0.187 HD
HETATM   12  S1  UNL     1      -9.110   2.821   6.681  1.00  0.00    -0.082 SA
HETATM   13  C23 UNL     1      -7.680   1.235   8.285  1.00  0.00     0.053 C 
HETATM   14  C24 UNL     1      -8.512   3.365   9.305  1.00  0.00     0.053 C 
HETATM   15  O1  UNL     1      -4.610   4.231   7.706  1.00  0.00    -0.270 OA
BRANCH  10  16
HETATM   16  C2  UNL     1      -8.422   4.321   4.322  1.00  0.00     0.061 C 
HETATM   17  C1  UNL     1      -8.145   5.830   4.296  1.00  0.00     0.012 C 
ENDBRANCH  10  16
ENDBRANCH   5   6
ENDBRANCH   3   5
ENDBRANCH   2   3
BRANCH   2  18
HETATM   18  O2  UNL     1      -2.125   1.424   9.441  1.00  0.00    -0.346 OA
ATOM     19  H2  UNL     1      -1.841   0.632   9.881  1.00  0.00     0.219 HD
ENDBRANCH   2  18
ENDBRANCH   1   2
BRANCH   1  20
HETATM   20  C8  UNL     1      -2.787   2.514  12.469  1.00  0.00    -0.008 C 
BRANCH  20  21
HETATM   21  C9  UNL     1      -2.242   1.555  13.451  1.00  0.00     0.011 C 
HETATM   22  C10 UNL     1      -1.349   2.382  14.384  1.00  0.00     0.015 C 
BRANCH  21  23
HETATM   23  C11 UNL     1      -3.433   1.073  14.273  1.00  0.00     0.016 C 
BRANCH  23  24
HETATM   24  C12 UNL     1      -4.616   1.974  14.225  1.00  0.00     0.003 C 
HETATM   25  C13 UNL     1      -5.679   1.369  15.156  1.00  0.00     0.005 C 
ENDBRANCH  23  24
BRANCH  23  26
HETATM   26  C14 UNL     1      -3.099   0.687  15.675  1.00  0.00     0.169 C 
BRANCH  26  27
HETATM   27  O3  UNL     1      -2.720  -0.625  15.855  1.00  0.00    -0.400 OA
ATOM     28  H3  UNL     1      -2.883  -1.201  15.118  1.00  0.00     0.209 HD
ENDBRANCH  26  27
ENDBRANCH  23  26
ENDBRANCH  21  23
ENDBRANCH  20  21
ENDBRANCH   1  20
BRANCH   1  29
HETATM   29  C15 UNL     1      -1.682   4.004  10.924  1.00  0.00     0.094 C 
HETATM   30  C16 UNL     1      -2.088   4.617   9.629  1.00  0.00     0.052 C 
HETATM   31  C17 UNL     1      -1.977   4.974  12.023  1.00  0.00     0.052 C 
BRANCH  29  32
HETATM   32  O4  UNL     1      -0.379   3.557  10.851  1.00  0.00    -0.302 OA
BRANCH  32  33
HETATM   33  C18 UNL     1       0.790   4.104  11.294  1.00  0.00     0.284 C 
HETATM   34  O5  UNL     1       1.318   4.967  10.520  1.00  0.00    -0.260 OA
BRANCH  33  35
HETATM   35  C19 UNL     1       1.420   3.748  12.562  1.00  0.00     0.089 C 
HETATM   36  C20 UNL     1       1.408   4.563  13.589  1.00  0.00     0.090 C 
BRANCH  36  37
HETATM   37  C21 UNL     1       2.023   4.245  14.860  1.00  0.00     0.198 C 
HETATM   38  O6  UNL     1       1.857   4.944  15.885  1.00  0.00    -0.645 OA
HETATM   39  O7  UNL     1       2.830   3.123  14.959  1.00  0.00    -0.645 OA
ENDBRANCH  36  37
ENDBRANCH  33  35
ENDBRANCH  32  33
ENDBRANCH  29  32
ENDBRANCH   1  29
TORSDOF 17
ENDMDL
MODEL 4
REMARK VINA RESULT: -7.903542049      3.167      6.881
REMARK  17 active torsions:
REMARK  status: ('A' for Active; 'I' for Inactive)
REMARK    1  A    between atoms: C2_2  and  C3_3 
REMARK       I    between atoms: N2_6  and  C4_7 
REMARK    2  A    between atoms: C4_7  and  C5_9 
REMARK    3  A    between atoms: C5_9  and  N3_10 
REMARK    4  A    between atoms: N3_10  and  C6_12 
REMARK    5  A    between atoms: C6_12  and  O2_13 
REMARK    6  A    between atoms: C6_12  and  C7_15 
REMARK    7  A    between atoms: C7_15  and  C8_16 
REMARK    8  A    between atoms: C7_15  and  C15_25 
REMARK    9  A    between atoms: C8_16  and  C9_17 
REMARK   10  A    between atoms: C9_17  and  C11_19 
REMARK   11  A    between atoms: C11_19  and  C12_20 
REMARK   12  A    between atoms: C11_19  and  C14_22 
REMARK   13  A    between atoms: C14_22  and  O3_23 
REMARK   14  A    between atoms: C15_25  and  O4_28 
REMARK   15  A    between atoms: O4_28  and  C18_29 
REMARK   16  A    between atoms: C18_29  and  C19_31 
REMARK   17  A    between atoms: C20_32  and  C21_33 
ROOT
HETATM    1  C7  UNL     1      -2.479   2.669  11.253  1.00  0.00     0.023 C 
ENDROOT
BRANCH   1   2
HETATM    2  C6  UNL     1      -3.033   2.048  10.083  1.00  0.00     0.145 C 
BRANCH   2   3
HETATM    3  N3  UNL     1      -4.315   1.916   9.580  1.00  0.00    -0.362 N 
ATOM      4  H3  UNL     1      -4.595   1.028   9.165  1.00  0.00     0.162 HD
BRANCH   3   5
HETATM    5  C5  UNL     1      -5.293   3.028   9.626  1.00  0.00     0.226 C 
BRANCH   5   6
HETATM    6  C4  UNL     1      -5.553   3.568   8.296  1.00  0.00     0.257 C 
HETATM    7  N2  UNL     1      -6.819   3.374   7.593  1.00  0.00    -0.239 N 
HETATM    8  N1  UNL     1      -7.037   3.877   6.347  1.00  0.00    -0.292 N 
HETATM    9  C22 UNL     1      -7.898   2.645   8.203  1.00  0.00     0.103 A 
HETATM   10  C3  UNL     1      -8.106   3.676   5.751  1.00  0.00     0.064 A 
ATOM     11  H1  UNL     1      -6.308   4.430   5.895  1.00  0.00     0.187 HD
HETATM   12  S1  UNL     1      -9.113   2.693   6.828  1.00  0.00    -0.082 SA
HETATM   13  C23 UNL     1      -7.612   1.190   8.448  1.00  0.00     0.053 C 
HETATM   14  C24 UNL     1      -8.477   3.327   9.423  1.00  0.00     0.053 C 
HETATM   15  O1  UNL     1      -4.629   4.241   7.720  1.00  0.00    -0.270 OA
BRANCH  10  16
HETATM   16  C2  UNL     1      -8.509   4.140   4.414  1.00  0.00     0.061 C 
HETATM   17  C1  UNL     1      -9.050   2.937   3.631  1.00  0.00     0.012 C 
ENDBRANCH  10  16
ENDBRANCH   5   6
ENDBRANCH   3   5
ENDBRANCH   2   3
BRANCH   2  18
HETATM   18  O2  UNL     1      -2.123   1.481   9.321  1.00  0.00    -0.346 OA
ATOM     19  H2  UNL     1      -1.321   1.988   9.263  1.00  0.00     0.219 HD
ENDBRANCH   2  18
ENDBRANCH   1   2
BRANCH   1  20
HETATM   20  C8  UNL     1      -2.562   2.289  12.460  1.00  0.00    -0.008 C 
BRANCH  20  21
HETATM   21  C9  UNL     1      -3.558   2.423  13.541  1.00  0.00     0.011 C 
HETATM   22  C10 UNL     1      -4.719   1.500  13.150  1.00  0.00     0.015 C 
BRANCH  21  23
HETATM   23  C11 UNL     1      -2.909   1.832  14.787  1.00  0.00     0.016 C 
BRANCH  23  24
HETATM   24  C12 UNL     1      -1.441   1.618  14.671  1.00  0.00     0.003 C 
HETATM   25  C13 UNL     1      -0.795   2.250  15.914  1.00  0.00     0.005 C 
ENDBRANCH  23  24
BRANCH  23  26
HETATM   26  C14 UNL     1      -3.594   0.620  15.325  1.00  0.00     0.169 C 
BRANCH  26  27
HETATM   27  O3  UNL     1      -2.764  -0.421  15.678  1.00  0.00    -0.400 OA
ATOM     28  H3  UNL     1      -2.293  -0.309  16.495  1.00  0.00     0.209 HD
ENDBRANCH  26  27
ENDBRANCH  23  26
ENDBRANCH  21  23
ENDBRANCH  20  21
ENDBRANCH   1  20
BRANCH   1  29
HETATM   29  C15 UNL     1      -1.669   3.976  10.982  1.00  0.00     0.094 C 
HETATM   30  C16 UNL     1      -2.193   4.666   9.771  1.00  0.00     0.052 C 
HETATM   31  C17 UNL     1      -1.942   4.837  12.175  1.00  0.00     0.052 C 
BRANCH  29  32
HETATM   32  O4  UNL     1      -0.352   3.615  10.792  1.00  0.00    -0.302 OA
BRANCH  32  33
HETATM   33  C18 UNL     1       0.808   4.132  11.289  1.00  0.00     0.284 C 
HETATM   34  O5  UNL     1       1.374   5.008  10.559  1.00  0.00    -0.260 OA
BRANCH  33  35
HETATM   35  C19 UNL     1       1.389   3.734  12.568  1.00  0.00     0.089 C 
HETATM   36  C20 UNL     1       1.447   4.559  13.585  1.00  0.00     0.090 C 
BRANCH  36  37
HETATM   37  C21 UNL     1       2.017   4.199  14.866  1.00  0.00     0.198 C 
HETATM   38  O6  UNL     1       1.914   4.926  15.880  1.00  0.00    -0.645 OA
HETATM   39  O7  UNL     1       2.705   3.003  14.988  1.00  0.00    -0.645 OA
ENDBRANCH  36  37
ENDBRANCH  33  35
ENDBRANCH  32  33
ENDBRANCH  29  32
ENDBRANCH   1  29
TORSDOF 17
ENDMDL
MODEL 5
REMARK VINA RESULT: -7.889800468      2.707      6.460
REMARK  17 active torsions:
REMARK  status: ('A' for Active; 'I' for Inactive)
REMARK    1  A    between atoms: C2_2  and  C3_3 
REMARK       I    between atoms: N2_6  and  C4_7 
REMARK    2  A    between atoms: C4_7  and  C5_9 
REMARK    3  A    between atoms: C5_9  and  N3_10 
REMARK    4  A    between atoms: N3_10  and  C6_12 
REMARK    5  A    between atoms: C6_12  and  O2_13 
REMARK    6  A    between atoms: C6_12  and  C7_15 
REMARK    7  A    between atoms: C7_15  and  C8_16 
REMARK    8  A    between atoms: C7_15  and  C15_25 
REMARK    9  A    between atoms: C8_16  and  C9_17 
REMARK   10  A    between atoms: C9_17  and  C11_19 
REMARK   11  A    between atoms: C11_19  and  C12_20 
REMARK   12  A    between atoms: C11_19  and  C14_22 
REMARK   13  A    between atoms: C14_22  and  O3_23 
REMARK   14  A    between atoms: C15_25  and  O4_28 
REMARK   15  A    between atoms: O4_28  and  C18_29 
REMARK   16  A    between atoms: C18_29  and  C19_31 
REMARK   17  A    between atoms: C20_32  and  C21_33 
ROOT
HETATM    1  C7  UNL     1      -2.535   2.629  11.273  1.00  0.00     0.023 C 
ENDROOT
BRANCH   1   2
HETATM    2  C6  UNL     1      -3.137   2.018  10.123  1.00  0.00     0.145 C 
BRANCH   2   3
HETATM    3  N3  UNL     1      -4.436   1.917   9.657  1.00  0.00    -0.362 N 
ATOM      4  H3  UNL     1      -4.784   1.007   9.354  1.00  0.00     0.162 HD
BRANCH   3   5
HETATM    5  C5  UNL     1      -5.337   3.090   9.586  1.00  0.00     0.226 C 
BRANCH   5   6
HETATM    6  C4  UNL     1      -6.397   2.893   8.602  1.00  0.00     0.257 C 
HETATM    7  N2  UNL     1      -6.491   3.671   7.369  1.00  0.00    -0.239 N 
HETATM    8  N1  UNL     1      -7.494   3.478   6.470  1.00  0.00    -0.292 N 
HETATM    9  C22 UNL     1      -5.509   4.672   7.051  1.00  0.00     0.103 A 
HETATM   10  C3  UNL     1      -7.577   4.168   5.443  1.00  0.00     0.064 A 
ATOM     11  H1  UNL     1      -8.191   2.753   6.643  1.00  0.00     0.187 HD
HETATM   12  S1  UNL     1      -6.219   5.306   5.481  1.00  0.00    -0.082 SA
HETATM   13  C23 UNL     1      -5.481   5.844   7.991  1.00  0.00     0.053 C 
HETATM   14  C24 UNL     1      -4.128   4.108   6.799  1.00  0.00     0.053 C 
HETATM   15  O1  UNL     1      -7.283   1.999   8.832  1.00  0.00    -0.270 OA
BRANCH  10  16
HETATM   16  C2  UNL     1      -8.585   4.098   4.372  1.00  0.00     0.061 C 
HETATM   17  C1  UNL     1      -9.422   5.383   4.415  1.00  0.00     0.012 C 
ENDBRANCH  10  16
ENDBRANCH   5   6
ENDBRANCH   3   5
ENDBRANCH   2   3
BRANCH   2  18
HETATM   18  O2  UNL     1      -2.264   1.426   9.337  1.00  0.00    -0.346 OA
ATOM     19  H2  UNL     1      -1.589   0.961   9.817  1.00  0.00     0.219 HD
ENDBRANCH   2  18
ENDBRANCH   1   2
BRANCH   1  20
HETATM   20  C8  UNL     1      -2.590   2.255  12.483  1.00  0.00    -0.008 C 
BRANCH  20  21
HETATM   21  C9  UNL     1      -3.564   2.389  13.584  1.00  0.00     0.011 C 
HETATM   22  C10 UNL     1      -4.730   1.461  13.220  1.00  0.00     0.015 C 
BRANCH  21  23
HETATM   23  C11 UNL     1      -2.887   1.803  14.818  1.00  0.00     0.016 C 
BRANCH  23  24
HETATM   24  C12 UNL     1      -1.418   1.609  14.678  1.00  0.00     0.003 C 
HETATM   25  C13 UNL     1      -0.762   2.244  15.914  1.00  0.00     0.005 C 
ENDBRANCH  23  24
BRANCH  23  26
HETATM   26  C14 UNL     1      -3.547   0.581  15.363  1.00  0.00     0.169 C 
BRANCH  26  27
HETATM   27  O3  UNL     1      -2.696  -0.438  15.730  1.00  0.00    -0.400 OA
ATOM     28  H3  UNL     1      -2.773  -0.729  16.631  1.00  0.00     0.209 HD
ENDBRANCH  26  27
ENDBRANCH  23  26
ENDBRANCH  21  23
ENDBRANCH  20  21
ENDBRANCH   1  20
BRANCH   1  29
HETATM   29  C15 UNL     1      -1.704   3.918  10.973  1.00  0.00     0.094 C 
HETATM   30  C16 UNL     1      -2.193   4.569   9.727  1.00  0.00     0.052 C 
HETATM   31  C17 UNL     1      -1.993   4.823  12.128  1.00  0.00     0.052 C 
BRANCH  29  32
HETATM   32  O4  UNL     1      -0.387   3.535  10.826  1.00  0.00    -0.302 OA
BRANCH  32  33
HETATM   33  C18 UNL     1       0.772   4.090  11.283  1.00  0.00     0.284 C 
HETATM   34  O5  UNL     1       1.288   4.978  10.530  1.00  0.00    -0.260 OA
BRANCH  33  35
HETATM   35  C19 UNL     1       1.405   3.717  12.545  1.00  0.00     0.089 C 
HETATM   36  C20 UNL     1       1.396   4.519  13.583  1.00  0.00     0.090 C 
BRANCH  36  37
HETATM   37  C21 UNL     1       2.014   4.183  14.848  1.00  0.00     0.198 C 
HETATM   38  O6  UNL     1       1.943   4.926  15.853  1.00  0.00    -0.645 OA
HETATM   39  O7  UNL     1       2.714   2.993  14.964  1.00  0.00    -0.645 OA
ENDBRANCH  36  37
ENDBRANCH  33  35
ENDBRANCH  32  33
ENDBRANCH  29  32
ENDBRANCH   1  29
TORSDOF 17
ENDMDL
