MODEL 1
REMARK VINA RESULT: -7.423352997      0.000      0.000
REMARK  12 active torsions:
REMARK  status: ('A' for Active; 'I' for Inactive)
REMARK    1  A    between atoms: C2_2  and  N1_3 
REMARK       I    between atoms: C3_5  and  N2_6 
REMARK       I    between atoms: C3_5  and  N9_36 
REMARK    2  A    between atoms: C4_8  and  C5_9 
REMARK    3  A    between atoms: C4_8  and  N8_29 
REMARK    4  A    between atoms: C5_9  and  C6_10 
REMARK    5  A    between atoms: C5_9  and  N6_16 
REMARK    6  A    between atoms: C6_10  and  N3_11 
REMARK       I    between atoms: N6_16  and  C8_18 
REMARK    7  A    between atoms: C8_18  and  C9_20 
REMARK    8  A    between atoms: C9_20  and  C10_21 
REMARK    9  A    between atoms: C9_20  and  N7_25 
REMARK   10  A    between atoms: C10_21  and  C11_22 
REMARK   11  A    between atoms: N8_29  and  C16_31 
REMARK   12  A    between atoms: N9_36  and  C21_38 
ROOT
HETATM    1  N1  UNL     1      24.279  10.760 -22.300  1.00  0.00    -0.226 N 
ATOM      2  H1  UNL     1      23.505  10.109 -22.169  1.00  0.00     0.177 HD
HETATM    3  C3  UNL     1      25.020  11.068 -21.249  1.00  0.00     0.679 C 
HETATM    4  N2  UNL     1      26.046  11.942 -21.464  1.00  0.00    -0.179 N 
ATOM      5  H2  UNL     1      25.695  12.811 -21.868  1.00  0.00     0.185 HD
HETATM    6  C4  UNL     1      27.295  12.000 -21.315  1.00  0.00     0.120 C 
HETATM    7  N9  UNL     1      24.598  10.433 -20.061  1.00  0.00    -0.192 N 
ATOM      8  H9  UNL     1      24.412  11.026 -19.252  1.00  0.00     0.184 HD
ENDROOT
BRANCH   6   9
HETATM    9  C5  UNL     1      28.056  13.233 -21.710  1.00  0.00     0.170 C 
BRANCH   9  10
HETATM   10  C6  UNL     1      28.487  14.115 -20.613  1.00  0.00     0.154 C 
BRANCH  10  11
HETATM   11  N3  UNL     1      27.554  14.204 -19.508  1.00  0.00    -0.365 N 
HETATM   12  C7  UNL     1      28.066  14.421 -18.339  1.00  0.00     0.197 C 
HETATM   13  N4  UNL     1      27.257  14.532 -17.156  1.00  0.00    -0.067 NA
HETATM   14  N5  UNL     1      29.467  14.563 -18.127  1.00  0.00    -0.067 NA
ATOM     15  H3  UNL     1      26.549  14.101 -19.643  1.00  0.00     0.161 HD
ENDBRANCH  10  11
ENDBRANCH   9  10
BRANCH   9  16
HETATM   16  N6  UNL     1      29.114  12.950 -22.657  1.00  0.00    -0.346 N 
HETATM   17  C8  UNL     1      29.318  13.699 -23.833  1.00  0.00     0.249 C 
HETATM   18  O1  UNL     1      28.554  14.678 -24.111  1.00  0.00    -0.271 OA
ATOM     19  H6  UNL     1      29.742  12.170 -22.463  1.00  0.00     0.163 HD
BRANCH  17  20
HETATM   20  C9  UNL     1      30.439  13.337 -24.757  1.00  0.00     0.276 C 
BRANCH  20  21
HETATM   21  C10 UNL     1      31.735  13.454 -24.048  1.00  0.00     0.046 C 
BRANCH  21  22
HETATM   22  C11 UNL     1      32.548  14.621 -24.489  1.00  0.00    -0.020 C 
HETATM   23  C12 UNL     1      32.007  15.224 -25.744  1.00  0.00     0.009 C 
HETATM   24  C13 UNL     1      34.013  14.193 -24.668  1.00  0.00     0.009 C 
ENDBRANCH  21  22
ENDBRANCH  20  21
BRANCH  20  25
HETATM   25  N7  UNL     1      30.155  12.051 -25.342  1.00  0.00    -0.066 N 
HETATM   26  C14 UNL     1      31.190  11.088 -25.029  1.00  0.00     0.267 C 
ATOM     27  H72 UNL     1      29.233  11.710 -25.067  1.00  0.00     0.277 HD
ATOM     28  H71 UNL     1      30.003  12.123 -26.348  1.00  0.00     0.277 HD
ENDBRANCH  20  25
ENDBRANCH  17  20
ENDBRANCH   9  16
ENDBRANCH   6   9
BRANCH   6  29
HETATM   29  N8  UNL     1      27.994  10.890 -20.775  1.00  0.00    -0.368 N 
HETATM   30  C15 UNL     1      28.000  10.763 -19.325  1.00  0.00     0.151 C 
BRANCH  29  31
HETATM   31  C16 UNL     1      28.695   9.960 -21.589  1.00  0.00     0.085 C 
HETATM   32  C17 UNL     1      28.191   8.570 -21.616  1.00  0.00     0.025 C 
HETATM   33  C18 UNL     1      29.376   7.679 -21.498  1.00  0.00     0.002 C 
HETATM   34  C19 UNL     1      30.554   8.534 -21.816  1.00  0.00     0.002 C 
HETATM   35  C20 UNL     1      30.177   9.877 -21.215  1.00  0.00     0.025 C 
ENDBRANCH  29  31
ENDBRANCH   6  29
BRANCH   1  36
HETATM   36  C2  UNL     1      24.501  11.288 -23.609  1.00  0.00     0.133 C 
HETATM   37  C1  UNL     1      23.144  11.618 -24.232  1.00  0.00     0.027 C 
ENDBRANCH   1  36
BRANCH   7  38
HETATM   38  C21 UNL     1      24.410   9.027 -19.900  1.00  0.00     0.054 A 
HETATM   39  C22 UNL     1      23.150   8.497 -19.656  1.00  0.00     0.047 A 
HETATM   40  C23 UNL     1      22.942   7.145 -19.488  1.00  0.00     0.095 A 
HETATM   41  N10 UNL     1      23.959   6.270 -19.553  1.00  0.00    -0.338 N 
HETATM   42  C24 UNL     1      23.757   4.835 -19.379  1.00  0.00     0.158 C 
HETATM   43  C25 UNL     1      25.189   6.745 -19.786  1.00  0.00     0.192 A 
HETATM   44  F1  UNL     1      26.213   5.842 -19.848  1.00  0.00    -0.186 F 
HETATM   45  C26 UNL     1      25.438   8.111 -19.962  1.00  0.00     0.091 A 
ENDBRANCH   7  38
TORSDOF 12
ENDMDL
MODEL 2
REMARK VINA RESULT: -7.299142569      3.452      8.501
REMARK  12 active torsions:
REMARK  status: ('A' for Active; 'I' for Inactive)
REMARK    1  A    between atoms: C2_2  and  N1_3 
REMARK       I    between atoms: C3_5  and  N2_6 
REMARK       I    between atoms: C3_5  and  N9_36 
REMARK    2  A    between atoms: C4_8  and  C5_9 
REMARK    3  A    between atoms: C4_8  and  N8_29 
REMARK    4  A    between atoms: C5_9  and  C6_10 
REMARK    5  A    between atoms: C5_9  and  N6_16 
REMARK    6  A    between atoms: C6_10  and  N3_11 
REMARK       I    between atoms: N6_16  and  C8_18 
REMARK    7  A    between atoms: C8_18  and  C9_20 
REMARK    8  A    between atoms: C9_20  and  C10_21 
REMARK    9  A    between atoms: C9_20  and  N7_25 
REMARK   10  A    between atoms: C10_21  and  C11_22 
REMARK   11  A    between atoms: N8_29  and  C16_31 
REMARK   12  A    between atoms: N9_36  and  C21_38 
ROOT
HETATM    1  N1  UNL     1      30.439  12.009 -26.837  1.00  0.00    -0.226 N 
ATOM      2  H1  UNL     1      31.150  12.474 -27.402  1.00  0.00     0.177 HD
HETATM    3  C3  UNL     1      30.761  11.644 -25.607  1.00  0.00     0.679 C 
HETATM    4  N2  UNL     1      29.784  11.026 -24.882  1.00  0.00    -0.179 N 
ATOM      5  H2  UNL     1      29.441  10.201 -25.376  1.00  0.00     0.185 HD
HETATM    6  C4  UNL     1      29.178  11.165 -23.788  1.00  0.00     0.120 C 
HETATM    7  N9  UNL     1      32.094  11.955 -25.262  1.00  0.00    -0.192 N 
ATOM      8  H9  UNL     1      32.677  11.194 -24.912  1.00  0.00     0.184 HD
ENDROOT
BRANCH   6   9
HETATM    9  C5  UNL     1      28.117  10.187 -23.371  1.00  0.00     0.170 C 
BRANCH   9  10
HETATM   10  C6  UNL     1      28.443   8.761 -23.529  1.00  0.00     0.154 C 
BRANCH  10  11
HETATM   11  N3  UNL     1      27.682   7.869 -22.676  1.00  0.00    -0.365 N 
HETATM   12  C7  UNL     1      28.346   7.251 -21.752  1.00  0.00     0.197 C 
HETATM   13  N4  UNL     1      27.716   6.339 -20.837  1.00  0.00    -0.067 NA
HETATM   14  N5  UNL     1      29.747   7.420 -21.569  1.00  0.00    -0.067 NA
ATOM     15  H3  UNL     1      26.678   7.736 -22.797  1.00  0.00     0.161 HD
ENDBRANCH  10  11
ENDBRANCH   9  10
BRANCH   9  16
HETATM   16  N6  UNL     1      27.558  10.498 -22.072  1.00  0.00    -0.346 N 
HETATM   17  C8  UNL     1      26.297  11.104 -21.899  1.00  0.00     0.249 C 
HETATM   18  O1  UNL     1      25.588  11.410 -22.910  1.00  0.00    -0.271 OA
ATOM     19  H6  UNL     1      28.103  10.266 -21.242  1.00  0.00     0.163 HD
BRANCH  17  20
HETATM   20  C9  UNL     1      25.795  11.389 -20.518  1.00  0.00     0.276 C 
BRANCH  20  21
HETATM   21  C10 UNL     1      26.206  12.750 -20.101  1.00  0.00     0.046 C 
BRANCH  21  22
HETATM   22  C11 UNL     1      27.348  12.757 -19.146  1.00  0.00    -0.020 C 
HETATM   23  C12 UNL     1      27.503  11.437 -18.465  1.00  0.00     0.009 C 
HETATM   24  C13 UNL     1      27.158  13.888 -18.122  1.00  0.00     0.009 C 
ENDBRANCH  21  22
ENDBRANCH  20  21
BRANCH  20  25
HETATM   25  N7  UNL     1      24.379  11.119 -20.479  1.00  0.00    -0.066 N 
HETATM   26  C14 UNL     1      24.113   9.742 -20.120  1.00  0.00     0.267 C 
ATOM     27  H72 UNL     1      23.891  11.768 -19.861  1.00  0.00     0.277 HD
ATOM     28  H71 UNL     1      23.927  11.370 -21.358  1.00  0.00     0.277 HD
ENDBRANCH  20  25
ENDBRANCH  17  20
ENDBRANCH   9  16
ENDBRANCH   6   9
BRANCH   6  29
HETATM   29  N8  UNL     1      29.491  12.259 -22.940  1.00  0.00    -0.368 N 
HETATM   30  C15 UNL     1      28.765  13.498 -23.177  1.00  0.00     0.151 C 
BRANCH  29  31
HETATM   31  C16 UNL     1      30.490  12.183 -21.933  1.00  0.00     0.085 C 
HETATM   32  C17 UNL     1      30.851  10.837 -21.438  1.00  0.00     0.025 C 
HETATM   33  C18 UNL     1      30.927  10.928 -19.955  1.00  0.00     0.002 C 
HETATM   34  C19 UNL     1      31.017  12.384 -19.647  1.00  0.00     0.002 C 
HETATM   35  C20 UNL     1      30.123  13.014 -20.701  1.00  0.00     0.025 C 
ENDBRANCH  29  31
ENDBRANCH   6  29
BRANCH   1  36
HETATM   36  C2  UNL     1      29.153  11.789 -27.419  1.00  0.00     0.133 C 
HETATM   37  C1  UNL     1      28.408  13.122 -27.459  1.00  0.00     0.027 C 
ENDBRANCH   1  36
BRANCH   7  38
HETATM   38  C21 UNL     1      32.692  13.247 -25.362  1.00  0.00     0.054 A 
HETATM   39  C22 UNL     1      31.952  14.398 -25.124  1.00  0.00     0.047 A 
HETATM   40  C23 UNL     1      32.503  15.658 -25.222  1.00  0.00     0.095 A 
HETATM   41  N10 UNL     1      33.791  15.831 -25.556  1.00  0.00    -0.338 N 
HETATM   42  C24 UNL     1      34.391  17.157 -25.664  1.00  0.00     0.158 C 
HETATM   43  C25 UNL     1      34.536  14.744 -25.794  1.00  0.00     0.192 A 
HETATM   44  F1  UNL     1      35.846  14.937 -26.134  1.00  0.00    -0.186 F 
HETATM   45  C26 UNL     1      34.012  13.449 -25.703  1.00  0.00     0.091 A 
ENDBRANCH   7  38
TORSDOF 12
ENDMDL
MODEL 3
REMARK VINA RESULT: -7.293672048      3.275      8.299
REMARK  12 active torsions:
REMARK  status: ('A' for Active; 'I' for Inactive)
REMARK    1  A    between atoms: C2_2  and  N1_3 
REMARK       I    between atoms: C3_5  and  N2_6 
REMARK       I    between atoms: C3_5  and  N9_36 
REMARK    2  A    between atoms: C4_8  and  C5_9 
REMARK    3  A    between atoms: C4_8  and  N8_29 
REMARK    4  A    between atoms: C5_9  and  C6_10 
REMARK    5  A    between atoms: C5_9  and  N6_16 
REMARK    6  A    between atoms: C6_10  and  N3_11 
REMARK       I    between atoms: N6_16  and  C8_18 
REMARK    7  A    between atoms: C8_18  and  C9_20 
REMARK    8  A    between atoms: C9_20  and  C10_21 
REMARK    9  A    between atoms: C9_20  and  N7_25 
REMARK   10  A    between atoms: C10_21  and  C11_22 
REMARK   11  A    between atoms: N8_29  and  C16_31 
REMARK   12  A    between atoms: N9_36  and  C21_38 
ROOT
HETATM    1  N1  UNL     1      28.697  13.699 -24.860  1.00  0.00    -0.226 N 
ATOM      2  H1  UNL     1      29.057  14.497 -25.383  1.00  0.00     0.177 HD
HETATM    3  C3  UNL     1      29.224  12.509 -25.097  1.00  0.00     0.679 C 
HETATM    4  N2  UNL     1      28.716  11.466 -24.377  1.00  0.00    -0.179 N 
ATOM      5  H2  UNL     1      27.707  11.398 -24.514  1.00  0.00     0.185 HD
HETATM    6  C4  UNL     1      29.116  10.564 -23.597  1.00  0.00     0.120 C 
HETATM    7  N9  UNL     1      30.232  12.530 -26.085  1.00  0.00    -0.192 N 
ATOM      8  H9  UNL     1      30.130  11.889 -26.872  1.00  0.00     0.184 HD
ENDROOT
BRANCH   6   9
HETATM    9  C5  UNL     1      28.149   9.576 -23.011  1.00  0.00     0.170 C 
BRANCH   9  10
HETATM   10  C6  UNL     1      28.620   8.186 -22.902  1.00  0.00     0.154 C 
BRANCH  10  11
HETATM   11  N3  UNL     1      28.268   7.525 -21.660  1.00  0.00    -0.365 N 
HETATM   12  C7  UNL     1      27.606   6.418 -21.765  1.00  0.00     0.197 C 
HETATM   13  N4  UNL     1      27.193   5.659 -20.616  1.00  0.00    -0.067 NA
HETATM   14  N5  UNL     1      27.229   5.864 -23.021  1.00  0.00    -0.067 NA
ATOM     15  H3  UNL     1      28.529   7.911 -20.753  1.00  0.00     0.161 HD
ENDBRANCH  10  11
ENDBRANCH   9  10
BRANCH   9  16
HETATM   16  N6  UNL     1      27.532  10.060 -21.794  1.00  0.00    -0.346 N 
HETATM   17  C8  UNL     1      26.378  10.870 -21.781  1.00  0.00     0.249 C 
HETATM   18  O1  UNL     1      25.825  11.215 -22.874  1.00  0.00    -0.271 OA
ATOM     19  H6  UNL     1      27.953   9.802 -20.901  1.00  0.00     0.163 HD
BRANCH  17  20
HETATM   20  C9  UNL     1      25.806  11.325 -20.476  1.00  0.00     0.276 C 
BRANCH  20  21
HETATM   21  C10 UNL     1      26.173  12.739 -20.228  1.00  0.00     0.046 C 
BRANCH  21  22
HETATM   22  C11 UNL     1      27.239  12.903 -19.202  1.00  0.00    -0.020 C 
HETATM   23  C12 UNL     1      27.439  11.651 -18.413  1.00  0.00     0.009 C 
HETATM   24  C13 UNL     1      26.893  14.086 -18.283  1.00  0.00     0.009 C 
ENDBRANCH  21  22
ENDBRANCH  20  21
BRANCH  20  25
HETATM   25  N7  UNL     1      24.395  11.029 -20.465  1.00  0.00    -0.066 N 
HETATM   26  C14 UNL     1      24.148   9.647 -20.111  1.00  0.00     0.267 C 
ATOM     27  H72 UNL     1      23.884  11.669 -19.856  1.00  0.00     0.277 HD
ATOM     28  H71 UNL     1      23.956  11.273 -21.353  1.00  0.00     0.277 HD
ENDBRANCH  20  25
ENDBRANCH  17  20
ENDBRANCH   9  16
ENDBRANCH   6   9
BRANCH   6  29
HETATM   29  N8  UNL     1      30.491  10.481 -23.258  1.00  0.00    -0.368 N 
HETATM   30  C15 UNL     1      31.345   9.738 -24.173  1.00  0.00     0.151 C 
BRANCH  29  31
HETATM   31  C16 UNL     1      31.021  11.052 -22.070  1.00  0.00     0.085 C 
HETATM   32  C17 UNL     1      31.013  10.212 -20.853  1.00  0.00     0.025 C 
HETATM   33  C18 UNL     1      30.535  11.073 -19.739  1.00  0.00     0.002 C 
HETATM   34  C19 UNL     1      30.669  12.475 -20.228  1.00  0.00     0.002 C 
HETATM   35  C20 UNL     1      30.315  12.360 -21.701  1.00  0.00     0.025 C 
ENDBRANCH  29  31
ENDBRANCH   6  29
BRANCH   1  36
HETATM   36  C2  UNL     1      27.651  13.930 -23.915  1.00  0.00     0.133 C 
HETATM   37  C1  UNL     1      28.171  14.891 -22.846  1.00  0.00     0.027 C 
ENDBRANCH   1  36
BRANCH   7  38
HETATM   38  C21 UNL     1      31.382  13.375 -26.071  1.00  0.00     0.054 A 
HETATM   39  C22 UNL     1      31.591  14.315 -27.072  1.00  0.00     0.047 A 
HETATM   40  C23 UNL     1      32.697  15.138 -27.087  1.00  0.00     0.095 A 
HETATM   41  N10 UNL     1      33.632  15.066 -26.126  1.00  0.00    -0.338 N 
HETATM   42  C24 UNL     1      34.809  15.929 -26.126  1.00  0.00     0.158 C 
HETATM   43  C25 UNL     1      33.465  14.170 -25.145  1.00  0.00     0.192 A 
HETATM   44  F1  UNL     1      34.427  14.108 -24.176  1.00  0.00    -0.186 F 
HETATM   45  C26 UNL     1      32.355  13.319 -25.096  1.00  0.00     0.091 A 
ENDBRANCH   7  38
TORSDOF 12
ENDMDL
MODEL 4
REMARK VINA RESULT: -7.219688423      0.905      1.913
REMARK  12 active torsions:
REMARK  status: ('A' for Active; 'I' for Inactive)
REMARK    1  A    between atoms: C2_2  and  N1_3 
REMARK       I    between atoms: C3_5  and  N2_6 
REMARK       I    between atoms: C3_5  and  N9_36 
REMARK    2  A    between atoms: C4_8  and  C5_9 
REMARK    3  A    between atoms: C4_8  and  N8_29 
REMARK    4  A    between atoms: C5_9  and  C6_10 
REMARK    5  A    between atoms: C5_9  and  N6_16 
REMARK    6  A    between atoms: C6_10  and  N3_11 
REMARK       I    between atoms: N6_16  and  C8_18 
REMARK    7  A    between atoms: C8_18  and  C9_20 
REMARK    8  A    between atoms: C9_20  and  C10_21 
REMARK    9  A    between atoms: C9_20  and  N7_25 
REMARK   10  A    between atoms: C10_21  and  C11_22 
REMARK   11  A    between atoms: N8_29  and  C16_31 
REMARK   12  A    between atoms: N9_36  and  C21_38 
ROOT
HETATM    1  N1  UNL     1      24.208  10.719 -22.311  1.00  0.00    -0.226 N 
ATOM      2  H1  UNL     1      23.433  10.085 -22.118  1.00  0.00     0.177 HD
HETATM    3  C3  UNL     1      24.987  11.076 -21.303  1.00  0.00     0.679 C 
HETATM    4  N2  UNL     1      26.014  11.925 -21.600  1.00  0.00    -0.179 N 
ATOM      5  H2  UNL     1      25.658  12.774 -22.040  1.00  0.00     0.185 HD
HETATM    6  C4  UNL     1      27.267  11.977 -21.496  1.00  0.00     0.120 C 
HETATM    7  N9  UNL     1      24.599  10.511 -20.069  1.00  0.00    -0.192 N 
ATOM      8  H9  UNL     1      24.447  11.150 -19.288  1.00  0.00     0.184 HD
ENDROOT
BRANCH   6   9
HETATM    9  C5  UNL     1      28.026  13.177 -21.984  1.00  0.00     0.170 C 
BRANCH   9  10
HETATM   10  C6  UNL     1      27.900  14.403 -21.178  1.00  0.00     0.154 C 
BRANCH  10  11
HETATM   11  N3  UNL     1      28.512  14.328 -19.866  1.00  0.00    -0.365 N 
HETATM   12  C7  UNL     1      27.704  14.271 -18.857  1.00  0.00     0.197 C 
HETATM   13  N4  UNL     1      28.176  14.193 -17.501  1.00  0.00    -0.067 NA
HETATM   14  N5  UNL     1      26.288  14.283 -19.004  1.00  0.00    -0.067 NA
ATOM     15  H3  UNL     1      29.525  14.321 -19.745  1.00  0.00     0.161 HD
ENDBRANCH  10  11
ENDBRANCH   9  10
BRANCH   9  16
HETATM   16  N6  UNL     1      29.398  12.864 -22.324  1.00  0.00    -0.346 N 
HETATM   17  C8  UNL     1      29.870  12.802 -23.651  1.00  0.00     0.249 C 
HETATM   18  O1  UNL     1      29.080  13.023 -24.624  1.00  0.00    -0.271 OA
ATOM     19  H6  UNL     1      30.055  12.679 -21.566  1.00  0.00     0.163 HD
BRANCH  17  20
HETATM   20  C9  UNL     1      31.306  12.471 -23.912  1.00  0.00     0.276 C 
BRANCH  20  21
HETATM   21  C10 UNL     1      31.414  11.587 -25.096  1.00  0.00     0.046 C 
BRANCH  21  22
HETATM   22  C11 UNL     1      31.375  10.137 -24.757  1.00  0.00    -0.020 C 
HETATM   23  C12 UNL     1      32.552   9.410 -25.319  1.00  0.00     0.009 C 
HETATM   24  C13 UNL     1      30.057   9.526 -25.256  1.00  0.00     0.009 C 
ENDBRANCH  21  22
ENDBRANCH  20  21
BRANCH  20  25
HETATM   25  N7  UNL     1      32.056  13.701 -23.974  1.00  0.00    -0.066 N 
HETATM   26  C14 UNL     1      33.269  13.541 -24.748  1.00  0.00     0.267 C 
ATOM     27  H72 UNL     1      31.486  14.470 -24.328  1.00  0.00     0.277 HD
ATOM     28  H71 UNL     1      32.252  14.067 -23.042  1.00  0.00     0.277 HD
ENDBRANCH  20  25
ENDBRANCH  17  20
ENDBRANCH   9  16
ENDBRANCH   6   9
BRANCH   6  29
HETATM   29  N8  UNL     1      27.974  10.890 -20.920  1.00  0.00    -0.368 N 
HETATM   30  C15 UNL     1      28.044  10.852 -19.467  1.00  0.00     0.151 C 
BRANCH  29  31
HETATM   31  C16 UNL     1      28.623   9.899 -21.705  1.00  0.00     0.085 C 
HETATM   32  C17 UNL     1      27.971   8.575 -21.798  1.00  0.00     0.025 C 
HETATM   33  C18 UNL     1      29.039   7.555 -21.619  1.00  0.00     0.002 C 
HETATM   34  C19 UNL     1      30.325   8.278 -21.837  1.00  0.00     0.002 C 
HETATM   35  C20 UNL     1      30.057   9.645 -21.232  1.00  0.00     0.025 C 
ENDBRANCH  29  31
ENDBRANCH   6  29
BRANCH   1  36
HETATM   36  C2  UNL     1      24.390  11.173 -23.654  1.00  0.00     0.133 C 
HETATM   37  C1  UNL     1      23.040  11.648 -24.189  1.00  0.00     0.027 C 
ENDBRANCH   1  36
BRANCH   7  38
HETATM   38  C21 UNL     1      24.404   9.118 -19.825  1.00  0.00     0.054 A 
HETATM   39  C22 UNL     1      23.148   8.616 -19.509  1.00  0.00     0.047 A 
HETATM   40  C23 UNL     1      22.933   7.278 -19.261  1.00  0.00     0.095 A 
HETATM   41  N10 UNL     1      23.939   6.390 -19.312  1.00  0.00    -0.338 N 
HETATM   42  C24 UNL     1      23.730   4.969 -19.053  1.00  0.00     0.158 C 
HETATM   43  C25 UNL     1      25.165   6.837 -19.612  1.00  0.00     0.192 A 
HETATM   44  F1  UNL     1      26.178   5.921 -19.659  1.00  0.00    -0.186 F 
HETATM   45  C26 UNL     1      25.420   8.189 -19.871  1.00  0.00     0.091 A 
ENDBRANCH   7  38
TORSDOF 12
ENDMDL
MODEL 5
REMARK VINA RESULT: -7.214977901      3.609      6.819
REMARK  12 active torsions:
REMARK  status: ('A' for Active; 'I' for Inactive)
REMARK    1  A    between atoms: C2_2  and  N1_3 
REMARK       I    between atoms: C3_5  and  N2_6 
REMARK       I    between atoms: C3_5  and  N9_36 
REMARK    2  A    between atoms: C4_8  and  C5_9 
REMARK    3  A    between atoms: C4_8  and  N8_29 
REMARK    4  A    between atoms: C5_9  and  C6_10 
REMARK    5  A    between atoms: C5_9  and  N6_16 
REMARK    6  A    between atoms: C6_10  and  N3_11 
REMARK       I    between atoms: N6_16  and  C8_18 
REMARK    7  A    between atoms: C8_18  and  C9_20 
REMARK    8  A    between atoms: C9_20  and  C10_21 
REMARK    9  A    between atoms: C9_20  and  N7_25 
REMARK   10  A    between atoms: C10_21  and  C11_22 
REMARK   11  A    between atoms: N8_29  and  C16_31 
REMARK   12  A    between atoms: N9_36  and  C21_38 
ROOT
HETATM    1  N1  UNL     1      30.604  13.098 -22.620  1.00  0.00    -0.226 N 
ATOM      2  H1  UNL     1      30.715  13.806 -21.894  1.00  0.00     0.177 HD
HETATM    3  C3  UNL     1      30.443  11.839 -22.245  1.00  0.00     0.679 C 
HETATM    4  N2  UNL     1      30.298  10.921 -23.244  1.00  0.00    -0.179 N 
ATOM      5  H2  UNL     1      31.093  10.961 -23.882  1.00  0.00     0.185 HD
HETATM    6  C4  UNL     1      29.479  10.041 -23.616  1.00  0.00     0.120 C 
HETATM    7  N9  UNL     1      30.465  11.666 -20.843  1.00  0.00    -0.192 N 
ATOM      8  H9  UNL     1      31.122  10.984 -20.466  1.00  0.00     0.184 HD
ENDROOT
BRANCH   6   9
HETATM    9  C5  UNL     1      29.745   9.220 -24.845  1.00  0.00     0.170 C 
BRANCH   9  10
HETATM   10  C6  UNL     1      28.662   9.163 -25.840  1.00  0.00     0.154 C 
BRANCH  10  11
HETATM   11  N3  UNL     1      28.460   7.857 -26.438  1.00  0.00    -0.365 N 
HETATM   12  C7  UNL     1      28.848   7.721 -27.665  1.00  0.00     0.197 C 
HETATM   13  N4  UNL     1      28.709   6.480 -28.380  1.00  0.00    -0.067 NA
HETATM   14  N5  UNL     1      29.440   8.781 -28.408  1.00  0.00    -0.067 NA
ATOM     15  H3  UNL     1      28.036   7.089 -25.920  1.00  0.00     0.161 HD
ENDBRANCH  10  11
ENDBRANCH   9  10
BRANCH   9  16
HETATM   16  N6  UNL     1      31.037   9.506 -25.433  1.00  0.00    -0.346 N 
HETATM   17  C8  UNL     1      31.941   8.502 -25.836  1.00  0.00     0.249 C 
HETATM   18  O1  UNL     1      31.643   7.274 -25.689  1.00  0.00    -0.271 OA
ATOM     19  H6  UNL     1      31.306  10.481 -25.561  1.00  0.00     0.163 HD
BRANCH  17  20
HETATM   20  C9  UNL     1      33.257   8.888 -26.436  1.00  0.00     0.276 C 
BRANCH  20  21
HETATM   21  C10 UNL     1      33.709  10.182 -25.874  1.00  0.00     0.046 C 
BRANCH  21  22
HETATM   22  C11 UNL     1      33.878  11.246 -26.901  1.00  0.00    -0.020 C 
HETATM   23  C12 UNL     1      33.369  12.564 -26.417  1.00  0.00     0.009 C 
HETATM   24  C13 UNL     1      33.174  10.825 -28.201  1.00  0.00     0.009 C 
ENDBRANCH  21  22
ENDBRANCH  20  21
BRANCH  20  25
HETATM   25  N7  UNL     1      34.171   7.783 -26.286  1.00  0.00    -0.066 N 
HETATM   26  C14 UNL     1      35.180   7.788 -27.325  1.00  0.00     0.267 C 
ATOM     27  H72 UNL     1      34.592   7.768 -25.357  1.00  0.00     0.277 HD
ATOM     28  H71 UNL     1      33.677   6.891 -26.250  1.00  0.00     0.277 HD
ENDBRANCH  20  25
ENDBRANCH  17  20
ENDBRANCH   9  16
ENDBRANCH   6   9
BRANCH   6  29
HETATM   29  N8  UNL     1      28.290   9.823 -22.875  1.00  0.00    -0.368 N 
HETATM   30  C15 UNL     1      27.120  10.590 -23.276  1.00  0.00     0.151 C 
BRANCH  29  31
HETATM   31  C16 UNL     1      28.232   8.937 -21.766  1.00  0.00     0.085 C 
HETATM   32  C17 UNL     1      29.351   7.984 -21.602  1.00  0.00     0.025 C 
HETATM   33  C18 UNL     1      28.748   6.663 -21.281  1.00  0.00     0.002 C 
HETATM   34  C19 UNL     1      27.347   6.952 -20.861  1.00  0.00     0.002 C 
HETATM   35  C20 UNL     1      26.948   8.103 -21.768  1.00  0.00     0.025 C 
ENDBRANCH  29  31
ENDBRANCH   6  29
BRANCH   1  36
HETATM   36  C2  UNL     1      30.633  13.521 -23.984  1.00  0.00     0.133 C 
HETATM   37  C1  UNL     1      29.533  14.563 -24.188  1.00  0.00     0.027 C 
ENDBRANCH   1  36
BRANCH   7  38
HETATM   38  C21 UNL     1      29.642  12.370 -19.913  1.00  0.00     0.054 A 
HETATM   39  C22 UNL     1      28.394  11.881 -19.549  1.00  0.00     0.047 A 
HETATM   40  C23 UNL     1      27.577  12.544 -18.659  1.00  0.00     0.095 A 
HETATM   41  N10 UNL     1      27.953  13.704 -18.100  1.00  0.00    -0.338 N 
HETATM   42  C24 UNL     1      27.101  14.420 -17.155  1.00  0.00     0.158 C 
HETATM   43  C25 UNL     1      29.150  14.208 -18.427  1.00  0.00     0.192 A 
HETATM   44  F1  UNL     1      29.517  15.391 -17.850  1.00  0.00    -0.186 F 
HETATM   45  C26 UNL     1      30.007  13.562 -19.326  1.00  0.00     0.091 A 
ENDBRANCH   7  38
TORSDOF 12
ENDMDL
