MODEL 1
REMARK VINA RESULT: -7.119389994      0.000      0.000
REMARK  11 active torsions:
REMARK  status: ('A' for Active; 'I' for Inactive)
REMARK    1  A    between atoms: C2_2  and  C4_4 
REMARK       I    between atoms: C4_4  and  N1_6 
REMARK    2  A    between atoms: N1_6  and  C5_8 
REMARK    3  A    between atoms: C5_8  and  C6_9 
REMARK       I    between atoms: C6_9  and  N2_11 
REMARK    4  A    between atoms: N2_11  and  C7_13 
REMARK    5  A    between atoms: C7_13  and  C8_14 
REMARK    6  A    between atoms: C7_13  and  C12_18 
REMARK       I    between atoms: C12_18  and  N3_20 
REMARK    7  A    between atoms: N3_20  and  C13_22 
REMARK    8  A    between atoms: C13_22  and  C14_23 
REMARK    9  A    between atoms: C13_22  and  C20_33 
REMARK   10  A    between atoms: C14_23  and  C15_24 
REMARK       I    between atoms: C20_33  and  N5_35 
REMARK   11  A    between atoms: N5_35  and  C21_37 
ROOT
HETATM    1  C12 UNL     1      28.246  11.696 -22.171  1.00  0.00     0.244 C 
HETATM    2  O3  UNL     1      27.086  11.335 -22.508  1.00  0.00    -0.271 OA
HETATM    3  N3  UNL     1      29.313  10.785 -21.995  1.00  0.00    -0.345 N 
ATOM      4  H3  UNL     1      30.235  11.131 -21.728  1.00  0.00     0.163 HD
ENDROOT
BRANCH   3   5
HETATM    5  C13 UNL     1      29.109   9.368 -22.191  1.00  0.00     0.181 C 
BRANCH   5   6
HETATM    6  C14 UNL     1      28.807   8.674 -20.870  1.00  0.00     0.076 C 
BRANCH   6   7
HETATM    7  C15 UNL     1      27.382   8.305 -20.759  1.00  0.00    -0.021 A 
HETATM    8  C16 UNL     1      26.918   7.239 -21.516  1.00  0.00     0.015 A 
HETATM    9  C17 UNL     1      25.602   6.880 -21.388  1.00  0.00     0.075 A 
HETATM   10  C18 UNL     1      24.786   7.589 -20.517  1.00  0.00     0.246 A 
HETATM   11  O4  UNL     1      23.575   7.228 -20.427  1.00  0.00    -0.268 OA
HETATM   12  N4  UNL     1      25.253   8.614 -19.797  1.00  0.00    -0.317 N 
HETATM   13  C19 UNL     1      26.544   8.993 -19.898  1.00  0.00     0.088 A 
ATOM     14  H4  UNL     1      24.628   9.115 -19.165  1.00  0.00     0.169 HD
HETATM   15 BR1  UNL     1      27.207  10.484 -18.884  1.00  0.00    -0.031 Br
ENDBRANCH   6   7
ENDBRANCH   5   6
BRANCH   5  16
HETATM   16  C20 UNL     1      30.248   8.729 -22.894  1.00  0.00     0.241 C 
HETATM   17  O5  UNL     1      30.895   7.827 -22.325  1.00  0.00    -0.271 OA
HETATM   18  N5  UNL     1      30.635   9.111 -24.202  1.00  0.00    -0.355 N 
ATOM     19  H5  UNL     1      30.105   9.845 -24.670  1.00  0.00     0.162 HD
BRANCH  18  20
HETATM   20  C21 UNL     1      31.746   8.507 -24.906  1.00  0.00     0.076 C 
HETATM   21  C22 UNL     1      31.280   7.533 -25.966  1.00  0.00     0.032 C 
HETATM   22  C23 UNL     1      32.736   9.507 -25.443  1.00  0.00     0.032 C 
ENDBRANCH  18  20
ENDBRANCH   5  16
ENDBRANCH   3   5
BRANCH   1  23
HETATM   23  C7  UNL     1      28.480  13.164 -21.954  1.00  0.00     0.200 C 
BRANCH  23  24
HETATM   24  N2  UNL     1      29.399  13.658 -22.964  1.00  0.00    -0.343 N 
HETATM   25  C6  UNL     1      28.921  14.208 -24.167  1.00  0.00     0.236 C 
HETATM   26  O2  UNL     1      27.649  14.262 -24.384  1.00  0.00    -0.272 OA
ATOM     27  H2  UNL     1      30.405  13.606 -22.799  1.00  0.00     0.163 HD
BRANCH  25  28
HETATM   28  C5  UNL     1      29.735  14.754 -25.267  1.00  0.00     0.225 C 
BRANCH  28  29
HETATM   29  N1  UNL     1      31.087  14.999 -24.875  1.00  0.00    -0.348 N 
HETATM   30  C4  UNL     1      32.100  15.364 -25.785  1.00  0.00     0.246 C 
HETATM   31  O1  UNL     1      31.822  15.478 -27.016  1.00  0.00    -0.268 OA
ATOM     32  H1  UNL     1      31.332  14.905 -23.889  1.00  0.00     0.163 HD
BRANCH  30  33
HETATM   33  C2  UNL     1      33.471  15.620 -25.378  1.00  0.00    -0.004 C 
HETATM   34  C1  UNL     1      33.971  16.834 -25.349  1.00  0.00     0.024 C 
HETATM   35  C3  UNL     1      34.356  14.481 -24.966  1.00  0.00     0.053 C 
ENDBRANCH  30  33
ENDBRANCH  28  29
ENDBRANCH  25  28
ENDBRANCH  23  24
BRANCH  23  36
HETATM   36  C8  UNL     1      29.028  13.463 -20.622  1.00  0.00     0.010 C 
HETATM   37  C9  UNL     1      28.323  14.058 -19.656  1.00  0.00    -0.089 C 
HETATM   38  C10 UNL     1      28.971  14.316 -18.339  1.00  0.00     0.042 C 
HETATM   39  C11 UNL     1      26.920  14.482 -19.827  1.00  0.00     0.042 C 
ENDBRANCH  23  36
ENDBRANCH   1  23
TORSDOF 11
ENDMDL
MODEL 2
REMARK VINA RESULT: -7.097494020      2.912      5.108
REMARK  11 active torsions:
REMARK  status: ('A' for Active; 'I' for Inactive)
REMARK    1  A    between atoms: C2_2  and  C4_4 
REMARK       I    between atoms: C4_4  and  N1_6 
REMARK    2  A    between atoms: N1_6  and  C5_8 
REMARK    3  A    between atoms: C5_8  and  C6_9 
REMARK       I    between atoms: C6_9  and  N2_11 
REMARK    4  A    between atoms: N2_11  and  C7_13 
REMARK    5  A    between atoms: C7_13  and  C8_14 
REMARK    6  A    between atoms: C7_13  and  C12_18 
REMARK       I    between atoms: C12_18  and  N3_20 
REMARK    7  A    between atoms: N3_20  and  C13_22 
REMARK    8  A    between atoms: C13_22  and  C14_23 
REMARK    9  A    between atoms: C13_22  and  C20_33 
REMARK   10  A    between atoms: C14_23  and  C15_24 
REMARK       I    between atoms: C20_33  and  N5_35 
REMARK   11  A    between atoms: N5_35  and  C21_37 
ROOT
HETATM    1  C12 UNL     1      28.527  10.320 -22.555  1.00  0.00     0.244 C 
HETATM    2  O3  UNL     1      27.669  10.643 -23.421  1.00  0.00    -0.271 OA
HETATM    3  N3  UNL     1      28.316   9.286 -21.613  1.00  0.00    -0.345 N 
ATOM      4  H3  UNL     1      29.046   9.060 -20.938  1.00  0.00     0.163 HD
ENDROOT
BRANCH   3   5
HETATM    5  C13 UNL     1      27.074   8.547 -21.599  1.00  0.00     0.181 C 
BRANCH   5   6
HETATM    6  C14 UNL     1      26.324   8.769 -20.292  1.00  0.00     0.076 C 
BRANCH   6   7
HETATM    7  C15 UNL     1      26.415  10.171 -19.840  1.00  0.00    -0.021 A 
HETATM    8  C16 UNL     1      27.403  10.505 -18.925  1.00  0.00     0.015 A 
HETATM    9  C17 UNL     1      27.503  11.813 -18.531  1.00  0.00     0.075 A 
HETATM   10  C18 UNL     1      26.623  12.750 -19.053  1.00  0.00     0.246 A 
HETATM   11  O4  UNL     1      26.746  13.949 -18.664  1.00  0.00    -0.268 OA
HETATM   12  N4  UNL     1      25.677  12.407 -19.935  1.00  0.00    -0.317 N 
HETATM   13  C19 UNL     1      25.552  11.128 -20.345  1.00  0.00     0.088 A 
ATOM     14  H4  UNL     1      25.045  13.120 -20.301  1.00  0.00     0.169 HD
HETATM   15 BR1  UNL     1      24.175  10.633 -21.589  1.00  0.00    -0.031 Br
ENDBRANCH   6   7
ENDBRANCH   5   6
BRANCH   5  16
HETATM   16  C20 UNL     1      27.276   7.105 -21.873  1.00  0.00     0.241 C 
HETATM   17  O5  UNL     1      27.887   6.753 -22.902  1.00  0.00    -0.271 OA
HETATM   18  N5  UNL     1      26.794   6.098 -21.001  1.00  0.00    -0.355 N 
ATOM     19  H5  UNL     1      26.297   6.383 -20.158  1.00  0.00     0.162 HD
BRANCH  18  20
HETATM   20  C21 UNL     1      26.972   4.683 -21.250  1.00  0.00     0.076 C 
HETATM   21  C22 UNL     1      28.154   4.121 -20.490  1.00  0.00     0.032 C 
HETATM   22  C23 UNL     1      25.721   3.871 -21.044  1.00  0.00     0.032 C 
ENDBRANCH  18  20
ENDBRANCH   5  16
ENDBRANCH   3   5
BRANCH   1  23
HETATM   23  C7  UNL     1      29.822  11.080 -22.545  1.00  0.00     0.200 C 
BRANCH  23  24
HETATM   24  N2  UNL     1      30.603  10.713 -23.714  1.00  0.00    -0.343 N 
HETATM   25  C6  UNL     1      31.279  11.691 -24.465  1.00  0.00     0.236 C 
HETATM   26  O2  UNL     1      31.195  12.933 -24.121  1.00  0.00    -0.272 OA
ATOM     27  H2  UNL     1      30.662   9.733 -23.993  1.00  0.00     0.163 HD
BRANCH  25  28
HETATM   28  C5  UNL     1      32.111  11.460 -25.658  1.00  0.00     0.225 C 
BRANCH  28  29
HETATM   29  N1  UNL     1      32.177  10.078 -26.019  1.00  0.00    -0.348 N 
HETATM   30  C4  UNL     1      33.377   9.432 -26.380  1.00  0.00     0.246 C 
HETATM   31  O1  UNL     1      34.459  10.090 -26.400  1.00  0.00    -0.268 OA
ATOM     32  H1  UNL     1      31.315   9.534 -26.014  1.00  0.00     0.163 HD
BRANCH  30  33
HETATM   33  C2  UNL     1      33.437   8.024 -26.736  1.00  0.00    -0.004 C 
HETATM   34  C1  UNL     1      32.362   7.270 -26.769  1.00  0.00     0.024 C 
HETATM   35  C3  UNL     1      34.752   7.396 -27.088  1.00  0.00     0.053 C 
ENDBRANCH  30  33
ENDBRANCH  28  29
ENDBRANCH  25  28
ENDBRANCH  23  24
BRANCH  23  36
HETATM   36  C8  UNL     1      30.623  10.827 -21.337  1.00  0.00     0.010 C 
HETATM   37  C9  UNL     1      30.792  11.730 -20.367  1.00  0.00    -0.089 C 
HETATM   38  C10 UNL     1      31.622  11.374 -19.181  1.00  0.00     0.042 C 
HETATM   39  C11 UNL     1      30.196  13.079 -20.409  1.00  0.00     0.042 C 
ENDBRANCH  23  36
ENDBRANCH   1  23
TORSDOF 11
ENDMDL
MODEL 3
REMARK VINA RESULT: -7.083417698      2.603      7.344
REMARK  11 active torsions:
REMARK  status: ('A' for Active; 'I' for Inactive)
REMARK    1  A    between atoms: C2_2  and  C4_4 
REMARK       I    between atoms: C4_4  and  N1_6 
REMARK    2  A    between atoms: N1_6  and  C5_8 
REMARK    3  A    between atoms: C5_8  and  C6_9 
REMARK       I    between atoms: C6_9  and  N2_11 
REMARK    4  A    between atoms: N2_11  and  C7_13 
REMARK    5  A    between atoms: C7_13  and  C8_14 
REMARK    6  A    between atoms: C7_13  and  C12_18 
REMARK       I    between atoms: C12_18  and  N3_20 
REMARK    7  A    between atoms: N3_20  and  C13_22 
REMARK    8  A    between atoms: C13_22  and  C14_23 
REMARK    9  A    between atoms: C13_22  and  C20_33 
REMARK   10  A    between atoms: C14_23  and  C15_24 
REMARK       I    between atoms: C20_33  and  N5_35 
REMARK   11  A    between atoms: N5_35  and  C21_37 
ROOT
HETATM    1  C12 UNL     1      27.700  12.370 -22.845  1.00  0.00     0.244 C 
HETATM    2  O3  UNL     1      27.653  13.556 -22.416  1.00  0.00    -0.271 OA
HETATM    3  N3  UNL     1      26.900  11.330 -22.317  1.00  0.00    -0.345 N 
ATOM      4  H3  UNL     1      26.973  10.390 -22.705  1.00  0.00     0.163 HD
ENDROOT
BRANCH   3   5
HETATM    5  C13 UNL     1      25.981  11.588 -21.233  1.00  0.00     0.181 C 
BRANCH   5   6
HETATM    6  C14 UNL     1      26.597  11.204 -19.894  1.00  0.00     0.076 C 
BRANCH   6   7
HETATM    7  C15 UNL     1      27.307  12.339 -19.273  1.00  0.00    -0.021 A 
HETATM    8  C16 UNL     1      26.553  13.356 -18.705  1.00  0.00     0.015 A 
HETATM    9  C17 UNL     1      27.216  14.393 -18.103  1.00  0.00     0.075 A 
HETATM   10  C18 UNL     1      28.603  14.392 -18.083  1.00  0.00     0.246 A 
HETATM   11  O4  UNL     1      29.180  15.369 -17.518  1.00  0.00    -0.268 OA
HETATM   12  N4  UNL     1      29.312  13.402 -18.636  1.00  0.00    -0.317 N 
HETATM   13  C19 UNL     1      28.691  12.366 -19.236  1.00  0.00     0.088 A 
ATOM     14  H4  UNL     1      30.332  13.431 -18.605  1.00  0.00     0.169 HD
HETATM   15 BR1  UNL     1      29.710  10.959 -20.056  1.00  0.00    -0.031 Br
ENDBRANCH   6   7
ENDBRANCH   5   6
BRANCH   5  16
HETATM   16  C20 UNL     1      24.670  10.927 -21.439  1.00  0.00     0.241 C 
HETATM   17  O5  UNL     1      23.869  11.395 -22.273  1.00  0.00    -0.271 OA
HETATM   18  N5  UNL     1      24.287   9.772 -20.713  1.00  0.00    -0.355 N 
ATOM     19  H5  UNL     1      24.943   9.386 -20.034  1.00  0.00     0.162 HD
BRANCH  18  20
HETATM   20  C21 UNL     1      23.012   9.113 -20.891  1.00  0.00     0.076 C 
HETATM   21  C22 UNL     1      23.031   8.151 -22.060  1.00  0.00     0.032 C 
HETATM   22  C23 UNL     1      22.481   8.475 -19.634  1.00  0.00     0.032 C 
ENDBRANCH  18  20
ENDBRANCH   5  16
ENDBRANCH   3   5
BRANCH   1  23
HETATM   23  C7  UNL     1      28.655  12.076 -23.966  1.00  0.00     0.200 C 
BRANCH  23  24
HETATM   24  N2  UNL     1      29.230  10.756 -23.773  1.00  0.00    -0.343 N 
HETATM   25  C6  UNL     1      28.638   9.620 -24.354  1.00  0.00     0.236 C 
HETATM   26  O2  UNL     1      27.562   9.748 -25.056  1.00  0.00    -0.272 OA
ATOM     27  H2  UNL     1      30.074  10.652 -23.209  1.00  0.00     0.163 HD
BRANCH  25  28
HETATM   28  C5  UNL     1      29.118   8.231 -24.250  1.00  0.00     0.225 C 
BRANCH  28  29
HETATM   29  N1  UNL     1      28.310   7.438 -23.377  1.00  0.00    -0.348 N 
HETATM   30  C4  UNL     1      28.642   7.193 -22.030  1.00  0.00     0.246 C 
HETATM   31  O1  UNL     1      29.708   7.683 -21.549  1.00  0.00    -0.268 OA
ATOM     32  H1  UNL     1      27.452   7.030 -23.747  1.00  0.00     0.163 HD
BRANCH  30  33
HETATM   33  C2  UNL     1      27.810   6.393 -21.146  1.00  0.00    -0.004 C 
HETATM   34  C1  UNL     1      28.110   5.150 -20.849  1.00  0.00     0.024 C 
HETATM   35  C3  UNL     1      26.574   6.987 -20.539  1.00  0.00     0.053 C 
ENDBRANCH  30  33
ENDBRANCH  28  29
ENDBRANCH  25  28
ENDBRANCH  23  24
BRANCH  23  36
HETATM   36  C8  UNL     1      29.743  13.061 -24.063  1.00  0.00     0.010 C 
HETATM   37  C9  UNL     1      29.789  14.014 -24.999  1.00  0.00    -0.089 C 
HETATM   38  C10 UNL     1      30.935  14.966 -25.010  1.00  0.00     0.042 C 
HETATM   39  C11 UNL     1      28.753  14.173 -26.038  1.00  0.00     0.042 C 
ENDBRANCH  23  36
ENDBRANCH   1  23
TORSDOF 11
ENDMDL
MODEL 4
REMARK VINA RESULT: -7.075469786      3.384      5.394
REMARK  11 active torsions:
REMARK  status: ('A' for Active; 'I' for Inactive)
REMARK    1  A    between atoms: C2_2  and  C4_4 
REMARK       I    between atoms: C4_4  and  N1_6 
REMARK    2  A    between atoms: N1_6  and  C5_8 
REMARK    3  A    between atoms: C5_8  and  C6_9 
REMARK       I    between atoms: C6_9  and  N2_11 
REMARK    4  A    between atoms: N2_11  and  C7_13 
REMARK    5  A    between atoms: C7_13  and  C8_14 
REMARK    6  A    between atoms: C7_13  and  C12_18 
REMARK       I    between atoms: C12_18  and  N3_20 
REMARK    7  A    between atoms: N3_20  and  C13_22 
REMARK    8  A    between atoms: C13_22  and  C14_23 
REMARK    9  A    between atoms: C13_22  and  C20_33 
REMARK   10  A    between atoms: C14_23  and  C15_24 
REMARK       I    between atoms: C20_33  and  N5_35 
REMARK   11  A    between atoms: N5_35  and  C21_37 
ROOT
HETATM    1  C12 UNL     1      28.731   9.539 -22.563  1.00  0.00     0.244 C 
HETATM    2  O3  UNL     1      28.005   9.665 -23.587  1.00  0.00    -0.271 OA
HETATM    3  N3  UNL     1      28.277   8.926 -21.372  1.00  0.00    -0.345 N 
ATOM      4  H3  UNL     1      28.907   8.844 -20.574  1.00  0.00     0.163 HD
ENDROOT
BRANCH   3   5
HETATM    5  C13 UNL     1      26.929   8.416 -21.275  1.00  0.00     0.181 C 
BRANCH   5   6
HETATM    6  C14 UNL     1      26.292   8.809 -19.949  1.00  0.00     0.076 C 
BRANCH   6   7
HETATM    7  C15 UNL     1      26.452  10.250 -19.671  1.00  0.00    -0.021 A 
HETATM    8  C16 UNL     1      27.494  10.650 -18.847  1.00  0.00     0.015 A 
HETATM    9  C17 UNL     1      27.658  11.990 -18.616  1.00  0.00     0.075 A 
HETATM   10  C18 UNL     1      26.785  12.893 -19.206  1.00  0.00     0.246 A 
HETATM   11  O4  UNL     1      26.967  14.124 -18.968  1.00  0.00    -0.268 OA
HETATM   12  N4  UNL     1      25.785  12.487 -19.998  1.00  0.00    -0.317 N 
HETATM   13  C19 UNL     1      25.597  11.175 -20.246  1.00  0.00     0.088 A 
ATOM     14  H4  UNL     1      25.160  13.176 -20.417  1.00  0.00     0.169 HD
HETATM   15 BR1  UNL     1      24.145  10.591 -21.360  1.00  0.00    -0.031 Br
ENDBRANCH   6   7
ENDBRANCH   5   6
BRANCH   5  16
HETATM   16  C20 UNL     1      26.865   6.952 -21.496  1.00  0.00     0.241 C 
HETATM   17  O5  UNL     1      26.831   6.506 -22.661  1.00  0.00    -0.271 OA
HETATM   18  N5  UNL     1      26.840   6.028 -20.422  1.00  0.00    -0.355 N 
ATOM     19  H5  UNL     1      26.871   6.391 -19.470  1.00  0.00     0.162 HD
BRANCH  18  20
HETATM   20  C21 UNL     1      26.771   4.595 -20.612  1.00  0.00     0.076 C 
HETATM   21  C22 UNL     1      28.145   3.962 -20.628  1.00  0.00     0.032 C 
HETATM   22  C23 UNL     1      25.833   3.904 -19.658  1.00  0.00     0.032 C 
ENDBRANCH  18  20
ENDBRANCH   5  16
ENDBRANCH   3   5
BRANCH   1  23
HETATM   23  C7  UNL     1      30.134  10.069 -22.636  1.00  0.00     0.200 C 
BRANCH  23  24
HETATM   24  N2  UNL     1      30.965   9.129 -23.368  1.00  0.00    -0.343 N 
HETATM   25  C6  UNL     1      31.572   9.496 -24.582  1.00  0.00     0.236 C 
HETATM   26  O2  UNL     1      31.378  10.679 -25.062  1.00  0.00    -0.272 OA
ATOM     27  H2  UNL     1      31.110   8.190 -22.996  1.00  0.00     0.163 HD
BRANCH  25  28
HETATM   28  C5  UNL     1      32.443   8.651 -25.418  1.00  0.00     0.225 C 
BRANCH  28  29
HETATM   29  N1  UNL     1      32.506   9.104 -26.772  1.00  0.00    -0.348 N 
HETATM   30  C4  UNL     1      33.717   9.401 -27.430  1.00  0.00     0.246 C 
HETATM   31  O1  UNL     1      34.814   9.275 -26.808  1.00  0.00    -0.268 OA
ATOM     32  H1  UNL     1      31.633   9.218 -27.287  1.00  0.00     0.163 HD
BRANCH  30  33
HETATM   33  C2  UNL     1      33.773   9.851 -28.811  1.00  0.00    -0.004 C 
HETATM   34  C1  UNL     1      33.579  11.108 -29.139  1.00  0.00     0.024 C 
HETATM   35  C3  UNL     1      34.069   8.872 -29.907  1.00  0.00     0.053 C 
ENDBRANCH  30  33
ENDBRANCH  28  29
ENDBRANCH  25  28
ENDBRANCH  23  24
BRANCH  23  36
HETATM   36  C8  UNL     1      30.727  10.300 -21.310  1.00  0.00     0.010 C 
HETATM   37  C9  UNL     1      30.738  11.493 -20.709  1.00  0.00    -0.089 C 
HETATM   38  C10 UNL     1      31.363  11.621 -19.362  1.00  0.00     0.042 C 
HETATM   39  C11 UNL     1      30.157  12.706 -21.316  1.00  0.00     0.042 C 
ENDBRANCH  23  36
ENDBRANCH   1  23
TORSDOF 11
ENDMDL
MODEL 5
REMARK VINA RESULT: -7.055486635      1.312      1.587
REMARK  11 active torsions:
REMARK  status: ('A' for Active; 'I' for Inactive)
REMARK    1  A    between atoms: C2_2  and  C4_4 
REMARK       I    between atoms: C4_4  and  N1_6 
REMARK    2  A    between atoms: N1_6  and  C5_8 
REMARK    3  A    between atoms: C5_8  and  C6_9 
REMARK       I    between atoms: C6_9  and  N2_11 
REMARK    4  A    between atoms: N2_11  and  C7_13 
REMARK    5  A    between atoms: C7_13  and  C8_14 
REMARK    6  A    between atoms: C7_13  and  C12_18 
REMARK       I    between atoms: C12_18  and  N3_20 
REMARK    7  A    between atoms: N3_20  and  C13_22 
REMARK    8  A    between atoms: C13_22  and  C14_23 
REMARK    9  A    between atoms: C13_22  and  C20_33 
REMARK   10  A    between atoms: C14_23  and  C15_24 
REMARK       I    between atoms: C20_33  and  N5_35 
REMARK   11  A    between atoms: N5_35  and  C21_37 
ROOT
HETATM    1  C12 UNL     1      27.647  12.115 -21.991  1.00  0.00     0.244 C 
HETATM    2  O3  UNL     1      26.518  11.974 -22.536  1.00  0.00    -0.271 OA
HETATM    3  N3  UNL     1      28.430  11.022 -21.553  1.00  0.00    -0.345 N 
ATOM      4  H3  UNL     1      29.339  11.191 -21.124  1.00  0.00     0.163 HD
ENDROOT
BRANCH   3   5
HETATM    5  C13 UNL     1      27.953   9.667 -21.709  1.00  0.00     0.181 C 
BRANCH   5   6
HETATM    6  C14 UNL     1      27.525   9.083 -20.369  1.00  0.00     0.076 C 
BRANCH   6   7
HETATM    7  C15 UNL     1      26.061   8.909 -20.291  1.00  0.00    -0.021 A 
HETATM    8  C16 UNL     1      25.273  10.035 -20.096  1.00  0.00     0.015 A 
HETATM    9  C17 UNL     1      23.914   9.873 -20.054  1.00  0.00     0.075 A 
HETATM   10  C18 UNL     1      23.376   8.603 -20.206  1.00  0.00     0.246 A 
HETATM   11  O4  UNL     1      22.114   8.493 -20.160  1.00  0.00    -0.268 OA
HETATM   12  N4  UNL     1      24.153   7.530 -20.393  1.00  0.00    -0.317 N 
HETATM   13  C19 UNL     1      25.495   7.655 -20.440  1.00  0.00     0.088 A 
ATOM     14  H4  UNL     1      23.726   6.609 -20.501  1.00  0.00     0.169 HD
HETATM   15 BR1  UNL     1      26.611   6.109 -20.681  1.00  0.00    -0.031 Br
ENDBRANCH   6   7
ENDBRANCH   5   6
BRANCH   5  16
HETATM   16  C20 UNL     1      28.942   8.799 -22.390  1.00  0.00     0.241 C 
HETATM   17  O5  UNL     1      29.522   7.902 -21.745  1.00  0.00    -0.271 OA
HETATM   18  N5  UNL     1      29.261   8.952 -23.763  1.00  0.00    -0.355 N 
ATOM     19  H5  UNL     1      28.786   9.683 -24.292  1.00  0.00     0.162 HD
BRANCH  18  20
HETATM   20  C21 UNL     1      30.227   8.122 -24.448  1.00  0.00     0.076 C 
HETATM   21  C22 UNL     1      29.694   7.606 -25.767  1.00  0.00     0.032 C 
HETATM   22  C23 UNL     1      31.582   8.765 -24.590  1.00  0.00     0.032 C 
ENDBRANCH  18  20
ENDBRANCH   5  16
ENDBRANCH   3   5
BRANCH   1  23
HETATM   23  C7  UNL     1      28.159  13.515 -21.810  1.00  0.00     0.200 C 
BRANCH  23  24
HETATM   24  N2  UNL     1      29.144  13.802 -22.838  1.00  0.00    -0.343 N 
HETATM   25  C6  UNL     1      28.755  14.335 -24.080  1.00  0.00     0.236 C 
HETATM   26  O2  UNL     1      27.506  14.560 -24.317  1.00  0.00    -0.272 OA
ATOM     27  H2  UNL     1      30.131  13.614 -22.657  1.00  0.00     0.163 HD
BRANCH  25  28
HETATM   28  C5  UNL     1      29.644  14.682 -25.202  1.00  0.00     0.225 C 
BRANCH  28  29
HETATM   29  N1  UNL     1      30.997  14.879 -24.787  1.00  0.00    -0.348 N 
HETATM   30  C4  UNL     1      32.025  15.275 -25.667  1.00  0.00     0.246 C 
HETATM   31  O1  UNL     1      31.760  15.463 -26.892  1.00  0.00    -0.268 OA
ATOM     32  H1  UNL     1      31.231  14.726 -23.805  1.00  0.00     0.163 HD
BRANCH  30  33
HETATM   33  C2  UNL     1      33.397  15.482 -25.234  1.00  0.00    -0.004 C 
HETATM   34  C1  UNL     1      33.975  16.659 -25.303  1.00  0.00     0.024 C 
HETATM   35  C3  UNL     1      34.190  14.335 -24.682  1.00  0.00     0.053 C 
ENDBRANCH  30  33
ENDBRANCH  28  29
ENDBRANCH  25  28
ENDBRANCH  23  24
BRANCH  23  36
HETATM   36  C8  UNL     1      28.771  13.733 -20.489  1.00  0.00     0.010 C 
HETATM   37  C9  UNL     1      28.075  14.109 -19.412  1.00  0.00    -0.089 C 
HETATM   38  C10 UNL     1      28.789  14.302 -18.119  1.00  0.00     0.042 C 
HETATM   39  C11 UNL     1      26.619  14.350 -19.437  1.00  0.00     0.042 C 
ENDBRANCH  23  36
ENDBRANCH   1  23
TORSDOF 11
ENDMDL
