MODEL 1
REMARK VINA RESULT: -8.019618937      0.000      0.000
REMARK  11 active torsions:
REMARK  status: ('A' for Active; 'I' for Inactive)
REMARK    1  A    between atoms: O1_2  and  C2_3 
REMARK    2  A    between atoms: C2_3  and  C3_4 
REMARK    3  A    between atoms: C3_4  and  O2_5 
REMARK    4  A    between atoms: O2_5  and  C4_6 
REMARK    5  A    between atoms: C7_11  and  N2_12 
REMARK    6  A    between atoms: C12_22  and  N5_23 
REMARK    7  A    between atoms: C15_28  and  O4_29 
REMARK    8  A    between atoms: O4_29  and  C16_30 
REMARK    9  A    between atoms: C16_30  and  O5_31 
REMARK   10  A    between atoms: O5_31  and  C17_32 
REMARK   11  A    between atoms: C17_32  and  N6_33 
ROOT
HETATM    1  C4  UNL     1      45.288  48.218   8.189  1.00  0.00     0.105 A 
HETATM    2  C5  UNL     1      45.026  48.840   6.992  1.00  0.00     0.070 A 
HETATM    3  C6  UNL     1      44.464  50.118   6.930  1.00  0.00     0.066 A 
HETATM    4  N1  UNL     1      44.196  50.745   5.762  1.00  0.00    -0.191 N 
ATOM      5  H1  UNL     1      44.410  50.279   4.880  1.00  0.00     0.184 HD
HETATM    6  C7  UNL     1      43.649  51.980   5.749  1.00  0.00     0.682 A 
HETATM    7  N4  UNL     1      43.380  52.564   6.919  1.00  0.00    -0.176 N 
ATOM      8  H4  UNL     1      42.967  53.496   6.890  1.00  0.00     0.186 HD
HETATM    9  C12 UNL     1      43.602  52.040   8.117  1.00  0.00     0.127 A 
HETATM   10  C13 UNL     1      44.175  50.749   8.100  1.00  0.00     0.038 A 
HETATM   11  C14 UNL     1      44.431  50.143   9.313  1.00  0.00     0.058 A 
HETATM   12  C15 UNL     1      44.979  48.895   9.399  1.00  0.00     0.122 A 
ENDROOT
BRANCH   6  13
HETATM   13  N2  UNL     1      43.353  52.647   4.549  1.00  0.00    -0.207 N 
HETATM   14  C8  UNL     1      42.312  53.636   4.449  1.00  0.00     0.161 C 
HETATM   15  C9  UNL     1      41.229  53.196   3.521  1.00  0.00     0.143 C 
HETATM   16  N3  UNL     1      41.650  52.170   2.637  1.00  0.00    -0.358 N 
HETATM   17  C10 UNL     1      42.987  51.900   2.326  1.00  0.00     0.236 C 
ATOM     18  H3  UNL     1      40.932  51.594   2.199  1.00  0.00     0.162 HD
HETATM   19  O3  UNL     1      43.305  51.285   1.259  1.00  0.00    -0.272 OA
HETATM   20  C11 UNL     1      44.065  52.359   3.301  1.00  0.00     0.244 C 
ENDBRANCH   6  13
BRANCH   9  21
HETATM   21  N5  UNL     1      43.335  52.587   9.193  1.00  0.00    -0.384 N 
ATOM     22  H52 UNL     1      42.456  53.093   9.306  1.00  0.00     0.157 HD
ATOM     23  H51 UNL     1      43.940  52.592  10.015  1.00  0.00     0.157 HD
ENDBRANCH   9  21
BRANCH   1  24
HETATM   24  O2  UNL     1      45.814  47.007   8.358  1.00  0.00    -0.346 OA
BRANCH  24  25
HETATM   25  C3  UNL     1      47.011  46.425   8.546  1.00  0.00     0.201 C 
BRANCH  25  26
HETATM   26  C2  UNL     1      46.907  45.115   9.291  1.00  0.00     0.193 C 
BRANCH  26  27
HETATM   27  O1  UNL     1      45.603  44.847   9.652  1.00  0.00    -0.394 OA
HETATM   28  C1  UNL     1      45.136  43.681   9.124  1.00  0.00     0.201 C 
ENDBRANCH  26  27
ENDBRANCH  25  26
ENDBRANCH  24  25
ENDBRANCH   1  24
BRANCH  12  29
HETATM   29  O4  UNL     1      45.240  48.282  10.600  1.00  0.00    -0.245 OA
BRANCH  29  30
HETATM   30  C16 UNL     1      44.557  48.201  11.645  1.00  0.00     0.152 C 
BRANCH  30  31
HETATM   31  O5  UNL     1      43.823  48.114  12.767  1.00  0.00    -0.263 OA
BRANCH  31  32
HETATM   32  C17 UNL     1      44.490  48.083  13.970  1.00  0.00     0.417 C 
BRANCH  32  33
HETATM   33  N6  UNL     1      43.636  48.269  15.103  1.00  0.00    -0.057 N 
ATOM     34  H63 UNL     1      43.506  49.262  15.296  1.00  0.00     0.276 HD
ATOM     35  H62 UNL     1      42.675  48.012  14.876  1.00  0.00     0.276 HD
ATOM     36  H61 UNL     1      43.953  47.777  15.938  1.00  0.00     0.276 HD
ENDBRANCH  32  33
ENDBRANCH  31  32
ENDBRANCH  30  31
ENDBRANCH  29  30
ENDBRANCH  12  29
TORSDOF 11
ENDMDL
MODEL 2
REMARK VINA RESULT: -7.968663562      3.802      8.069
REMARK  11 active torsions:
REMARK  status: ('A' for Active; 'I' for Inactive)
REMARK    1  A    between atoms: O1_2  and  C2_3 
REMARK    2  A    between atoms: C2_3  and  C3_4 
REMARK    3  A    between atoms: C3_4  and  O2_5 
REMARK    4  A    between atoms: O2_5  and  C4_6 
REMARK    5  A    between atoms: C7_11  and  N2_12 
REMARK    6  A    between atoms: C12_22  and  N5_23 
REMARK    7  A    between atoms: C15_28  and  O4_29 
REMARK    8  A    between atoms: O4_29  and  C16_30 
REMARK    9  A    between atoms: C16_30  and  O5_31 
REMARK   10  A    between atoms: O5_31  and  C17_32 
REMARK   11  A    between atoms: C17_32  and  N6_33 
ROOT
HETATM    1  C4  UNL     1      44.136  50.844   8.538  1.00  0.00     0.105 A 
HETATM    2  C5  UNL     1      44.970  49.762   8.392  1.00  0.00     0.070 A 
HETATM    3  C6  UNL     1      45.197  48.858   9.433  1.00  0.00     0.066 A 
HETATM    4  N1  UNL     1      46.017  47.789   9.309  1.00  0.00    -0.191 N 
ATOM      5  H1  UNL     1      46.495  47.620   8.424  1.00  0.00     0.184 HD
HETATM    6  C7  UNL     1      46.211  46.942  10.344  1.00  0.00     0.682 A 
HETATM    7  N4  UNL     1      45.572  47.188  11.491  1.00  0.00    -0.176 N 
ATOM      8  H4  UNL     1      45.730  46.538  12.260  1.00  0.00     0.186 HD
HETATM    9  C12 UNL     1      44.750  48.204  11.717  1.00  0.00     0.127 A 
HETATM   10  C13 UNL     1      44.565  49.072  10.618  1.00  0.00     0.038 A 
HETATM   11  C14 UNL     1      43.724  50.152  10.786  1.00  0.00     0.058 A 
HETATM   12  C15 UNL     1      43.486  51.049   9.785  1.00  0.00     0.122 A 
ENDROOT
BRANCH   6  13
HETATM   13  N2  UNL     1      47.064  45.831  10.242  1.00  0.00    -0.207 N 
HETATM   14  C8  UNL     1      47.089  44.978   9.082  1.00  0.00     0.161 C 
HETATM   15  C9  UNL     1      46.658  43.589   9.418  1.00  0.00     0.143 C 
HETATM   16  N3  UNL     1      46.753  43.307  10.805  1.00  0.00    -0.358 N 
HETATM   17  C10 UNL     1      47.554  44.024  11.700  1.00  0.00     0.236 C 
ATOM     18  H3  UNL     1      46.201  42.532  11.172  1.00  0.00     0.162 HD
HETATM   19  O3  UNL     1      47.931  43.513  12.802  1.00  0.00    -0.272 OA
HETATM   20  C11 UNL     1      47.970  45.442  11.326  1.00  0.00     0.244 C 
ENDBRANCH   6  13
BRANCH   9  21
HETATM   21  N5  UNL     1      44.175  48.428  12.789  1.00  0.00    -0.384 N 
ATOM     22  H52 UNL     1      43.602  47.705  13.224  1.00  0.00     0.157 HD
ATOM     23  H51 UNL     1      44.211  49.310  13.301  1.00  0.00     0.157 HD
ENDBRANCH   9  21
BRANCH   1  24
HETATM   24  O2  UNL     1      43.857  51.764   7.617  1.00  0.00    -0.346 OA
BRANCH  24  25
HETATM   25  C3  UNL     1      43.468  51.844   6.333  1.00  0.00     0.201 C 
BRANCH  25  26
HETATM   26  C2  UNL     1      44.632  52.003   5.384  1.00  0.00     0.193 C 
BRANCH  26  27
HETATM   27  O1  UNL     1      45.016  53.324   5.279  1.00  0.00    -0.394 OA
HETATM   28  C1  UNL     1      46.120  53.495   4.499  1.00  0.00     0.201 C 
ENDBRANCH  26  27
ENDBRANCH  25  26
ENDBRANCH  24  25
ENDBRANCH   1  24
BRANCH  12  29
HETATM   29  O4  UNL     1      42.649  52.127   9.938  1.00  0.00    -0.245 OA
BRANCH  29  30
HETATM   30  C16 UNL     1      42.683  53.083  10.744  1.00  0.00     0.152 C 
BRANCH  30  31
HETATM   31  O5  UNL     1      42.718  54.111  11.610  1.00  0.00    -0.263 OA
BRANCH  31  32
HETATM   32  C17 UNL     1      41.979  54.003  12.765  1.00  0.00     0.417 C 
BRANCH  32  33
HETATM   33  N6  UNL     1      41.612  55.266  13.329  1.00  0.00    -0.057 N 
ATOM     34  H63 UNL     1      42.130  56.023  12.884  1.00  0.00     0.276 HD
ATOM     35  H62 UNL     1      40.664  55.522  13.052  1.00  0.00     0.276 HD
ATOM     36  H61 UNL     1      41.714  55.305  14.344  1.00  0.00     0.276 HD
ENDBRANCH  32  33
ENDBRANCH  31  32
ENDBRANCH  30  31
ENDBRANCH  29  30
ENDBRANCH  12  29
TORSDOF 11
ENDMDL
MODEL 3
REMARK VINA RESULT: -7.794428324      3.525      7.847
REMARK  11 active torsions:
REMARK  status: ('A' for Active; 'I' for Inactive)
REMARK    1  A    between atoms: O1_2  and  C2_3 
REMARK    2  A    between atoms: C2_3  and  C3_4 
REMARK    3  A    between atoms: C3_4  and  O2_5 
REMARK    4  A    between atoms: O2_5  and  C4_6 
REMARK    5  A    between atoms: C7_11  and  N2_12 
REMARK    6  A    between atoms: C12_22  and  N5_23 
REMARK    7  A    between atoms: C15_28  and  O4_29 
REMARK    8  A    between atoms: O4_29  and  C16_30 
REMARK    9  A    between atoms: C16_30  and  O5_31 
REMARK   10  A    between atoms: O5_31  and  C17_32 
REMARK   11  A    between atoms: C17_32  and  N6_33 
ROOT
HETATM    1  C4  UNL     1      43.953  51.218   8.125  1.00  0.00     0.105 A 
HETATM    2  C5  UNL     1      44.645  50.064   7.845  1.00  0.00     0.070 A 
HETATM    3  C6  UNL     1      44.883  49.091   8.819  1.00  0.00     0.066 A 
HETATM    4  N1  UNL     1      45.565  47.951   8.563  1.00  0.00    -0.191 N 
ATOM      5  H1  UNL     1      45.923  47.778   7.624  1.00  0.00     0.184 HD
HETATM    6  C7  UNL     1      45.776  47.037   9.536  1.00  0.00     0.682 A 
HETATM    7  N4  UNL     1      45.294  47.291  10.756  1.00  0.00    -0.176 N 
ATOM      8  H4  UNL     1      45.463  46.591  11.478  1.00  0.00     0.186 HD
HETATM    9  C12 UNL     1      44.616  48.373  11.112  1.00  0.00     0.127 A 
HETATM   10  C13 UNL     1      44.409  49.310  10.075  1.00  0.00     0.038 A 
HETATM   11  C14 UNL     1      43.712  50.461  10.377  1.00  0.00     0.058 A 
HETATM   12  C15 UNL     1      43.467  51.427   9.444  1.00  0.00     0.122 A 
ENDROOT
BRANCH   6  13
HETATM   13  N2  UNL     1      46.488  45.851   9.297  1.00  0.00    -0.207 N 
HETATM   14  C8  UNL     1      45.838  44.616   8.943  1.00  0.00     0.161 C 
HETATM   15  C9  UNL     1      46.049  43.571   9.987  1.00  0.00     0.143 C 
HETATM   16  N3  UNL     1      47.155  43.853  10.827  1.00  0.00    -0.358 N 
HETATM   17  C10 UNL     1      48.200  44.719  10.488  1.00  0.00     0.236 C 
ATOM     18  H3  UNL     1      47.192  43.394  11.737  1.00  0.00     0.162 HD
HETATM   19  O3  UNL     1      49.337  44.634  11.051  1.00  0.00    -0.272 OA
HETATM   20  C11 UNL     1      47.946  45.778   9.422  1.00  0.00     0.244 C 
ENDBRANCH   6  13
BRANCH   9  21
HETATM   21  N5  UNL     1      44.187  48.602  12.250  1.00  0.00    -0.384 N 
ATOM     22  H52 UNL     1      43.229  48.354  12.495  1.00  0.00     0.157 HD
ATOM     23  H51 UNL     1      44.720  49.045  12.999  1.00  0.00     0.157 HD
ENDBRANCH   9  21
BRANCH   1  24
HETATM   24  O2  UNL     1      43.677  52.207   7.277  1.00  0.00    -0.346 OA
BRANCH  24  25
HETATM   25  C3  UNL     1      44.222  52.835   6.221  1.00  0.00     0.201 C 
BRANCH  25  26
HETATM   26  C2  UNL     1      43.594  52.417   4.912  1.00  0.00     0.193 C 
BRANCH  26  27
HETATM   27  O1  UNL     1      42.228  52.607   4.930  1.00  0.00    -0.394 OA
HETATM   28  C1  UNL     1      41.725  52.953   3.711  1.00  0.00     0.201 C 
ENDBRANCH  26  27
ENDBRANCH  25  26
ENDBRANCH  24  25
ENDBRANCH   1  24
BRANCH  12  29
HETATM   29  O4  UNL     1      42.772  52.577   9.731  1.00  0.00    -0.245 OA
BRANCH  29  30
HETATM   30  C16 UNL     1      42.541  53.144  10.822  1.00  0.00     0.152 C 
BRANCH  30  31
HETATM   31  O5  UNL     1      42.292  53.753  11.993  1.00  0.00    -0.263 OA
BRANCH  31  32
HETATM   32  C17 UNL     1      41.454  54.845  11.984  1.00  0.00     0.417 C 
BRANCH  32  33
HETATM   33  N6  UNL     1      41.150  55.345  13.290  1.00  0.00    -0.057 N 
ATOM     34  H63 UNL     1      42.000  55.439  13.846  1.00  0.00     0.276 HD
ATOM     35  H62 UNL     1      40.867  56.324  13.244  1.00  0.00     0.276 HD
ATOM     36  H61 UNL     1      40.452  54.790  13.786  1.00  0.00     0.276 HD
ENDBRANCH  32  33
ENDBRANCH  31  32
ENDBRANCH  30  31
ENDBRANCH  29  30
ENDBRANCH  12  29
TORSDOF 11
ENDMDL
MODEL 4
REMARK VINA RESULT: -7.713485463      1.928      2.418
REMARK  11 active torsions:
REMARK  status: ('A' for Active; 'I' for Inactive)
REMARK    1  A    between atoms: O1_2  and  C2_3 
REMARK    2  A    between atoms: C2_3  and  C3_4 
REMARK    3  A    between atoms: C3_4  and  O2_5 
REMARK    4  A    between atoms: O2_5  and  C4_6 
REMARK    5  A    between atoms: C7_11  and  N2_12 
REMARK    6  A    between atoms: C12_22  and  N5_23 
REMARK    7  A    between atoms: C15_28  and  O4_29 
REMARK    8  A    between atoms: O4_29  and  C16_30 
REMARK    9  A    between atoms: C16_30  and  O5_31 
REMARK   10  A    between atoms: O5_31  and  C17_32 
REMARK   11  A    between atoms: C17_32  and  N6_33 
ROOT
HETATM    1  C4  UNL     1      45.048  47.713   9.901  1.00  0.00     0.105 A 
HETATM    2  C5  UNL     1      45.465  48.117   8.655  1.00  0.00     0.070 A 
HETATM    3  C6  UNL     1      45.207  49.402   8.170  1.00  0.00     0.066 A 
HETATM    4  N1  UNL     1      45.607  49.816   6.946  1.00  0.00    -0.191 N 
ATOM      5  H1  UNL     1      46.121  49.177   6.341  1.00  0.00     0.184 HD
HETATM    6  C7  UNL     1      45.332  51.068   6.516  1.00  0.00     0.682 A 
HETATM    7  N4  UNL     1      44.657  51.883   7.331  1.00  0.00    -0.176 N 
ATOM      8  H4  UNL     1      44.459  52.823   6.989  1.00  0.00     0.186 HD
HETATM    9  C12 UNL     1      44.221  51.577   8.545  1.00  0.00     0.127 A 
HETATM   10  C13 UNL     1      44.522  50.264   8.969  1.00  0.00     0.038 A 
HETATM   11  C14 UNL     1      44.095  49.879  10.223  1.00  0.00     0.058 A 
HETATM   12  C15 UNL     1      44.334  48.629  10.719  1.00  0.00     0.122 A 
ENDROOT
BRANCH   6  13
HETATM   13  N2  UNL     1      45.728  51.518   5.246  1.00  0.00    -0.207 N 
HETATM   14  C8  UNL     1      46.895  52.336   5.044  1.00  0.00     0.161 C 
HETATM   15  C9  UNL     1      46.530  53.681   4.509  1.00  0.00     0.143 C 
HETATM   16  N3  UNL     1      45.243  53.703   3.916  1.00  0.00    -0.358 N 
HETATM   17  C10 UNL     1      44.566  52.566   3.462  1.00  0.00     0.236 C 
ATOM     18  H3  UNL     1      44.780  54.606   3.814  1.00  0.00     0.162 HD
HETATM   19  O3  UNL     1      43.642  52.651   2.593  1.00  0.00    -0.272 OA
HETATM   20  C11 UNL     1      44.961  51.210   4.036  1.00  0.00     0.244 C 
ENDBRANCH   6  13
BRANCH   9  21
HETATM   21  N5  UNL     1      43.584  52.338   9.284  1.00  0.00    -0.384 N 
ATOM     22  H52 UNL     1      42.921  51.958   9.960  1.00  0.00     0.157 HD
ATOM     23  H51 UNL     1      43.652  53.356   9.277  1.00  0.00     0.157 HD
ENDBRANCH   9  21
BRANCH   1  24
HETATM   24  O2  UNL     1      45.236  46.517  10.454  1.00  0.00    -0.346 OA
BRANCH  24  25
HETATM   25  C3  UNL     1      45.905  45.374  10.225  1.00  0.00     0.201 C 
BRANCH  25  26
HETATM   26  C2  UNL     1      45.231  44.506   9.189  1.00  0.00     0.193 C 
BRANCH  26  27
HETATM   27  O1  UNL     1      45.870  43.290   9.062  1.00  0.00    -0.394 OA
HETATM   28  C1  UNL     1      47.148  43.311   9.535  1.00  0.00     0.201 C 
ENDBRANCH  26  27
ENDBRANCH  25  26
ENDBRANCH  24  25
ENDBRANCH   1  24
BRANCH  12  29
HETATM   29  O4  UNL     1      43.916  48.234  11.967  1.00  0.00    -0.245 OA
BRANCH  29  30
HETATM   30  C16 UNL     1      44.527  48.181  13.057  1.00  0.00     0.152 C 
BRANCH  30  31
HETATM   31  O5  UNL     1      45.183  48.124  14.228  1.00  0.00    -0.263 OA
BRANCH  31  32
HETATM   32  C17 UNL     1      46.394  47.470  14.255  1.00  0.00     0.417 C 
BRANCH  32  33
HETATM   33  N6  UNL     1      47.019  47.371  12.972  1.00  0.00    -0.057 N 
ATOM     34  H63 UNL     1      46.564  46.656  12.404  1.00  0.00     0.276 HD
ATOM     35  H62 UNL     1      46.813  48.195  12.406  1.00  0.00     0.276 HD
ATOM     36  H61 UNL     1      48.025  47.209  13.019  1.00  0.00     0.276 HD
ENDBRANCH  32  33
ENDBRANCH  31  32
ENDBRANCH  30  31
ENDBRANCH  29  30
ENDBRANCH  12  29
TORSDOF 11
ENDMDL
MODEL 5
REMARK VINA RESULT: -7.605217898      1.568      1.720
REMARK  11 active torsions:
REMARK  status: ('A' for Active; 'I' for Inactive)
REMARK    1  A    between atoms: O1_2  and  C2_3 
REMARK    2  A    between atoms: C2_3  and  C3_4 
REMARK    3  A    between atoms: C3_4  and  O2_5 
REMARK    4  A    between atoms: O2_5  and  C4_6 
REMARK    5  A    between atoms: C7_11  and  N2_12 
REMARK    6  A    between atoms: C12_22  and  N5_23 
REMARK    7  A    between atoms: C15_28  and  O4_29 
REMARK    8  A    between atoms: O4_29  and  C16_30 
REMARK    9  A    between atoms: C16_30  and  O5_31 
REMARK   10  A    between atoms: O5_31  and  C17_32 
REMARK   11  A    between atoms: C17_32  and  N6_33 
ROOT
HETATM    1  C4  UNL     1      45.117  47.752   8.338  1.00  0.00     0.105 A 
HETATM    2  C5  UNL     1      44.907  48.427   7.160  1.00  0.00     0.070 A 
HETATM    3  C6  UNL     1      44.499  49.764   7.137  1.00  0.00     0.066 A 
HETATM    4  N1  UNL     1      44.284  50.444   5.988  1.00  0.00    -0.191 N 
ATOM      5  H1  UNL     1      44.425  49.977   5.092  1.00  0.00     0.184 HD
HETATM    6  C7  UNL     1      43.886  51.735   6.012  1.00  0.00     0.682 A 
HETATM    7  N4  UNL     1      43.711  52.320   7.200  1.00  0.00    -0.176 N 
ATOM      8  H4  UNL     1      43.411  53.295   7.199  1.00  0.00     0.186 HD
HETATM    9  C12 UNL     1      43.893  51.746   8.381  1.00  0.00     0.127 A 
HETATM   10  C13 UNL     1      44.309  50.397   8.326  1.00  0.00     0.038 A 
HETATM   11  C14 UNL     1      44.515  49.738   9.520  1.00  0.00     0.058 A 
HETATM   12  C15 UNL     1      44.913  48.433   9.569  1.00  0.00     0.122 A 
ENDROOT
BRANCH   6  13
HETATM   13  N2  UNL     1      43.648  52.459   4.833  1.00  0.00    -0.207 N 
HETATM   14  C8  UNL     1      42.654  53.497   4.750  1.00  0.00     0.161 C 
HETATM   15  C9  UNL     1      41.575  53.140   3.782  1.00  0.00     0.143 C 
HETATM   16  N3  UNL     1      41.971  52.132   2.868  1.00  0.00    -0.358 N 
HETATM   17  C10 UNL     1      43.302  51.814   2.576  1.00  0.00     0.236 C 
ATOM     18  H3  UNL     1      41.239  51.604   2.392  1.00  0.00     0.162 HD
HETATM   19  O3  UNL     1      43.618  51.227   1.493  1.00  0.00    -0.272 OA
HETATM   20  C11 UNL     1      44.376  52.188   3.591  1.00  0.00     0.244 C 
ENDBRANCH   6  13
BRANCH   9  21
HETATM   21  N5  UNL     1      43.713  52.296   9.475  1.00  0.00    -0.384 N 
ATOM     22  H52 UNL     1      42.957  52.970   9.590  1.00  0.00     0.157 HD
ATOM     23  H51 UNL     1      44.281  52.143  10.309  1.00  0.00     0.157 HD
ENDBRANCH   9  21
BRANCH   1  24
HETATM   24  O2  UNL     1      45.499  46.483   8.472  1.00  0.00    -0.346 OA
BRANCH  24  25
HETATM   25  C3  UNL     1      44.981  45.284   8.785  1.00  0.00     0.201 C 
BRANCH  25  26
HETATM   26  C2  UNL     1      45.944  44.425   9.571  1.00  0.00     0.193 C 
BRANCH  26  27
HETATM   27  O1  UNL     1      47.233  44.906   9.477  1.00  0.00    -0.394 OA
HETATM   28  C1  UNL     1      48.149  43.924   9.241  1.00  0.00     0.201 C 
ENDBRANCH  26  27
ENDBRANCH  25  26
ENDBRANCH  24  25
ENDBRANCH   1  24
BRANCH  12  29
HETATM   29  O4  UNL     1      45.123  47.765  10.751  1.00  0.00    -0.245 OA
BRANCH  29  30
HETATM   30  C16 UNL     1      46.136  47.691  11.482  1.00  0.00     0.152 C 
BRANCH  30  31
HETATM   31  O5  UNL     1      47.223  47.610  12.267  1.00  0.00    -0.263 OA
BRANCH  31  32
HETATM   32  C17 UNL     1      47.326  46.530  13.114  1.00  0.00     0.417 C 
BRANCH  32  33
HETATM   33  N6  UNL     1      47.936  45.386  12.509  1.00  0.00    -0.057 N 
ATOM     34  H63 UNL     1      48.161  45.572  11.531  1.00  0.00     0.276 HD
ATOM     35  H62 UNL     1      48.876  45.242  12.876  1.00  0.00     0.276 HD
ATOM     36  H61 UNL     1      47.381  44.534  12.596  1.00  0.00     0.276 HD
ENDBRANCH  32  33
ENDBRANCH  31  32
ENDBRANCH  30  31
ENDBRANCH  29  30
ENDBRANCH  12  29
TORSDOF 11
ENDMDL
