MODEL 1
REMARK VINA RESULT: -5.055416888      0.000      0.000
REMARK  1 active torsions:
REMARK  status: ('A' for Active; 'I' for Inactive)
REMARK    1  A    between atoms: C6_14  and  N5_15 
ROOT
HETATM    1  C1  UNL     1      38.655  15.730 -14.304  1.00  0.00     0.161 C 
HETATM    2  N1  UNL     1      38.809  17.123 -14.607  1.00  0.00    -0.299 N 
HETATM    3  C2  UNL     1      40.047  17.666 -14.403  1.00  0.00     0.329 A 
HETATM    4  O1  UNL     1      40.950  16.916 -13.944  1.00  0.00    -0.246 OA
HETATM    5  N2  UNL     1      40.253  18.954 -14.694  1.00  0.00    -0.273 N 
ATOM      6  H2  UNL     1      41.180  19.348 -14.538  1.00  0.00     0.173 HD
HETATM    7  C3  UNL     1      39.288  19.749 -15.185  1.00  0.00     0.278 A 
HETATM    8  O2  UNL     1      39.478  20.971 -15.461  1.00  0.00    -0.265 OA
HETATM    9  C4  UNL     1      38.036  19.237 -15.402  1.00  0.00     0.132 A 
HETATM   10  N3  UNL     1      36.895  19.730 -15.873  1.00  0.00    -0.336 N 
ATOM     11  H3  UNL     1      36.770  20.697 -16.175  1.00  0.00     0.167 HD
HETATM   12  C5  UNL     1      35.935  18.809 -15.900  1.00  0.00     0.152 A 
HETATM   13  N4  UNL     1      34.582  18.907 -16.323  1.00  0.00    -0.080 NA
HETATM   14  C6  UNL     1      36.512  17.630 -15.407  1.00  0.00     0.173 A 
HETATM   15  C7  UNL     1      37.811  17.892 -15.100  1.00  0.00     0.107 A 
ENDROOT
BRANCH  14  16
HETATM   16  N5  UNL     1      35.783  16.419 -15.240  1.00  0.00    -0.110 N 
HETATM   17  O3  UNL     1      35.252  16.130 -14.149  1.00  0.00    -0.532 OA
HETATM   18  O4  UNL     1      35.667  15.558 -16.298  1.00  0.00    -0.532 OA
ENDBRANCH  14  16
TORSDOF 1
ENDMDL
MODEL 2
REMARK VINA RESULT: -4.350280251      1.817      4.350
REMARK  1 active torsions:
REMARK  status: ('A' for Active; 'I' for Inactive)
REMARK    1  A    between atoms: C6_14  and  N5_15 
ROOT
HETATM    1  C1  UNL     1      41.427  16.927 -14.202  1.00  0.00     0.161 C 
HETATM    2  N1  UNL     1      40.025  17.079 -14.460  1.00  0.00    -0.299 N 
HETATM    3  C2  UNL     1      39.233  15.987 -14.235  1.00  0.00     0.329 A 
HETATM    4  O1  UNL     1      39.792  14.927 -13.843  1.00  0.00    -0.246 OA
HETATM    5  N2  UNL     1      37.916  16.082 -14.433  1.00  0.00    -0.273 N 
ATOM      6  H2  UNL     1      37.335  15.262 -14.262  1.00  0.00     0.173 HD
HETATM    7  C3  UNL     1      37.325  17.215 -14.849  1.00  0.00     0.278 A 
HETATM    8  O2  UNL     1      36.076  17.309 -15.040  1.00  0.00    -0.265 OA
HETATM    9  C4  UNL     1      38.088  18.328 -15.083  1.00  0.00     0.132 A 
HETATM   10  N3  UNL     1      37.830  19.571 -15.478  1.00  0.00    -0.336 N 
ATOM     11  H3  UNL     1      36.897  19.919 -15.699  1.00  0.00     0.167 HD
HETATM   12  C5  UNL     1      38.937  20.304 -15.550  1.00  0.00     0.152 A 
HETATM   13  N4  UNL     1      39.114  21.664 -15.924  1.00  0.00    -0.080 NA
HETATM   14  C6  UNL     1      39.990  19.460 -15.170  1.00  0.00     0.173 A 
HETATM   15  C7  UNL     1      39.467  18.238 -14.880  1.00  0.00     0.107 A 
ENDROOT
BRANCH  14  16
HETATM   16  N5  UNL     1      41.353  19.872 -15.162  1.00  0.00    -0.110 N 
HETATM   17  O3  UNL     1      42.028  19.888 -16.211  1.00  0.00    -0.532 OA
HETATM   18  O4  UNL     1      41.928  20.254 -13.980  1.00  0.00    -0.532 OA
ENDBRANCH  14  16
TORSDOF 1
ENDMDL
MODEL 3
REMARK VINA RESULT: -4.248597160      1.237      1.635
REMARK  1 active torsions:
REMARK  status: ('A' for Active; 'I' for Inactive)
REMARK    1  A    between atoms: C6_14  and  N5_15 
ROOT
HETATM    1  C1  UNL     1      39.413  15.557 -13.940  1.00  0.00     0.161 C 
HETATM    2  N1  UNL     1      39.869  16.866 -14.310  1.00  0.00    -0.299 N 
HETATM    3  C2  UNL     1      41.210  17.107 -14.197  1.00  0.00     0.329 A 
HETATM    4  O1  UNL     1      41.940  16.178 -13.758  1.00  0.00    -0.246 OA
HETATM    5  N2  UNL     1      41.692  18.301 -14.553  1.00  0.00    -0.273 N 
ATOM      6  H2  UNL     1      42.694  18.470 -14.465  1.00  0.00     0.173 HD
HETATM    7  C3  UNL     1      40.911  19.287 -15.023  1.00  0.00     0.278 A 
HETATM    8  O2  UNL     1      41.363  20.422 -15.360  1.00  0.00    -0.265 OA
HETATM    9  C4  UNL     1      39.563  19.079 -15.149  1.00  0.00     0.132 A 
HETATM   10  N3  UNL     1      38.541  19.814 -15.576  1.00  0.00    -0.336 N 
ATOM     11  H3  UNL     1      38.626  20.774 -15.911  1.00  0.00     0.167 HD
HETATM   12  C5  UNL     1      37.393  19.145 -15.511  1.00  0.00     0.152 A 
HETATM   13  N4  UNL     1      36.075  19.547 -15.862  1.00  0.00    -0.080 NA
HETATM   14  C6  UNL     1      37.708  17.877 -15.002  1.00  0.00     0.173 A 
HETATM   15  C7  UNL     1      39.049  17.834 -14.778  1.00  0.00     0.107 A 
ENDROOT
BRANCH  14  16
HETATM   16  N5  UNL     1      36.728  16.877 -14.744  1.00  0.00    -0.110 N 
HETATM   17  O3  UNL     1      36.369  16.080 -15.635  1.00  0.00    -0.532 OA
HETATM   18  O4  UNL     1      36.173  16.793 -13.496  1.00  0.00    -0.532 OA
ENDBRANCH  14  16
TORSDOF 1
ENDMDL
MODEL 4
REMARK VINA RESULT: -4.158182315      1.614      3.207
REMARK  1 active torsions:
REMARK  status: ('A' for Active; 'I' for Inactive)
REMARK    1  A    between atoms: C6_14  and  N5_15 
ROOT
HETATM    1  C1  UNL     1      37.549  20.620 -15.861  1.00  0.00     0.161 C 
HETATM    2  N1  UNL     1      38.166  19.376 -15.500  1.00  0.00    -0.299 N 
HETATM    3  C2  UNL     1      39.473  19.428 -15.101  1.00  0.00     0.329 A 
HETATM    4  O1  UNL     1      40.044  20.551 -15.101  1.00  0.00    -0.246 OA
HETATM    5  N2  UNL     1      40.088  18.302 -14.729  1.00  0.00    -0.273 N 
ATOM      6  H2  UNL     1      41.062  18.351 -14.433  1.00  0.00     0.173 HD
HETATM    7  C3  UNL     1      39.474  17.107 -14.728  1.00  0.00     0.278 A 
HETATM    8  O2  UNL     1      40.054  16.036 -14.377  1.00  0.00    -0.265 OA
HETATM    9  C4  UNL     1      38.165  17.020 -15.121  1.00  0.00     0.132 A 
HETATM   10  N3  UNL     1      37.286  16.028 -15.224  1.00  0.00    -0.336 N 
ATOM     11  H3  UNL     1      37.491  15.054 -15.000  1.00  0.00     0.167 HD
HETATM   12  C5  UNL     1      36.105  16.461 -15.657  1.00  0.00     0.152 A 
HETATM   13  N4  UNL     1      34.901  15.747 -15.907  1.00  0.00    -0.080 NA
HETATM   14  C6  UNL     1      36.241  17.844 -15.845  1.00  0.00     0.173 A 
HETATM   15  C7  UNL     1      37.514  18.191 -15.513  1.00  0.00     0.107 A 
ENDROOT
BRANCH  14  16
HETATM   16  N5  UNL     1      35.194  18.667 -16.348  1.00  0.00    -0.110 N 
HETATM   17  O3  UNL     1      35.003  18.791 -17.575  1.00  0.00    -0.532 OA
HETATM   18  O4  UNL     1      34.387  19.333 -15.467  1.00  0.00    -0.532 OA
ENDBRANCH  14  16
TORSDOF 1
ENDMDL
MODEL 5
REMARK VINA RESULT: -3.819376745      1.645      4.982
REMARK  1 active torsions:
REMARK  status: ('A' for Active; 'I' for Inactive)
REMARK    1  A    between atoms: C6_14  and  N5_15 
ROOT
HETATM    1  C1  UNL     1      38.529  20.195 -15.806  1.00  0.00     0.161 C 
HETATM    2  N1  UNL     1      37.735  19.066 -15.415  1.00  0.00    -0.299 N 
HETATM    3  C2  UNL     1      36.393  19.137 -15.669  1.00  0.00     0.329 A 
HETATM    4  O1  UNL     1      35.951  20.189 -16.202  1.00  0.00    -0.246 OA
HETATM    5  N2  UNL     1      35.612  18.102 -15.349  1.00  0.00    -0.273 N 
ATOM      6  H2  UNL     1      34.613  18.165 -15.543  1.00  0.00     0.173 HD
HETATM    7  C3  UNL     1      36.089  16.981 -14.782  1.00  0.00     0.278 A 
HETATM    8  O2  UNL     1      35.351  15.997 -14.476  1.00  0.00    -0.265 OA
HETATM    9  C4  UNL     1      37.428  16.877 -14.515  1.00  0.00     0.132 A 
HETATM   10  N3  UNL     1      38.204  15.935 -13.988  1.00  0.00    -0.336 N 
ATOM     11  H3  UNL     1      37.864  15.032 -13.656  1.00  0.00     0.167 HD
HETATM   12  C5  UNL     1      39.479  16.314 -13.946  1.00  0.00     0.152 A 
HETATM   13  N4  UNL     1      40.626  15.624 -13.467  1.00  0.00    -0.080 NA
HETATM   14  C6  UNL     1      39.520  17.605 -14.492  1.00  0.00     0.173 A 
HETATM   15  C7  UNL     1      38.253  17.954 -14.845  1.00  0.00     0.107 A 
ENDROOT
BRANCH  14  16
HETATM   16  N5  UNL     1      40.715  18.374 -14.581  1.00  0.00    -0.110 N 
HETATM   17  O3  UNL     1      41.065  19.132 -13.654  1.00  0.00    -0.532 OA
HETATM   18  O4  UNL     1      41.489  18.276 -15.705  1.00  0.00    -0.532 OA
ENDBRANCH  14  16
TORSDOF 1
ENDMDL
