MODEL 1
REMARK VINA RESULT: -6.368406349      0.000      0.000
REMARK  5 active torsions:
REMARK  status: ('A' for Active; 'I' for Inactive)
REMARK    1  A    between atoms: C2_2  and  N1_3 
REMARK    2  A    between atoms: C2_2  and  C3_7 
REMARK    3  A    between atoms: C3_7  and  N4_13 
REMARK    4  A    between atoms: N2_8  and  N3_10 
REMARK    5  A    between atoms: N4_13  and  C4_15 
ROOT
HETATM    1  N4  UNL     1      37.070  16.808 -14.563  1.00  0.00    -0.177 N 
ATOM      2  H4  UNL     1      36.917  16.317 -13.683  1.00  0.00     0.185 HD
ENDROOT
BRANCH   1   3
HETATM    3  C3  UNL     1      38.385  17.151 -14.933  1.00  0.00     0.141 C 
HETATM    4  N2  UNL     1      38.567  18.230 -15.598  1.00  0.00    -0.293 N 
ATOM      5  H2  UNL     1      37.776  18.824 -15.845  1.00  0.00     0.187 HD
BRANCH   3   6
HETATM    6  C2  UNL     1      39.553  16.310 -14.590  1.00  0.00     0.248 C 
HETATM    7  C1  UNL     1      40.116  16.618 -13.214  1.00  0.00     0.048 C 
BRANCH   6   8
HETATM    8  N1  UNL     1      39.256  14.899 -14.630  1.00  0.00    -0.069 N 
ATOM      9  H13 UNL     1      39.814  14.395 -15.318  1.00  0.00     0.275 HD
ATOM     10  H12 UNL     1      39.581  14.400 -13.802  1.00  0.00     0.275 HD
ATOM     11  H11 UNL     1      38.252  14.803 -14.784  1.00  0.00     0.275 HD
ENDBRANCH   6   8
ENDBRANCH   3   6
BRANCH   4  12
HETATM   12  N3  UNL     1      39.859  18.580 -15.980  1.00  0.00    -0.344 N 
ATOM     13  H32 UNL     1      40.546  17.848 -16.159  1.00  0.00     0.176 HD
ATOM     14  H31 UNL     1      40.099  19.568 -16.073  1.00  0.00     0.176 HD
ENDBRANCH   4  12
ENDBRANCH   1   3
BRANCH   1  15
HETATM   15  C4  UNL     1      36.060  17.094 -15.296  1.00  0.00     0.691 A 
HETATM   16  N5  UNL     1      35.372  18.233 -15.149  1.00  0.00    -0.141 N 
HETATM   17  C5  UNL     1      34.308  18.545 -15.916  1.00  0.00     0.342 A 
ATOM     18  H5  UNL     1      35.665  18.892 -14.428  1.00  0.00     0.189 HD
HETATM   19  O1  UNL     1      33.719  19.633 -15.713  1.00  0.00    -0.246 OA
HETATM   20  N6  UNL     1      33.924  17.688 -16.855  1.00  0.00    -0.260 N 
HETATM   21  C6  UNL     1      34.592  16.523 -17.038  1.00  0.00     0.342 A 
ATOM     22  H6  UNL     1      33.120  17.907 -17.442  1.00  0.00     0.175 HD
HETATM   23  O2  UNL     1      34.197  15.733 -17.943  1.00  0.00    -0.246 OA
HETATM   24  N7  UNL     1      35.649  16.227 -16.267  1.00  0.00    -0.141 N 
ATOM     25  H7  UNL     1      36.149  15.349 -16.407  1.00  0.00     0.189 HD
ENDBRANCH   1  15
TORSDOF 5
ENDMDL
MODEL 2
REMARK VINA RESULT: -6.361471508      0.032      2.039
REMARK  5 active torsions:
REMARK  status: ('A' for Active; 'I' for Inactive)
REMARK    1  A    between atoms: C2_2  and  N1_3 
REMARK    2  A    between atoms: C2_2  and  C3_7 
REMARK    3  A    between atoms: C3_7  and  N4_13 
REMARK    4  A    between atoms: N2_8  and  N3_10 
REMARK    5  A    between atoms: N4_13  and  C4_15 
ROOT
HETATM    1  N4  UNL     1      37.054  16.791 -14.569  1.00  0.00    -0.177 N 
ATOM      2  H4  UNL     1      36.900  16.291 -13.695  1.00  0.00     0.185 HD
ENDROOT
BRANCH   1   3
HETATM    3  C3  UNL     1      38.369  17.146 -14.929  1.00  0.00     0.141 C 
HETATM    4  N2  UNL     1      38.547  18.225 -15.595  1.00  0.00    -0.293 N 
ATOM      5  H2  UNL     1      37.752  18.812 -15.850  1.00  0.00     0.187 HD
BRANCH   3   6
HETATM    6  C2  UNL     1      39.542  16.317 -14.575  1.00  0.00     0.248 C 
HETATM    7  C1  UNL     1      40.088  16.630 -13.193  1.00  0.00     0.048 C 
BRANCH   6   8
HETATM    8  N1  UNL     1      39.259  14.903 -14.619  1.00  0.00    -0.069 N 
ATOM      9  H13 UNL     1      38.352  14.692 -15.034  1.00  0.00     0.275 HD
ATOM     10  H12 UNL     1      39.836  14.403 -15.295  1.00  0.00     0.275 HD
ATOM     11  H11 UNL     1      39.356  14.542 -13.670  1.00  0.00     0.275 HD
ENDBRANCH   6   8
ENDBRANCH   3   6
BRANCH   4  12
HETATM   12  N3  UNL     1      39.839  18.587 -15.966  1.00  0.00    -0.344 N 
ATOM     13  H32 UNL     1      40.635  18.122 -15.531  1.00  0.00     0.176 HD
ATOM     14  H31 UNL     1      39.968  19.316 -16.669  1.00  0.00     0.176 HD
ENDBRANCH   4  12
ENDBRANCH   1   3
BRANCH   1  15
HETATM   15  C4  UNL     1      36.047  17.077 -15.305  1.00  0.00     0.691 A 
HETATM   16  N5  UNL     1      35.621  16.263 -16.278  1.00  0.00    -0.141 N 
HETATM   17  C5  UNL     1      34.560  16.553 -17.059  1.00  0.00     0.342 A 
ATOM     18  H5  UNL     1      36.118  15.386 -16.436  1.00  0.00     0.189 HD
HETATM   19  O1  UNL     1      34.227  15.735 -17.949  1.00  0.00    -0.246 OA
HETATM   20  N6  UNL     1      33.912  17.694 -16.857  1.00  0.00    -0.260 N 
HETATM   21  C6  UNL     1      34.308  18.548 -15.883  1.00  0.00     0.342 A 
ATOM     22  H6  UNL     1      33.109  17.930 -17.440  1.00  0.00     0.175 HD
HETATM   23  O2  UNL     1      33.665  19.624 -15.720  1.00  0.00    -0.246 OA
HETATM   24  N7  UNL     1      35.365  18.245 -15.114  1.00  0.00    -0.141 N 
ATOM     25  H7  UNL     1      35.661  18.890 -14.382  1.00  0.00     0.189 HD
ENDBRANCH   1  15
TORSDOF 5
ENDMDL
MODEL 3
REMARK VINA RESULT: -6.264774624      2.564      5.209
REMARK  5 active torsions:
REMARK  status: ('A' for Active; 'I' for Inactive)
REMARK    1  A    between atoms: C2_2  and  N1_3 
REMARK    2  A    between atoms: C2_2  and  C3_7 
REMARK    3  A    between atoms: C3_7  and  N4_13 
REMARK    4  A    between atoms: N2_8  and  N3_10 
REMARK    5  A    between atoms: N4_13  and  C4_15 
ROOT
HETATM    1  N4  UNL     1      36.245  18.323 -16.721  1.00  0.00    -0.177 N 
ATOM      2  H4  UNL     1      36.728  19.127 -17.122  1.00  0.00     0.185 HD
ENDROOT
BRANCH   1   3
HETATM    3  C3  UNL     1      34.993  17.949 -17.248  1.00  0.00     0.141 C 
HETATM    4  N2  UNL     1      34.895  16.814 -17.832  1.00  0.00    -0.293 N 
ATOM      5  H2  UNL     1      35.705  16.199 -17.905  1.00  0.00     0.187 HD
BRANCH   3   6
HETATM    6  C2  UNL     1      33.799  18.819 -17.158  1.00  0.00     0.248 C 
HETATM    7  C1  UNL     1      33.696  19.539 -15.826  1.00  0.00     0.048 C 
BRANCH   6   8
HETATM    8  N1  UNL     1      33.760  19.820 -18.196  1.00  0.00    -0.069 N 
ATOM      9  H13 UNL     1      33.541  20.750 -17.842  1.00  0.00     0.275 HD
ATOM     10  H12 UNL     1      34.681  20.035 -18.577  1.00  0.00     0.275 HD
ATOM     11  H11 UNL     1      33.101  19.499 -18.906  1.00  0.00     0.275 HD
ENDBRANCH   6   8
ENDBRANCH   3   6
BRANCH   4  12
HETATM   12  N3  UNL     1      33.667  16.430 -18.365  1.00  0.00    -0.344 N 
ATOM     13  H32 UNL     1      33.331  16.874 -19.220  1.00  0.00     0.176 HD
ATOM     14  H31 UNL     1      33.123  15.709 -17.890  1.00  0.00     0.176 HD
ENDBRANCH   4  12
ENDBRANCH   1   3
BRANCH   1  15
HETATM   15  C4  UNL     1      36.795  17.687 -15.757  1.00  0.00     0.691 A 
HETATM   16  N5  UNL     1      36.112  17.311 -14.669  1.00  0.00    -0.141 N 
HETATM   17  C5  UNL     1      36.681  16.640 -13.648  1.00  0.00     0.342 A 
ATOM     18  H5  UNL     1      35.120  17.541 -14.610  1.00  0.00     0.189 HD
HETATM   19  O1  UNL     1      35.970  16.324 -12.664  1.00  0.00    -0.246 OA
HETATM   20  N6  UNL     1      37.973  16.340 -13.721  1.00  0.00    -0.260 N 
HETATM   21  C6  UNL     1      38.702  16.701 -14.804  1.00  0.00     0.342 A 
ATOM     22  H6  UNL     1      38.419  15.835 -12.956  1.00  0.00     0.175 HD
HETATM   23  O2  UNL     1      39.929  16.397 -14.838  1.00  0.00    -0.246 OA
HETATM   24  N7  UNL     1      38.122  17.368 -15.813  1.00  0.00    -0.141 N 
ATOM     25  H7  UNL     1      38.674  17.639 -16.626  1.00  0.00     0.189 HD
ENDBRANCH   1  15
TORSDOF 5
ENDMDL
MODEL 4
REMARK VINA RESULT: -6.258067553      2.561      5.334
REMARK  5 active torsions:
REMARK  status: ('A' for Active; 'I' for Inactive)
REMARK    1  A    between atoms: C2_2  and  N1_3 
REMARK    2  A    between atoms: C2_2  and  C3_7 
REMARK    3  A    between atoms: C3_7  and  N4_13 
REMARK    4  A    between atoms: N2_8  and  N3_10 
REMARK    5  A    between atoms: N4_13  and  C4_15 
ROOT
HETATM    1  N4  UNL     1      36.231  18.342 -16.684  1.00  0.00    -0.177 N 
ATOM      2  H4  UNL     1      36.709  19.159 -17.062  1.00  0.00     0.185 HD
ENDROOT
BRANCH   1   3
HETATM    3  C3  UNL     1      34.989  17.964 -17.234  1.00  0.00     0.141 C 
HETATM    4  N2  UNL     1      34.900  16.821 -17.802  1.00  0.00    -0.293 N 
ATOM      5  H2  UNL     1      35.710  16.202 -17.848  1.00  0.00     0.187 HD
BRANCH   3   6
HETATM    6  C2  UNL     1      33.797  18.839 -17.184  1.00  0.00     0.248 C 
HETATM    7  C1  UNL     1      33.651  19.559 -15.855  1.00  0.00     0.048 C 
BRANCH   6   8
HETATM    8  N1  UNL     1      33.798  19.841 -18.222  1.00  0.00    -0.069 N 
ATOM      9  H13 UNL     1      33.950  20.784 -17.864  1.00  0.00     0.275 HD
ATOM     10  H12 UNL     1      34.621  19.791 -18.822  1.00  0.00     0.275 HD
ATOM     11  H11 UNL     1      32.923  19.748 -18.737  1.00  0.00     0.275 HD
ENDBRANCH   6   8
ENDBRANCH   3   6
BRANCH   4  12
HETATM   12  N3  UNL     1      33.684  16.433 -18.358  1.00  0.00    -0.344 N 
ATOM     13  H32 UNL     1      32.844  16.439 -17.780  1.00  0.00     0.176 HD
ATOM     14  H31 UNL     1      33.653  16.149 -19.338  1.00  0.00     0.176 HD
ENDBRANCH   4  12
ENDBRANCH   1   3
BRANCH   1  15
HETATM   15  C4  UNL     1      36.777  17.693 -15.726  1.00  0.00     0.691 A 
HETATM   16  N5  UNL     1      38.066  17.334 -15.751  1.00  0.00    -0.141 N 
HETATM   17  C5  UNL     1      38.652  16.651 -14.747  1.00  0.00     0.342 A 
ATOM     18  H5  UNL     1      38.629  17.588 -16.564  1.00  0.00     0.189 HD
HETATM   19  O1  UNL     1      39.866  16.353 -14.850  1.00  0.00    -0.246 OA
HETATM   20  N6  UNL     1      37.921  16.319 -13.689  1.00  0.00    -0.260 N 
HETATM   21  C6  UNL     1      36.613  16.662 -13.621  1.00  0.00     0.342 A 
ATOM     22  H6  UNL     1      38.349  15.800 -12.922  1.00  0.00     0.175 HD
HETATM   23  O2  UNL     1      35.951  16.329 -12.598  1.00  0.00    -0.246 OA
HETATM   24  N7  UNL     1      36.044  17.342 -14.629  1.00  0.00    -0.141 N 
ATOM     25  H7  UNL     1      35.058  17.598 -14.574  1.00  0.00     0.189 HD
ENDBRANCH   1  15
TORSDOF 5
ENDMDL
MODEL 5
REMARK VINA RESULT: -6.188026052      2.497      5.087
REMARK  5 active torsions:
REMARK  status: ('A' for Active; 'I' for Inactive)
REMARK    1  A    between atoms: C2_2  and  N1_3 
REMARK    2  A    between atoms: C2_2  and  C3_7 
REMARK    3  A    between atoms: C3_7  and  N4_13 
REMARK    4  A    between atoms: N2_8  and  N3_10 
REMARK    5  A    between atoms: N4_13  and  C4_15 
ROOT
HETATM    1  N4  UNL     1      35.382  17.440 -15.195  1.00  0.00    -0.177 N 
ATOM      2  H4  UNL     1      34.833  17.432 -14.336  1.00  0.00     0.185 HD
ENDROOT
BRANCH   1   3
HETATM    3  C3  UNL     1      34.712  17.407 -16.434  1.00  0.00     0.141 C 
HETATM    4  N2  UNL     1      34.600  16.282 -17.034  1.00  0.00    -0.293 N 
ATOM      5  H2  UNL     1      34.984  15.434 -16.618  1.00  0.00     0.187 HD
BRANCH   3   6
HETATM    6  C2  UNL     1      34.144  18.620 -17.064  1.00  0.00     0.248 C 
HETATM    7  C1  UNL     1      33.698  19.656 -16.048  1.00  0.00     0.048 C 
BRANCH   6   8
HETATM    8  N1  UNL     1      35.069  19.266 -17.963  1.00  0.00    -0.069 N 
ATOM      9  H13 UNL     1      34.780  19.208 -18.939  1.00  0.00     0.275 HD
ATOM     10  H12 UNL     1      35.060  20.282 -17.880  1.00  0.00     0.275 HD
ATOM     11  H11 UNL     1      35.991  18.861 -17.796  1.00  0.00     0.275 HD
ENDBRANCH   6   8
ENDBRANCH   3   6
BRANCH   4  12
HETATM   12  N3  UNL     1      33.947  16.232 -18.263  1.00  0.00    -0.344 N 
ATOM     13  H32 UNL     1      34.482  16.368 -19.121  1.00  0.00     0.176 HD
ATOM     14  H31 UNL     1      32.942  16.060 -18.285  1.00  0.00     0.176 HD
ENDBRANCH   4  12
ENDBRANCH   1   3
BRANCH   1  15
HETATM   15  C4  UNL     1      36.659  17.479 -15.113  1.00  0.00     0.691 A 
HETATM   16  N5  UNL     1      37.350  18.611 -15.293  1.00  0.00    -0.141 N 
HETATM   17  C5  UNL     1      38.695  18.664 -15.209  1.00  0.00     0.342 A 
ATOM     18  H5  UNL     1      36.839  19.468 -15.503  1.00  0.00     0.189 HD
HETATM   19  O1  UNL     1      39.266  19.766 -15.392  1.00  0.00    -0.246 OA
HETATM   20  N6  UNL     1      39.362  17.549 -14.937  1.00  0.00    -0.260 N 
HETATM   21  C6  UNL     1      38.703  16.381 -14.747  1.00  0.00     0.342 A 
ATOM     22  H6  UNL     1      40.380  17.571 -14.872  1.00  0.00     0.175 HD
HETATM   23  O2  UNL     1      39.373  15.341 -14.489  1.00  0.00    -0.246 OA
HETATM   24  N7  UNL     1      37.364  16.344 -14.834  1.00  0.00    -0.141 N 
ATOM     25  H7  UNL     1      36.871  15.463 -14.691  1.00  0.00     0.189 HD
ENDBRANCH   1  15
TORSDOF 5
ENDMDL
