MODEL 1
REMARK VINA RESULT: -6.759004644      0.000      0.000
REMARK  3 active torsions:
REMARK  status: ('A' for Active; 'I' for Inactive)
REMARK    1  A    between atoms: C7_15  and  C8_16 
REMARK    2  A    between atoms: C8_16  and  O3_17 
REMARK    3  A    between atoms: C9_19  and  C10_20 
ROOT
HETATM    1  C1  UNL     1      38.647  19.171 -15.409  1.00  0.00     0.027 C 
HETATM    2  C2  UNL     1      37.840  18.136 -15.269  1.00  0.00    -0.003 A 
HETATM    3  C3  UNL     1      38.224  16.902 -14.822  1.00  0.00     0.076 A 
HETATM    4  C4  UNL     1      39.283  16.442 -14.160  1.00  0.00     0.133 A 
HETATM    5  N1  UNL     1      39.427  15.044 -13.835  1.00  0.00    -0.302 N 
ATOM      6  H1  UNL     1      38.777  14.321 -14.145  1.00  0.00     0.171 HD
HETATM    7  C5  UNL     1      40.559  14.788 -13.042  1.00  0.00     0.327 A 
HETATM    8  O1  UNL     1      40.965  13.682 -12.591  1.00  0.00    -0.247 OA
HETATM    9  N2  UNL     1      41.191  16.026 -12.827  1.00  0.00    -0.274 N 
ATOM     10  H2  UNL     1      42.044  16.179 -12.289  1.00  0.00     0.173 HD
HETATM   11  C6  UNL     1      40.410  17.051 -13.512  1.00  0.00     0.278 A 
HETATM   12  O2  UNL     1      40.789  18.229 -13.445  1.00  0.00    -0.265 OA
HETATM   13  N3  UNL     1      37.103  16.135 -15.018  1.00  0.00    -0.351 N 
ATOM     14  H3  UNL     1      37.056  15.143 -14.787  1.00  0.00     0.166 HD
HETATM   15  C7  UNL     1      36.095  16.805 -15.533  1.00  0.00     0.066 A 
HETATM   16  C9  UNL     1      36.502  18.104 -15.718  1.00  0.00     0.018 A 
ENDROOT
BRANCH  16  17
HETATM   17  C10 UNL     1      35.797  19.082 -16.189  1.00  0.00     0.114 C 
HETATM   18  N4  UNL     1      35.055  19.131 -17.376  1.00  0.00    -0.114 NA
ENDBRANCH  16  17
BRANCH  15  19
HETATM   19  C8  UNL     1      34.930  16.286 -15.800  1.00  0.00     0.161 C 
BRANCH  19  20
HETATM   20  O3  UNL     1      34.382  16.011 -17.020  1.00  0.00    -0.370 OA
ATOM     21  H3  UNL     1      33.667  15.422 -17.227  1.00  0.00     0.216 HD
ENDBRANCH  19  20
ENDBRANCH  15  19
TORSDOF 3
ENDMDL
MODEL 2
REMARK VINA RESULT: -6.505244532      2.608      3.836
REMARK  3 active torsions:
REMARK  status: ('A' for Active; 'I' for Inactive)
REMARK    1  A    between atoms: C7_15  and  C8_16 
REMARK    2  A    between atoms: C8_16  and  O3_17 
REMARK    3  A    between atoms: C9_19  and  C10_20 
ROOT
HETATM    1  C1  UNL     1      36.623  16.215 -15.233  1.00  0.00     0.027 C 
HETATM    2  C2  UNL     1      36.326  17.357 -15.823  1.00  0.00    -0.003 A 
HETATM    3  C3  UNL     1      37.072  18.500 -15.731  1.00  0.00     0.076 A 
HETATM    4  C4  UNL     1      38.322  18.766 -15.360  1.00  0.00     0.133 A 
HETATM    5  N1  UNL     1      38.840  20.111 -15.346  1.00  0.00    -0.302 N 
ATOM      6  H1  UNL     1      38.275  20.937 -15.545  1.00  0.00     0.171 HD
HETATM    7  C5  UNL     1      40.208  20.160 -15.029  1.00  0.00     0.327 A 
HETATM    8  O1  UNL     1      40.955  21.173 -14.935  1.00  0.00    -0.247 OA
HETATM    9  N2  UNL     1      40.624  18.832 -14.825  1.00  0.00    -0.274 N 
ATOM     10  H2  UNL     1      41.566  18.529 -14.579  1.00  0.00     0.173 HD
HETATM   11  C6  UNL     1      39.468  17.966 -15.028  1.00  0.00     0.278 A 
HETATM   12  O2  UNL     1      39.614  16.742 -14.905  1.00  0.00    -0.265 OA
HETATM   13  N3  UNL     1      36.284  19.438 -16.348  1.00  0.00    -0.351 N 
ATOM     14  H3  UNL     1      36.553  20.417 -16.447  1.00  0.00     0.166 HD
HETATM   15  C7  UNL     1      35.148  18.952 -16.800  1.00  0.00     0.066 A 
HETATM   16  C9  UNL     1      35.112  17.613 -16.496  1.00  0.00     0.018 A 
ENDROOT
BRANCH  16  17
HETATM   17  C10 UNL     1      34.170  16.774 -16.784  1.00  0.00     0.114 C 
HETATM   18  N4  UNL     1      34.128  15.828 -17.817  1.00  0.00    -0.114 NA
ENDBRANCH  16  17
BRANCH  15  19
HETATM   19  C8  UNL     1      34.247  19.655 -17.424  1.00  0.00     0.161 C 
BRANCH  19  20
HETATM   20  O3  UNL     1      33.068  20.148 -16.941  1.00  0.00    -0.370 OA
ATOM     21  H3  UNL     1      32.207  20.116 -17.340  1.00  0.00     0.216 HD
ENDBRANCH  19  20
ENDBRANCH  15  19
TORSDOF 3
ENDMDL
MODEL 3
REMARK VINA RESULT: -6.491008027      2.564      6.197
REMARK  3 active torsions:
REMARK  status: ('A' for Active; 'I' for Inactive)
REMARK    1  A    between atoms: C7_15  and  C8_16 
REMARK    2  A    between atoms: C8_16  and  O3_17 
REMARK    3  A    between atoms: C9_19  and  C10_20 
ROOT
HETATM    1  C1  UNL     1      38.332  16.425 -14.357  1.00  0.00     0.027 C 
HETATM    2  C2  UNL     1      38.572  17.691 -14.640  1.00  0.00    -0.003 A 
HETATM    3  C3  UNL     1      37.760  18.490 -15.395  1.00  0.00     0.076 A 
HETATM    4  C4  UNL     1      36.489  18.418 -15.787  1.00  0.00     0.133 A 
HETATM    5  N1  UNL     1      35.894  19.431 -16.622  1.00  0.00    -0.302 N 
ATOM      6  H1  UNL     1      36.413  20.214 -17.020  1.00  0.00     0.171 HD
HETATM    7  C5  UNL     1      34.519  19.221 -16.828  1.00  0.00     0.327 A 
HETATM    8  O1  UNL     1      33.713  19.919 -17.504  1.00  0.00    -0.247 OA
HETATM    9  N2  UNL     1      34.178  18.053 -16.125  1.00  0.00    -0.274 N 
ATOM     10  H2  UNL     1      33.251  17.631 -16.075  1.00  0.00     0.173 HD
HETATM   11  C6  UNL     1      35.387  17.552 -15.478  1.00  0.00     0.278 A 
HETATM   12  O2  UNL     1      35.309  16.523 -14.792  1.00  0.00    -0.265 OA
HETATM   13  N3  UNL     1      38.502  19.633 -15.553  1.00  0.00    -0.351 N 
ATOM     14  H3  UNL     1      38.178  20.442 -16.082  1.00  0.00     0.166 HD
HETATM   15  C7  UNL     1      39.672  19.582 -14.954  1.00  0.00     0.066 A 
HETATM   16  C9  UNL     1      39.781  18.357 -14.343  1.00  0.00     0.018 A 
ENDROOT
BRANCH  16  17
HETATM   17  C10 UNL     1      40.776  17.923 -13.638  1.00  0.00     0.114 C 
HETATM   18  N4  UNL     1      42.066  17.583 -14.065  1.00  0.00    -0.114 NA
ENDBRANCH  16  17
BRANCH  15  19
HETATM   19  C8  UNL     1      40.542  20.552 -14.962  1.00  0.00     0.161 C 
BRANCH  19  20
HETATM   20  O3  UNL     1      41.813  20.548 -15.462  1.00  0.00    -0.370 OA
ATOM     21  H3  UNL     1      42.262  21.236 -15.939  1.00  0.00     0.216 HD
ENDBRANCH  19  20
ENDBRANCH  15  19
TORSDOF 3
ENDMDL
MODEL 4
REMARK VINA RESULT: -6.377123594      2.515      6.059
REMARK  3 active torsions:
REMARK  status: ('A' for Active; 'I' for Inactive)
REMARK    1  A    between atoms: C7_15  and  C8_16 
REMARK    2  A    between atoms: C8_16  and  O3_17 
REMARK    3  A    between atoms: C9_19  and  C10_20 
ROOT
HETATM    1  C1  UNL     1      36.651  16.473 -13.606  1.00  0.00     0.027 C 
HETATM    2  C2  UNL     1      37.370  16.952 -14.604  1.00  0.00    -0.003 A 
HETATM    3  C3  UNL     1      36.860  17.617 -15.684  1.00  0.00     0.076 A 
HETATM    4  C4  UNL     1      35.703  18.223 -15.941  1.00  0.00     0.133 A 
HETATM    5  N1  UNL     1      35.435  18.840 -17.216  1.00  0.00    -0.302 N 
ATOM      6  H1  UNL     1      36.071  18.792 -18.013  1.00  0.00     0.171 HD
HETATM    7  C5  UNL     1      34.203  19.515 -17.241  1.00  0.00     0.327 A 
HETATM    8  O1  UNL     1      33.678  20.153 -18.196  1.00  0.00    -0.247 OA
HETATM    9  N2  UNL     1      33.627  19.355 -15.969  1.00  0.00    -0.274 N 
ATOM     10  H2  UNL     1      32.728  19.728 -15.665  1.00  0.00     0.173 HD
HETATM   11  C6  UNL     1      34.546  18.561 -15.160  1.00  0.00     0.278 A 
HETATM   12  O2  UNL     1      34.235  18.305 -13.988  1.00  0.00    -0.265 OA
HETATM   13  N3  UNL     1      37.946  17.751 -16.511  1.00  0.00    -0.351 N 
ATOM     14  H3  UNL     1      37.904  18.209 -17.422  1.00  0.00     0.166 HD
HETATM   15  C7  UNL     1      39.048  17.232 -16.014  1.00  0.00     0.066 A 
HETATM   16  C9  UNL     1      38.747  16.701 -14.784  1.00  0.00     0.018 A 
ENDROOT
BRANCH  16  17
HETATM   17  C10 UNL     1      39.562  16.114 -13.968  1.00  0.00     0.114 C 
HETATM   18  N4  UNL     1      39.915  14.759 -13.911  1.00  0.00    -0.114 NA
ENDBRANCH  16  17
BRANCH  15  19
HETATM   19  C8  UNL     1      40.202  17.246 -16.619  1.00  0.00     0.161 C 
BRANCH  19  20
HETATM   20  O3  UNL     1      40.515  17.769 -17.841  1.00  0.00    -0.370 OA
ATOM     21  H3  UNL     1      39.954  17.873 -18.600  1.00  0.00     0.216 HD
ENDBRANCH  19  20
ENDBRANCH  15  19
TORSDOF 3
ENDMDL
MODEL 5
REMARK VINA RESULT: -6.335047094      2.398      6.107
REMARK  3 active torsions:
REMARK  status: ('A' for Active; 'I' for Inactive)
REMARK    1  A    between atoms: C7_15  and  C8_16 
REMARK    2  A    between atoms: C8_16  and  O3_17 
REMARK    3  A    between atoms: C9_19  and  C10_20 
ROOT
HETATM    1  C1  UNL     1      38.476  15.767 -16.168  1.00  0.00     0.027 C 
HETATM    2  C2  UNL     1      38.640  16.999 -15.725  1.00  0.00    -0.003 A 
HETATM    3  C3  UNL     1      37.712  17.998 -15.838  1.00  0.00     0.076 A 
HETATM    4  C4  UNL     1      36.405  18.029 -16.087  1.00  0.00     0.133 A 
HETATM    5  N1  UNL     1      35.676  19.270 -16.166  1.00  0.00    -0.302 N 
ATOM      6  H1  UNL     1      36.115  20.189 -16.111  1.00  0.00     0.171 HD
HETATM    7  C5  UNL     1      34.294  19.075 -16.328  1.00  0.00     0.327 A 
HETATM    8  O1  UNL     1      33.386  19.946 -16.431  1.00  0.00    -0.247 OA
HETATM    9  N2  UNL     1      34.082  17.685 -16.359  1.00  0.00    -0.274 N 
ATOM     10  H2  UNL     1      33.182  17.217 -16.467  1.00  0.00     0.173 HD
HETATM   11  C6  UNL     1      35.378  17.032 -16.209  1.00  0.00     0.278 A 
HETATM   12  O2  UNL     1      35.421  15.794 -16.201  1.00  0.00    -0.265 OA
HETATM   13  N3  UNL     1      38.393  19.107 -15.404  1.00  0.00    -0.351 N 
ATOM     14  H3  UNL     1      37.979  20.039 -15.367  1.00  0.00     0.166 HD
HETATM   15  C7  UNL     1      39.632  18.852 -15.042  1.00  0.00     0.066 A 
HETATM   16  C9  UNL     1      39.856  17.509 -15.221  1.00  0.00     0.018 A 
ENDROOT
BRANCH  16  17
HETATM   17  C10 UNL     1      40.945  16.859 -14.966  1.00  0.00     0.114 C 
HETATM   18  N4  UNL     1      41.278  16.128 -13.818  1.00  0.00    -0.114 NA
ENDBRANCH  16  17
BRANCH  15  19
HETATM   19  C8  UNL     1      40.463  19.748 -14.593  1.00  0.00     0.161 C 
BRANCH  19  20
HETATM   20  O3  UNL     1      40.528  21.078 -14.900  1.00  0.00    -0.370 OA
ATOM     21  H3  UNL     1      40.339  21.823 -14.342  1.00  0.00     0.216 HD
ENDBRANCH  19  20
ENDBRANCH  15  19
TORSDOF 3
ENDMDL
