MODEL 1
REMARK VINA RESULT: -6.777553004      0.000      0.000
REMARK  6 active torsions:
REMARK  status: ('A' for Active; 'I' for Inactive)
REMARK    1  A    between atoms: O1_2  and  C2_3 
REMARK    2  A    between atoms: C2_3  and  C3_6 
REMARK    3  A    between atoms: C3_6  and  O2_7 
REMARK    4  A    between atoms: O2_7  and  C4_8 
REMARK    5  A    between atoms: C6_10  and  N1_11 
REMARK    6  A    between atoms: N1_11  and  C7_13 
ROOT
HETATM    1  C4  UNL     1      24.559  -4.587   9.137  1.00  0.00     0.160 A 
HETATM    2  C5  UNL     1      25.272  -5.162   8.100  1.00  0.00     0.106 A 
HETATM    3  C6  UNL     1      26.446  -4.462   7.868  1.00  0.00     0.120 A 
HETATM    4  N2  UNL     1      26.429  -3.477   8.762  1.00  0.00    -0.284 N 
ATOM      5  H2  UNL     1      27.164  -2.775   8.852  1.00  0.00     0.188 HD
HETATM    6  N3  UNL     1      25.357  -3.517   9.510  1.00  0.00    -0.278 N 
ATOM      7  H3  UNL     1      25.140  -2.857  10.257  1.00  0.00     0.189 HD
ENDROOT
BRANCH   3   8
HETATM    8  N1  UNL     1      27.291  -4.780   6.966  1.00  0.00    -0.370 N 
ATOM      9  H1  UNL     1      27.583  -5.756   6.928  1.00  0.00     0.161 HD
BRANCH   8  10
HETATM   10  C7  UNL     1      27.862  -3.897   6.008  1.00  0.00     0.087 C 
HETATM   11  C8  UNL     1      26.884  -3.630   4.843  1.00  0.00     0.030 C 
HETATM   12  C9  UNL     1      27.637  -4.290   3.742  1.00  0.00    -0.012 C 
HETATM   13  C10 UNL     1      29.078  -3.824   3.991  1.00  0.00     0.011 C 
HETATM   14  C12 UNL     1      28.094  -5.589   4.399  1.00  0.00     0.011 C 
HETATM   15  C11 UNL     1      28.936  -4.627   5.252  1.00  0.00     0.009 C 
ENDBRANCH   8  10
ENDBRANCH   3   8
BRANCH   1  16
HETATM   16  O2  UNL     1      23.384  -4.891   9.729  1.00  0.00    -0.326 OA
BRANCH  16  17
HETATM   17  C3  UNL     1      22.099  -5.093   9.445  1.00  0.00     0.289 C 
BRANCH  17  18
HETATM   18  C2  UNL     1      21.137  -4.480  10.422  1.00  0.00     0.376 C 
HETATM   19  F1  UNL     1      20.366  -5.452  11.053  1.00  0.00    -0.173 F 
HETATM   20  F2  UNL     1      21.879  -3.820  11.424  1.00  0.00    -0.173 F 
BRANCH  18  21
HETATM   21  O1  UNL     1      20.264  -3.563   9.909  1.00  0.00    -0.329 OA
HETATM   22  C1  UNL     1      20.087  -3.657   8.548  1.00  0.00     0.208 C 
ENDBRANCH  18  21
ENDBRANCH  17  18
ENDBRANCH  16  17
ENDBRANCH   1  16
TORSDOF 6
ENDMDL
MODEL 2
REMARK VINA RESULT: -6.737867390      0.880      1.085
REMARK  6 active torsions:
REMARK  status: ('A' for Active; 'I' for Inactive)
REMARK    1  A    between atoms: O1_2  and  C2_3 
REMARK    2  A    between atoms: C2_3  and  C3_6 
REMARK    3  A    between atoms: C3_6  and  O2_7 
REMARK    4  A    between atoms: O2_7  and  C4_8 
REMARK    5  A    between atoms: C6_10  and  N1_11 
REMARK    6  A    between atoms: N1_11  and  C7_13 
ROOT
HETATM    1  C4  UNL     1      24.534  -4.646   9.075  1.00  0.00     0.160 A 
HETATM    2  C5  UNL     1      25.273  -5.200   8.044  1.00  0.00     0.106 A 
HETATM    3  C6  UNL     1      26.452  -4.497   7.858  1.00  0.00     0.120 A 
HETATM    4  N2  UNL     1      26.414  -3.532   8.772  1.00  0.00    -0.284 N 
ATOM      5  H2  UNL     1      27.148  -2.834   8.897  1.00  0.00     0.188 HD
HETATM    6  N3  UNL     1      25.323  -3.586   9.492  1.00  0.00    -0.278 N 
ATOM      7  H3  UNL     1      25.088  -2.943  10.247  1.00  0.00     0.189 HD
ENDROOT
BRANCH   3   8
HETATM    8  N1  UNL     1      27.320  -4.796   6.970  1.00  0.00    -0.370 N 
ATOM      9  H1  UNL     1      27.641  -5.763   6.945  1.00  0.00     0.161 HD
BRANCH   8  10
HETATM   10  C7  UNL     1      27.878  -3.904   6.014  1.00  0.00     0.087 C 
HETATM   11  C8  UNL     1      26.889  -3.633   4.860  1.00  0.00     0.030 C 
HETATM   12  C9  UNL     1      27.635  -4.282   3.748  1.00  0.00    -0.012 C 
HETATM   13  C10 UNL     1      29.075  -3.812   3.987  1.00  0.00     0.011 C 
HETATM   14  C12 UNL     1      28.103  -5.584   4.391  1.00  0.00     0.011 C 
HETATM   15  C11 UNL     1      28.949  -4.625   5.243  1.00  0.00     0.009 C 
ENDBRANCH   8  10
ENDBRANCH   3   8
BRANCH   1  16
HETATM   16  O2  UNL     1      23.343  -4.961   9.630  1.00  0.00    -0.326 OA
BRANCH  16  17
HETATM   17  C3  UNL     1      22.044  -5.008   9.344  1.00  0.00     0.289 C 
BRANCH  17  18
HETATM   18  C2  UNL     1      21.145  -4.467  10.418  1.00  0.00     0.376 C 
HETATM   19  F1  UNL     1      21.878  -3.881  11.447  1.00  0.00    -0.173 F 
HETATM   20  F2  UNL     1      20.336  -3.457   9.856  1.00  0.00    -0.173 F 
BRANCH  18  21
HETATM   21  O1  UNL     1      20.303  -5.368  11.005  1.00  0.00    -0.329 OA
HETATM   22  C1  UNL     1      19.299  -5.817  10.180  1.00  0.00     0.208 C 
ENDBRANCH  18  21
ENDBRANCH  17  18
ENDBRANCH  16  17
ENDBRANCH   1  16
TORSDOF 6
ENDMDL
MODEL 3
REMARK VINA RESULT: -6.674064875      3.458      4.751
REMARK  6 active torsions:
REMARK  status: ('A' for Active; 'I' for Inactive)
REMARK    1  A    between atoms: O1_2  and  C2_3 
REMARK    2  A    between atoms: C2_3  and  C3_6 
REMARK    3  A    between atoms: C3_6  and  O2_7 
REMARK    4  A    between atoms: O2_7  and  C4_8 
REMARK    5  A    between atoms: C6_10  and  N1_11 
REMARK    6  A    between atoms: N1_11  and  C7_13 
ROOT
HETATM    1  C4  UNL     1      27.045  -3.661   6.492  1.00  0.00     0.160 A 
HETATM    2  C5  UNL     1      26.737  -4.940   6.060  1.00  0.00     0.106 A 
HETATM    3  C6  UNL     1      26.899  -5.043   4.687  1.00  0.00     0.120 A 
HETATM    4  N2  UNL     1      27.300  -3.834   4.306  1.00  0.00    -0.284 N 
ATOM      5  H2  UNL     1      27.509  -3.578   3.341  1.00  0.00     0.188 HD
HETATM    6  N3  UNL     1      27.395  -3.011   5.319  1.00  0.00    -0.278 N 
ATOM      7  H3  UNL     1      27.683  -2.035   5.255  1.00  0.00     0.189 HD
ENDROOT
BRANCH   3   8
HETATM    8  N1  UNL     1      26.683  -6.115   4.030  1.00  0.00    -0.370 N 
ATOM      9  H1  UNL     1      26.084  -6.041   3.208  1.00  0.00     0.161 HD
BRANCH   8  10
HETATM   10  C7  UNL     1      27.200  -7.404   4.338  1.00  0.00     0.087 C 
HETATM   11  C8  UNL     1      27.143  -8.337   3.110  1.00  0.00     0.030 C 
HETATM   12  C9  UNL     1      26.142  -9.321   3.603  1.00  0.00    -0.012 C 
HETATM   13  C10 UNL     1      26.592  -9.566   5.049  1.00  0.00     0.011 C 
HETATM   14  C12 UNL     1      25.087  -8.417   4.235  1.00  0.00     0.011 C 
HETATM   15  C11 UNL     1      26.223  -8.121   5.226  1.00  0.00     0.009 C 
ENDBRANCH   8  10
ENDBRANCH   3   8
BRANCH   1  16
HETATM   16  O2  UNL     1      27.047  -3.073   7.708  1.00  0.00    -0.326 OA
BRANCH  16  17
HETATM   17  C3  UNL     1      26.217  -2.660   8.663  1.00  0.00     0.289 C 
BRANCH  17  18
HETATM   18  C2  UNL     1      25.917  -3.685   9.719  1.00  0.00     0.376 C 
HETATM   19  F1  UNL     1      26.105  -3.167  10.998  1.00  0.00    -0.173 F 
HETATM   20  F2  UNL     1      24.559  -4.051   9.612  1.00  0.00    -0.173 F 
BRANCH  18  21
HETATM   21  O1  UNL     1      26.644  -4.840   9.656  1.00  0.00    -0.329 OA
HETATM   22  C1  UNL     1      25.893  -5.962   9.398  1.00  0.00     0.208 C 
ENDBRANCH  18  21
ENDBRANCH  17  18
ENDBRANCH  16  17
ENDBRANCH   1  16
TORSDOF 6
ENDMDL
MODEL 4
REMARK VINA RESULT: -6.509315534      4.226      6.568
REMARK  6 active torsions:
REMARK  status: ('A' for Active; 'I' for Inactive)
REMARK    1  A    between atoms: O1_2  and  C2_3 
REMARK    2  A    between atoms: C2_3  and  C3_6 
REMARK    3  A    between atoms: C3_6  and  O2_7 
REMARK    4  A    between atoms: O2_7  and  C4_8 
REMARK    5  A    between atoms: C6_10  and  N1_11 
REMARK    6  A    between atoms: N1_11  and  C7_13 
ROOT
HETATM    1  C4  UNL     1      27.408  -4.875   4.763  1.00  0.00     0.160 A 
HETATM    2  C5  UNL     1      27.297  -4.896   6.142  1.00  0.00     0.106 A 
HETATM    3  C6  UNL     1      27.088  -3.617   6.634  1.00  0.00     0.120 A 
HETATM    4  N2  UNL     1      27.075  -2.842   5.554  1.00  0.00    -0.284 N 
ATOM      5  H2  UNL     1      26.939  -1.831   5.577  1.00  0.00     0.188 HD
HETATM    6  N3  UNL     1      27.257  -3.532   4.457  1.00  0.00    -0.278 N 
ATOM      7  H3  UNL     1      27.284  -3.139   3.516  1.00  0.00     0.189 HD
ENDROOT
BRANCH   3   8
HETATM    8  N1  UNL     1      26.951  -3.352   7.875  1.00  0.00    -0.370 N 
ATOM      9  H1  UNL     1      27.797  -3.119   8.395  1.00  0.00     0.161 HD
BRANCH   8  10
HETATM   10  C7  UNL     1      25.727  -3.351   8.599  1.00  0.00     0.087 C 
HETATM   11  C8  UNL     1      25.976  -3.223  10.117  1.00  0.00     0.030 C 
HETATM   12  C9  UNL     1      25.497  -4.562  10.552  1.00  0.00    -0.012 C 
HETATM   13  C10 UNL     1      24.205  -4.739   9.743  1.00  0.00     0.011 C 
HETATM   14  C12 UNL     1      26.113  -5.482   9.502  1.00  0.00     0.011 C 
HETATM   15  C11 UNL     1      25.144  -4.736   8.571  1.00  0.00     0.009 C 
ENDBRANCH   8  10
ENDBRANCH   3   8
BRANCH   1  16
HETATM   16  O2  UNL     1      27.608  -5.839   3.838  1.00  0.00    -0.326 OA
BRANCH  16  17
HETATM   17  C3  UNL     1      27.753  -7.158   3.727  1.00  0.00     0.289 C 
BRANCH  17  18
HETATM   18  C2  UNL     1      26.563  -7.958   4.175  1.00  0.00     0.376 C 
HETATM   19  F1  UNL     1      25.399  -7.195   4.150  1.00  0.00    -0.173 F 
HETATM   20  F2  UNL     1      26.381  -9.028   3.274  1.00  0.00    -0.173 F 
BRANCH  18  21
HETATM   21  O1  UNL     1      26.644  -8.503   5.425  1.00  0.00    -0.329 OA
HETATM   22  C1  UNL     1      25.590  -8.180   6.247  1.00  0.00     0.208 C 
ENDBRANCH  18  21
ENDBRANCH  17  18
ENDBRANCH  16  17
ENDBRANCH   1  16
TORSDOF 6
ENDMDL
MODEL 5
REMARK VINA RESULT: -6.502496596      3.509      7.409
REMARK  6 active torsions:
REMARK  status: ('A' for Active; 'I' for Inactive)
REMARK    1  A    between atoms: O1_2  and  C2_3 
REMARK    2  A    between atoms: C2_3  and  C3_6 
REMARK    3  A    between atoms: C3_6  and  O2_7 
REMARK    4  A    between atoms: O2_7  and  C4_8 
REMARK    5  A    between atoms: C6_10  and  N1_11 
REMARK    6  A    between atoms: N1_11  and  C7_13 
ROOT
HETATM    1  C4  UNL     1      25.820  -4.144   8.788  1.00  0.00     0.160 A 
HETATM    2  C5  UNL     1      24.590  -4.707   8.497  1.00  0.00     0.106 A 
HETATM    3  C6  UNL     1      23.789  -4.738   9.628  1.00  0.00     0.120 A 
HETATM    4  N2  UNL     1      24.539  -4.198  10.584  1.00  0.00    -0.284 N 
ATOM      5  H2  UNL     1      24.233  -4.075  11.549  1.00  0.00     0.188 HD
HETATM    6  N3  UNL     1      25.717  -3.845  10.137  1.00  0.00    -0.278 N 
ATOM      7  H3  UNL     1      26.450  -3.413  10.699  1.00  0.00     0.189 HD
ENDROOT
BRANCH   3   8
HETATM    8  N1  UNL     1      22.601  -5.207   9.639  1.00  0.00    -0.370 N 
ATOM      9  H1  UNL     1      22.484  -6.178   9.350  1.00  0.00     0.161 HD
BRANCH   8  10
HETATM   10  C7  UNL     1      21.427  -4.499  10.017  1.00  0.00     0.087 C 
HETATM   11  C8  UNL     1      20.370  -5.452  10.614  1.00  0.00     0.030 C 
HETATM   12  C9  UNL     1      19.327  -5.343   9.558  1.00  0.00    -0.012 C 
HETATM   13  C10 UNL     1      19.294  -3.837   9.268  1.00  0.00     0.011 C 
HETATM   14  C12 UNL     1      20.154  -5.428   8.279  1.00  0.00     0.011 C 
HETATM   15  C11 UNL     1      20.692  -4.077   8.776  1.00  0.00     0.009 C 
ENDBRANCH   8  10
ENDBRANCH   3   8
BRANCH   1  16
HETATM   16  O2  UNL     1      26.919  -3.893   8.044  1.00  0.00    -0.326 OA
BRANCH  16  17
HETATM   17  C3  UNL     1      27.314  -3.207   6.973  1.00  0.00     0.289 C 
BRANCH  17  18
HETATM   18  C2  UNL     1      27.747  -4.054   5.811  1.00  0.00     0.376 C 
HETATM   19  F1  UNL     1      27.301  -5.366   5.945  1.00  0.00    -0.173 F 
HETATM   20  F2  UNL     1      27.163  -3.533   4.637  1.00  0.00    -0.173 F 
BRANCH  18  21
HETATM   21  O1  UNL     1      29.093  -4.121   5.586  1.00  0.00    -0.329 OA
HETATM   22  C1  UNL     1      29.468  -3.756   4.315  1.00  0.00     0.208 C 
ENDBRANCH  18  21
ENDBRANCH  17  18
ENDBRANCH  16  17
ENDBRANCH   1  16
TORSDOF 6
ENDMDL
