MODEL 1
REMARK VINA RESULT: -6.366991783      0.000      0.000
REMARK  7 active torsions:
REMARK  status: ('A' for Active; 'I' for Inactive)
REMARK    1  A    between atoms: C2_2  and  C3_3 
REMARK    2  A    between atoms: C3_3  and  O1_4 
REMARK    3  A    between atoms: C3_3  and  N1_6 
REMARK    4  A    between atoms: C3_3  and  S1_12 
REMARK    5  A    between atoms: N1_6  and  O2_7 
REMARK    6  A    between atoms: S1_12  and  N2_14 
REMARK    7  A    between atoms: N2_14  and  C6_16 
ROOT
HETATM    1  C3  UNL     1      26.864  -4.610   5.644  1.00  0.00     0.221 C 
ENDROOT
BRANCH   1   2
HETATM    2  C2  UNL     1      26.248  -5.910   5.234  1.00  0.00     0.072 C 
HETATM    3  C1  UNL     1      24.758  -5.857   5.030  1.00  0.00     0.011 C 
ENDBRANCH   1   2
BRANCH   1   4
HETATM    4  O1  UNL     1      26.056  -3.610   4.997  1.00  0.00    -0.360 OA
ATOM      5  H1  UNL     1      26.409  -2.784   5.307  1.00  0.00     0.213 HD
ENDBRANCH   1   4
BRANCH   1   6
HETATM    6  N1  UNL     1      28.174  -4.357   5.140  1.00  0.00    -0.163 N 
HETATM    7  C4  UNL     1      28.482  -4.113   3.964  1.00  0.00     0.369 C 
HETATM    8  F1  UNL     1      29.823  -3.887   3.647  1.00  0.00    -0.150 F 
HETATM    9  F2  UNL     1      27.660  -4.044   2.914  1.00  0.00    -0.150 F 
BRANCH   6  10
HETATM   10  O2  UNL     1      29.193  -4.419   6.098  1.00  0.00    -0.280 OA
ATOM     11  H2  UNL     1      29.154  -3.744   6.765  1.00  0.00     0.245 HD
ENDBRANCH   6  10
ENDBRANCH   1   6
BRANCH   1  12
HETATM   12  S1  UNL     1      26.773  -4.347   7.348  1.00  0.00    -0.077 SA
HETATM   13  C5  UNL     1      26.508  -2.801   7.968  1.00  0.00     0.106 C 
BRANCH  12  14
HETATM   14  N2  UNL     1      26.948  -5.654   8.363  1.00  0.00    -0.365 N 
ATOM     15  H2  UNL     1      27.860  -6.075   8.544  1.00  0.00     0.167 HD
BRANCH  14  16
HETATM   16  C6  UNL     1      25.753  -6.156   8.971  1.00  0.00     0.090 C 
HETATM   17  C7  UNL     1      24.581  -5.261   8.568  1.00  0.00     0.028 C 
HETATM   18  C8  UNL     1      23.415  -6.100   9.052  1.00  0.00     0.039 C 
HETATM   19  C9  UNL     1      23.800  -7.486   8.592  1.00  0.00     0.172 C 
HETATM   20  F3  UNL     1      23.108  -7.773   7.431  1.00  0.00    -0.249 F 
HETATM   21  C10 UNL     1      25.297  -7.477   8.384  1.00  0.00     0.062 C 
ENDBRANCH  14  16
ENDBRANCH  12  14
ENDBRANCH   1  12
TORSDOF 7
ENDMDL
MODEL 2
REMARK VINA RESULT: -6.339179551      2.987      4.184
REMARK  7 active torsions:
REMARK  status: ('A' for Active; 'I' for Inactive)
REMARK    1  A    between atoms: C2_2  and  C3_3 
REMARK    2  A    between atoms: C3_3  and  O1_4 
REMARK    3  A    between atoms: C3_3  and  N1_6 
REMARK    4  A    between atoms: C3_3  and  S1_12 
REMARK    5  A    between atoms: N1_6  and  O2_7 
REMARK    6  A    between atoms: S1_12  and  N2_14 
REMARK    7  A    between atoms: N2_14  and  C6_16 
ROOT
HETATM    1  C3  UNL     1      25.806  -4.969   8.278  1.00  0.00     0.221 C 
ENDROOT
BRANCH   1   2
HETATM    2  C2  UNL     1      25.616  -3.696   9.039  1.00  0.00     0.072 C 
HETATM    3  C1  UNL     1      25.842  -3.814  10.521  1.00  0.00     0.011 C 
ENDBRANCH   1   2
BRANCH   1   4
HETATM    4  O1  UNL     1      27.016  -5.532   8.817  1.00  0.00    -0.360 OA
ATOM      5  H1  UNL     1      26.805  -5.721   9.724  1.00  0.00     0.213 HD
ENDBRANCH   1   4
BRANCH   1   6
HETATM    6  N1  UNL     1      26.096  -4.826   6.889  1.00  0.00    -0.163 N 
HETATM    7  C4  UNL     1      26.928  -4.062   6.380  1.00  0.00     0.369 C 
HETATM    8  F1  UNL     1      27.082  -4.055   4.992  1.00  0.00    -0.150 F 
HETATM    9  F2  UNL     1      27.725  -3.201   7.016  1.00  0.00    -0.150 F 
BRANCH   6  10
HETATM   10  O2  UNL     1      25.327  -5.635   6.043  1.00  0.00    -0.280 OA
ATOM     11  H2  UNL     1      25.396  -5.424   5.120  1.00  0.00     0.245 HD
ENDBRANCH   6  10
ENDBRANCH   1   6
BRANCH   1  12
HETATM   12  S1  UNL     1      24.527  -6.097   8.551  1.00  0.00    -0.077 SA
HETATM   13  C5  UNL     1      24.795  -7.505   9.440  1.00  0.00     0.106 C 
BRANCH  12  14
HETATM   14  N2  UNL     1      23.023  -5.759   7.922  1.00  0.00    -0.365 N 
ATOM     15  H2  UNL     1      22.885  -5.580   6.928  1.00  0.00     0.167 HD
BRANCH  14  16
HETATM   16  C6  UNL     1      21.934  -5.734   8.851  1.00  0.00     0.090 C 
HETATM   17  C7  UNL     1      22.221  -4.681   9.921  1.00  0.00     0.028 C 
HETATM   18  C8  UNL     1      20.870  -4.609  10.605  1.00  0.00     0.039 C 
HETATM   19  C9  UNL     1      19.914  -4.590   9.436  1.00  0.00     0.172 C 
HETATM   20  F3  UNL     1      19.513  -3.287   9.216  1.00  0.00    -0.249 F 
HETATM   21  C10 UNL     1      20.658  -5.172   8.255  1.00  0.00     0.062 C 
ENDBRANCH  14  16
ENDBRANCH  12  14
ENDBRANCH   1  12
TORSDOF 7
ENDMDL
MODEL 3
REMARK VINA RESULT: -6.311854157      2.305      2.971
REMARK  7 active torsions:
REMARK  status: ('A' for Active; 'I' for Inactive)
REMARK    1  A    between atoms: C2_2  and  C3_3 
REMARK    2  A    between atoms: C3_3  and  O1_4 
REMARK    3  A    between atoms: C3_3  and  N1_6 
REMARK    4  A    between atoms: C3_3  and  S1_12 
REMARK    5  A    between atoms: N1_6  and  O2_7 
REMARK    6  A    between atoms: S1_12  and  N2_14 
REMARK    7  A    between atoms: N2_14  and  C6_16 
ROOT
HETATM    1  C3  UNL     1      27.622  -4.549   4.542  1.00  0.00     0.221 C 
ENDROOT
BRANCH   1   2
HETATM    2  C2  UNL     1      28.317  -5.715   3.913  1.00  0.00     0.072 C 
HETATM    3  C1  UNL     1      27.529  -6.996   3.932  1.00  0.00     0.011 C 
ENDBRANCH   1   2
BRANCH   1   4
HETATM    4  O1  UNL     1      26.903  -3.933   3.458  1.00  0.00    -0.360 OA
ATOM      5  H1  UNL     1      26.383  -3.255   3.875  1.00  0.00     0.213 HD
ENDBRANCH   1   4
BRANCH   1   6
HETATM    6  N1  UNL     1      28.468  -3.504   5.018  1.00  0.00    -0.163 N 
HETATM    7  C4  UNL     1      29.467  -3.041   4.449  1.00  0.00     0.369 C 
HETATM    8  F1  UNL     1      30.182  -2.011   5.063  1.00  0.00    -0.150 F 
HETATM    9  F2  UNL     1      29.975  -3.425   3.275  1.00  0.00    -0.150 F 
BRANCH   6  10
HETATM   10  O2  UNL     1      28.113  -2.986   6.270  1.00  0.00    -0.280 OA
ATOM     11  H2  UNL     1      28.180  -2.041   6.343  1.00  0.00     0.245 HD
ENDBRANCH   6  10
ENDBRANCH   1   6
BRANCH   1  12
HETATM   12  S1  UNL     1      26.472  -5.034   5.736  1.00  0.00    -0.077 SA
HETATM   13  C5  UNL     1      24.903  -5.465   5.295  1.00  0.00     0.106 C 
BRANCH  12  14
HETATM   14  N2  UNL     1      26.950  -5.070   7.330  1.00  0.00    -0.365 N 
ATOM     15  H2  UNL     1      27.906  -5.303   7.599  1.00  0.00     0.167 HD
BRANCH  14  16
HETATM   16  C6  UNL     1      25.949  -4.755   8.304  1.00  0.00     0.090 C 
HETATM   17  C7  UNL     1      26.109  -5.696   9.498  1.00  0.00     0.028 C 
HETATM   18  C8  UNL     1      25.184  -5.031  10.498  1.00  0.00     0.039 C 
HETATM   19  C9  UNL     1      25.535  -3.570  10.341  1.00  0.00     0.172 C 
HETATM   20  F3  UNL     1      26.383  -3.207  11.369  1.00  0.00    -0.249 F 
HETATM   21  C10 UNL     1      26.178  -3.418   8.982  1.00  0.00     0.062 C 
ENDBRANCH  14  16
ENDBRANCH  12  14
ENDBRANCH   1  12
TORSDOF 7
ENDMDL
MODEL 4
REMARK VINA RESULT: -6.009915312      2.525      3.580
REMARK  7 active torsions:
REMARK  status: ('A' for Active; 'I' for Inactive)
REMARK    1  A    between atoms: C2_2  and  C3_3 
REMARK    2  A    between atoms: C3_3  and  O1_4 
REMARK    3  A    between atoms: C3_3  and  N1_6 
REMARK    4  A    between atoms: C3_3  and  S1_12 
REMARK    5  A    between atoms: N1_6  and  O2_7 
REMARK    6  A    between atoms: S1_12  and  N2_14 
REMARK    7  A    between atoms: N2_14  and  C6_16 
ROOT
HETATM    1  C3  UNL     1      27.177  -4.170   5.419  1.00  0.00     0.221 C 
ENDROOT
BRANCH   1   2
HETATM    2  C2  UNL     1      28.652  -4.390   5.319  1.00  0.00     0.072 C 
HETATM    3  C1  UNL     1      29.296  -3.764   4.112  1.00  0.00     0.011 C 
ENDBRANCH   1   2
BRANCH   1   4
HETATM    4  O1  UNL     1      26.881  -3.235   4.366  1.00  0.00    -0.360 OA
ATOM      5  H1  UNL     1      26.731  -3.779   3.602  1.00  0.00     0.213 HD
ENDBRANCH   1   4
BRANCH   1   6
HETATM    6  N1  UNL     1      26.726  -3.500   6.595  1.00  0.00    -0.163 N 
HETATM    7  C4  UNL     1      26.767  -3.931   7.756  1.00  0.00     0.369 C 
HETATM    8  F1  UNL     1      26.279  -3.134   8.794  1.00  0.00    -0.150 F 
HETATM    9  F2  UNL     1      27.230  -5.117   8.159  1.00  0.00    -0.150 F 
BRANCH   6  10
HETATM   10  O2  UNL     1      26.168  -2.235   6.372  1.00  0.00    -0.280 OA
ATOM     11  H2  UNL     1      25.247  -2.162   6.594  1.00  0.00     0.245 HD
ENDBRANCH   6  10
ENDBRANCH   1   6
BRANCH   1  12
HETATM   12  S1  UNL     1      26.274  -5.612   5.120  1.00  0.00    -0.077 SA
HETATM   13  C5  UNL     1      27.006  -6.953   4.407  1.00  0.00     0.106 C 
BRANCH  12  14
HETATM   14  N2  UNL     1      24.668  -5.648   5.556  1.00  0.00    -0.365 N 
ATOM     15  H2  UNL     1      23.980  -5.035   5.120  1.00  0.00     0.167 HD
BRANCH  14  16
HETATM   16  C6  UNL     1      24.304  -6.585   6.575  1.00  0.00     0.090 C 
HETATM   17  C7  UNL     1      25.539  -7.399   6.962  1.00  0.00     0.028 C 
HETATM   18  C8  UNL     1      25.029  -8.097   8.207  1.00  0.00     0.039 C 
HETATM   19  C9  UNL     1      24.317  -6.982   8.935  1.00  0.00     0.172 C 
HETATM   20  F3  UNL     1      25.148  -6.505   9.932  1.00  0.00    -0.249 F 
HETATM   21  C10 UNL     1      23.989  -5.927   7.904  1.00  0.00     0.062 C 
ENDBRANCH  14  16
ENDBRANCH  12  14
ENDBRANCH   1  12
TORSDOF 7
ENDMDL
MODEL 5
REMARK VINA RESULT: -5.888779571      2.966      4.029
REMARK  7 active torsions:
REMARK  status: ('A' for Active; 'I' for Inactive)
REMARK    1  A    between atoms: C2_2  and  C3_3 
REMARK    2  A    between atoms: C3_3  and  O1_4 
REMARK    3  A    between atoms: C3_3  and  N1_6 
REMARK    4  A    between atoms: C3_3  and  S1_12 
REMARK    5  A    between atoms: N1_6  and  O2_7 
REMARK    6  A    between atoms: S1_12  and  N2_14 
REMARK    7  A    between atoms: N2_14  and  C6_16 
ROOT
HETATM    1  C3  UNL     1      26.120  -4.586   8.307  1.00  0.00     0.221 C 
ENDROOT
BRANCH   1   2
HETATM    2  C2  UNL     1      25.826  -3.497   9.288  1.00  0.00     0.072 C 
HETATM    3  C1  UNL     1      25.927  -3.912  10.731  1.00  0.00     0.011 C 
ENDBRANCH   1   2
BRANCH   1   4
HETATM    4  O1  UNL     1      27.090  -5.416   8.971  1.00  0.00    -0.360 OA
ATOM      5  H1  UNL     1      27.631  -5.757   8.268  1.00  0.00     0.213 HD
ENDBRANCH   1   4
BRANCH   1   6
HETATM    6  N1  UNL     1      26.789  -4.184   7.113  1.00  0.00    -0.163 N 
HETATM    7  C4  UNL     1      26.666  -3.101   6.523  1.00  0.00     0.369 C 
HETATM    8  F1  UNL     1      27.405  -2.874   5.360  1.00  0.00    -0.150 F 
HETATM    9  F2  UNL     1      25.878  -2.080   6.869  1.00  0.00    -0.150 F 
BRANCH   6  10
HETATM   10  O2  UNL     1      27.649  -5.147   6.569  1.00  0.00    -0.280 OA
ATOM     11  H2  UNL     1      28.522  -5.154   6.941  1.00  0.00     0.245 HD
ENDBRANCH   6  10
ENDBRANCH   1   6
BRANCH   1  12
HETATM   12  S1  UNL     1      24.733  -5.558   7.966  1.00  0.00    -0.077 SA
HETATM   13  C5  UNL     1      24.578  -6.347   6.484  1.00  0.00     0.106 C 
BRANCH  12  14
HETATM   14  N2  UNL     1      23.558  -5.700   9.136  1.00  0.00    -0.365 N 
ATOM     15  H2  UNL     1      23.664  -6.332   9.929  1.00  0.00     0.167 HD
BRANCH  14  16
HETATM   16  C6  UNL     1      22.390  -4.888   8.969  1.00  0.00     0.090 C 
HETATM   17  C7  UNL     1      21.349  -5.677   8.175  1.00  0.00     0.028 C 
HETATM   18  C8  UNL     1      20.133  -4.790   8.357  1.00  0.00     0.039 C 
HETATM   19  C9  UNL     1      20.199  -4.449   9.828  1.00  0.00     0.172 C 
HETATM   20  F3  UNL     1      19.311  -5.259  10.508  1.00  0.00    -0.249 F 
HETATM   21  C10 UNL     1      21.630  -4.667  10.263  1.00  0.00     0.062 C 
ENDBRANCH  14  16
ENDBRANCH  12  14
ENDBRANCH   1  12
TORSDOF 7
ENDMDL
