MODEL 1
REMARK VINA RESULT: -5.876114531      0.000      0.000
REMARK  5 active torsions:
REMARK  status: ('A' for Active; 'I' for Inactive)
REMARK    1  A    between atoms: C2_2  and  S1_3 
REMARK    2  A    between atoms: S1_3  and  C3_4 
REMARK    3  A    between atoms: N2_10  and  C6_11 
REMARK    4  A    between atoms: C10_18  and  C11_19 
REMARK    5  A    between atoms: C11_19  and  C14_22 
ROOT
HETATM    1  C3  UNL     1      20.657  16.516  62.906  1.00  0.00     0.130 C 
HETATM    2  N1  UNL     1      20.869  16.756  61.686  1.00  0.00    -0.252 N 
ATOM      3  H1  UNL     1      20.173  16.486  60.992  1.00  0.00     0.195 HD
HETATM    4  O1  UNL     1      21.975  17.349  61.297  1.00  0.00    -0.254 OA
HETATM    5  C4  UNL     1      22.836  17.850  62.217  1.00  0.00     0.178 C 
HETATM    6  C5  UNL     1      22.644  19.361  62.468  1.00  0.00     0.325 C 
HETATM    7  N2  UNL     1      22.806  20.105  61.262  1.00  0.00     0.097 N 
HETATM    8  C8  UNL     1      24.128  19.734  60.734  1.00  0.00     0.324 C 
HETATM    9  C9  UNL     1      24.878  18.924  61.730  1.00  0.00     0.017 C 
HETATM   10  N3  UNL     1      25.959  19.396  62.199  1.00  0.00    -0.404 N 
ATOM     11  H31 UNL     1      26.474  18.840  62.882  1.00  0.00     0.155 HD
ATOM     12  H32 UNL     1      26.361  20.294  61.931  1.00  0.00     0.155 HD
HETATM   13  C10 UNL     1      24.286  17.598  62.126  1.00  0.00     0.090 C 
HETATM   14  S2  UNL     1      22.093  17.141  63.754  1.00  0.00    -0.060 SA
ENDROOT
BRANCH  13  15
HETATM   15  C11 UNL     1      24.832  16.522  61.293  1.00  0.00    -0.032 C 
HETATM   16  C12 UNL     1      24.968  16.795  59.814  1.00  0.00     0.016 C 
HETATM   17  C13 UNL     1      26.299  16.347  61.751  1.00  0.00     0.016 C 
BRANCH  15  18
HETATM   18  C14 UNL     1      24.218  15.162  61.510  1.00  0.00    -0.014 C 
HETATM   19  C15 UNL     1      24.512  14.141  60.465  1.00  0.00     0.010 C 
HETATM   20  C16 UNL     1      24.670  14.525  62.834  1.00  0.00     0.010 C 
ENDBRANCH  15  18
ENDBRANCH  13  15
BRANCH   7  21
HETATM   21  C6  UNL     1      22.810  21.519  61.427  1.00  0.00     0.268 C 
HETATM   22  C7  UNL     1      23.622  22.281  60.431  1.00  0.00     0.037 C 
ENDBRANCH   7  21
BRANCH   1  23
HETATM   23  S1  UNL     1      19.261  15.738  63.646  1.00  0.00    -0.104 SA
BRANCH  23  24
HETATM   24  C2  UNL     1      19.456  13.925  63.524  1.00  0.00     0.077 C 
HETATM   25  C1  UNL     1      20.911  13.531  63.614  1.00  0.00     0.016 C 
ENDBRANCH  23  24
ENDBRANCH   1  23
TORSDOF 5
ENDMDL
MODEL 2
REMARK VINA RESULT: -5.842328417      0.992      1.247
REMARK  5 active torsions:
REMARK  status: ('A' for Active; 'I' for Inactive)
REMARK    1  A    between atoms: C2_2  and  S1_3 
REMARK    2  A    between atoms: S1_3  and  C3_4 
REMARK    3  A    between atoms: N2_10  and  C6_11 
REMARK    4  A    between atoms: C10_18  and  C11_19 
REMARK    5  A    between atoms: C11_19  and  C14_22 
ROOT
HETATM    1  C3  UNL     1      20.620  16.262  62.963  1.00  0.00     0.130 C 
HETATM    2  N1  UNL     1      20.809  16.521  61.744  1.00  0.00    -0.252 N 
ATOM      3  H1  UNL     1      20.103  16.253  61.058  1.00  0.00     0.195 HD
HETATM    4  O1  UNL     1      21.902  17.131  61.343  1.00  0.00    -0.254 OA
HETATM    5  C4  UNL     1      22.773  17.628  62.255  1.00  0.00     0.178 C 
HETATM    6  C5  UNL     1      22.570  19.133  62.530  1.00  0.00     0.325 C 
HETATM    7  N2  UNL     1      22.704  19.895  61.332  1.00  0.00     0.097 N 
HETATM    8  C8  UNL     1      24.020  19.545  60.776  1.00  0.00     0.324 C 
HETATM    9  C9  UNL     1      24.796  18.730  61.747  1.00  0.00     0.017 C 
HETATM   10  N3  UNL     1      25.880  19.206  62.204  1.00  0.00    -0.404 N 
ATOM     11  H31 UNL     1      26.413  18.647  62.870  1.00  0.00     0.155 HD
ATOM     12  H32 UNL     1      26.268  20.112  61.941  1.00  0.00     0.155 HD
HETATM   13  C10 UNL     1      24.224  17.392  62.135  1.00  0.00     0.090 C 
HETATM   14  S2  UNL     1      22.065  16.890  63.794  1.00  0.00    -0.060 SA
ENDROOT
BRANCH  13  15
HETATM   15  C11 UNL     1      24.766  16.334  61.279  1.00  0.00    -0.032 C 
HETATM   16  C12 UNL     1      24.895  16.636  59.804  1.00  0.00     0.016 C 
HETATM   17  C13 UNL     1      26.235  16.150  61.725  1.00  0.00     0.016 C 
BRANCH  15  18
HETATM   18  C14 UNL     1      24.154  14.969  61.471  1.00  0.00    -0.014 C 
HETATM   19  C15 UNL     1      24.431  13.974  60.397  1.00  0.00     0.010 C 
HETATM   20  C16 UNL     1      24.623  14.300  62.772  1.00  0.00     0.010 C 
ENDBRANCH  15  18
ENDBRANCH  13  15
BRANCH   7  21
HETATM   21  C6  UNL     1      22.697  21.307  61.516  1.00  0.00     0.268 C 
HETATM   22  C7  UNL     1      23.422  22.096  60.475  1.00  0.00     0.037 C 
ENDBRANCH   7  21
BRANCH   1  23
HETATM   23  S1  UNL     1      19.246  15.460  63.716  1.00  0.00    -0.104 SA
BRANCH  23  24
HETATM   24  C2  UNL     1      17.725  16.396  63.331  1.00  0.00     0.077 C 
HETATM   25  C1  UNL     1      16.498  15.647  63.791  1.00  0.00     0.016 C 
ENDBRANCH  23  24
ENDBRANCH   1  23
TORSDOF 5
ENDMDL
MODEL 3
REMARK VINA RESULT: -5.690673088      2.644      4.483
REMARK  5 active torsions:
REMARK  status: ('A' for Active; 'I' for Inactive)
REMARK    1  A    between atoms: C2_2  and  S1_3 
REMARK    2  A    between atoms: S1_3  and  C3_4 
REMARK    3  A    between atoms: N2_10  and  C6_11 
REMARK    4  A    between atoms: C10_18  and  C11_19 
REMARK    5  A    between atoms: C11_19  and  C14_22 
ROOT
HETATM    1  C3  UNL     1      22.259  19.637  60.330  1.00  0.00     0.130 C 
HETATM    2  N1  UNL     1      22.419  18.573  59.672  1.00  0.00    -0.252 N 
ATOM      3  H1  UNL     1      21.812  18.377  58.876  1.00  0.00     0.195 HD
HETATM    4  O1  UNL     1      23.357  17.711  59.999  1.00  0.00    -0.254 OA
HETATM    5  C4  UNL     1      24.265  18.028  60.953  1.00  0.00     0.178 C 
HETATM    6  C5  UNL     1      25.590  18.570  60.374  1.00  0.00     0.325 C 
HETATM    7  N2  UNL     1      26.189  17.622  59.493  1.00  0.00     0.097 N 
HETATM    8  C8  UNL     1      26.321  16.378  60.268  1.00  0.00     0.324 C 
HETATM    9  C9  UNL     1      26.005  16.621  61.700  1.00  0.00     0.017 C 
HETATM   10  N3  UNL     1      26.923  16.444  62.558  1.00  0.00    -0.404 N 
ATOM     11  H31 UNL     1      26.706  16.610  63.541  1.00  0.00     0.155 HD
ATOM     12  H32 UNL     1      27.869  16.134  62.336  1.00  0.00     0.155 HD
HETATM   13  C10 UNL     1      24.609  17.079  62.029  1.00  0.00     0.090 C 
HETATM   14  S2  UNL     1      23.504  19.582  61.602  1.00  0.00    -0.060 SA
ENDROOT
BRANCH  13  15
HETATM   15  C11 UNL     1      23.754  15.933  62.349  1.00  0.00    -0.032 C 
HETATM   16  C12 UNL     1      23.463  14.956  61.235  1.00  0.00     0.016 C 
HETATM   17  C13 UNL     1      24.561  15.082  63.356  1.00  0.00     0.016 C 
BRANCH  15  18
HETATM   18  C14 UNL     1      22.481  16.262  63.088  1.00  0.00    -0.014 C 
HETATM   19  C15 UNL     1      21.269  16.455  62.243  1.00  0.00     0.010 C 
HETATM   20  C16 UNL     1      22.099  15.170  64.100  1.00  0.00     0.010 C 
ENDBRANCH  15  18
ENDBRANCH  13  15
BRANCH   7  21
HETATM   21  C6  UNL     1      27.494  17.966  59.040  1.00  0.00     0.268 C 
HETATM   22  C7  UNL     1      28.000  17.182  57.874  1.00  0.00     0.037 C 
ENDBRANCH   7  21
BRANCH   1  23
HETATM   23  S1  UNL     1      21.079  20.918  60.075  1.00  0.00    -0.104 SA
BRANCH  23  24
HETATM   24  C2  UNL     1      19.565  20.198  59.350  1.00  0.00     0.077 C 
HETATM   25  C1  UNL     1      18.418  21.179  59.406  1.00  0.00     0.016 C 
ENDBRANCH  23  24
ENDBRANCH   1  23
TORSDOF 5
ENDMDL
MODEL 4
REMARK VINA RESULT: -5.681258632      2.536      4.470
REMARK  5 active torsions:
REMARK  status: ('A' for Active; 'I' for Inactive)
REMARK    1  A    between atoms: C2_2  and  S1_3 
REMARK    2  A    between atoms: S1_3  and  C3_4 
REMARK    3  A    between atoms: N2_10  and  C6_11 
REMARK    4  A    between atoms: C10_18  and  C11_19 
REMARK    5  A    between atoms: C11_19  and  C14_22 
ROOT
HETATM    1  C3  UNL     1      25.749  14.957  61.710  1.00  0.00     0.130 C 
HETATM    2  N1  UNL     1      25.740  15.798  62.649  1.00  0.00    -0.252 N 
ATOM      3  H1  UNL     1      26.284  15.615  63.493  1.00  0.00     0.195 HD
HETATM    4  O1  UNL     1      25.041  16.906  62.557  1.00  0.00    -0.254 OA
HETATM    5  C4  UNL     1      24.439  17.233  61.387  1.00  0.00     0.178 C 
HETATM    6  C5  UNL     1      25.269  18.215  60.532  1.00  0.00     0.325 C 
HETATM    7  N2  UNL     1      25.529  19.422  61.246  1.00  0.00     0.097 N 
HETATM    8  C8  UNL     1      24.215  19.933  61.666  1.00  0.00     0.324 C 
HETATM    9  C9  UNL     1      23.124  19.156  61.021  1.00  0.00     0.017 C 
HETATM   10  N3  UNL     1      22.340  19.762  60.227  1.00  0.00    -0.404 N 
ATOM     11  H31 UNL     1      21.591  19.229  59.785  1.00  0.00     0.155 HD
ATOM     12  H32 UNL     1      22.398  20.756  60.006  1.00  0.00     0.155 HD
HETATM   13  C10 UNL     1      23.038  17.689  61.347  1.00  0.00     0.090 C 
HETATM   14  S2  UNL     1      24.694  15.656  60.457  1.00  0.00    -0.060 SA
ENDROOT
BRANCH  13  15
HETATM   15  C11 UNL     1      22.121  17.465  62.468  1.00  0.00    -0.032 C 
HETATM   16  C12 UNL     1      22.475  18.107  63.789  1.00  0.00     0.016 C 
HETATM   17  C13 UNL     1      20.805  18.177  62.078  1.00  0.00     0.016 C 
BRANCH  15  18
HETATM   18  C14 UNL     1      21.708  16.031  62.689  1.00  0.00    -0.014 C 
HETATM   19  C15 UNL     1      22.284  15.366  63.892  1.00  0.00     0.010 C 
HETATM   20  C16 UNL     1      20.185  15.882  62.836  1.00  0.00     0.010 C 
ENDBRANCH  15  18
ENDBRANCH  13  15
BRANCH   7  21
HETATM   21  C6  UNL     1      26.145  20.451  60.479  1.00  0.00     0.268 C 
HETATM   22  C7  UNL     1      25.653  21.836  60.745  1.00  0.00     0.037 C 
ENDBRANCH   7  21
BRANCH   1  23
HETATM   23  S1  UNL     1      26.604  13.420  61.619  1.00  0.00    -0.104 SA
BRANCH  23  24
HETATM   24  C2  UNL     1      27.567  13.183  63.153  1.00  0.00     0.077 C 
HETATM   25  C1  UNL     1      27.236  11.858  63.799  1.00  0.00     0.016 C 
ENDBRANCH  23  24
ENDBRANCH   1  23
TORSDOF 5
ENDMDL
MODEL 5
REMARK VINA RESULT: -5.654284153      2.745      5.755
REMARK  5 active torsions:
REMARK  status: ('A' for Active; 'I' for Inactive)
REMARK    1  A    between atoms: C2_2  and  S1_3 
REMARK    2  A    between atoms: S1_3  and  C3_4 
REMARK    3  A    between atoms: N2_10  and  C6_11 
REMARK    4  A    between atoms: C10_18  and  C11_19 
REMARK    5  A    between atoms: C11_19  and  C14_22 
ROOT
HETATM    1  C3  UNL     1      23.636  21.579  60.849  1.00  0.00     0.130 C 
HETATM    2  N1  UNL     1      22.940  20.692  60.285  1.00  0.00    -0.252 N 
ATOM      3  H1  UNL     1      22.262  20.961  59.572  1.00  0.00     0.195 HD
HETATM    4  O1  UNL     1      23.074  19.423  60.603  1.00  0.00    -0.254 OA
HETATM    5  C4  UNL     1      24.073  19.035  61.434  1.00  0.00     0.178 C 
HETATM    6  C5  UNL     1      25.319  18.517  60.683  1.00  0.00     0.325 C 
HETATM    7  N2  UNL     1      24.989  17.412  59.845  1.00  0.00     0.097 N 
HETATM    8  C8  UNL     1      24.342  16.421  60.720  1.00  0.00     0.324 C 
HETATM    9  C9  UNL     1      24.471  16.822  62.146  1.00  0.00     0.017 C 
HETATM   10  N3  UNL     1      25.128  16.068  62.928  1.00  0.00    -0.404 N 
ATOM     11  H31 UNL     1      25.216  16.344  63.906  1.00  0.00     0.155 HD
ATOM     12  H32 UNL     1      25.569  15.192  62.649  1.00  0.00     0.155 HD
HETATM   13  C10 UNL     1      23.820  18.116  62.558  1.00  0.00     0.090 C 
HETATM   14  S2  UNL     1      24.667  20.692  61.998  1.00  0.00    -0.060 SA
ENDROOT
BRANCH  13  15
HETATM   15  C11 UNL     1      22.467  17.871  63.066  1.00  0.00    -0.032 C 
HETATM   16  C12 UNL     1      22.303  16.778  64.096  1.00  0.00     0.016 C 
HETATM   17  C13 UNL     1      22.080  19.147  63.849  1.00  0.00     0.016 C 
BRANCH  15  18
HETATM   18  C14 UNL     1      21.394  17.750  62.014  1.00  0.00    -0.014 C 
HETATM   19  C15 UNL     1      20.759  16.407  61.882  1.00  0.00     0.010 C 
HETATM   20  C16 UNL     1      20.230  18.724  62.257  1.00  0.00     0.010 C 
ENDBRANCH  15  18
ENDBRANCH  13  15
BRANCH   7  21
HETATM   21  C6  UNL     1      26.103  16.763  59.242  1.00  0.00     0.268 C 
HETATM   22  C7  UNL     1      27.011  17.645  58.450  1.00  0.00     0.037 C 
ENDBRANCH   7  21
BRANCH   1  23
HETATM   23  S1  UNL     1      23.622  23.319  60.584  1.00  0.00    -0.104 SA
BRANCH  23  24
HETATM   24  C2  UNL     1      25.175  24.033  61.230  1.00  0.00     0.077 C 
HETATM   25  C1  UNL     1      24.955  24.669  62.582  1.00  0.00     0.016 C 
ENDBRANCH  23  24
ENDBRANCH   1  23
TORSDOF 5
ENDMDL
