MODEL 1
REMARK VINA RESULT: -6.497653721      0.000      0.000
REMARK  3 active torsions:
REMARK  status: ('A' for Active; 'I' for Inactive)
REMARK    1  A    between atoms: C2_2  and  C3_3 
REMARK    2  A    between atoms: C5_14  and  N6_15 
REMARK    3  A    between atoms: N6_15  and  N7_17 
ROOT
HETATM    1  C1  UNL     1      54.889 -12.827  28.816  1.00  0.00     0.074 C 
HETATM    2  C2  UNL     1      53.398 -12.549  28.776  1.00  0.00     0.189 C 
HETATM    3  N2  UNL     1      53.182 -11.292  29.448  1.00  0.00    -0.070 NA
HETATM    4  N3  UNL     1      52.766 -10.365  28.460  1.00  0.00    -0.044 N 
HETATM    5  C4  UNL     1      52.608 -11.014  27.296  1.00  0.00     0.276 A 
HETATM    6  N4  UNL     1      52.214 -10.123  26.371  1.00  0.00    -0.249 N 
ATOM      7  H4  UNL     1      52.020 -10.339  25.393  1.00  0.00     0.191 HD
HETATM    8  N5  UNL     1      52.116  -8.925  26.915  1.00  0.00    -0.126 N 
ATOM      9  H5  UNL     1      51.837  -8.060  26.452  1.00  0.00     0.206 HD
HETATM   10  C5  UNL     1      52.458  -9.080  28.205  1.00  0.00     0.732 A 
HETATM   11  O1  UNL     1      52.912 -12.369  27.478  1.00  0.00    -0.284 OA
ENDROOT
BRANCH   2  12
HETATM   12  C3  UNL     1      52.620 -13.607  29.457  1.00  0.00     0.111 C 
HETATM   13  N1  UNL     1      52.948 -14.847  29.439  1.00  0.00    -0.407 N 
ATOM     14  H12 UNL     1      53.791 -15.100  28.924  1.00  0.00     0.155 HD
ATOM     15  H11 UNL     1      52.412 -15.576  29.908  1.00  0.00     0.155 HD
ENDBRANCH   2  12
BRANCH  10  16
HETATM   16  N6  UNL     1      52.488  -8.133  29.075  1.00  0.00    -0.136 N 
ATOM     17  H6  UNL     1      52.839  -7.210  28.820  1.00  0.00     0.205 HD
BRANCH  16  18
HETATM   18  N7  UNL     1      52.036  -8.382  30.367  1.00  0.00    -0.331 N 
ATOM     19  H72 UNL     1      52.344  -9.225  30.852  1.00  0.00     0.177 HD
ATOM     20  H71 UNL     1      51.403  -7.716  30.810  1.00  0.00     0.177 HD
ENDBRANCH  16  18
ENDBRANCH  10  16
TORSDOF 3
ENDMDL
MODEL 2
REMARK VINA RESULT: -6.428292310      1.783      2.652
REMARK  3 active torsions:
REMARK  status: ('A' for Active; 'I' for Inactive)
REMARK    1  A    between atoms: C2_2  and  C3_3 
REMARK    2  A    between atoms: C5_14  and  N6_15 
REMARK    3  A    between atoms: N6_15  and  N7_17 
ROOT
HETATM    1  C1  UNL     1      52.145 -12.698  27.637  1.00  0.00     0.074 C 
HETATM    2  C2  UNL     1      53.123 -11.965  28.537  1.00  0.00     0.189 C 
HETATM    3  N2  UNL     1      53.340 -10.664  27.957  1.00  0.00    -0.070 NA
HETATM    4  N3  UNL     1      52.758  -9.719  28.839  1.00  0.00    -0.044 N 
HETATM    5  C4  UNL     1      52.331 -10.359  29.939  1.00  0.00     0.276 A 
HETATM    6  N4  UNL     1      51.783  -9.452  30.764  1.00  0.00    -0.249 N 
ATOM      7  H4  UNL     1      51.374  -9.659  31.675  1.00  0.00     0.191 HD
HETATM    8  N5  UNL     1      51.851  -8.251  30.221  1.00  0.00    -0.126 N 
ATOM      9  H5  UNL     1      51.516  -7.375  30.620  1.00  0.00     0.206 HD
HETATM   10  C5  UNL     1      52.454  -8.423  29.032  1.00  0.00     0.732 A 
HETATM   11  O1  UNL     1      52.613 -11.725  29.816  1.00  0.00    -0.284 OA
ENDROOT
BRANCH   2  12
HETATM   12  C3  UNL     1      54.417 -12.674  28.642  1.00  0.00     0.111 C 
HETATM   13  N1  UNL     1      55.509 -12.103  28.996  1.00  0.00    -0.407 N 
ATOM     14  H12 UNL     1      55.466 -11.107  29.214  1.00  0.00     0.155 HD
ATOM     15  H11 UNL     1      56.401 -12.592  29.069  1.00  0.00     0.155 HD
ENDBRANCH   2  12
BRANCH  10  16
HETATM   16  N6  UNL     1      52.705  -7.479  28.194  1.00  0.00    -0.136 N 
ATOM     17  H6  UNL     1      52.031  -6.728  28.047  1.00  0.00     0.205 HD
BRANCH  16  18
HETATM   18  N7  UNL     1      53.906  -7.494  27.492  1.00  0.00    -0.331 N 
ATOM     19  H72 UNL     1      53.893  -7.628  26.481  1.00  0.00     0.177 HD
ATOM     20  H71 UNL     1      54.781  -7.371  28.000  1.00  0.00     0.177 HD
ENDBRANCH  16  18
ENDBRANCH  10  16
TORSDOF 3
ENDMDL
MODEL 3
REMARK VINA RESULT: -6.393406387      1.634      2.670
REMARK  3 active torsions:
REMARK  status: ('A' for Active; 'I' for Inactive)
REMARK    1  A    between atoms: C2_2  and  C3_3 
REMARK    2  A    between atoms: C5_14  and  N6_15 
REMARK    3  A    between atoms: N6_15  and  N7_17 
ROOT
HETATM    1  C1  UNL     1      52.258 -13.079  29.362  1.00  0.00     0.074 C 
HETATM    2  C2  UNL     1      53.410 -12.130  29.090  1.00  0.00     0.189 C 
HETATM    3  N2  UNL     1      53.126 -11.463  27.844  1.00  0.00    -0.070 NA
HETATM    4  N3  UNL     1      52.876 -10.103  28.156  1.00  0.00    -0.044 N 
HETATM    5  C4  UNL     1      53.112  -9.908  29.463  1.00  0.00     0.276 A 
HETATM    6  N4  UNL     1      52.871  -8.616  29.742  1.00  0.00    -0.249 N 
ATOM      7  H4  UNL     1      52.968  -8.187  30.663  1.00  0.00     0.191 HD
HETATM    8  N5  UNL     1      52.490  -7.983  28.649  1.00  0.00    -0.126 N 
ATOM      9  H5  UNL     1      52.242  -6.998  28.562  1.00  0.00     0.206 HD
HETATM   10  C5  UNL     1      52.494  -8.907  27.672  1.00  0.00     0.732 A 
HETATM   11  O1  UNL     1      53.518 -11.115  30.044  1.00  0.00    -0.284 OA
ENDROOT
BRANCH   2  12
HETATM   12  C3  UNL     1      54.700 -12.846  28.976  1.00  0.00     0.111 C 
HETATM   13  N1  UNL     1      55.804 -12.267  28.671  1.00  0.00    -0.407 N 
ATOM     14  H12 UNL     1      55.774 -11.262  28.501  1.00  0.00     0.155 HD
ATOM     15  H11 UNL     1      56.693 -12.760  28.593  1.00  0.00     0.155 HD
ENDBRANCH   2  12
BRANCH  10  16
HETATM   16  N6  UNL     1      52.177  -8.679  26.447  1.00  0.00    -0.136 N 
ATOM     17  H6  UNL     1      51.665  -9.379  25.909  1.00  0.00     0.205 HD
BRANCH  16  18
HETATM   18  N7  UNL     1      52.539  -7.470  25.864  1.00  0.00    -0.331 N 
ATOM     19  H72 UNL     1      53.340  -7.437  25.233  1.00  0.00     0.177 HD
ATOM     20  H71 UNL     1      51.997  -6.632  26.077  1.00  0.00     0.177 HD
ENDBRANCH  16  18
ENDBRANCH  10  16
TORSDOF 3
ENDMDL
MODEL 4
REMARK VINA RESULT: -6.159578487      1.742      2.363
REMARK  3 active torsions:
REMARK  status: ('A' for Active; 'I' for Inactive)
REMARK    1  A    between atoms: C2_2  and  C3_3 
REMARK    2  A    between atoms: C5_14  and  N6_15 
REMARK    3  A    between atoms: N6_15  and  N7_17 
ROOT
HETATM    1  C1  UNL     1      52.423 -13.417  27.462  1.00  0.00     0.074 C 
HETATM    2  C2  UNL     1      53.155 -12.913  28.691  1.00  0.00     0.189 C 
HETATM    3  N2  UNL     1      53.957 -11.789  28.278  1.00  0.00    -0.070 NA
HETATM    4  N3  UNL     1      53.395 -10.639  28.888  1.00  0.00    -0.044 N 
HETATM    5  C4  UNL     1      52.410 -11.024  29.715  1.00  0.00     0.276 A 
HETATM    6  N4  UNL     1      51.889  -9.925  30.284  1.00  0.00    -0.249 N 
ATOM      7  H4  UNL     1      51.122  -9.920  30.957  1.00  0.00     0.191 HD
HETATM    8  N5  UNL     1      52.516  -8.850  29.844  1.00  0.00    -0.126 N 
ATOM      9  H5  UNL     1      52.334  -7.881  30.104  1.00  0.00     0.206 HD
HETATM   10  C5  UNL     1      53.445  -9.298  28.982  1.00  0.00     0.732 A 
HETATM   11  O1  UNL     1      52.293 -12.419  29.675  1.00  0.00    -0.284 OA
ENDROOT
BRANCH   2  12
HETATM   12  C3  UNL     1      54.034 -13.950  29.275  1.00  0.00     0.111 C 
HETATM   13  N1  UNL     1      55.309 -13.832  29.358  1.00  0.00    -0.407 N 
ATOM     14  H12 UNL     1      55.722 -12.972  28.998  1.00  0.00     0.155 HD
ATOM     15  H11 UNL     1      55.914 -14.547  29.760  1.00  0.00     0.155 HD
ENDBRANCH   2  12
BRANCH  10  16
HETATM   16  N6  UNL     1      54.267  -8.548  28.335  1.00  0.00    -0.136 N 
ATOM     17  H6  UNL     1      55.271  -8.711  28.398  1.00  0.00     0.205 HD
BRANCH  16  18
HETATM   18  N7  UNL     1      53.769  -7.513  27.551  1.00  0.00    -0.331 N 
ATOM     19  H72 UNL     1      52.764  -7.336  27.534  1.00  0.00     0.177 HD
ATOM     20  H71 UNL     1      54.418  -6.945  27.006  1.00  0.00     0.177 HD
ENDBRANCH  16  18
ENDBRANCH  10  16
TORSDOF 3
ENDMDL
MODEL 5
REMARK VINA RESULT: -6.104834116      1.942      4.421
REMARK  3 active torsions:
REMARK  status: ('A' for Active; 'I' for Inactive)
REMARK    1  A    between atoms: C2_2  and  C3_3 
REMARK    2  A    between atoms: C5_14  and  N6_15 
REMARK    3  A    between atoms: N6_15  and  N7_17 
ROOT
HETATM    1  C1  UNL     1      51.440  -8.600  29.872  1.00  0.00     0.074 C 
HETATM    2  C2  UNL     1      52.274  -8.923  28.645  1.00  0.00     0.189 C 
HETATM    3  N2  UNL     1      53.457  -9.607  29.103  1.00  0.00    -0.070 NA
HETATM    4  N3  UNL     1      53.361 -10.944  28.642  1.00  0.00    -0.044 N 
HETATM    5  C4  UNL     1      52.280 -11.054  27.853  1.00  0.00     0.276 A 
HETATM    6  N4  UNL     1      52.205 -12.325  27.425  1.00  0.00    -0.249 N 
ATOM      7  H4  UNL     1      51.479 -12.693  26.810  1.00  0.00     0.191 HD
HETATM    8  N5  UNL     1      53.208 -13.026  27.917  1.00  0.00    -0.126 N 
ATOM      9  H5  UNL     1      53.403 -14.014  27.760  1.00  0.00     0.206 HD
HETATM   10  C5  UNL     1      53.919 -12.168  28.668  1.00  0.00     0.732 A 
HETATM   11  O1  UNL     1      51.639  -9.812  27.773  1.00  0.00    -0.284 OA
ENDROOT
BRANCH   2  12
HETATM   12  C3  UNL     1      52.670  -7.702  27.910  1.00  0.00     0.111 C 
HETATM   13  N1  UNL     1      53.873  -7.462  27.535  1.00  0.00    -0.407 N 
ATOM     14  H12 UNL     1      54.581  -8.160  27.764  1.00  0.00     0.155 HD
ATOM     15  H11 UNL     1      54.146  -6.621  27.028  1.00  0.00     0.155 HD
ENDBRANCH   2  12
BRANCH  10  16
HETATM   16  N6  UNL     1      54.983 -12.474  29.322  1.00  0.00    -0.136 N 
ATOM     17  H6  UNL     1      54.946 -12.612  30.332  1.00  0.00     0.205 HD
BRANCH  16  18
HETATM   18  N7  UNL     1      56.185 -12.615  28.637  1.00  0.00    -0.331 N 
ATOM     19  H72 UNL     1      56.757 -13.446  28.793  1.00  0.00     0.177 HD
ATOM     20  H71 UNL     1      56.477 -11.885  27.987  1.00  0.00     0.177 HD
ENDBRANCH  16  18
ENDBRANCH  10  16
TORSDOF 3
ENDMDL
