MODEL 1
REMARK VINA RESULT: -7.962228723      0.000      0.000
REMARK  3 active torsions:
REMARK  status: ('A' for Active; 'I' for Inactive)
REMARK    1  A    between atoms: C3_4  and  N1_5 
REMARK    2  A    between atoms: N1_5  and  N2_7 
REMARK    3  A    between atoms: N2_7  and  C4_9 
ROOT
HETATM    1  O1  UNL     1     -11.663 -27.128 -28.747  1.00  0.00    -0.268 OA
HETATM    2  C1  UNL     1     -11.680 -27.626 -27.602  1.00  0.00     0.251 C 
HETATM    3  C2  UNL     1     -12.925 -28.027 -27.114  1.00  0.00     0.124 C 
HETATM    4  C3  UNL     1     -13.223 -28.490 -25.833  1.00  0.00     0.128 C 
HETATM    5  N4  UNL     1     -12.359 -29.247 -25.096  1.00  0.00    -0.304 N 
ATOM      6  H4  UNL     1     -12.783 -29.812 -24.360  1.00  0.00     0.171 HD
HETATM    7  C9  UNL     1     -11.008 -29.350 -25.212  1.00  0.00     0.315 C 
HETATM    8  O2  UNL     1     -10.481 -30.312 -24.582  1.00  0.00    -0.262 OA
HETATM    9  C10 UNL     1     -10.178 -28.508 -25.943  1.00  0.00     0.316 C 
HETATM   10  O3  UNL     1      -8.992 -28.506 -25.558  1.00  0.00    -0.262 OA
HETATM   11  N5  UNL     1     -10.477 -27.707 -27.000  1.00  0.00    -0.286 N 
ATOM     12  H5  UNL     1      -9.730 -27.117 -27.367  1.00  0.00     0.172 HD
ENDROOT
BRANCH   4  13
HETATM   13  N1  UNL     1     -14.475 -28.155 -25.293  1.00  0.00    -0.285 N 
ATOM     14  H1  UNL     1     -14.778 -28.704 -24.488  1.00  0.00     0.188 HD
BRANCH  13  15
HETATM   15  N2  UNL     1     -15.342 -27.176 -25.716  1.00  0.00    -0.299 N 
ATOM     16  H2  UNL     1     -15.051 -26.198 -25.743  1.00  0.00     0.187 HD
BRANCH  15  17
HETATM   17  C4  UNL     1     -16.667 -27.560 -26.121  1.00  0.00     0.050 A 
HETATM   18  C5  UNL     1     -17.755 -27.213 -25.352  1.00  0.00     0.048 A 
HETATM   19  C6  UNL     1     -19.013 -27.599 -25.738  1.00  0.00     0.090 A 
HETATM   20  N3  UNL     1     -19.239 -28.321 -26.865  1.00  0.00    -0.375 N 
HETATM   21  C7  UNL     1     -18.176 -28.659 -27.614  1.00  0.00     0.090 A 
ATOM     22  H3  UNL     1     -20.183 -28.598 -27.134  1.00  0.00     0.164 HD
HETATM   23  C8  UNL     1     -16.899 -28.292 -27.263  1.00  0.00     0.048 A 
ENDBRANCH  15  17
ENDBRANCH  13  15
ENDBRANCH   4  13
TORSDOF 3
ENDMDL
MODEL 2
REMARK VINA RESULT: -7.948794893      0.019      1.101
REMARK  3 active torsions:
REMARK  status: ('A' for Active; 'I' for Inactive)
REMARK    1  A    between atoms: C3_4  and  N1_5 
REMARK    2  A    between atoms: N1_5  and  N2_7 
REMARK    3  A    between atoms: N2_7  and  C4_9 
ROOT
HETATM    1  O1  UNL     1     -11.655 -27.146 -28.761  1.00  0.00    -0.268 OA
HETATM    2  C1  UNL     1     -11.675 -27.640 -27.615  1.00  0.00     0.251 C 
HETATM    3  C2  UNL     1     -12.921 -28.032 -27.126  1.00  0.00     0.124 C 
HETATM    4  C3  UNL     1     -13.223 -28.489 -25.843  1.00  0.00     0.128 C 
HETATM    5  N4  UNL     1     -12.362 -29.248 -25.103  1.00  0.00    -0.304 N 
ATOM      6  H4  UNL     1     -12.789 -29.807 -24.364  1.00  0.00     0.171 HD
HETATM    7  C9  UNL     1     -11.012 -29.358 -25.218  1.00  0.00     0.315 C 
HETATM    8  O2  UNL     1     -10.490 -30.321 -24.585  1.00  0.00    -0.262 OA
HETATM    9  C10 UNL     1     -10.177 -28.524 -25.953  1.00  0.00     0.316 C 
HETATM   10  O3  UNL     1      -8.992 -28.527 -25.568  1.00  0.00    -0.262 OA
HETATM   11  N5  UNL     1     -10.472 -27.724 -27.013  1.00  0.00    -0.286 N 
ATOM     12  H5  UNL     1      -9.722 -27.140 -27.382  1.00  0.00     0.172 HD
ENDROOT
BRANCH   4  13
HETATM   13  N1  UNL     1     -14.472 -28.144 -25.303  1.00  0.00    -0.285 N 
ATOM     14  H1  UNL     1     -14.769 -28.676 -24.485  1.00  0.00     0.188 HD
BRANCH  13  15
HETATM   15  N2  UNL     1     -15.344 -27.178 -25.744  1.00  0.00    -0.299 N 
ATOM     16  H2  UNL     1     -15.051 -26.203 -25.811  1.00  0.00     0.187 HD
BRANCH  15  17
HETATM   17  C4  UNL     1     -16.679 -27.571 -26.109  1.00  0.00     0.050 A 
HETATM   18  C5  UNL     1     -16.898 -28.296 -27.259  1.00  0.00     0.048 A 
HETATM   19  C6  UNL     1     -18.177 -28.650 -27.606  1.00  0.00     0.090 A 
HETATM   20  N3  UNL     1     -19.256 -28.313 -26.854  1.00  0.00    -0.375 N 
HETATM   21  C7  UNL     1     -19.039 -27.605 -25.733  1.00  0.00     0.090 A 
ATOM     22  H3  UNL     1     -20.198 -28.587 -27.131  1.00  0.00     0.164 HD
HETATM   23  C8  UNL     1     -17.774 -27.230 -25.348  1.00  0.00     0.048 A 
ENDBRANCH  15  17
ENDBRANCH  13  15
ENDBRANCH   4  13
TORSDOF 3
ENDMDL
MODEL 3
REMARK VINA RESULT: -7.891686853      1.638      2.436
REMARK  3 active torsions:
REMARK  status: ('A' for Active; 'I' for Inactive)
REMARK    1  A    between atoms: C3_4  and  N1_5 
REMARK    2  A    between atoms: N1_5  and  N2_7 
REMARK    3  A    between atoms: N2_7  and  C4_9 
ROOT
HETATM    1  O1  UNL     1     -11.621 -27.221 -28.717  1.00  0.00    -0.268 OA
HETATM    2  C1  UNL     1     -11.637 -27.786 -27.604  1.00  0.00     0.251 C 
HETATM    3  C2  UNL     1     -12.832 -28.406 -27.236  1.00  0.00     0.124 C 
HETATM    4  C3  UNL     1     -13.140 -28.989 -26.007  1.00  0.00     0.128 C 
HETATM    5  N4  UNL     1     -12.218 -29.645 -25.243  1.00  0.00    -0.304 N 
ATOM      6  H4  UNL     1     -12.596 -30.314 -24.571  1.00  0.00     0.171 HD
HETATM    7  C9  UNL     1     -10.864 -29.527 -25.257  1.00  0.00     0.315 C 
HETATM    8  O2  UNL     1     -10.234 -30.432 -24.637  1.00  0.00    -0.262 OA
HETATM    9  C10 UNL     1     -10.132 -28.522 -25.878  1.00  0.00     0.316 C 
HETATM   10  O3  UNL     1      -8.992 -28.358 -25.402  1.00  0.00    -0.262 OA
HETATM   11  N5  UNL     1     -10.482 -27.714 -26.914  1.00  0.00    -0.286 N 
ATOM     12  H5  UNL     1      -9.816 -26.993 -27.191  1.00  0.00     0.172 HD
ENDROOT
BRANCH   4  13
HETATM   13  N1  UNL     1     -14.464 -28.889 -25.551  1.00  0.00    -0.285 N 
ATOM     14  H1  UNL     1     -14.733 -29.536 -24.809  1.00  0.00     0.188 HD
BRANCH  13  15
HETATM   15  N2  UNL     1     -15.442 -28.024 -25.981  1.00  0.00    -0.299 N 
ATOM     16  H2  UNL     1     -15.933 -28.188 -26.860  1.00  0.00     0.187 HD
BRANCH  15  17
HETATM   17  C4  UNL     1     -15.756 -26.881 -25.165  1.00  0.00     0.050 A 
HETATM   18  C5  UNL     1     -14.761 -26.015 -24.771  1.00  0.00     0.048 A 
HETATM   19  C6  UNL     1     -15.069 -24.939 -23.979  1.00  0.00     0.090 A 
HETATM   20  N3  UNL     1     -16.334 -24.684 -23.557  1.00  0.00    -0.375 N 
HETATM   21  C7  UNL     1     -17.304 -25.531 -23.942  1.00  0.00     0.090 A 
ATOM     22  H3  UNL     1     -16.542 -23.878 -22.969  1.00  0.00     0.164 HD
HETATM   23  C8  UNL     1     -17.038 -26.621 -24.736  1.00  0.00     0.048 A 
ENDBRANCH  15  17
ENDBRANCH  13  15
ENDBRANCH   4  13
TORSDOF 3
ENDMDL
MODEL 4
REMARK VINA RESULT: -7.883711614      1.652      2.395
REMARK  3 active torsions:
REMARK  status: ('A' for Active; 'I' for Inactive)
REMARK    1  A    between atoms: C3_4  and  N1_5 
REMARK    2  A    between atoms: N1_5  and  N2_7 
REMARK    3  A    between atoms: N2_7  and  C4_9 
ROOT
HETATM    1  O1  UNL     1     -11.640 -27.215 -28.684  1.00  0.00    -0.268 OA
HETATM    2  C1  UNL     1     -11.653 -27.782 -27.572  1.00  0.00     0.251 C 
HETATM    3  C2  UNL     1     -12.846 -28.403 -27.202  1.00  0.00     0.124 C 
HETATM    4  C3  UNL     1     -13.151 -28.989 -25.973  1.00  0.00     0.128 C 
HETATM    5  N4  UNL     1     -12.227 -29.648 -25.214  1.00  0.00    -0.304 N 
ATOM      6  H4  UNL     1     -12.603 -30.318 -24.543  1.00  0.00     0.171 HD
HETATM    7  C9  UNL     1     -10.873 -29.530 -25.232  1.00  0.00     0.315 C 
HETATM    8  O2  UNL     1     -10.241 -30.436 -24.616  1.00  0.00    -0.262 OA
HETATM    9  C10 UNL     1     -10.142 -28.524 -25.853  1.00  0.00     0.316 C 
HETATM   10  O3  UNL     1      -9.000 -28.361 -25.380  1.00  0.00    -0.262 OA
HETATM   11  N5  UNL     1     -10.495 -27.712 -26.885  1.00  0.00    -0.286 N 
ATOM     12  H5  UNL     1      -9.830 -26.990 -27.162  1.00  0.00     0.172 HD
ENDROOT
BRANCH   4  13
HETATM   13  N1  UNL     1     -14.474 -28.889 -25.512  1.00  0.00    -0.285 N 
ATOM     14  H1  UNL     1     -14.744 -29.547 -24.781  1.00  0.00     0.188 HD
BRANCH  13  15
HETATM   15  N2  UNL     1     -15.447 -28.013 -25.927  1.00  0.00    -0.299 N 
ATOM     16  H2  UNL     1     -15.951 -28.168 -26.800  1.00  0.00     0.187 HD
BRANCH  15  17
HETATM   17  C4  UNL     1     -15.740 -26.871 -25.102  1.00  0.00     0.050 A 
HETATM   18  C5  UNL     1     -17.036 -26.610 -24.714  1.00  0.00     0.048 A 
HETATM   19  C6  UNL     1     -17.306 -25.510 -23.941  1.00  0.00     0.090 A 
HETATM   20  N3  UNL     1     -16.338 -24.650 -23.534  1.00  0.00    -0.375 N 
HETATM   21  C7  UNL     1     -15.074 -24.906 -23.915  1.00  0.00     0.090 A 
ATOM     22  H3  UNL     1     -16.561 -23.837 -22.960  1.00  0.00     0.164 HD
HETATM   23  C8  UNL     1     -14.760 -25.998 -24.688  1.00  0.00     0.048 A 
ENDBRANCH  15  17
ENDBRANCH  13  15
ENDBRANCH   4  13
TORSDOF 3
ENDMDL
MODEL 5
REMARK VINA RESULT: -7.673745035      2.839      4.099
REMARK  3 active torsions:
REMARK  status: ('A' for Active; 'I' for Inactive)
REMARK    1  A    between atoms: C3_4  and  N1_5 
REMARK    2  A    between atoms: N1_5  and  N2_7 
REMARK    3  A    between atoms: N2_7  and  C4_9 
ROOT
HETATM    1  O1  UNL     1     -11.009 -27.223 -28.085  1.00  0.00    -0.268 OA
HETATM    2  C1  UNL     1     -12.158 -27.633 -27.820  1.00  0.00     0.251 C 
HETATM    3  C2  UNL     1     -12.825 -26.990 -26.777  1.00  0.00     0.124 C 
HETATM    4  C3  UNL     1     -14.052 -27.339 -26.213  1.00  0.00     0.128 C 
HETATM    5  N4  UNL     1     -15.079 -27.870 -26.938  1.00  0.00    -0.304 N 
ATOM      6  H4  UNL     1     -16.009 -27.762 -26.533  1.00  0.00     0.171 HD
HETATM    7  C9  UNL     1     -15.029 -28.525 -28.129  1.00  0.00     0.315 C 
HETATM    8  O2  UNL     1     -16.143 -28.684 -28.708  1.00  0.00    -0.262 OA
HETATM    9  C10 UNL     1     -13.888 -29.022 -28.748  1.00  0.00     0.316 C 
HETATM   10  O3  UNL     1     -14.112 -29.942 -29.559  1.00  0.00    -0.262 OA
HETATM   11  N5  UNL     1     -12.590 -28.649 -28.593  1.00  0.00    -0.286 N 
ATOM     12  H5  UNL     1     -11.886 -29.182 -29.103  1.00  0.00     0.172 HD
ENDROOT
BRANCH   4  13
HETATM   13  N1  UNL     1     -14.222 -27.126 -24.836  1.00  0.00    -0.285 N 
ATOM     14  H1  UNL     1     -14.314 -27.963 -24.261  1.00  0.00     0.188 HD
BRANCH  13  15
HETATM   15  N2  UNL     1     -14.278 -25.926 -24.168  1.00  0.00    -0.299 N 
ATOM     16  H2  UNL     1     -13.426 -25.472 -23.839  1.00  0.00     0.187 HD
BRANCH  15  17
HETATM   17  C4  UNL     1     -15.566 -25.324 -23.945  1.00  0.00     0.050 A 
HETATM   18  C5  UNL     1     -15.668 -23.970 -23.715  1.00  0.00     0.048 A 
HETATM   19  C6  UNL     1     -16.898 -23.410 -23.486  1.00  0.00     0.090 A 
HETATM   20  N3  UNL     1     -18.041 -24.142 -23.475  1.00  0.00    -0.375 N 
HETATM   21  C7  UNL     1     -17.939 -25.463 -23.698  1.00  0.00     0.090 A 
ATOM     22  H3  UNL     1     -18.946 -23.705 -23.302  1.00  0.00     0.164 HD
HETATM   23  C8  UNL     1     -16.726 -26.064 -23.933  1.00  0.00     0.048 A 
ENDBRANCH  15  17
ENDBRANCH  13  15
ENDBRANCH   4  13
TORSDOF 3
ENDMDL
