MODEL 1
REMARK VINA RESULT: -8.060706177      0.000      0.000
REMARK  7 active torsions:
REMARK  status: ('A' for Active; 'I' for Inactive)
REMARK    1  A    between atoms: C5_5  and  C6_6 
REMARK    2  A    between atoms: C6_6  and  C7_7 
REMARK    3  A    between atoms: C14_15  and  O2_16 
REMARK    4  A    between atoms: O2_16  and  C15_17 
REMARK    5  A    between atoms: C15_17  and  C16_19 
REMARK    6  A    between atoms: C20_23  and  O4_24 
REMARK    7  A    between atoms: C22_28  and  O6_29 
ROOT
HETATM    1  C1  UNL     1      21.850  14.925  64.113  1.00  0.00     0.017 C 
HETATM    2  C2  UNL     1      21.531  15.718  63.108  1.00  0.00    -0.048 C 
HETATM    3  C3  UNL     1      20.110  16.000  62.946  1.00  0.00     0.073 C 
HETATM    4  C4  UNL     1      19.157  15.350  63.823  1.00  0.00     0.017 C 
HETATM    5  C5  UNL     1      18.229  16.256  64.123  1.00  0.00     0.044 C 
HETATM    6  O1  UNL     1      18.541  17.469  63.484  1.00  0.00    -0.347 OA
HETATM    7  C9  UNL     1      19.937  17.433  63.408  1.00  0.00     0.169 C 
HETATM    8  C10 UNL     1      20.693  18.423  62.695  1.00  0.00     0.153 C 
HETATM    9  C11 UNL     1      20.876  18.260  61.194  1.00  0.00     0.042 C 
HETATM   10  C12 UNL     1      22.277  18.517  61.085  1.00  0.00     0.031 C 
HETATM   11  C13 UNL     1      23.173  18.097  60.043  1.00  0.00     0.043 C 
HETATM   12  C14 UNL     1      24.477  18.374  60.751  1.00  0.00     0.164 C 
HETATM   13  C20 UNL     1      24.221  18.192  62.234  1.00  0.00     0.185 C 
HETATM   14  C21 UNL     1      22.793  17.721  62.310  1.00  0.00     0.123 C 
HETATM   15  O5  UNL     1      22.015  18.393  63.237  1.00  0.00    -0.366 OA
HETATM   16  C22 UNL     1      22.596  16.269  62.221  1.00  0.00     0.184 C 
ENDROOT
BRANCH  12  17
HETATM   17  O2  UNL     1      25.606  17.768  60.277  1.00  0.00    -0.310 OA
BRANCH  17  18
HETATM   18  C15 UNL     1      26.737  18.336  59.761  1.00  0.00     0.283 C 
HETATM   19  O3  UNL     1      27.100  19.347  60.411  1.00  0.00    -0.260 OA
BRANCH  18  20
HETATM   20  C16 UNL     1      27.479  17.878  58.603  1.00  0.00     0.084 C 
HETATM   21  C17 UNL     1      28.395  16.939  58.629  1.00  0.00    -0.082 C 
HETATM   22  C18 UNL     1      28.761  16.249  59.890  1.00  0.00     0.043 C 
HETATM   23  C19 UNL     1      29.125  16.517  57.381  1.00  0.00     0.043 C 
ENDBRANCH  18  20
ENDBRANCH  17  18
ENDBRANCH  12  17
BRANCH  13  24
HETATM   24  O4  UNL     1      25.137  17.393  62.849  1.00  0.00    -0.390 OA
ATOM     25  H4  UNL     1      25.143  17.482  63.795  1.00  0.00     0.210 HD
ENDBRANCH  13  24
BRANCH  16  26
HETATM   26  O6  UNL     1      23.749  15.503  62.511  1.00  0.00    -0.388 OA
ATOM     27  H6  UNL     1      24.457  15.937  62.050  1.00  0.00     0.210 HD
ENDBRANCH  16  26
BRANCH   5  28
HETATM   28  C6  UNL     1      17.044  16.000  65.009  1.00  0.00     0.064 C 
BRANCH  28  29
HETATM   29  C7  UNL     1      17.406  15.228  66.245  1.00  0.00     0.002 C 
HETATM   30  C8  UNL     1      16.187  14.512  66.788  1.00  0.00     0.005 C 
ENDBRANCH  28  29
ENDBRANCH   5  28
TORSDOF 7
ENDMDL
MODEL 2
REMARK VINA RESULT: -8.055533634      2.743      3.640
REMARK  7 active torsions:
REMARK  status: ('A' for Active; 'I' for Inactive)
REMARK    1  A    between atoms: C5_5  and  C6_6 
REMARK    2  A    between atoms: C6_6  and  C7_7 
REMARK    3  A    between atoms: C14_15  and  O2_16 
REMARK    4  A    between atoms: O2_16  and  C15_17 
REMARK    5  A    between atoms: C15_17  and  C16_19 
REMARK    6  A    between atoms: C20_23  and  O4_24 
REMARK    7  A    between atoms: C22_28  and  O6_29 
ROOT
HETATM    1  C1  UNL     1      22.894  16.050  64.010  1.00  0.00     0.017 C 
HETATM    2  C2  UNL     1      22.258  16.754  63.094  1.00  0.00    -0.048 C 
HETATM    3  C3  UNL     1      20.866  16.389  62.862  1.00  0.00     0.073 C 
HETATM    4  C4  UNL     1      20.306  15.258  63.574  1.00  0.00     0.017 C 
HETATM    5  C5  UNL     1      19.065  15.595  63.917  1.00  0.00     0.044 C 
HETATM    6  O1  UNL     1      18.795  16.899  63.464  1.00  0.00    -0.347 OA
HETATM    7  C9  UNL     1      20.056  17.505  63.489  1.00  0.00     0.169 C 
HETATM    8  C10 UNL     1      20.284  18.823  62.968  1.00  0.00     0.153 C 
HETATM    9  C11 UNL     1      20.535  18.984  61.476  1.00  0.00     0.042 C 
HETATM   10  C12 UNL     1      21.666  19.856  61.507  1.00  0.00     0.031 C 
HETATM   11  C13 UNL     1      22.665  20.043  60.491  1.00  0.00     0.043 C 
HETATM   12  C14 UNL     1      23.693  20.768  61.324  1.00  0.00     0.164 C 
HETATM   13  C20 UNL     1      23.534  20.273  62.748  1.00  0.00     0.185 C 
HETATM   14  C21 UNL     1      22.476  19.205  62.656  1.00  0.00     0.123 C 
HETATM   15  O5  UNL     1      21.469  19.310  63.599  1.00  0.00    -0.366 OA
HETATM   16  C22 UNL     1      22.963  17.850  62.367  1.00  0.00     0.184 C 
ENDROOT
BRANCH  12  17
HETATM   17  O2  UNL     1      24.978  20.811  60.863  1.00  0.00    -0.310 OA
BRANCH  17  18
HETATM   18  C15 UNL     1      25.789  21.895  60.673  1.00  0.00     0.283 C 
HETATM   19  O3  UNL     1      26.902  21.577  60.186  1.00  0.00    -0.260 OA
BRANCH  18  20
HETATM   20  C16 UNL     1      25.467  23.275  60.978  1.00  0.00     0.084 C 
HETATM   21  C17 UNL     1      25.609  23.829  62.159  1.00  0.00    -0.082 C 
HETATM   22  C18 UNL     1      26.127  23.061  63.317  1.00  0.00     0.043 C 
HETATM   23  C19 UNL     1      25.250  25.271  62.400  1.00  0.00     0.043 C 
ENDBRANCH  18  20
ENDBRANCH  17  18
ENDBRANCH  12  17
BRANCH  13  24
HETATM   24  O4  UNL     1      24.708  19.889  63.323  1.00  0.00    -0.390 OA
ATOM     25  H4  UNL     1      25.447  20.430  63.071  1.00  0.00     0.210 HD
ENDBRANCH  13  24
BRANCH  16  26
HETATM   26  O6  UNL     1      24.336  17.650  62.643  1.00  0.00    -0.388 OA
ATOM     27  H6  UNL     1      24.797  18.117  61.956  1.00  0.00     0.210 HD
ENDBRANCH  16  26
BRANCH   5  28
HETATM   28  C6  UNL     1      18.118  14.706  64.671  1.00  0.00     0.064 C 
BRANCH  28  29
HETATM   29  C7  UNL     1      17.259  15.469  65.637  1.00  0.00     0.002 C 
HETATM   30  C8  UNL     1      15.882  15.692  65.047  1.00  0.00     0.005 C 
ENDBRANCH  28  29
ENDBRANCH   5  28
TORSDOF 7
ENDMDL
MODEL 3
REMARK VINA RESULT: -8.031426400      2.709      3.308
REMARK  7 active torsions:
REMARK  status: ('A' for Active; 'I' for Inactive)
REMARK    1  A    between atoms: C5_5  and  C6_6 
REMARK    2  A    between atoms: C6_6  and  C7_7 
REMARK    3  A    between atoms: C14_15  and  O2_16 
REMARK    4  A    between atoms: O2_16  and  C15_17 
REMARK    5  A    between atoms: C15_17  and  C16_19 
REMARK    6  A    between atoms: C20_23  and  O4_24 
REMARK    7  A    between atoms: C22_28  and  O6_29 
ROOT
HETATM    1  C1  UNL     1      23.424  16.312  63.689  1.00  0.00     0.017 C 
HETATM    2  C2  UNL     1      22.712  17.040  62.851  1.00  0.00    -0.048 C 
HETATM    3  C3  UNL     1      21.326  16.628  62.666  1.00  0.00     0.073 C 
HETATM    4  C4  UNL     1      20.852  15.433  63.334  1.00  0.00     0.017 C 
HETATM    5  C5  UNL     1      19.617  15.693  63.758  1.00  0.00     0.044 C 
HETATM    6  O1  UNL     1      19.270  17.008  63.400  1.00  0.00    -0.347 OA
HETATM    7  C9  UNL     1      20.504  17.667  63.400  1.00  0.00     0.169 C 
HETATM    8  C10 UNL     1      20.650  19.022  62.951  1.00  0.00     0.153 C 
HETATM    9  C11 UNL     1      20.815  19.283  61.461  1.00  0.00     0.042 C 
HETATM   10  C12 UNL     1      21.909  20.202  61.489  1.00  0.00     0.031 C 
HETATM   11  C13 UNL     1      22.845  20.493  60.439  1.00  0.00     0.043 C 
HETATM   12  C14 UNL     1      23.884  21.212  61.263  1.00  0.00     0.164 C 
HETATM   13  C20 UNL     1      23.820  20.627  62.660  1.00  0.00     0.185 C 
HETATM   14  C21 UNL     1      22.805  19.520  62.555  1.00  0.00     0.123 C 
HETATM   15  O5  UNL     1      21.845  19.524  63.551  1.00  0.00    -0.366 OA
HETATM   16  C22 UNL     1      23.332  18.208  62.159  1.00  0.00     0.184 C 
ENDROOT
BRANCH  12  17
HETATM   17  O2  UNL     1      25.140  21.340  60.742  1.00  0.00    -0.310 OA
BRANCH  17  18
HETATM   18  C15 UNL     1      25.687  22.391  60.059  1.00  0.00     0.283 C 
HETATM   19  O3  UNL     1      24.883  23.347  59.935  1.00  0.00    -0.260 OA
BRANCH  18  20
HETATM   20  C16 UNL     1      27.028  22.457  59.513  1.00  0.00     0.084 C 
HETATM   21  C17 UNL     1      27.968  23.263  59.944  1.00  0.00    -0.082 C 
HETATM   22  C18 UNL     1      27.727  24.206  61.063  1.00  0.00     0.043 C 
HETATM   23  C19 UNL     1      29.341  23.275  59.324  1.00  0.00     0.043 C 
ENDBRANCH  18  20
ENDBRANCH  17  18
ENDBRANCH  12  17
BRANCH  13  24
HETATM   24  O4  UNL     1      25.038  20.262  63.152  1.00  0.00    -0.390 OA
ATOM     25  H4  UNL     1      24.993  19.564  63.794  1.00  0.00     0.210 HD
ENDBRANCH  13  24
BRANCH  16  26
HETATM   26  O6  UNL     1      24.724  18.053  62.354  1.00  0.00    -0.388 OA
ATOM     27  H6  UNL     1      25.114  18.839  61.987  1.00  0.00     0.210 HD
ENDBRANCH  16  26
BRANCH   5  28
HETATM   28  C6  UNL     1      18.749  14.719  64.502  1.00  0.00     0.064 C 
BRANCH  28  29
HETATM   29  C7  UNL     1      17.584  15.385  65.175  1.00  0.00     0.002 C 
HETATM   30  C8  UNL     1      17.610  15.101  66.662  1.00  0.00     0.005 C 
ENDBRANCH  28  29
ENDBRANCH   5  28
TORSDOF 7
ENDMDL
MODEL 4
REMARK VINA RESULT: -7.949502075      1.199      1.609
REMARK  7 active torsions:
REMARK  status: ('A' for Active; 'I' for Inactive)
REMARK    1  A    between atoms: C5_5  and  C6_6 
REMARK    2  A    between atoms: C6_6  and  C7_7 
REMARK    3  A    between atoms: C14_15  and  O2_16 
REMARK    4  A    between atoms: O2_16  and  C15_17 
REMARK    5  A    between atoms: C15_17  and  C16_19 
REMARK    6  A    between atoms: C20_23  and  O4_24 
REMARK    7  A    between atoms: C22_28  and  O6_29 
ROOT
HETATM    1  C1  UNL     1      21.956  15.253  64.328  1.00  0.00     0.017 C 
HETATM    2  C2  UNL     1      21.621  15.931  63.248  1.00  0.00    -0.048 C 
HETATM    3  C3  UNL     1      20.191  16.065  62.998  1.00  0.00     0.073 C 
HETATM    4  C4  UNL     1      19.255  15.400  63.880  1.00  0.00     0.017 C 
HETATM    5  C5  UNL     1      18.235  16.236  64.062  1.00  0.00     0.044 C 
HETATM    6  O1  UNL     1      18.470  17.419  63.339  1.00  0.00    -0.347 OA
HETATM    7  C9  UNL     1      19.866  17.508  63.330  1.00  0.00     0.169 C 
HETATM    8  C10 UNL     1      20.567  18.505  62.573  1.00  0.00     0.153 C 
HETATM    9  C11 UNL     1      20.844  18.243  61.100  1.00  0.00     0.042 C 
HETATM   10  C12 UNL     1      22.220  18.620  61.035  1.00  0.00     0.031 C 
HETATM   11  C13 UNL     1      23.205  18.206  60.074  1.00  0.00     0.043 C 
HETATM   12  C14 UNL     1      24.439  18.658  60.815  1.00  0.00     0.164 C 
HETATM   13  C20 UNL     1      24.121  18.571  62.295  1.00  0.00     0.185 C 
HETATM   14  C21 UNL     1      22.739  17.975  62.345  1.00  0.00     0.123 C 
HETATM   15  O5  UNL     1      21.855  18.642  63.175  1.00  0.00    -0.366 OA
HETATM   16  C22 UNL     1      22.678  16.508  62.367  1.00  0.00     0.184 C 
ENDROOT
BRANCH  12  17
HETATM   17  O2  UNL     1      25.640  18.125  60.445  1.00  0.00    -0.310 OA
BRANCH  17  18
HETATM   18  C15 UNL     1      25.901  16.931  59.832  1.00  0.00     0.283 C 
HETATM   19  O3  UNL     1      26.215  17.075  58.625  1.00  0.00    -0.260 OA
BRANCH  18  20
HETATM   20  C16 UNL     1      25.840  15.619  60.445  1.00  0.00     0.084 C 
HETATM   21  C17 UNL     1      26.815  15.071  61.131  1.00  0.00    -0.082 C 
HETATM   22  C18 UNL     1      28.104  15.774  61.342  1.00  0.00     0.043 C 
HETATM   23  C19 UNL     1      26.677  13.700  61.738  1.00  0.00     0.043 C 
ENDBRANCH  18  20
ENDBRANCH  17  18
ENDBRANCH  12  17
BRANCH  13  24
HETATM   24  O4  UNL     1      25.071  17.912  63.015  1.00  0.00    -0.390 OA
ATOM     25  H4  UNL     1      25.594  18.484  63.565  1.00  0.00     0.210 HD
ENDBRANCH  13  24
BRANCH  16  26
HETATM   26  O6  UNL     1      23.878  15.879  62.773  1.00  0.00    -0.388 OA
ATOM     27  H6  UNL     1      24.570  16.476  62.514  1.00  0.00     0.210 HD
ENDBRANCH  16  26
BRANCH   5  28
HETATM   28  C6  UNL     1      17.032  15.940  64.911  1.00  0.00     0.064 C 
BRANCH  28  29
HETATM   29  C7  UNL     1      17.389  15.239  66.190  1.00  0.00     0.002 C 
HETATM   30  C8  UNL     1      16.174  14.534  66.755  1.00  0.00     0.005 C 
ENDBRANCH  28  29
ENDBRANCH   5  28
TORSDOF 7
ENDMDL
MODEL 5
REMARK VINA RESULT: -7.873837321      1.083      1.465
REMARK  7 active torsions:
REMARK  status: ('A' for Active; 'I' for Inactive)
REMARK    1  A    between atoms: C5_5  and  C6_6 
REMARK    2  A    between atoms: C6_6  and  C7_7 
REMARK    3  A    between atoms: C14_15  and  O2_16 
REMARK    4  A    between atoms: O2_16  and  C15_17 
REMARK    5  A    between atoms: C15_17  and  C16_19 
REMARK    6  A    between atoms: C20_23  and  O4_24 
REMARK    7  A    between atoms: C22_28  and  O6_29 
ROOT
HETATM    1  C1  UNL     1      21.978  14.794  64.159  1.00  0.00     0.017 C 
HETATM    2  C2  UNL     1      21.685  15.575  63.138  1.00  0.00    -0.048 C 
HETATM    3  C3  UNL     1      20.272  15.880  62.954  1.00  0.00     0.073 C 
HETATM    4  C4  UNL     1      19.297  15.263  63.830  1.00  0.00     0.017 C 
HETATM    5  C5  UNL     1      18.383  16.191  64.104  1.00  0.00     0.044 C 
HETATM    6  O1  UNL     1      18.724  17.387  63.448  1.00  0.00    -0.347 OA
HETATM    7  C9  UNL     1      20.120  17.324  63.389  1.00  0.00     0.169 C 
HETATM    8  C10 UNL     1      20.903  18.287  62.669  1.00  0.00     0.153 C 
HETATM    9  C11 UNL     1      21.100  18.096  61.172  1.00  0.00     0.042 C 
HETATM   10  C12 UNL     1      22.506  18.325  61.076  1.00  0.00     0.031 C 
HETATM   11  C13 UNL     1      23.407  17.871  60.052  1.00  0.00     0.043 C 
HETATM   12  C14 UNL     1      24.707  18.136  60.770  1.00  0.00     0.164 C 
HETATM   13  C20 UNL     1      24.430  17.985  62.253  1.00  0.00     0.185 C 
HETATM   14  C21 UNL     1      22.993  17.541  62.321  1.00  0.00     0.123 C 
HETATM   15  O5  UNL     1      22.217  18.243  63.226  1.00  0.00    -0.366 OA
HETATM   16  C22 UNL     1      22.770  16.091  62.254  1.00  0.00     0.184 C 
ENDROOT
BRANCH  12  17
HETATM   17  O2  UNL     1      25.829  17.501  60.320  1.00  0.00    -0.310 OA
BRANCH  17  18
HETATM   18  C15 UNL     1      26.805  17.967  59.483  1.00  0.00     0.283 C 
HETATM   19  O3  UNL     1      27.042  17.172  58.540  1.00  0.00    -0.260 OA
BRANCH  18  20
HETATM   20  C16 UNL     1      27.523  19.219  59.611  1.00  0.00     0.084 C 
HETATM   21  C17 UNL     1      28.378  19.492  60.569  1.00  0.00    -0.082 C 
HETATM   22  C18 UNL     1      28.688  18.508  61.634  1.00  0.00     0.043 C 
HETATM   23  C19 UNL     1      29.086  20.820  60.636  1.00  0.00     0.043 C 
ENDBRANCH  18  20
ENDBRANCH  17  18
ENDBRANCH  12  17
BRANCH  13  24
HETATM   24  O4  UNL     1      25.325  17.179  62.892  1.00  0.00    -0.390 OA
ATOM     25  H4  UNL     1      25.323  17.287  63.836  1.00  0.00     0.210 HD
ENDBRANCH  13  24
BRANCH  16  26
HETATM   26  O6  UNL     1      23.905  15.309  62.571  1.00  0.00    -0.388 OA
ATOM     27  H6  UNL     1      23.623  14.409  62.463  1.00  0.00     0.210 HD
ENDBRANCH  16  26
BRANCH   5  28
HETATM   28  C6  UNL     1      17.183  15.972  64.980  1.00  0.00     0.064 C 
BRANCH  28  29
HETATM   29  C7  UNL     1      17.513  15.201  66.225  1.00  0.00     0.002 C 
HETATM   30  C8  UNL     1      16.271  14.521  66.763  1.00  0.00     0.005 C 
ENDBRANCH  28  29
ENDBRANCH   5  28
TORSDOF 7
ENDMDL
