MODEL 1
REMARK VINA RESULT: -7.716906800      0.000      0.000
REMARK  6 active torsions:
REMARK  status: ('A' for Active; 'I' for Inactive)
REMARK    1  A    between atoms: C2_2  and  C3_3 
REMARK    2  A    between atoms: C2_2  and  C4_6 
REMARK    3  A    between atoms: C3_3  and  O1_4 
REMARK    4  A    between atoms: C5_7  and  C6_8 
REMARK    5  A    between atoms: C15_20  and  C16_21 
REMARK    6  A    between atoms: C20_25  and  O5_26 
ROOT
HETATM    1  C4  UNL     1      21.598  18.931  61.517  1.00  0.00    -0.051 C 
HETATM    2  C5  UNL     1      20.846  18.512  62.482  1.00  0.00    -0.016 C 
HETATM    3  C7  UNL     1      21.430  17.246  63.048  1.00  0.00     0.050 C 
HETATM    4  C8  UNL     1      22.187  16.666  61.890  1.00  0.00     0.042 C 
HETATM    5  C9  UNL     1      23.384  15.986  62.519  1.00  0.00     0.067 C 
HETATM    6  C10 UNL     1      22.864  15.149  63.704  1.00  0.00     0.046 C 
HETATM    7  C11 UNL     1      24.176  15.082  61.666  1.00  0.00     0.055 C 
HETATM    8  C12 UNL     1      25.633  15.543  61.793  1.00  0.00     0.118 C 
HETATM    9  C13 UNL     1      26.636  14.560  61.387  1.00  0.00     0.266 C 
HETATM   10  O3  UNL     1      26.901  13.339  61.514  1.00  0.00    -0.265 OA
HETATM   11  O4  UNL     1      27.293  15.607  60.708  1.00  0.00    -0.314 OA
HETATM   12  C14 UNL     1      26.013  16.174  60.512  1.00  0.00     0.150 C 
HETATM   13  C15 UNL     1      25.873  17.631  60.414  1.00  0.00     0.024 C 
HETATM   14  C19 UNL     1      25.277  18.391  61.512  1.00  0.00     0.077 C 
HETATM   15  C20 UNL     1      23.939  18.128  62.051  1.00  0.00     0.174 C 
HETATM   16  O6  UNL     1      24.075  17.063  62.996  1.00  0.00    -0.343 OA
HETATM   17  C21 UNL     1      22.752  17.950  61.285  1.00  0.00     0.043 C 
HETATM   18  C22 UNL     1      22.761  17.759  59.821  1.00  0.00     0.026 C 
ENDROOT
BRANCH   1  19
HETATM   19  C2  UNL     1      21.446  20.103  60.675  1.00  0.00     0.036 C 
HETATM   20  C1  UNL     1      22.300  21.291  61.123  1.00  0.00     0.017 C 
BRANCH  19  21
HETATM   21  C3  UNL     1      20.119  20.689  60.413  1.00  0.00     0.172 C 
BRANCH  21  22
HETATM   22  O1  UNL     1      19.515  19.976  59.308  1.00  0.00    -0.400 OA
ATOM     23  H1  UNL     1      19.100  19.192  59.649  1.00  0.00     0.209 HD
ENDBRANCH  21  22
ENDBRANCH  19  21
ENDBRANCH   1  19
BRANCH   2  24
HETATM   24  C6  UNL     1      19.617  18.999  63.103  1.00  0.00     0.265 C 
HETATM   25  O2  UNL     1      18.531  18.322  63.099  1.00  0.00    -0.302 OA
ENDBRANCH   2  24
BRANCH  15  26
HETATM   26  O5  UNL     1      23.712  19.200  62.956  1.00  0.00    -0.364 OA
ATOM     27  H5  UNL     1      24.110  18.907  63.768  1.00  0.00     0.213 HD
ENDBRANCH  15  26
BRANCH  13  28
HETATM   28  C16 UNL     1      27.279  18.236  60.209  1.00  0.00    -0.016 C 
HETATM   29  C17 UNL     1      27.609  18.531  58.795  1.00  0.00     0.010 C 
HETATM   30  C18 UNL     1      27.474  19.415  61.134  1.00  0.00     0.010 C 
ENDBRANCH  13  28
TORSDOF 6
ENDMDL
MODEL 2
REMARK VINA RESULT: -7.693967438      0.783      1.190
REMARK  6 active torsions:
REMARK  status: ('A' for Active; 'I' for Inactive)
REMARK    1  A    between atoms: C2_2  and  C3_3 
REMARK    2  A    between atoms: C2_2  and  C4_6 
REMARK    3  A    between atoms: C3_3  and  O1_4 
REMARK    4  A    between atoms: C5_7  and  C6_8 
REMARK    5  A    between atoms: C15_20  and  C16_21 
REMARK    6  A    between atoms: C20_25  and  O5_26 
ROOT
HETATM    1  C4  UNL     1      21.620  18.991  61.777  1.00  0.00    -0.051 C 
HETATM    2  C5  UNL     1      20.825  18.446  62.639  1.00  0.00    -0.016 C 
HETATM    3  C7  UNL     1      21.379  17.105  63.040  1.00  0.00     0.050 C 
HETATM    4  C8  UNL     1      22.182  16.690  61.844  1.00  0.00     0.042 C 
HETATM    5  C9  UNL     1      23.348  15.913  62.418  1.00  0.00     0.067 C 
HETATM    6  C10 UNL     1      22.773  14.920  63.447  1.00  0.00     0.046 C 
HETATM    7  C11 UNL     1      24.172  15.133  61.477  1.00  0.00     0.055 C 
HETATM    8  C12 UNL     1      25.624  15.555  61.731  1.00  0.00     0.118 C 
HETATM    9  C13 UNL     1      26.639  14.630  61.230  1.00  0.00     0.266 C 
HETATM   10  O3  UNL     1      26.892  13.401  61.190  1.00  0.00    -0.265 OA
HETATM   11  O4  UNL     1      27.329  15.756  60.738  1.00  0.00    -0.314 OA
HETATM   12  C14 UNL     1      26.062  16.360  60.572  1.00  0.00     0.150 C 
HETATM   13  C15 UNL     1      25.933  17.817  60.679  1.00  0.00     0.024 C 
HETATM   14  C19 UNL     1      25.294  18.417  61.849  1.00  0.00     0.077 C 
HETATM   15  C20 UNL     1      23.932  18.094  62.288  1.00  0.00     0.174 C 
HETATM   16  O6  UNL     1      24.022  16.902  63.074  1.00  0.00    -0.343 OA
HETATM   17  C21 UNL     1      22.779  18.041  61.455  1.00  0.00     0.043 C 
HETATM   18  C22 UNL     1      22.850  18.064  59.980  1.00  0.00     0.026 C 
ENDROOT
BRANCH   1  19
HETATM   19  C2  UNL     1      21.511  20.274  61.108  1.00  0.00     0.036 C 
HETATM   20  C1  UNL     1      20.587  20.250  59.889  1.00  0.00     0.017 C 
BRANCH  19  21
HETATM   21  C3  UNL     1      22.708  20.997  60.642  1.00  0.00     0.172 C 
BRANCH  21  22
HETATM   22  O1  UNL     1      23.386  21.548  61.795  1.00  0.00    -0.400 OA
ATOM     23  H1  UNL     1      23.436  20.874  62.463  1.00  0.00     0.209 HD
ENDBRANCH  21  22
ENDBRANCH  19  21
ENDBRANCH   1  19
BRANCH   2  24
HETATM   24  C6  UNL     1      19.573  18.851  63.272  1.00  0.00     0.265 C 
HETATM   25  O2  UNL     1      18.541  19.190  62.596  1.00  0.00    -0.302 OA
ENDBRANCH   2  24
BRANCH  15  26
HETATM   26  O5  UNL     1      23.672  19.026  63.328  1.00  0.00    -0.364 OA
ATOM     27  H5  UNL     1      24.518  19.422  63.504  1.00  0.00     0.213 HD
ENDBRANCH  15  26
BRANCH  13  28
HETATM   28  C16 UNL     1      27.349  18.430  60.623  1.00  0.00    -0.016 C 
HETATM   29  C17 UNL     1      27.698  19.027  59.313  1.00  0.00     0.010 C 
HETATM   30  C18 UNL     1      27.552  19.370  61.790  1.00  0.00     0.010 C 
ENDBRANCH  13  28
TORSDOF 6
ENDMDL
MODEL 3
REMARK VINA RESULT: -6.980353819      2.318      5.004
REMARK  6 active torsions:
REMARK  status: ('A' for Active; 'I' for Inactive)
REMARK    1  A    between atoms: C2_2  and  C3_3 
REMARK    2  A    between atoms: C2_2  and  C4_6 
REMARK    3  A    between atoms: C3_3  and  O1_4 
REMARK    4  A    between atoms: C5_7  and  C6_8 
REMARK    5  A    between atoms: C15_20  and  C16_21 
REMARK    6  A    between atoms: C20_25  and  O5_26 
ROOT
HETATM    1  C4  UNL     1      21.188  15.960  63.724  1.00  0.00    -0.051 C 
HETATM    2  C5  UNL     1      19.912  16.139  63.607  1.00  0.00    -0.016 C 
HETATM    3  C7  UNL     1      19.659  17.475  62.964  1.00  0.00     0.050 C 
HETATM    4  C8  UNL     1      20.868  18.277  63.344  1.00  0.00     0.042 C 
HETATM    5  C9  UNL     1      21.111  19.187  62.159  1.00  0.00     0.067 C 
HETATM    6  C10 UNL     1      19.755  19.815  61.779  1.00  0.00     0.046 C 
HETATM    7  C11 UNL     1      22.065  20.296  62.338  1.00  0.00     0.055 C 
HETATM    8  C12 UNL     1      23.069  20.186  61.185  1.00  0.00     0.118 C 
HETATM    9  C13 UNL     1      23.840  21.397  60.911  1.00  0.00     0.266 C 
HETATM   10  O3  UNL     1      23.683  22.638  60.795  1.00  0.00    -0.265 OA
HETATM   11  O4  UNL     1      24.978  20.572  60.808  1.00  0.00    -0.314 OA
HETATM   12  C14 UNL     1      24.354  19.730  61.755  1.00  0.00     0.150 C 
HETATM   13  C15 UNL     1      24.624  18.288  61.734  1.00  0.00     0.024 C 
HETATM   14  C19 UNL     1      23.603  17.353  61.263  1.00  0.00     0.077 C 
HETATM   15  C20 UNL     1      22.256  17.264  61.834  1.00  0.00     0.174 C 
HETATM   16  O6  UNL     1      21.471  18.280  61.203  1.00  0.00    -0.343 OA
HETATM   17  C21 UNL     1      21.941  17.196  63.221  1.00  0.00     0.043 C 
HETATM   18  C22 UNL     1      22.931  17.460  64.284  1.00  0.00     0.026 C 
ENDROOT
BRANCH   1  19
HETATM   19  C2  UNL     1      21.912  14.831  64.277  1.00  0.00     0.036 C 
HETATM   20  C1  UNL     1      23.357  14.732  63.786  1.00  0.00     0.017 C 
BRANCH  19  21
HETATM   21  C3  UNL     1      21.392  13.457  64.155  1.00  0.00     0.172 C 
BRANCH  21  22
HETATM   22  O1  UNL     1      22.478  12.594  63.743  1.00  0.00    -0.400 OA
ATOM     23  H1  UNL     1      22.878  12.223  64.522  1.00  0.00     0.209 HD
ENDBRANCH  21  22
ENDBRANCH  19  21
ENDBRANCH   1  19
BRANCH   2  24
HETATM   24  C6  UNL     1      18.735  15.344  63.947  1.00  0.00     0.265 C 
HETATM   25  O2  UNL     1      18.392  15.109  65.157  1.00  0.00    -0.302 OA
ENDBRANCH   2  24
BRANCH  15  26
HETATM   26  O5  UNL     1      21.687  16.123  61.206  1.00  0.00    -0.364 OA
ATOM     27  H5  UNL     1      22.436  15.585  60.979  1.00  0.00     0.213 HD
ENDBRANCH  15  26
BRANCH  13  28
HETATM   28  C16 UNL     1      25.855  18.044  60.834  1.00  0.00    -0.016 C 
HETATM   29  C17 UNL     1      27.115  17.823  61.581  1.00  0.00     0.010 C 
HETATM   30  C18 UNL     1      25.551  16.958  59.827  1.00  0.00     0.010 C 
ENDBRANCH  13  28
TORSDOF 6
ENDMDL
MODEL 4
REMARK VINA RESULT: -6.895555627      1.950      3.291
REMARK  6 active torsions:
REMARK  status: ('A' for Active; 'I' for Inactive)
REMARK    1  A    between atoms: C2_2  and  C3_3 
REMARK    2  A    between atoms: C2_2  and  C4_6 
REMARK    3  A    between atoms: C3_3  and  O1_4 
REMARK    4  A    between atoms: C5_7  and  C6_8 
REMARK    5  A    between atoms: C15_20  and  C16_21 
REMARK    6  A    between atoms: C20_25  and  O5_26 
ROOT
HETATM    1  C4  UNL     1      20.645  16.520  63.148  1.00  0.00    -0.051 C 
HETATM    2  C5  UNL     1      20.796  15.460  63.873  1.00  0.00    -0.016 C 
HETATM    3  C7  UNL     1      22.225  14.998  63.779  1.00  0.00     0.050 C 
HETATM    4  C8  UNL     1      22.666  15.506  62.438  1.00  0.00     0.042 C 
HETATM    5  C9  UNL     1      24.129  15.847  62.620  1.00  0.00     0.067 C 
HETATM    6  C10 UNL     1      24.789  14.655  63.341  1.00  0.00     0.046 C 
HETATM    7  C11 UNL     1      24.921  16.110  61.406  1.00  0.00     0.055 C 
HETATM    8  C12 UNL     1      25.610  17.461  61.631  1.00  0.00     0.118 C 
HETATM    9  C13 UNL     1      26.759  17.727  60.767  1.00  0.00     0.266 C 
HETATM   10  O3  UNL     1      27.786  17.158  60.321  1.00  0.00    -0.265 OA
HETATM   11  O4  UNL     1      26.239  19.024  60.583  1.00  0.00    -0.314 OA
HETATM   12  C14 UNL     1      24.959  18.446  60.742  1.00  0.00     0.150 C 
HETATM   13  C15 UNL     1      23.868  19.245  61.311  1.00  0.00     0.024 C 
HETATM   14  C19 UNL     1      23.391  18.982  62.667  1.00  0.00     0.077 C 
HETATM   15  C20 UNL     1      22.897  17.677  63.119  1.00  0.00     0.174 C 
HETATM   16  O6  UNL     1      24.045  16.904  63.481  1.00  0.00    -0.343 OA
HETATM   17  C21 UNL     1      21.956  16.859  62.431  1.00  0.00     0.043 C 
HETATM   18  C22 UNL     1      21.539  17.111  61.037  1.00  0.00     0.026 C 
ENDROOT
BRANCH   1  19
HETATM   19  C2  UNL     1      19.456  17.322  62.926  1.00  0.00     0.036 C 
HETATM   20  C1  UNL     1      19.639  18.798  63.285  1.00  0.00     0.017 C 
BRANCH  19  21
HETATM   21  C3  UNL     1      18.165  16.957  63.538  1.00  0.00     0.172 C 
BRANCH  21  22
HETATM   22  O1  UNL     1      17.104  17.544  62.747  1.00  0.00    -0.400 OA
ATOM     23  H1  UNL     1      16.535  16.846  62.444  1.00  0.00     0.209 HD
ENDBRANCH  21  22
ENDBRANCH  19  21
ENDBRANCH   1  19
BRANCH   2  24
HETATM   24  C6  UNL     1      19.909  14.670  64.723  1.00  0.00     0.265 C 
HETATM   25  O2  UNL     1      19.160  13.743  64.259  1.00  0.00    -0.302 OA
ENDBRANCH   2  24
BRANCH  15  26
HETATM   26  O5  UNL     1      22.381  17.931  64.418  1.00  0.00    -0.364 OA
ATOM     27  H5  UNL     1      21.722  17.257  64.542  1.00  0.00     0.213 HD
ENDBRANCH  15  26
BRANCH  13  28
HETATM   28  C16 UNL     1      24.304  20.726  61.305  1.00  0.00    -0.016 C 
HETATM   29  C17 UNL     1      23.345  21.636  60.638  1.00  0.00     0.010 C 
HETATM   30  C18 UNL     1      24.676  21.160  62.706  1.00  0.00     0.010 C 
ENDBRANCH  13  28
TORSDOF 6
ENDMDL
MODEL 5
REMARK VINA RESULT: -6.608633841      1.847      4.098
REMARK  6 active torsions:
REMARK  status: ('A' for Active; 'I' for Inactive)
REMARK    1  A    between atoms: C2_2  and  C3_3 
REMARK    2  A    between atoms: C2_2  and  C4_6 
REMARK    3  A    between atoms: C3_3  and  O1_4 
REMARK    4  A    between atoms: C5_7  and  C6_8 
REMARK    5  A    between atoms: C15_20  and  C16_21 
REMARK    6  A    between atoms: C20_25  and  O5_26 
ROOT
HETATM    1  C4  UNL     1      20.506  17.960  62.902  1.00  0.00    -0.051 C 
HETATM    2  C5  UNL     1      19.933  18.963  62.320  1.00  0.00    -0.016 C 
HETATM    3  C7  UNL     1      20.982  19.813  61.657  1.00  0.00     0.050 C 
HETATM    4  C8  UNL     1      22.210  19.551  62.477  1.00  0.00     0.042 C 
HETATM    5  C9  UNL     1      23.353  19.623  61.487  1.00  0.00     0.067 C 
HETATM    6  C10 UNL     1      23.146  20.895  60.642  1.00  0.00     0.046 C 
HETATM    7  C11 UNL     1      24.720  19.684  62.033  1.00  0.00     0.055 C 
HETATM    8  C12 UNL     1      25.508  18.569  61.337  1.00  0.00     0.118 C 
HETATM    9  C13 UNL     1      26.963  18.702  61.395  1.00  0.00     0.266 C 
HETATM   10  O3  UNL     1      27.861  19.568  61.255  1.00  0.00    -0.265 OA
HETATM   11  O4  UNL     1      27.011  17.328  61.708  1.00  0.00    -0.314 OA
HETATM   12  C14 UNL     1      25.758  17.510  62.337  1.00  0.00     0.150 C 
HETATM   13  C15 UNL     1      24.804  16.396  62.388  1.00  0.00     0.024 C 
HETATM   14  C19 UNL     1      23.606  16.412  61.551  1.00  0.00     0.077 C 
HETATM   15  C20 UNL     1      22.610  17.488  61.575  1.00  0.00     0.174 C 
HETATM   16  O6  UNL     1      23.100  18.524  60.718  1.00  0.00    -0.343 OA
HETATM   17  C21 UNL     1      22.027  18.058  62.742  1.00  0.00     0.043 C 
HETATM   18  C22 UNL     1      22.540  17.804  64.103  1.00  0.00     0.026 C 
ENDROOT
BRANCH   1  19
HETATM   19  C2  UNL     1      19.913  16.876  63.662  1.00  0.00     0.036 C 
HETATM   20  C1  UNL     1      20.471  15.498  63.298  1.00  0.00     0.017 C 
BRANCH  19  21
HETATM   21  C3  UNL     1      18.453  16.678  63.699  1.00  0.00     0.172 C 
BRANCH  21  22
HETATM   22  O1  UNL     1      18.185  15.256  63.673  1.00  0.00    -0.400 OA
ATOM     23  H1  UNL     1      18.045  14.994  62.770  1.00  0.00     0.209 HD
ENDBRANCH  21  22
ENDBRANCH  19  21
ENDBRANCH   1  19
BRANCH   2  24
HETATM   24  C6  UNL     1      18.548  19.406  62.180  1.00  0.00     0.265 C 
HETATM   25  O2  UNL     1      18.219  20.414  61.465  1.00  0.00    -0.302 OA
ENDBRANCH   2  24
BRANCH  15  26
HETATM   26  O5  UNL     1      21.555  17.004  60.757  1.00  0.00    -0.364 OA
ATOM     27  H5  UNL     1      21.817  16.117  60.539  1.00  0.00     0.213 HD
ENDBRANCH  15  26
BRANCH  13  28
HETATM   28  C16 UNL     1      25.557  15.102  62.009  1.00  0.00    -0.016 C 
HETATM   29  C17 UNL     1      25.890  14.236  63.163  1.00  0.00     0.010 C 
HETATM   30  C18 UNL     1      24.817  14.380  60.905  1.00  0.00     0.010 C 
ENDBRANCH  13  28
TORSDOF 6
ENDMDL
