MODEL 1
REMARK VINA RESULT: -7.343484174      0.000      0.000
REMARK  4 active torsions:
REMARK  status: ('A' for Active; 'I' for Inactive)
REMARK    1  A    between atoms: C3_3  and  C4_4 
REMARK    2  A    between atoms: C4_4  and  O2_6 
REMARK    3  A    between atoms: O2_6  and  C5_7 
REMARK    4  A    between atoms: C5_7  and  C6_8 
ROOT
HETATM    1  C1  UNL     1      25.950  23.242  16.179  1.00  0.00     0.013 C 
HETATM    2  C2  UNL     1      25.220  23.995  15.583  1.00  0.00    -0.095 C 
HETATM    3  C3  UNL     1      24.351  24.913  14.848  1.00  0.00     0.135 C 
HETATM    4  C8  UNL     1      23.365  24.052  14.048  1.00  0.00     0.202 C 
HETATM    5  O3  UNL     1      24.057  23.746  12.888  1.00  0.00    -0.369 OA
HETATM    6  C9  UNL     1      24.563  24.975  12.503  1.00  0.00     0.229 C 
HETATM    7  C10 UNL     1      25.604  24.816  11.516  1.00  0.00     0.091 C 
HETATM    8  N1  UNL     1      26.432  24.698  10.709  1.00  0.00    -0.195 NA
HETATM    9  C11 UNL     1      25.059  25.652  13.768  1.00  0.00     0.082 C 
ENDROOT
BRANCH   3  10
HETATM   10  C4  UNL     1      23.559  25.755  15.749  1.00  0.00     0.282 C 
HETATM   11  O1  UNL     1      23.067  25.393  16.835  1.00  0.00    -0.263 OA
BRANCH  10  12
HETATM   12  O2  UNL     1      23.341  27.069  15.355  1.00  0.00    -0.316 OA
BRANCH  12  13
HETATM   13  C5  UNL     1      23.191  28.131  16.278  1.00  0.00     0.205 C 
BRANCH  13  14
HETATM   14  C6  UNL     1      21.873  28.758  16.014  1.00  0.00    -0.011 C 
HETATM   15  C7  UNL     1      21.216  28.489  14.899  1.00  0.00     0.009 C 
ENDBRANCH  13  14
ENDBRANCH  12  13
ENDBRANCH  10  12
ENDBRANCH   3  10
TORSDOF 4
ENDMDL
MODEL 2
REMARK VINA RESULT: -7.219978956      1.944      2.889
REMARK  4 active torsions:
REMARK  status: ('A' for Active; 'I' for Inactive)
REMARK    1  A    between atoms: C3_3  and  C4_4 
REMARK    2  A    between atoms: C4_4  and  O2_6 
REMARK    3  A    between atoms: O2_6  and  C5_7 
REMARK    4  A    between atoms: C5_7  and  C6_8 
ROOT
HETATM    1  C1  UNL     1      23.052  24.395  11.439  1.00  0.00     0.013 C 
HETATM    2  C2  UNL     1      23.335  24.896  12.499  1.00  0.00    -0.095 C 
HETATM    3  C3  UNL     1      23.690  25.485  13.789  1.00  0.00     0.135 C 
HETATM    4  C8  UNL     1      24.759  26.550  13.517  1.00  0.00     0.202 C 
HETATM    5  O3  UNL     1      25.944  25.833  13.496  1.00  0.00    -0.369 OA
HETATM    6  C9  UNL     1      25.845  25.052  14.633  1.00  0.00     0.229 C 
HETATM    7  C10 UNL     1      26.812  23.979  14.605  1.00  0.00     0.091 C 
HETATM    8  N1  UNL     1      27.598  23.124  14.599  1.00  0.00    -0.195 NA
HETATM    9  C11 UNL     1      24.415  24.544  14.685  1.00  0.00     0.082 C 
ENDROOT
BRANCH   3  10
HETATM   10  C4  UNL     1      22.549  26.164  14.410  1.00  0.00     0.282 C 
HETATM   11  O1  UNL     1      21.506  25.613  14.812  1.00  0.00    -0.263 OA
BRANCH  10  12
HETATM   12  O2  UNL     1      22.642  27.543  14.562  1.00  0.00    -0.316 OA
BRANCH  12  13
HETATM   13  C5  UNL     1      21.552  28.342  14.981  1.00  0.00     0.205 C 
BRANCH  13  14
HETATM   14  C6  UNL     1      21.899  28.893  16.314  1.00  0.00    -0.011 C 
HETATM   15  C7  UNL     1      21.255  29.943  16.791  1.00  0.00     0.009 C 
ENDBRANCH  13  14
ENDBRANCH  12  13
ENDBRANCH  10  12
ENDBRANCH   3  10
TORSDOF 4
ENDMDL
MODEL 3
REMARK VINA RESULT: -7.128929850      2.153      3.312
REMARK  4 active torsions:
REMARK  status: ('A' for Active; 'I' for Inactive)
REMARK    1  A    between atoms: C3_3  and  C4_4 
REMARK    2  A    between atoms: C4_4  and  O2_6 
REMARK    3  A    between atoms: O2_6  and  C5_7 
REMARK    4  A    between atoms: C5_7  and  C6_8 
ROOT
HETATM    1  C1  UNL     1      23.025  24.403  11.499  1.00  0.00     0.013 C 
HETATM    2  C2  UNL     1      23.503  25.100  12.359  1.00  0.00    -0.095 C 
HETATM    3  C3  UNL     1      24.091  25.928  13.412  1.00  0.00     0.135 C 
HETATM    4  C8  UNL     1      25.305  26.636  12.800  1.00  0.00     0.202 C 
HETATM    5  O3  UNL     1      26.328  25.712  12.928  1.00  0.00    -0.369 OA
HETATM    6  C9  UNL     1      26.204  25.302  14.243  1.00  0.00     0.229 C 
HETATM    7  C10 UNL     1      26.947  24.087  14.476  1.00  0.00     0.091 C 
HETATM    8  N1  UNL     1      27.556  23.118  14.676  1.00  0.00    -0.195 NA
HETATM    9  C11 UNL     1      24.717  25.133  14.503  1.00  0.00     0.082 C 
ENDROOT
BRANCH   3  10
HETATM   10  C4  UNL     1      23.165  26.969  13.867  1.00  0.00     0.282 C 
HETATM   11  O1  UNL     1      23.278  28.190  13.643  1.00  0.00    -0.263 OA
BRANCH  10  12
HETATM   12  O2  UNL     1      22.068  26.556  14.613  1.00  0.00    -0.316 OA
BRANCH  12  13
HETATM   13  C5  UNL     1      21.830  27.000  15.936  1.00  0.00     0.205 C 
BRANCH  13  14
HETATM   14  C6  UNL     1      21.929  25.814  16.820  1.00  0.00    -0.011 C 
HETATM   15  C7  UNL     1      22.959  25.673  17.636  1.00  0.00     0.009 C 
ENDBRANCH  13  14
ENDBRANCH  12  13
ENDBRANCH  10  12
ENDBRANCH   3  10
TORSDOF 4
ENDMDL
MODEL 4
REMARK VINA RESULT: -7.054535007      2.016      3.119
REMARK  4 active torsions:
REMARK  status: ('A' for Active; 'I' for Inactive)
REMARK    1  A    between atoms: C3_3  and  C4_4 
REMARK    2  A    between atoms: C4_4  and  O2_6 
REMARK    3  A    between atoms: O2_6  and  C5_7 
REMARK    4  A    between atoms: C5_7  and  C6_8 
ROOT
HETATM    1  C1  UNL     1      22.990  24.441  11.591  1.00  0.00     0.013 C 
HETATM    2  C2  UNL     1      23.512  25.159  12.407  1.00  0.00    -0.095 C 
HETATM    3  C3  UNL     1      24.153  26.012  13.406  1.00  0.00     0.135 C 
HETATM    4  C8  UNL     1      25.393  26.625  12.743  1.00  0.00     0.202 C 
HETATM    5  O3  UNL     1      26.371  25.659  12.912  1.00  0.00    -0.369 OA
HETATM    6  C9  UNL     1      26.243  25.328  14.249  1.00  0.00     0.229 C 
HETATM    7  C10 UNL     1      26.929  24.092  14.540  1.00  0.00     0.091 C 
HETATM    8  N1  UNL     1      27.492  23.106  14.787  1.00  0.00    -0.195 NA
HETATM    9  C11 UNL     1      24.754  25.248  14.533  1.00  0.00     0.082 C 
ENDROOT
BRANCH   3  10
HETATM   10  C4  UNL     1      23.286  27.122  13.813  1.00  0.00     0.282 C 
HETATM   11  O1  UNL     1      23.306  28.273  13.334  1.00  0.00    -0.263 OA
BRANCH  10  12
HETATM   12  O2  UNL     1      22.363  26.866  14.819  1.00  0.00    -0.316 OA
BRANCH  12  13
HETATM   13  C5  UNL     1      21.374  27.800  15.208  1.00  0.00     0.205 C 
BRANCH  13  14
HETATM   14  C6  UNL     1      21.956  28.627  16.294  1.00  0.00    -0.011 C 
HETATM   15  C7  UNL     1      21.381  29.762  16.651  1.00  0.00     0.009 C 
ENDBRANCH  13  14
ENDBRANCH  12  13
ENDBRANCH  10  12
ENDBRANCH   3  10
TORSDOF 4
ENDMDL
MODEL 5
REMARK VINA RESULT: -6.894289032      1.717      2.565
REMARK  4 active torsions:
REMARK  status: ('A' for Active; 'I' for Inactive)
REMARK    1  A    between atoms: C3_3  and  C4_4 
REMARK    2  A    between atoms: C4_4  and  O2_6 
REMARK    3  A    between atoms: O2_6  and  C5_7 
REMARK    4  A    between atoms: C5_7  and  C6_8 
ROOT
HETATM    1  C1  UNL     1      23.643  28.247  13.360  1.00  0.00     0.013 C 
HETATM    2  C2  UNL     1      23.523  27.063  13.557  1.00  0.00    -0.095 C 
HETATM    3  C3  UNL     1      23.387  25.624  13.776  1.00  0.00     0.135 C 
HETATM    4  C8  UNL     1      24.496  25.212  14.752  1.00  0.00     0.202 C 
HETATM    5  O3  UNL     1      25.596  25.004  13.937  1.00  0.00    -0.369 OA
HETATM    6  C9  UNL     1      25.076  24.223  12.921  1.00  0.00     0.229 C 
HETATM    7  C10 UNL     1      25.970  24.191  11.788  1.00  0.00     0.091 C 
HETATM    8  N1  UNL     1      26.692  24.147  10.878  1.00  0.00    -0.195 NA
HETATM    9  C11 UNL     1      23.720  24.813  12.574  1.00  0.00     0.082 C 
ENDROOT
BRANCH   3  10
HETATM   10  C4  UNL     1      22.107  25.287  14.407  1.00  0.00     0.282 C 
HETATM   11  O1  UNL     1      21.509  24.199  14.300  1.00  0.00    -0.263 OA
BRANCH  10  12
HETATM   12  O2  UNL     1      21.512  26.268  15.191  1.00  0.00    -0.316 OA
BRANCH  12  13
HETATM   13  C5  UNL     1      21.831  26.454  16.557  1.00  0.00     0.205 C 
BRANCH  13  14
HETATM   14  C6  UNL     1      22.424  27.807  16.689  1.00  0.00    -0.011 C 
HETATM   15  C7  UNL     1      21.736  28.876  16.326  1.00  0.00     0.009 C 
ENDBRANCH  13  14
ENDBRANCH  12  13
ENDBRANCH  10  12
ENDBRANCH   3  10
TORSDOF 4
ENDMDL
