MODEL 1
REMARK VINA RESULT: -7.130073663      0.000      0.000
REMARK  8 active torsions:
REMARK  status: ('A' for Active; 'I' for Inactive)
REMARK    1  A    between atoms: C1_2  and  C2_4 
REMARK    2  A    between atoms: N1_8  and  C6_9 
REMARK    3  A    between atoms: C7_10  and  O3_11 
REMARK    4  A    between atoms: C7_10  and  N2_13 
REMARK    5  A    between atoms: C11_17  and  C12_18 
REMARK       I    between atoms: C12_18  and  N3_20 
REMARK    6  A    between atoms: N3_20  and  C13_22 
REMARK    7  A    between atoms: C13_22  and  C14_23 
REMARK    8  A    between atoms: C14_23  and  O5_24 
ROOT
HETATM    1  N2  UNL     1      -8.137  28.290  -0.438  1.00  0.00    -0.348 N 
HETATM    2  C8  UNL     1      -8.652  27.139   0.257  1.00  0.00     0.126 C 
HETATM    3  C9  UNL     1      -7.655  27.090   1.432  1.00  0.00     0.022 C 
HETATM    4  C10 UNL     1      -6.356  27.168   0.623  1.00  0.00     0.037 C 
HETATM    5  C11 UNL     1      -6.685  28.002  -0.602  1.00  0.00     0.178 C 
ENDROOT
BRANCH   1   6
HETATM    6  C7  UNL     1      -8.786  29.457  -0.868  1.00  0.00     0.149 C 
HETATM    7  C6  UNL     1      -9.138  30.686  -0.204  1.00  0.00     0.115 C 
BRANCH   7   8
HETATM    8  N1  UNL     1      -8.716  30.924   1.135  1.00  0.00    -0.288 NA
HETATM    9  C5  UNL     1      -9.615  31.935   1.721  1.00  0.00     0.095 C 
HETATM   10  C4  UNL     1      -8.957  32.775   2.761  1.00  0.00     0.016 C 
HETATM   11  C3  UNL     1      -7.843  33.632   2.200  1.00  0.00     0.018 C 
HETATM   12  C2  UNL     1      -7.557  33.056   0.808  1.00  0.00     0.100 C 
HETATM   13  C20 UNL     1      -7.383  31.570   0.995  1.00  0.00     0.110 C 
BRANCH  12  14
HETATM   14  C1  UNL     1      -6.297  33.662   0.279  1.00  0.00     0.178 C 
HETATM   15  O1  UNL     1      -6.083  34.894   0.290  1.00  0.00    -0.648 OA
HETATM   16  O2  UNL     1      -5.355  32.800  -0.232  1.00  0.00    -0.648 OA
ENDBRANCH  12  14
ENDBRANCH   7   8
BRANCH   6  17
HETATM   17  O3  UNL     1      -9.133  29.383  -2.139  1.00  0.00    -0.345 OA
ATOM     18  H3  UNL     1      -8.858  28.594  -2.590  1.00  0.00     0.219 HD
ENDBRANCH   6  17
ENDBRANCH   1   6
BRANCH   5  19
HETATM   19  C12 UNL     1      -6.433  27.188  -1.807  1.00  0.00     0.241 C 
HETATM   20  O4  UNL     1      -5.727  26.143  -1.651  1.00  0.00    -0.271 OA
HETATM   21  N3  UNL     1      -6.927  27.509  -3.083  1.00  0.00    -0.348 N 
ATOM     22  H3  UNL     1      -7.489  28.357  -3.153  1.00  0.00     0.163 HD
BRANCH  21  23
HETATM   23  C13 UNL     1      -6.729  26.777  -4.287  1.00  0.00     0.054 C 
HETATM   24  C15 UNL     1      -7.425  27.473  -5.458  1.00  0.00     0.033 C 
HETATM   25  C16 UNL     1      -8.329  26.555  -6.219  1.00  0.00     0.002 C 
HETATM   26  C17 UNL     1      -9.427  26.070  -5.320  1.00  0.00     0.000 C 
HETATM   27  C18 UNL     1      -8.818  25.409  -4.120  1.00  0.00     0.002 C 
HETATM   28  C19 UNL     1      -7.306  25.397  -4.195  1.00  0.00     0.033 C 
BRANCH  23  29
HETATM   29  C14 UNL     1      -5.270  26.641  -4.667  1.00  0.00     0.195 C 
BRANCH  29  30
HETATM   30  O5  UNL     1      -4.808  25.350  -4.425  1.00  0.00    -0.398 OA
ATOM     31  H5  UNL     1      -4.363  25.297  -3.588  1.00  0.00     0.209 HD
ENDBRANCH  29  30
ENDBRANCH  23  29
ENDBRANCH  21  23
ENDBRANCH   5  19
TORSDOF 8
ENDMDL
MODEL 2
REMARK VINA RESULT: -7.066313409      2.137      7.424
REMARK  8 active torsions:
REMARK  status: ('A' for Active; 'I' for Inactive)
REMARK    1  A    between atoms: C1_2  and  C2_4 
REMARK    2  A    between atoms: N1_8  and  C6_9 
REMARK    3  A    between atoms: C7_10  and  O3_11 
REMARK    4  A    between atoms: C7_10  and  N2_13 
REMARK    5  A    between atoms: C11_17  and  C12_18 
REMARK       I    between atoms: C12_18  and  N3_20 
REMARK    6  A    between atoms: N3_20  and  C13_22 
REMARK    7  A    between atoms: C13_22  and  C14_23 
REMARK    8  A    between atoms: C14_23  and  O5_24 
ROOT
HETATM    1  N2  UNL     1      -8.572  28.443   1.207  1.00  0.00    -0.348 N 
HETATM    2  C8  UNL     1      -9.670  28.943   1.993  1.00  0.00     0.126 C 
HETATM    3  C9  UNL     1     -10.774  28.932   0.916  1.00  0.00     0.022 C 
HETATM    4  C10 UNL     1     -10.016  29.683  -0.184  1.00  0.00     0.037 C 
HETATM    5  C11 UNL     1      -8.554  29.317   0.001  1.00  0.00     0.178 C 
ENDROOT
BRANCH   1   6
HETATM    6  C7  UNL     1      -7.698  27.373   1.445  1.00  0.00     0.149 C 
HETATM    7  C6  UNL     1      -7.154  26.343   0.597  1.00  0.00     0.115 C 
BRANCH   7   8
HETATM    8  N1  UNL     1      -7.404  26.361  -0.805  1.00  0.00    -0.288 NA
HETATM    9  C5  UNL     1      -7.370  24.970  -1.290  1.00  0.00     0.095 C 
HETATM   10  C4  UNL     1      -6.921  24.851  -2.706  1.00  0.00     0.016 C 
HETATM   11  C3  UNL     1      -5.486  25.288  -2.902  1.00  0.00     0.018 C 
HETATM   12  C2  UNL     1      -5.117  26.038  -1.617  1.00  0.00     0.100 C 
HETATM   13  C20 UNL     1      -6.216  27.044  -1.386  1.00  0.00     0.110 C 
BRANCH  12  14
HETATM   14  C1  UNL     1      -3.811  26.737  -1.818  1.00  0.00     0.178 C 
HETATM   15  O1  UNL     1      -2.935  26.319  -2.607  1.00  0.00    -0.648 OA
HETATM   16  O2  UNL     1      -3.597  27.885  -1.090  1.00  0.00    -0.648 OA
ENDBRANCH  12  14
ENDBRANCH   7   8
BRANCH   6  17
HETATM   17  O3  UNL     1      -7.317  27.323   2.707  1.00  0.00    -0.345 OA
ATOM     18  H3  UNL     1      -6.723  28.013   2.980  1.00  0.00     0.219 HD
ENDBRANCH   6  17
ENDBRANCH   1   6
BRANCH   5  19
HETATM   19  C12 UNL     1      -7.788  30.554   0.247  1.00  0.00     0.241 C 
HETATM   20  O4  UNL     1      -6.522  30.456   0.213  1.00  0.00    -0.271 OA
HETATM   21  N3  UNL     1      -8.383  31.801   0.508  1.00  0.00    -0.348 N 
ATOM     22  H3  UNL     1      -9.402  31.825   0.522  1.00  0.00     0.163 HD
BRANCH  21  23
HETATM   23  C13 UNL     1      -7.715  33.034   0.754  1.00  0.00     0.054 C 
HETATM   24  C15 UNL     1      -6.768  32.901   1.948  1.00  0.00     0.033 C 
HETATM   25  C16 UNL     1      -6.993  33.960   2.982  1.00  0.00     0.002 C 
HETATM   26  C17 UNL     1      -8.378  33.830   3.542  1.00  0.00     0.000 C 
HETATM   27  C18 UNL     1      -9.367  33.908   2.418  1.00  0.00     0.002 C 
HETATM   28  C19 UNL     1      -8.684  34.128   1.085  1.00  0.00     0.033 C 
BRANCH  23  29
HETATM   29  C14 UNL     1      -6.877  33.500  -0.417  1.00  0.00     0.195 C 
BRANCH  29  30
HETATM   30  O5  UNL     1      -5.528  33.226  -0.209  1.00  0.00    -0.398 OA
ATOM     31  H5  UNL     1      -4.984  33.949  -0.499  1.00  0.00     0.209 HD
ENDBRANCH  29  30
ENDBRANCH  23  29
ENDBRANCH  21  23
ENDBRANCH   5  19
TORSDOF 8
ENDMDL
MODEL 3
REMARK VINA RESULT: -7.050493845      1.489      1.878
REMARK  8 active torsions:
REMARK  status: ('A' for Active; 'I' for Inactive)
REMARK    1  A    between atoms: C1_2  and  C2_4 
REMARK    2  A    between atoms: N1_8  and  C6_9 
REMARK    3  A    between atoms: C7_10  and  O3_11 
REMARK    4  A    between atoms: C7_10  and  N2_13 
REMARK    5  A    between atoms: C11_17  and  C12_18 
REMARK       I    between atoms: C12_18  and  N3_20 
REMARK    6  A    between atoms: N3_20  and  C13_22 
REMARK    7  A    between atoms: C13_22  and  C14_23 
REMARK    8  A    between atoms: C14_23  and  O5_24 
ROOT
HETATM    1  N2  UNL     1      -8.708  28.868   0.336  1.00  0.00    -0.348 N 
HETATM    2  C8  UNL     1      -9.662  28.152   1.139  1.00  0.00     0.126 C 
HETATM    3  C9  UNL     1      -8.995  28.310   2.521  1.00  0.00     0.022 C 
HETATM    4  C10 UNL     1      -7.585  27.847   2.140  1.00  0.00     0.037 C 
HETATM    5  C11 UNL     1      -7.395  28.260   0.691  1.00  0.00     0.178 C 
ENDROOT
BRANCH   1   6
HETATM    6  C7  UNL     1      -8.892  29.922  -0.571  1.00  0.00     0.149 C 
HETATM    7  C6  UNL     1      -9.104  31.337  -0.402  1.00  0.00     0.115 C 
BRANCH   7   8
HETATM    8  N1  UNL     1      -9.041  31.922   0.894  1.00  0.00    -0.288 NA
HETATM    9  C5  UNL     1      -9.145  33.384   0.738  1.00  0.00     0.095 C 
HETATM   10  C4  UNL     1      -8.430  34.142   1.803  1.00  0.00     0.016 C 
HETATM   11  C3  UNL     1      -6.933  33.928   1.768  1.00  0.00     0.018 C 
HETATM   12  C2  UNL     1      -6.724  32.714   0.855  1.00  0.00     0.100 C 
HETATM   13  C20 UNL     1      -7.656  31.642   1.361  1.00  0.00     0.110 C 
BRANCH  12  14
HETATM   14  C1  UNL     1      -5.304  32.258   0.966  1.00  0.00     0.178 C 
HETATM   15  O1  UNL     1      -4.578  32.060  -0.033  1.00  0.00    -0.648 OA
HETATM   16  O2  UNL     1      -4.808  32.059   2.234  1.00  0.00    -0.648 OA
ENDBRANCH  12  14
ENDBRANCH   7   8
BRANCH   6  17
HETATM   17  O3  UNL     1      -8.866  29.502  -1.822  1.00  0.00    -0.345 OA
ATOM     18  H3  UNL     1      -9.138  28.601  -1.953  1.00  0.00     0.219 HD
ENDBRANCH   6  17
ENDBRANCH   1   6
BRANCH   5  19
HETATM   19  C12 UNL     1      -7.131  27.050  -0.111  1.00  0.00     0.241 C 
HETATM   20  O4  UNL     1      -7.189  25.937   0.499  1.00  0.00    -0.271 OA
HETATM   21  N3  UNL     1      -6.829  27.075  -1.484  1.00  0.00    -0.348 N 
ATOM     22  H3  UNL     1      -6.797  27.993  -1.927  1.00  0.00     0.163 HD
BRANCH  21  23
HETATM   23  C13 UNL     1      -6.563  25.956  -2.323  1.00  0.00     0.054 C 
HETATM   24  C15 UNL     1      -6.325  26.412  -3.764  1.00  0.00     0.033 C 
HETATM   25  C16 UNL     1      -7.188  25.686  -4.749  1.00  0.00     0.002 C 
HETATM   26  C17 UNL     1      -8.631  25.974  -4.461  1.00  0.00     0.000 C 
HETATM   27  C18 UNL     1      -8.932  25.591  -3.044  1.00  0.00     0.002 C 
HETATM   28  C19 UNL     1      -7.720  25.003  -2.354  1.00  0.00     0.033 C 
BRANCH  23  29
HETATM   29  C14 UNL     1      -5.337  25.176  -1.904  1.00  0.00     0.195 C 
BRANCH  29  30
HETATM   30  O5  UNL     1      -5.588  23.807  -1.906  1.00  0.00    -0.398 OA
ATOM     31  H5  UNL     1      -6.253  23.581  -1.266  1.00  0.00     0.209 HD
ENDBRANCH  29  30
ENDBRANCH  23  29
ENDBRANCH  21  23
ENDBRANCH   5  19
TORSDOF 8
ENDMDL
MODEL 4
REMARK VINA RESULT: -7.039116321      1.254      1.388
REMARK  8 active torsions:
REMARK  status: ('A' for Active; 'I' for Inactive)
REMARK    1  A    between atoms: C1_2  and  C2_4 
REMARK    2  A    between atoms: N1_8  and  C6_9 
REMARK    3  A    between atoms: C7_10  and  O3_11 
REMARK    4  A    between atoms: C7_10  and  N2_13 
REMARK    5  A    between atoms: C11_17  and  C12_18 
REMARK       I    between atoms: C12_18  and  N3_20 
REMARK    6  A    between atoms: N3_20  and  C13_22 
REMARK    7  A    between atoms: C13_22  and  C14_23 
REMARK    8  A    between atoms: C14_23  and  O5_24 
ROOT
HETATM    1  N2  UNL     1      -8.723  28.728  -0.016  1.00  0.00    -0.348 N 
HETATM    2  C8  UNL     1      -9.562  27.997   0.896  1.00  0.00     0.126 C 
HETATM    3  C9  UNL     1      -8.722  28.143   2.181  1.00  0.00     0.022 C 
HETATM    4  C10 UNL     1      -7.371  27.692   1.614  1.00  0.00     0.037 C 
HETATM    5  C11 UNL     1      -7.373  28.123   0.158  1.00  0.00     0.178 C 
ENDROOT
BRANCH   1   6
HETATM    6  C7  UNL     1      -9.029  29.791  -0.878  1.00  0.00     0.149 C 
HETATM    7  C6  UNL     1      -9.387  31.168  -0.651  1.00  0.00     0.115 C 
BRANCH   7   8
HETATM    8  N1  UNL     1      -9.371  31.705   0.668  1.00  0.00    -0.288 NA
HETATM    9  C5  UNL     1     -10.228  32.905   0.680  1.00  0.00     0.095 C 
HETATM   10  C4  UNL     1      -9.798  33.924   1.678  1.00  0.00     0.016 C 
HETATM   11  C3  UNL     1      -8.439  34.512   1.364  1.00  0.00     0.018 C 
HETATM   12  C2  UNL     1      -7.833  33.577   0.311  1.00  0.00     0.100 C 
HETATM   13  C20 UNL     1      -7.974  32.179   0.859  1.00  0.00     0.110 C 
BRANCH  12  14
HETATM   14  C1  UNL     1      -6.389  33.917   0.130  1.00  0.00     0.178 C 
HETATM   15  O1  UNL     1      -5.930  35.059   0.354  1.00  0.00    -0.648 OA
HETATM   16  O2  UNL     1      -5.557  32.910  -0.301  1.00  0.00    -0.648 OA
ENDBRANCH  12  14
ENDBRANCH   7   8
BRANCH   6  17
HETATM   17  O3  UNL     1      -8.973  29.426  -2.145  1.00  0.00    -0.345 OA
ATOM     18  H3  UNL     1      -9.040  28.491  -2.301  1.00  0.00     0.219 HD
ENDBRANCH   6  17
ENDBRANCH   1   6
BRANCH   5  19
HETATM   19  C12 UNL     1      -7.211  26.924  -0.687  1.00  0.00     0.241 C 
HETATM   20  O4  UNL     1      -7.148  25.807  -0.085  1.00  0.00    -0.271 OA
HETATM   21  N3  UNL     1      -7.127  26.964  -2.090  1.00  0.00    -0.348 N 
ATOM     22  H3  UNL     1      -7.185  27.885  -2.523  1.00  0.00     0.163 HD
BRANCH  21  23
HETATM   23  C13 UNL     1      -6.971  25.856  -2.970  1.00  0.00     0.054 C 
HETATM   24  C15 UNL     1      -6.935  26.329  -4.425  1.00  0.00     0.033 C 
HETATM   25  C16 UNL     1      -7.919  25.606  -5.291  1.00  0.00     0.002 C 
HETATM   26  C17 UNL     1      -9.311  25.880  -4.806  1.00  0.00     0.000 C 
HETATM   27  C18 UNL     1      -9.414  25.479  -3.365  1.00  0.00     0.002 C 
HETATM   28  C19 UNL     1      -8.115  24.894  -2.853  1.00  0.00     0.033 C 
BRANCH  23  29
HETATM   29  C14 UNL     1      -5.694  25.082  -2.731  1.00  0.00     0.195 C 
BRANCH  29  30
HETATM   30  O5  UNL     1      -5.956  23.853  -2.134  1.00  0.00    -0.398 OA
ATOM     31  H5  UNL     1      -5.329  23.666  -1.446  1.00  0.00     0.209 HD
ENDBRANCH  29  30
ENDBRANCH  23  29
ENDBRANCH  21  23
ENDBRANCH   5  19
TORSDOF 8
ENDMDL
MODEL 5
REMARK VINA RESULT: -7.036279185      2.216      7.534
REMARK  8 active torsions:
REMARK  status: ('A' for Active; 'I' for Inactive)
REMARK    1  A    between atoms: C1_2  and  C2_4 
REMARK    2  A    between atoms: N1_8  and  C6_9 
REMARK    3  A    between atoms: C7_10  and  O3_11 
REMARK    4  A    between atoms: C7_10  and  N2_13 
REMARK    5  A    between atoms: C11_17  and  C12_18 
REMARK       I    between atoms: C12_18  and  N3_20 
REMARK    6  A    between atoms: N3_20  and  C13_22 
REMARK    7  A    between atoms: C13_22  and  C14_23 
REMARK    8  A    between atoms: C14_23  and  O5_24 
ROOT
HETATM    1  N2  UNL     1      -8.273  28.341   1.333  1.00  0.00    -0.348 N 
HETATM    2  C8  UNL     1      -9.252  28.902   2.226  1.00  0.00     0.126 C 
HETATM    3  C9  UNL     1     -10.378  29.190   1.213  1.00  0.00     0.022 C 
HETATM    4  C10 UNL     1      -9.549  29.946   0.169  1.00  0.00     0.037 C 
HETATM    5  C11 UNL     1      -8.157  29.342   0.236  1.00  0.00     0.178 C 
ENDROOT
BRANCH   1   6
HETATM    6  C7  UNL     1      -7.569  27.129   1.401  1.00  0.00     0.149 C 
HETATM    7  C6  UNL     1      -7.166  26.172   0.402  1.00  0.00     0.115 C 
BRANCH   7   8
HETATM    8  N1  UNL     1      -7.385  26.439  -0.979  1.00  0.00    -0.288 NA
HETATM    9  C5  UNL     1      -7.491  25.147  -1.681  1.00  0.00     0.095 C 
HETATM   10  C4  UNL     1      -7.029  25.207  -3.096  1.00  0.00     0.016 C 
HETATM   11  C3  UNL     1      -5.552  25.510  -3.216  1.00  0.00     0.018 C 
HETATM   12  C2  UNL     1      -5.130  26.001  -1.826  1.00  0.00     0.100 C 
HETATM   13  C20 UNL     1      -6.119  27.071  -1.440  1.00  0.00     0.110 C 
BRANCH  12  14
HETATM   14  C1  UNL     1      -3.753  26.576  -1.909  1.00  0.00     0.178 C 
HETATM   15  O1  UNL     1      -2.859  26.088  -2.636  1.00  0.00    -0.648 OA
HETATM   16  O2  UNL     1      -3.491  27.687  -1.142  1.00  0.00    -0.648 OA
ENDBRANCH  12  14
ENDBRANCH   7   8
BRANCH   6  17
HETATM   17  O3  UNL     1      -7.224  26.832   2.639  1.00  0.00    -0.345 OA
ATOM     18  H3  UNL     1      -7.877  27.029   3.300  1.00  0.00     0.219 HD
ENDBRANCH   6  17
ENDBRANCH   1   6
BRANCH   5  19
HETATM   19  C12 UNL     1      -7.199  30.410   0.584  1.00  0.00     0.241 C 
HETATM   20  O4  UNL     1      -6.049  30.340   0.048  1.00  0.00    -0.271 OA
HETATM   21  N3  UNL     1      -7.496  31.470   1.457  1.00  0.00    -0.348 N 
ATOM     22  H3  UNL     1      -8.433  31.481   1.859  1.00  0.00     0.163 HD
BRANCH  21  23
HETATM   23  C13 UNL     1      -6.629  32.533   1.840  1.00  0.00     0.054 C 
HETATM   24  C15 UNL     1      -7.247  33.343   2.981  1.00  0.00     0.033 C 
HETATM   25  C16 UNL     1      -7.291  34.810   2.689  1.00  0.00     0.002 C 
HETATM   26  C17 UNL     1      -8.160  35.059   1.493  1.00  0.00     0.000 C 
HETATM   27  C18 UNL     1      -7.639  34.260   0.337  1.00  0.00     0.002 C 
HETATM   28  C19 UNL     1      -6.393  33.486   0.708  1.00  0.00     0.033 C 
BRANCH  23  29
HETATM   29  C14 UNL     1      -5.280  32.053   2.327  1.00  0.00     0.195 C 
BRANCH  29  30
HETATM   30  O5  UNL     1      -5.047  32.456   3.639  1.00  0.00    -0.398 OA
ATOM     31  H5  UNL     1      -5.434  31.847   4.257  1.00  0.00     0.209 HD
ENDBRANCH  29  30
ENDBRANCH  23  29
ENDBRANCH  21  23
ENDBRANCH   5  19
TORSDOF 8
ENDMDL
