MODEL 1
REMARK VINA RESULT: -6.786658619      0.000      0.000
REMARK  9 active torsions:
REMARK  status: ('A' for Active; 'I' for Inactive)
REMARK    1  A    between atoms: C4_5  and  C5_6 
REMARK       I    between atoms: C5_6  and  N2_8 
REMARK    2  A    between atoms: N2_8  and  N3_10 
REMARK       I    between atoms: N3_10  and  C6_12 
REMARK    3  A    between atoms: C6_12  and  C7_14 
REMARK    4  A    between atoms: C7_14  and  C8_15 
REMARK    5  A    between atoms: C8_15  and  C9_16 
REMARK    6  A    between atoms: C9_16  and  C10_17 
REMARK    7  A    between atoms: C10_17  and  N4_18 
REMARK    8  A    between atoms: N4_18  and  C11_20 
REMARK    9  A    between atoms: C11_20  and  N5_22 
ROOT
HETATM    1  N3  UNL     1      -6.820  28.470   0.944  1.00  0.00    -0.268 N 
ATOM      2  H3  UNL     1      -6.506  28.309  -0.013  1.00  0.00     0.190 HD
HETATM    3  C6  UNL     1      -7.219  27.362   1.728  1.00  0.00     0.236 C 
HETATM    4  O2  UNL     1      -7.615  27.538   2.893  1.00  0.00    -0.272 OA
ENDROOT
BRANCH   3   5
HETATM    5  C7  UNL     1      -7.155  25.996   1.145  1.00  0.00     0.105 C 
BRANCH   5   6
HETATM    6  C8  UNL     1      -7.368  26.039  -0.339  1.00  0.00     0.011 C 
BRANCH   6   7
HETATM    7  C9  UNL     1      -6.791  24.901  -1.107  1.00  0.00     0.020 C 
BRANCH   7   8
HETATM    8  C10 UNL     1      -5.590  25.320  -1.914  1.00  0.00     0.122 C 
BRANCH   8   9
HETATM    9  N4  UNL     1      -5.753  24.909  -3.280  1.00  0.00    -0.367 N 
ATOM     10  H4  UNL     1      -5.911  23.925  -3.501  1.00  0.00     0.161 HD
BRANCH   9  11
HETATM   11  C11 UNL     1      -5.694  25.870  -4.325  1.00  0.00     0.169 C 
HETATM   12  S1  UNL     1      -4.239  26.519  -4.692  1.00  0.00    -0.041 SA
BRANCH  11  13
HETATM   13  N5  UNL     1      -6.832  26.268  -5.040  1.00  0.00    -0.357 N 
HETATM   14  C12 UNL     1      -6.905  27.298  -6.044  1.00  0.00     0.135 C 
HETATM   15  C13 UNL     1      -7.608  28.540  -5.565  1.00  0.00     0.093 C 
HETATM   16  S2  UNL     1      -8.907  28.177  -4.374  1.00  0.00    -0.166 SA
HETATM   17  C14 UNL     1      -8.810  26.500  -3.730  1.00  0.00     0.093 C 
HETATM   18  C15 UNL     1      -8.107  25.586  -4.745  1.00  0.00     0.135 C 
ENDBRANCH  11  13
ENDBRANCH   9  11
ENDBRANCH   8   9
ENDBRANCH   7   8
ENDBRANCH   6   7
ENDBRANCH   5   6
ENDBRANCH   3   5
BRANCH   1  19
HETATM   19  N2  UNL     1      -6.841  29.778   1.437  1.00  0.00    -0.267 N 
HETATM   20  C5  UNL     1      -7.321  30.910   0.746  1.00  0.00     0.240 C 
HETATM   21  O1  UNL     1      -7.773  30.770  -0.413  1.00  0.00    -0.271 OA
ATOM     22  H2  UNL     1      -6.477  29.927   2.378  1.00  0.00     0.190 HD
BRANCH  20  23
HETATM   23  C4  UNL     1      -7.270  32.234   1.427  1.00  0.00     0.082 C 
HETATM   24  C3  UNL     1      -8.683  32.517   1.888  1.00  0.00     0.033 C 
HETATM   25  C2  UNL     1      -8.996  33.972   2.045  1.00  0.00     0.117 C 
HETATM   26  N1  UNL     1      -7.882  34.844   2.094  1.00  0.00    -0.417 N 
HETATM   27  C1  UNL     1      -7.338  35.059   3.409  1.00  0.00     0.143 C 
HETATM   28  C17 UNL     1      -6.909  34.675   1.067  1.00  0.00     0.117 C 
HETATM   29  C16 UNL     1      -6.889  33.310   0.447  1.00  0.00     0.033 C 
ENDBRANCH  20  23
ENDBRANCH   1  19
TORSDOF 9
ENDMDL
MODEL 2
REMARK VINA RESULT: -6.781465288      0.707      1.121
REMARK  9 active torsions:
REMARK  status: ('A' for Active; 'I' for Inactive)
REMARK    1  A    between atoms: C4_5  and  C5_6 
REMARK       I    between atoms: C5_6  and  N2_8 
REMARK    2  A    between atoms: N2_8  and  N3_10 
REMARK       I    between atoms: N3_10  and  C6_12 
REMARK    3  A    between atoms: C6_12  and  C7_14 
REMARK    4  A    between atoms: C7_14  and  C8_15 
REMARK    5  A    between atoms: C8_15  and  C9_16 
REMARK    6  A    between atoms: C9_16  and  C10_17 
REMARK    7  A    between atoms: C10_17  and  N4_18 
REMARK    8  A    between atoms: N4_18  and  C11_20 
REMARK    9  A    between atoms: C11_20  and  N5_22 
ROOT
HETATM    1  N3  UNL     1      -6.816  28.469   0.941  1.00  0.00    -0.268 N 
ATOM      2  H3  UNL     1      -6.498  28.308  -0.014  1.00  0.00     0.190 HD
HETATM    3  C6  UNL     1      -7.219  27.362   1.724  1.00  0.00     0.236 C 
HETATM    4  O2  UNL     1      -7.619  27.539   2.887  1.00  0.00    -0.272 OA
ENDROOT
BRANCH   3   5
HETATM    5  C7  UNL     1      -7.152  25.995   1.142  1.00  0.00     0.105 C 
BRANCH   5   6
HETATM    6  C8  UNL     1      -7.257  26.047  -0.353  1.00  0.00     0.011 C 
BRANCH   6   7
HETATM    7  C9  UNL     1      -6.777  24.837  -1.076  1.00  0.00     0.020 C 
BRANCH   7   8
HETATM    8  C10 UNL     1      -5.539  25.121  -1.886  1.00  0.00     0.122 C 
BRANCH   8   9
HETATM    9  N4  UNL     1      -5.810  24.917  -3.281  1.00  0.00    -0.367 N 
ATOM     10  H4  UNL     1      -6.038  23.984  -3.624  1.00  0.00     0.161 HD
BRANCH   9  11
HETATM   11  C11 UNL     1      -5.762  26.013  -4.183  1.00  0.00     0.169 C 
HETATM   12  S1  UNL     1      -4.310  26.439  -4.800  1.00  0.00    -0.041 SA
BRANCH  11  13
HETATM   13  N5  UNL     1      -6.910  26.726  -4.556  1.00  0.00    -0.357 N 
HETATM   14  C12 UNL     1      -7.772  27.490  -3.690  1.00  0.00     0.135 C 
HETATM   15  C13 UNL     1      -9.098  26.822  -3.439  1.00  0.00     0.093 C 
HETATM   16  S2  UNL     1      -9.659  25.858  -4.850  1.00  0.00    -0.166 SA
HETATM   17  C14 UNL     1      -8.359  25.581  -6.063  1.00  0.00     0.093 C 
HETATM   18  C15 UNL     1      -7.311  26.700  -5.976  1.00  0.00     0.135 C 
ENDBRANCH  11  13
ENDBRANCH   9  11
ENDBRANCH   8   9
ENDBRANCH   7   8
ENDBRANCH   6   7
ENDBRANCH   5   6
ENDBRANCH   3   5
BRANCH   1  19
HETATM   19  N2  UNL     1      -6.839  29.778   1.433  1.00  0.00    -0.267 N 
HETATM   20  C5  UNL     1      -7.328  30.907   0.744  1.00  0.00     0.240 C 
HETATM   21  O1  UNL     1      -7.786  30.765  -0.412  1.00  0.00    -0.271 OA
ATOM     22  H2  UNL     1      -6.471  29.929   2.372  1.00  0.00     0.190 HD
BRANCH  20  23
HETATM   23  C4  UNL     1      -7.278  32.233   1.424  1.00  0.00     0.082 C 
HETATM   24  C3  UNL     1      -8.691  32.514   1.885  1.00  0.00     0.033 C 
HETATM   25  C2  UNL     1      -9.006  33.969   2.041  1.00  0.00     0.117 C 
HETATM   26  N1  UNL     1      -7.892  34.842   2.089  1.00  0.00    -0.417 N 
HETATM   27  C1  UNL     1      -7.348  35.059   3.404  1.00  0.00     0.143 C 
HETATM   28  C17 UNL     1      -6.919  34.673   1.061  1.00  0.00     0.117 C 
HETATM   29  C16 UNL     1      -6.899  33.307   0.443  1.00  0.00     0.033 C 
ENDBRANCH  20  23
ENDBRANCH   1  19
TORSDOF 9
ENDMDL
MODEL 3
REMARK VINA RESULT: -6.579545829      1.707      2.068
REMARK  9 active torsions:
REMARK  status: ('A' for Active; 'I' for Inactive)
REMARK    1  A    between atoms: C4_5  and  C5_6 
REMARK       I    between atoms: C5_6  and  N2_8 
REMARK    2  A    between atoms: N2_8  and  N3_10 
REMARK       I    between atoms: N3_10  and  C6_12 
REMARK    3  A    between atoms: C6_12  and  C7_14 
REMARK    4  A    between atoms: C7_14  and  C8_15 
REMARK    5  A    between atoms: C8_15  and  C9_16 
REMARK    6  A    between atoms: C9_16  and  C10_17 
REMARK    7  A    between atoms: C10_17  and  N4_18 
REMARK    8  A    between atoms: N4_18  and  C11_20 
REMARK    9  A    between atoms: C11_20  and  N5_22 
ROOT
HETATM    1  N3  UNL     1      -5.435  28.998  -0.279  1.00  0.00    -0.268 N 
ATOM      2  H3  UNL     1      -4.466  28.992  -0.598  1.00  0.00     0.190 HD
HETATM    3  C6  UNL     1      -6.216  27.831  -0.444  1.00  0.00     0.236 C 
HETATM    4  O2  UNL     1      -7.402  27.822  -0.072  1.00  0.00    -0.272 OA
ENDROOT
BRANCH   3   5
HETATM    5  C7  UNL     1      -5.604  26.625  -1.061  1.00  0.00     0.105 C 
BRANCH   5   6
HETATM    6  C8  UNL     1      -4.236  26.934  -1.592  1.00  0.00     0.011 C 
BRANCH   6   7
HETATM    7  C9  UNL     1      -3.638  25.896  -2.477  1.00  0.00     0.020 C 
BRANCH   7   8
HETATM    8  C10 UNL     1      -3.888  26.188  -3.933  1.00  0.00     0.122 C 
BRANCH   8   9
HETATM    9  N4  UNL     1      -5.057  25.484  -4.378  1.00  0.00    -0.367 N 
ATOM     10  H4  UNL     1      -5.117  24.472  -4.264  1.00  0.00     0.161 HD
BRANCH   9  11
HETATM   11  C11 UNL     1      -6.131  26.195  -4.978  1.00  0.00     0.169 C 
HETATM   12  S1  UNL     1      -5.798  27.619  -5.708  1.00  0.00    -0.041 SA
BRANCH  11  13
HETATM   13  N5  UNL     1      -7.448  25.714  -4.964  1.00  0.00    -0.357 N 
HETATM   14  C12 UNL     1      -8.356  25.648  -6.079  1.00  0.00     0.135 C 
HETATM   15  C13 UNL     1      -9.454  26.676  -6.007  1.00  0.00     0.093 C 
HETATM   16  S2  UNL     1      -9.937  27.047  -4.314  1.00  0.00    -0.166 SA
HETATM   17  C14 UNL     1      -8.757  26.429  -3.104  1.00  0.00     0.093 C 
HETATM   18  C15 UNL     1      -7.992  25.228  -3.681  1.00  0.00     0.135 C 
ENDBRANCH  11  13
ENDBRANCH   9  11
ENDBRANCH   8   9
ENDBRANCH   7   8
ENDBRANCH   6   7
ENDBRANCH   5   6
ENDBRANCH   3   5
BRANCH   1  19
HETATM   19  N2  UNL     1      -5.945  30.161   0.306  1.00  0.00    -0.267 N 
HETATM   20  C5  UNL     1      -5.269  31.394   0.412  1.00  0.00     0.240 C 
HETATM   21  O1  UNL     1      -4.108  31.493  -0.045  1.00  0.00    -0.271 OA
ATOM     22  H2  UNL     1      -6.888  30.113   0.690  1.00  0.00     0.190 HD
BRANCH  20  23
HETATM   23  C4  UNL     1      -5.968  32.535   1.068  1.00  0.00     0.082 C 
HETATM   24  C3  UNL     1      -7.358  32.036   1.394  1.00  0.00     0.033 C 
HETATM   25  C2  UNL     1      -8.390  33.116   1.491  1.00  0.00     0.117 C 
HETATM   26  N1  UNL     1      -7.894  34.435   1.623  1.00  0.00    -0.417 N 
HETATM   27  C1  UNL     1      -7.656  34.862   2.977  1.00  0.00     0.143 C 
HETATM   28  C17 UNL     1      -6.888  34.822   0.691  1.00  0.00     0.117 C 
HETATM   29  C16 UNL     1      -6.112  33.681   0.104  1.00  0.00     0.033 C 
ENDBRANCH  20  23
ENDBRANCH   1  19
TORSDOF 9
ENDMDL
MODEL 4
REMARK VINA RESULT: -6.492248315      2.267      3.058
REMARK  9 active torsions:
REMARK  status: ('A' for Active; 'I' for Inactive)
REMARK    1  A    between atoms: C4_5  and  C5_6 
REMARK       I    between atoms: C5_6  and  N2_8 
REMARK    2  A    between atoms: N2_8  and  N3_10 
REMARK       I    between atoms: N3_10  and  C6_12 
REMARK    3  A    between atoms: C6_12  and  C7_14 
REMARK    4  A    between atoms: C7_14  and  C8_15 
REMARK    5  A    between atoms: C8_15  and  C9_16 
REMARK    6  A    between atoms: C9_16  and  C10_17 
REMARK    7  A    between atoms: C10_17  and  N4_18 
REMARK    8  A    between atoms: N4_18  and  C11_20 
REMARK    9  A    between atoms: C11_20  and  N5_22 
ROOT
HETATM    1  N3  UNL     1      -4.413  28.926  -0.399  1.00  0.00    -0.268 N 
ATOM      2  H3  UNL     1      -3.420  29.158  -0.416  1.00  0.00     0.190 HD
HETATM    3  C6  UNL     1      -4.824  27.649  -0.847  1.00  0.00     0.236 C 
HETATM    4  O2  UNL     1      -6.030  27.351  -0.845  1.00  0.00    -0.272 OA
ENDROOT
BRANCH   3   5
HETATM    5  C7  UNL     1      -3.801  26.675  -1.312  1.00  0.00     0.105 C 
BRANCH   5   6
HETATM    6  C8  UNL     1      -4.363  25.777  -2.373  1.00  0.00     0.011 C 
BRANCH   6   7
HETATM    7  C9  UNL     1      -4.172  26.236  -3.776  1.00  0.00     0.020 C 
BRANCH   7   8
HETATM    8  C10 UNL     1      -5.434  26.101  -4.588  1.00  0.00     0.122 C 
BRANCH   8   9
HETATM    9  N4  UNL     1      -6.548  26.623  -3.849  1.00  0.00    -0.367 N 
ATOM     10  H4  UNL     1      -6.701  26.331  -2.884  1.00  0.00     0.161 HD
BRANCH   9  11
HETATM   11  C11 UNL     1      -7.439  27.547  -4.461  1.00  0.00     0.169 C 
HETATM   12  S1  UNL     1      -6.969  28.260  -5.855  1.00  0.00    -0.041 SA
BRANCH  11  13
HETATM   13  N5  UNL     1      -8.691  27.855  -3.911  1.00  0.00    -0.357 N 
HETATM   14  C12 UNL     1      -8.984  28.121  -2.526  1.00  0.00     0.135 C 
HETATM   15  C13 UNL     1      -9.726  26.996  -1.854  1.00  0.00     0.093 C 
HETATM   16  S2  UNL     1     -10.822  26.124  -2.984  1.00  0.00    -0.166 SA
HETATM   17  C14 UNL     1     -10.494  26.515  -4.709  1.00  0.00     0.093 C 
HETATM   18  C15 UNL     1      -9.852  27.906  -4.821  1.00  0.00     0.135 C 
ENDBRANCH  11  13
ENDBRANCH   9  11
ENDBRANCH   8   9
ENDBRANCH   7   8
ENDBRANCH   6   7
ENDBRANCH   5   6
ENDBRANCH   3   5
BRANCH   1  19
HETATM   19  N2  UNL     1      -5.321  29.881   0.065  1.00  0.00    -0.267 N 
HETATM   20  C5  UNL     1      -5.060  31.259   0.221  1.00  0.00     0.240 C 
HETATM   21  O1  UNL     1      -3.925  31.700  -0.069  1.00  0.00    -0.271 OA
ATOM     22  H2  UNL     1      -6.255  29.554   0.312  1.00  0.00     0.190 HD
BRANCH  20  23
HETATM   23  C4  UNL     1      -6.151  32.137   0.729  1.00  0.00     0.082 C 
HETATM   24  C3  UNL     1      -6.109  33.385  -0.126  1.00  0.00     0.033 C 
HETATM   25  C2  UNL     1      -6.667  34.603   0.541  1.00  0.00     0.117 C 
HETATM   26  N1  UNL     1      -7.459  34.372   1.691  1.00  0.00    -0.417 N 
HETATM   27  C1  UNL     1      -8.859  34.159   1.430  1.00  0.00     0.143 C 
HETATM   28  C17 UNL     1      -6.898  33.507   2.674  1.00  0.00     0.117 C 
HETATM   29  C16 UNL     1      -5.870  32.550   2.148  1.00  0.00     0.033 C 
ENDBRANCH  20  23
ENDBRANCH   1  19
TORSDOF 9
ENDMDL
MODEL 5
REMARK VINA RESULT: -6.361777011      1.891      2.745
REMARK  9 active torsions:
REMARK  status: ('A' for Active; 'I' for Inactive)
REMARK    1  A    between atoms: C4_5  and  C5_6 
REMARK       I    between atoms: C5_6  and  N2_8 
REMARK    2  A    between atoms: N2_8  and  N3_10 
REMARK       I    between atoms: N3_10  and  C6_12 
REMARK    3  A    between atoms: C6_12  and  C7_14 
REMARK    4  A    between atoms: C7_14  and  C8_15 
REMARK    5  A    between atoms: C8_15  and  C9_16 
REMARK    6  A    between atoms: C9_16  and  C10_17 
REMARK    7  A    between atoms: C10_17  and  N4_18 
REMARK    8  A    between atoms: N4_18  and  C11_20 
REMARK    9  A    between atoms: C11_20  and  N5_22 
ROOT
HETATM    1  N3  UNL     1      -5.688  28.252  -0.354  1.00  0.00    -0.268 N 
ATOM      2  H3  UNL     1      -6.471  27.603  -0.283  1.00  0.00     0.190 HD
HETATM    3  C6  UNL     1      -4.455  27.782  -0.861  1.00  0.00     0.236 C 
HETATM    4  O2  UNL     1      -3.485  28.555  -0.945  1.00  0.00    -0.272 OA
ENDROOT
BRANCH   3   5
HETATM    5  C7  UNL     1      -4.337  26.364  -1.293  1.00  0.00     0.105 C 
BRANCH   5   6
HETATM    6  C8  UNL     1      -5.200  26.098  -2.489  1.00  0.00     0.011 C 
BRANCH   6   7
HETATM    7  C9  UNL     1      -6.086  24.906  -2.394  1.00  0.00     0.020 C 
BRANCH   7   8
HETATM    8  C10 UNL     1      -7.431  25.250  -1.808  1.00  0.00     0.122 C 
BRANCH   8   9
HETATM    9  N4  UNL     1      -8.475  24.807  -2.688  1.00  0.00    -0.367 N 
ATOM     10  H4  UNL     1      -8.633  23.809  -2.829  1.00  0.00     0.161 HD
BRANCH   9  11
HETATM   11  C11 UNL     1      -9.289  25.757  -3.363  1.00  0.00     0.169 C 
HETATM   12  S1  UNL     1     -10.603  26.336  -2.582  1.00  0.00    -0.041 SA
BRANCH  11  13
HETATM   13  N5  UNL     1      -8.997  26.206  -4.658  1.00  0.00    -0.357 N 
HETATM   14  C12 UNL     1      -8.124  25.575  -5.614  1.00  0.00     0.135 C 
HETATM   15  C13 UNL     1      -6.824  26.312  -5.801  1.00  0.00     0.093 C 
HETATM   16  S2  UNL     1      -7.007  28.090  -5.598  1.00  0.00    -0.166 SA
HETATM   17  C14 UNL     1      -8.573  28.545  -4.837  1.00  0.00     0.093 C 
HETATM   18  C15 UNL     1      -9.626  27.461  -5.113  1.00  0.00     0.135 C 
ENDBRANCH  11  13
ENDBRANCH   9  11
ENDBRANCH   8   9
ENDBRANCH   7   8
ENDBRANCH   6   7
ENDBRANCH   5   6
ENDBRANCH   3   5
BRANCH   1  19
HETATM   19  N2  UNL     1      -5.870  29.576   0.056  1.00  0.00    -0.267 N 
HETATM   20  C5  UNL     1      -7.018  30.091   0.693  1.00  0.00     0.240 C 
HETATM   21  O1  UNL     1      -7.980  29.324   0.928  1.00  0.00    -0.271 OA
ATOM     22  H2  UNL     1      -5.106  30.228  -0.123  1.00  0.00     0.190 HD
BRANCH  20  23
HETATM   23  C4  UNL     1      -7.041  31.534   1.064  1.00  0.00     0.082 C 
HETATM   24  C3  UNL     1      -8.479  31.976   0.914  1.00  0.00     0.033 C 
HETATM   25  C2  UNL     1      -8.645  33.440   0.649  1.00  0.00     0.117 C 
HETATM   26  N1  UNL     1      -7.517  34.251   0.921  1.00  0.00    -0.417 N 
HETATM   27  C1  UNL     1      -7.435  34.743   2.272  1.00  0.00     0.143 C 
HETATM   28  C17 UNL     1      -6.279  33.806   0.373  1.00  0.00     0.117 C 
HETATM   29  C16 UNL     1      -6.217  32.334   0.092  1.00  0.00     0.033 C 
ENDBRANCH  20  23
ENDBRANCH   1  19
TORSDOF 9
ENDMDL
