MODEL 1
REMARK VINA RESULT: -7.454572877      0.000      0.000
REMARK  8 active torsions:
REMARK  status: ('A' for Active; 'I' for Inactive)
REMARK    1  A    between atoms: N4_5  and  C2_6 
REMARK    2  A    between atoms: C2_6  and  N5_7 
REMARK    3  A    between atoms: N5_7  and  C3_9 
REMARK    4  A    between atoms: C5_11  and  N6_12 
REMARK    5  A    between atoms: C10_20  and  N8_21 
REMARK    6  A    between atoms: N8_21  and  C11_23 
REMARK    7  A    between atoms: C11_23  and  C12_24 
REMARK    8  A    between atoms: C12_24  and  O2_25 
ROOT
HETATM    1  C3  UNL     1      18.145   5.266  12.492  1.00  0.00     0.121 A 
HETATM    2  C4  UNL     1      19.282   5.865  11.962  1.00  0.00     0.097 A 
HETATM    3  C5  UNL     1      19.991   5.232  10.965  1.00  0.00     0.122 A 
HETATM    4  N7  UNL     1      19.527   4.043  10.552  1.00  0.00    -0.177 N 
ATOM      5  H7  UNL     1      20.030   3.551   9.814  1.00  0.00     0.185 HD
HETATM    6  C10 UNL     1      18.408   3.466  11.081  1.00  0.00     0.681 A 
HETATM    7  N9  UNL     1      17.715   4.074  12.050  1.00  0.00    -0.177 N 
ATOM      8  H9  UNL     1      16.878   3.642  12.443  1.00  0.00     0.185 HD
ENDROOT
BRANCH   1   9
HETATM    9  N5  UNL     1      17.475   5.857  13.428  1.00  0.00    -0.358 N 
ATOM     10  H5  UNL     1      16.594   6.324  13.215  1.00  0.00     0.162 HD
BRANCH   9  11
HETATM   11  C2  UNL     1      17.983   5.849  14.759  1.00  0.00     0.274 C 
BRANCH  11  12
HETATM   12  N4  UNL     1      17.303   4.815  15.555  1.00  0.00    -0.209 N 
HETATM   13  N3  UNL     1      17.879   3.801  16.188  1.00  0.00    -0.001 NA
HETATM   14  N2  UNL     1      16.951   3.078  16.798  1.00  0.00    -0.002 NA
HETATM   15  N1  UNL     1      15.751   3.611  16.571  1.00  0.00    -0.232 N 
HETATM   16  C1  UNL     1      14.468   3.113  17.067  1.00  0.00     0.180 C 
HETATM   17  C13 UNL     1      15.986   4.687  15.798  1.00  0.00     0.355 A 
HETATM   18  O3  UNL     1      15.093   5.461  15.369  1.00  0.00    -0.244 OA
ENDBRANCH  11  12
ENDBRANCH   9  11
ENDBRANCH   1   9
BRANCH   3  19
HETATM   19  N6  UNL     1      21.155   5.837  10.414  1.00  0.00    -0.363 N 
HETATM   20  C6  UNL     1      21.207   6.090   9.011  1.00  0.00     0.150 C 
HETATM   21  C7  UNL     1      22.558   6.341   8.439  1.00  0.00     0.187 C 
HETATM   22  O1  UNL     1      23.552   6.550   9.365  1.00  0.00    -0.388 OA
HETATM   23  C8  UNL     1      23.132   7.176  10.512  1.00  0.00     0.187 C 
HETATM   24  C9  UNL     1      22.256   6.185  11.279  1.00  0.00     0.150 C 
ENDBRANCH   3  19
BRANCH   6  25
HETATM   25  N8  UNL     1      18.007   2.323  10.649  1.00  0.00    -0.224 N 
ATOM     26  H8  UNL     1      17.871   2.218   9.644  1.00  0.00     0.177 HD
BRANCH  25  27
HETATM   27  C11 UNL     1      17.737   1.194  11.476  1.00  0.00     0.164 C 
BRANCH  27  28
HETATM   28  C12 UNL     1      18.886   0.179  11.452  1.00  0.00     0.184 C 
BRANCH  28  29
HETATM   29  O2  UNL     1      18.354  -1.122  11.491  1.00  0.00    -0.399 OA
ATOM     30  H2  UNL     1      18.107  -1.385  10.612  1.00  0.00     0.209 HD
ENDBRANCH  28  29
ENDBRANCH  27  28
ENDBRANCH  25  27
ENDBRANCH   6  25
TORSDOF 8
ENDMDL
MODEL 2
REMARK VINA RESULT: -7.331114854      3.341      3.873
REMARK  8 active torsions:
REMARK  status: ('A' for Active; 'I' for Inactive)
REMARK    1  A    between atoms: N4_5  and  C2_6 
REMARK    2  A    between atoms: C2_6  and  N5_7 
REMARK    3  A    between atoms: N5_7  and  C3_9 
REMARK    4  A    between atoms: C5_11  and  N6_12 
REMARK    5  A    between atoms: C10_20  and  N8_21 
REMARK    6  A    between atoms: N8_21  and  C11_23 
REMARK    7  A    between atoms: C11_23  and  C12_24 
REMARK    8  A    between atoms: C12_24  and  O2_25 
ROOT
HETATM    1  C3  UNL     1      16.658   6.207  12.669  1.00  0.00     0.121 A 
HETATM    2  C4  UNL     1      16.497   7.181  11.690  1.00  0.00     0.097 A 
HETATM    3  C5  UNL     1      16.409   6.816  10.365  1.00  0.00     0.122 A 
HETATM    4  N7  UNL     1      16.483   5.506  10.091  1.00  0.00    -0.177 N 
ATOM      5  H7  UNL     1      16.420   5.205   9.118  1.00  0.00     0.185 HD
HETATM    6  C10 UNL     1      16.641   4.559  11.061  1.00  0.00     0.681 A 
HETATM    7  N9  UNL     1      16.729   4.905  12.350  1.00  0.00    -0.177 N 
ATOM      8  H9  UNL     1      16.846   4.196  13.075  1.00  0.00     0.185 HD
ENDROOT
BRANCH   1   9
HETATM    9  N5  UNL     1      16.741   6.545  13.914  1.00  0.00    -0.358 N 
ATOM     10  H5  UNL     1      16.064   7.192  14.319  1.00  0.00     0.162 HD
BRANCH   9  11
HETATM   11  C2  UNL     1      17.788   6.002  14.716  1.00  0.00     0.274 C 
BRANCH  11  12
HETATM   12  N4  UNL     1      17.290   4.857  15.492  1.00  0.00    -0.209 N 
HETATM   13  N3  UNL     1      18.005   3.827  15.926  1.00  0.00    -0.001 NA
HETATM   14  N2  UNL     1      17.219   2.992  16.589  1.00  0.00    -0.002 NA
HETATM   15  N1  UNL     1      15.974   3.465  16.597  1.00  0.00    -0.232 N 
HETATM   16  C1  UNL     1      14.809   2.841  17.224  1.00  0.00     0.180 C 
HETATM   17  C13 UNL     1      16.034   4.622  15.913  1.00  0.00     0.355 A 
HETATM   18  O3  UNL     1      15.048   5.374  15.702  1.00  0.00    -0.244 OA
ENDBRANCH  11  12
ENDBRANCH   9  11
ENDBRANCH   1   9
BRANCH   3  19
HETATM   19  N6  UNL     1      16.241   7.805   9.355  1.00  0.00    -0.363 N 
HETATM   20  C6  UNL     1      15.005   8.513   9.276  1.00  0.00     0.150 C 
HETATM   21  C7  UNL     1      14.738   9.224   7.996  1.00  0.00     0.187 C 
HETATM   22  O1  UNL     1      15.815   9.323   7.149  1.00  0.00    -0.388 OA
HETATM   23  C8  UNL     1      17.026   9.428   7.787  1.00  0.00     0.187 C 
HETATM   24  C9  UNL     1      17.320   8.076   8.436  1.00  0.00     0.150 C 
ENDBRANCH   3  19
BRANCH   6  25
HETATM   25  N8  UNL     1      16.708   3.314  10.744  1.00  0.00    -0.224 N 
ATOM     26  H8  UNL     1      15.977   2.940  10.139  1.00  0.00     0.177 HD
BRANCH  25  27
HETATM   27  C11 UNL     1      17.731   2.421  11.176  1.00  0.00     0.164 C 
BRANCH  27  28
HETATM   28  C12 UNL     1      17.219   1.431  12.228  1.00  0.00     0.184 C 
BRANCH  28  29
HETATM   29  O2  UNL     1      16.921   2.127  13.414  1.00  0.00    -0.399 OA
ATOM     30  H2  UNL     1      15.979   2.214  13.496  1.00  0.00     0.209 HD
ENDBRANCH  28  29
ENDBRANCH  27  28
ENDBRANCH  25  27
ENDBRANCH   6  25
TORSDOF 8
ENDMDL
MODEL 3
REMARK VINA RESULT: -7.185959983      2.954      5.230
REMARK  8 active torsions:
REMARK  status: ('A' for Active; 'I' for Inactive)
REMARK    1  A    between atoms: N4_5  and  C2_6 
REMARK    2  A    between atoms: C2_6  and  N5_7 
REMARK    3  A    between atoms: N5_7  and  C3_9 
REMARK    4  A    between atoms: C5_11  and  N6_12 
REMARK    5  A    between atoms: C10_20  and  N8_21 
REMARK    6  A    between atoms: N8_21  and  C11_23 
REMARK    7  A    between atoms: C11_23  and  C12_24 
REMARK    8  A    between atoms: C12_24  and  O2_25 
ROOT
HETATM    1  C3  UNL     1      18.708   5.120  12.220  1.00  0.00     0.121 A 
HETATM    2  C4  UNL     1      17.672   5.899  11.717  1.00  0.00     0.097 A 
HETATM    3  C5  UNL     1      17.879   7.237  11.464  1.00  0.00     0.122 A 
HETATM    4  N7  UNL     1      19.102   7.721  11.722  1.00  0.00    -0.177 N 
ATOM      5  H7  UNL     1      19.287   8.708  11.543  1.00  0.00     0.185 HD
HETATM    6  C10 UNL     1      20.112   6.945  12.215  1.00  0.00     0.681 A 
HETATM    7  N9  UNL     1      19.919   5.645  12.465  1.00  0.00    -0.177 N 
ATOM      8  H9  UNL     1      20.674   5.066  12.833  1.00  0.00     0.185 HD
ENDROOT
BRANCH   1   9
HETATM    9  N5  UNL     1      18.518   3.863  12.459  1.00  0.00    -0.358 N 
ATOM     10  H5  UNL     1      19.313   3.239  12.597  1.00  0.00     0.162 HD
BRANCH   9  11
HETATM   11  C2  UNL     1      17.186   3.360  12.529  1.00  0.00     0.274 C 
BRANCH  11  12
HETATM   12  N4  UNL     1      16.836   3.045  13.922  1.00  0.00    -0.209 N 
HETATM   13  N3  UNL     1      16.731   1.835  14.456  1.00  0.00    -0.001 NA
HETATM   14  N2  UNL     1      16.400   1.943  15.734  1.00  0.00    -0.002 NA
HETATM   15  N1  UNL     1      16.283   3.231  16.055  1.00  0.00    -0.232 N 
HETATM   16  C1  UNL     1      15.931   3.773  17.368  1.00  0.00     0.180 C 
HETATM   17  C13 UNL     1      16.556   3.901  14.922  1.00  0.00     0.355 A 
HETATM   18  O3  UNL     1      16.549   5.155  14.819  1.00  0.00    -0.244 OA
ENDBRANCH  11  12
ENDBRANCH   9  11
ENDBRANCH   1   9
BRANCH   3  19
HETATM   19  N6  UNL     1      16.826   8.044  10.947  1.00  0.00    -0.363 N 
HETATM   20  C6  UNL     1      16.663   9.372  11.441  1.00  0.00     0.150 C 
HETATM   21  C7  UNL     1      15.347  10.013  11.176  1.00  0.00     0.187 C 
HETATM   22  O1  UNL     1      14.548   9.351  10.275  1.00  0.00    -0.388 OA
HETATM   23  C8  UNL     1      15.237   8.695   9.286  1.00  0.00     0.187 C 
HETATM   24  C9  UNL     1      15.949   7.508   9.934  1.00  0.00     0.150 C 
ENDBRANCH   3  19
BRANCH   6  25
HETATM   25  N8  UNL     1      21.268   7.459  12.447  1.00  0.00    -0.224 N 
ATOM     26  H8  UNL     1      21.564   7.538  13.420  1.00  0.00     0.177 HD
BRANCH  25  27
HETATM   27  C11 UNL     1      22.163   7.927  11.442  1.00  0.00     0.164 C 
BRANCH  27  28
HETATM   28  C12 UNL     1      23.170   6.849  11.024  1.00  0.00     0.184 C 
BRANCH  28  29
HETATM   29  O2  UNL     1      23.932   6.470  12.144  1.00  0.00    -0.399 OA
ATOM     30  H2  UNL     1      23.581   5.663  12.501  1.00  0.00     0.209 HD
ENDBRANCH  28  29
ENDBRANCH  27  28
ENDBRANCH  25  27
ENDBRANCH   6  25
TORSDOF 8
ENDMDL
MODEL 4
REMARK VINA RESULT: -7.181807650      2.915      3.966
REMARK  8 active torsions:
REMARK  status: ('A' for Active; 'I' for Inactive)
REMARK    1  A    between atoms: N4_5  and  C2_6 
REMARK    2  A    between atoms: C2_6  and  N5_7 
REMARK    3  A    between atoms: N5_7  and  C3_9 
REMARK    4  A    between atoms: C5_11  and  N6_12 
REMARK    5  A    between atoms: C10_20  and  N8_21 
REMARK    6  A    between atoms: N8_21  and  C11_23 
REMARK    7  A    between atoms: C11_23  and  C12_24 
REMARK    8  A    between atoms: C12_24  and  O2_25 
ROOT
HETATM    1  C3  UNL     1      17.022   4.862  11.698  1.00  0.00     0.121 A 
HETATM    2  C4  UNL     1      18.392   5.098  11.689  1.00  0.00     0.097 A 
HETATM    3  C5  UNL     1      18.912   6.091  10.889  1.00  0.00     0.122 A 
HETATM    4  N7  UNL     1      18.042   6.792  10.148  1.00  0.00    -0.177 N 
ATOM      5  H7  UNL     1      18.398   7.535   9.546  1.00  0.00     0.185 HD
HETATM    6  C10 UNL     1      16.698   6.551  10.166  1.00  0.00     0.681 A 
HETATM    7  N9  UNL     1      16.184   5.588  10.940  1.00  0.00    -0.177 N 
ATOM      8  H9  UNL     1      15.180   5.409  10.953  1.00  0.00     0.185 HD
ENDROOT
BRANCH   1   9
HETATM    9  N5  UNL     1      16.528   3.931  12.448  1.00  0.00    -0.358 N 
ATOM     10  H5  UNL     1      15.537   3.697  12.393  1.00  0.00     0.162 HD
BRANCH   9  11
HETATM   11  C2  UNL     1      17.384   3.236  13.351  1.00  0.00     0.274 C 
BRANCH  11  12
HETATM   12  N4  UNL     1      16.720   3.071  14.653  1.00  0.00    -0.209 N 
HETATM   13  N3  UNL     1      16.530   1.929  15.303  1.00  0.00    -0.001 NA
HETATM   14  N2  UNL     1      15.899   2.170  16.442  1.00  0.00    -0.002 NA
HETATM   15  N1  UNL     1      15.666   3.477  16.554  1.00  0.00    -0.232 N 
HETATM   16  C1  UNL     1      14.992   4.150  17.664  1.00  0.00     0.180 C 
HETATM   17  C13 UNL     1      16.181   4.022  15.437  1.00  0.00     0.355 A 
HETATM   18  O3  UNL     1      16.158   5.251  15.171  1.00  0.00    -0.244 OA
ENDBRANCH  11  12
ENDBRANCH   9  11
ENDBRANCH   1   9
BRANCH   3  19
HETATM   19  N6  UNL     1      20.313   6.344  10.873  1.00  0.00    -0.363 N 
HETATM   20  C6  UNL     1      21.063   6.020   9.704  1.00  0.00     0.150 C 
HETATM   21  C7  UNL     1      22.538   5.926   9.876  1.00  0.00     0.187 C 
HETATM   22  O1  UNL     1      23.016   6.409  11.071  1.00  0.00    -0.388 OA
HETATM   23  C8  UNL     1      22.302   7.465  11.579  1.00  0.00     0.187 C 
HETATM   24  C9  UNL     1      20.947   6.923  12.033  1.00  0.00     0.150 C 
ENDBRANCH   3  19
BRANCH   6  25
HETATM   25  N8  UNL     1      15.906   7.252   9.435  1.00  0.00    -0.224 N 
ATOM     26  H8  UNL     1      15.647   6.876   8.523  1.00  0.00     0.177 HD
BRANCH  25  27
HETATM   27  C11 UNL     1      15.364   8.516   9.808  1.00  0.00     0.164 C 
BRANCH  27  28
HETATM   28  C12 UNL     1      14.504   9.122   8.694  1.00  0.00     0.184 C 
BRANCH  28  29
HETATM   29  O2  UNL     1      13.883   8.086   7.973  1.00  0.00    -0.399 OA
ATOM     30  H2  UNL     1      13.516   8.439   7.172  1.00  0.00     0.209 HD
ENDBRANCH  28  29
ENDBRANCH  27  28
ENDBRANCH  25  27
ENDBRANCH   6  25
TORSDOF 8
ENDMDL
MODEL 5
REMARK VINA RESULT: -7.163512110      2.903      3.463
REMARK  8 active torsions:
REMARK  status: ('A' for Active; 'I' for Inactive)
REMARK    1  A    between atoms: N4_5  and  C2_6 
REMARK    2  A    between atoms: C2_6  and  N5_7 
REMARK    3  A    between atoms: N5_7  and  C3_9 
REMARK    4  A    between atoms: C5_11  and  N6_12 
REMARK    5  A    between atoms: C10_20  and  N8_21 
REMARK    6  A    between atoms: N8_21  and  C11_23 
REMARK    7  A    between atoms: C11_23  and  C12_24 
REMARK    8  A    between atoms: C12_24  and  O2_25 
ROOT
HETATM    1  C3  UNL     1      18.020   5.548  12.496  1.00  0.00     0.121 A 
HETATM    2  C4  UNL     1      17.641   6.592  11.660  1.00  0.00     0.097 A 
HETATM    3  C5  UNL     1      17.029   6.322  10.456  1.00  0.00     0.122 A 
HETATM    4  N7  UNL     1      16.828   5.031  10.154  1.00  0.00    -0.177 N 
ATOM      5  H7  UNL     1      16.376   4.800   9.269  1.00  0.00     0.185 HD
HETATM    6  C10 UNL     1      17.204   4.014  10.984  1.00  0.00     0.681 A 
HETATM    7  N9  UNL     1      17.800   4.268  12.155  1.00  0.00    -0.177 N 
ATOM      8  H9  UNL     1      18.080   3.507  12.774  1.00  0.00     0.185 HD
ENDROOT
BRANCH   1   9
HETATM    9  N5  UNL     1      18.594   5.796  13.627  1.00  0.00    -0.358 N 
ATOM     10  H5  UNL     1      19.604   5.695  13.726  1.00  0.00     0.162 HD
BRANCH   9  11
HETATM   11  C2  UNL     1      17.800   6.214  14.735  1.00  0.00     0.274 C 
BRANCH  11  12
HETATM   12  N4  UNL     1      17.325   5.043  15.488  1.00  0.00    -0.209 N 
HETATM   13  N3  UNL     1      18.077   4.083  16.010  1.00  0.00    -0.001 NA
HETATM   14  N2  UNL     1      17.302   3.196  16.617  1.00  0.00    -0.002 NA
HETATM   15  N1  UNL     1      16.027   3.566  16.500  1.00  0.00    -0.232 N 
HETATM   16  C1  UNL     1      14.863   2.857  17.030  1.00  0.00     0.180 C 
HETATM   17  C13 UNL     1      16.058   4.712  15.797  1.00  0.00     0.355 A 
HETATM   18  O3  UNL     1      15.039   5.377  15.479  1.00  0.00    -0.244 OA
ENDBRANCH  11  12
ENDBRANCH   9  11
ENDBRANCH   1   9
BRANCH   3  19
HETATM   19  N6  UNL     1      16.635   7.384   9.594  1.00  0.00    -0.363 N 
HETATM   20  C6  UNL     1      17.504   7.776   8.533  1.00  0.00     0.150 C 
HETATM   21  C7  UNL     1      17.243   9.111   7.931  1.00  0.00     0.187 C 
HETATM   22  O1  UNL     1      16.051   9.690   8.294  1.00  0.00    -0.388 OA
HETATM   23  C8  UNL     1      15.035   8.795   8.518  1.00  0.00     0.187 C 
HETATM   24  C9  UNL     1      15.366   8.040   9.805  1.00  0.00     0.150 C 
ENDBRANCH   3  19
BRANCH   6  25
HETATM   25  N8  UNL     1      16.989   2.792  10.646  1.00  0.00    -0.224 N 
ATOM     26  H8  UNL     1      16.026   2.517  10.451  1.00  0.00     0.177 HD
BRANCH  25  27
HETATM   27  C11 UNL     1      18.000   1.795  10.524  1.00  0.00     0.164 C 
BRANCH  27  28
HETATM   28  C12 UNL     1      17.891   0.732  11.624  1.00  0.00     0.184 C 
BRANCH  28  29
HETATM   29  O2  UNL     1      18.773  -0.325  11.334  1.00  0.00    -0.399 OA
ATOM     30  H2  UNL     1      18.619  -1.036  11.944  1.00  0.00     0.209 HD
ENDBRANCH  28  29
ENDBRANCH  27  28
ENDBRANCH  25  27
ENDBRANCH   6  25
TORSDOF 8
ENDMDL
