MODEL 1
REMARK VINA RESULT: -6.742589175      0.000      0.000
REMARK  8 active torsions:
REMARK  status: ('A' for Active; 'I' for Inactive)
REMARK    1  A    between atoms: C2_2  and  O1_3 
REMARK    2  A    between atoms: C2_2  and  N1_5 
REMARK    3  A    between atoms: N1_5  and  C3_7 
REMARK    4  A    between atoms: C4_10  and  N3_11 
REMARK    5  A    between atoms: C7_16  and  N5_17 
REMARK    6  A    between atoms: N5_17  and  C8_19 
REMARK    7  A    between atoms: C8_19  and  C9_20 
REMARK    8  A    between atoms: C11_24  and  O2_25 
ROOT
HETATM    1  C3  UNL     1      17.099   4.314  14.060  1.00  0.00     0.709 A 
HETATM    2  N2  UNL     1      17.021   3.261  13.196  1.00  0.00    -0.021 N 
ATOM      3  H2  UNL     1      16.348   2.510  13.350  1.00  0.00     0.203 HD
HETATM    4  C4  UNL     1      17.844   3.233  12.145  1.00  0.00     0.708 A 
HETATM    5  N4  UNL     1      18.731   4.233  11.956  1.00  0.00    -0.021 N 
ATOM      6  H4  UNL     1      19.351   4.192  11.148  1.00  0.00     0.203 HD
HETATM    7  C7  UNL     1      18.828   5.277  12.789  1.00  0.00     0.707 A 
HETATM    8  N8  UNL     1      17.987   5.299  13.855  1.00  0.00    -0.021 N 
ATOM      9  H8  UNL     1      18.031   6.078  14.512  1.00  0.00     0.203 HD
ENDROOT
BRANCH   7  10
HETATM   10  N5  UNL     1      19.663   6.249  12.681  1.00  0.00    -0.219 N 
ATOM     11  H5  UNL     1      20.670   6.089  12.705  1.00  0.00     0.178 HD
BRANCH  10  12
HETATM   12  C8  UNL     1      19.114   7.583  12.524  1.00  0.00     0.196 C 
BRANCH  12  13
HETATM   13  C9  UNL     1      18.289   7.716  11.305  1.00  0.00     0.048 A 
HETATM   14  C10 UNL     1      18.813   7.482  10.043  1.00  0.00     0.117 A 
HETATM   15  N6  UNL     1      18.071   7.608   8.929  1.00  0.00    -0.341 N 
HETATM   16  C11 UNL     1      16.775   7.970   8.989  1.00  0.00     0.210 A 
ATOM     17  H6  UNL     1      18.498   7.426   8.021  1.00  0.00     0.167 HD
HETATM   18  C12 UNL     1      16.247   8.204  10.233  1.00  0.00     0.298 A 
HETATM   19  O3  UNL     1      15.028   8.546  10.312  1.00  0.00    -0.263 OA
HETATM   20  N7  UNL     1      16.996   8.076  11.365  1.00  0.00    -0.316 N 
HETATM   21  C13 UNL     1      16.374   8.333  12.640  1.00  0.00     0.159 C 
BRANCH  16  22
HETATM   22  O2  UNL     1      15.999   8.102   7.826  1.00  0.00    -0.342 OA
ATOM     23  H2  UNL     1      15.050   8.120   7.865  1.00  0.00     0.219 HD
ENDBRANCH  16  22
ENDBRANCH  12  13
ENDBRANCH  10  12
ENDBRANCH   7  10
BRANCH   4  24
HETATM   24  N3  UNL     1      17.760   2.131  11.248  1.00  0.00    -0.225 N 
HETATM   25  C5  UNL     1      18.188   0.804  11.569  1.00  0.00     0.168 C 
HETATM   26  C6  UNL     1      17.187   2.419   9.940  1.00  0.00     0.168 C 
ENDBRANCH   4  24
BRANCH   1  27
HETATM   27  N1  UNL     1      16.303   4.327  15.064  1.00  0.00    -0.199 N 
ATOM     28  H1  UNL     1      15.345   4.652  14.940  1.00  0.00     0.180 HD
BRANCH  27  29
HETATM   29  C2  UNL     1      16.738   3.891  16.358  1.00  0.00     0.230 C 
HETATM   30  C1  UNL     1      15.646   3.036  16.961  1.00  0.00     0.063 C 
BRANCH  29  31
HETATM   31  O1  UNL     1      17.903   3.117  16.334  1.00  0.00    -0.377 OA
ATOM     32  H1  UNL     1      18.371   3.338  15.537  1.00  0.00     0.212 HD
ENDBRANCH  29  31
ENDBRANCH  27  29
ENDBRANCH   1  27
TORSDOF 8
ENDMDL
MODEL 2
REMARK VINA RESULT: -6.723973002      2.705      6.022
REMARK  8 active torsions:
REMARK  status: ('A' for Active; 'I' for Inactive)
REMARK    1  A    between atoms: C2_2  and  O1_3 
REMARK    2  A    between atoms: C2_2  and  N1_5 
REMARK    3  A    between atoms: N1_5  and  C3_7 
REMARK    4  A    between atoms: C4_10  and  N3_11 
REMARK    5  A    between atoms: C7_16  and  N5_17 
REMARK    6  A    between atoms: N5_17  and  C8_19 
REMARK    7  A    between atoms: C8_19  and  C9_20 
REMARK    8  A    between atoms: C11_24  and  O2_25 
ROOT
HETATM    1  C3  UNL     1      19.211   3.841  11.305  1.00  0.00     0.709 A 
HETATM    2  N2  UNL     1      20.359   4.524  11.025  1.00  0.00    -0.021 N 
ATOM      3  H2  UNL     1      21.111   4.083  10.495  1.00  0.00     0.203 HD
HETATM    4  C4  UNL     1      20.477   5.782  11.457  1.00  0.00     0.708 A 
HETATM    5  N4  UNL     1      19.474   6.351  12.158  1.00  0.00    -0.021 N 
ATOM      6  H4  UNL     1      19.585   7.312  12.480  1.00  0.00     0.203 HD
HETATM    7  C7  UNL     1      18.338   5.702  12.446  1.00  0.00     0.707 A 
HETATM    8  N8  UNL     1      18.225   4.424  12.002  1.00  0.00    -0.021 N 
ATOM      9  H8  UNL     1      17.375   3.898  12.203  1.00  0.00     0.203 HD
ENDROOT
BRANCH   7  10
HETATM   10  N5  UNL     1      17.355   6.176  13.127  1.00  0.00    -0.219 N 
ATOM     11  H5  UNL     1      16.491   6.474  12.676  1.00  0.00     0.178 HD
BRANCH  10  12
HETATM   12  C8  UNL     1      17.527   6.269  14.566  1.00  0.00     0.196 C 
BRANCH  12  13
HETATM   13  C9  UNL     1      16.933   5.121  15.282  1.00  0.00     0.048 A 
HETATM   14  C10 UNL     1      17.655   3.965  15.529  1.00  0.00     0.117 A 
HETATM   15  N6  UNL     1      17.119   2.914  16.174  1.00  0.00    -0.341 N 
HETATM   16  C11 UNL     1      15.846   2.936  16.611  1.00  0.00     0.210 A 
ATOM     17  H6  UNL     1      17.688   2.082  16.334  1.00  0.00     0.167 HD
HETATM   18  C12 UNL     1      15.122   4.077  16.371  1.00  0.00     0.298 A 
HETATM   19  O3  UNL     1      13.919   4.119  16.775  1.00  0.00    -0.263 OA
HETATM   20  N7  UNL     1      15.662   5.144  15.719  1.00  0.00    -0.316 N 
HETATM   21  C13 UNL     1      14.844   6.313  15.506  1.00  0.00     0.159 C 
BRANCH  16  22
HETATM   22  O2  UNL     1      15.284   1.839  17.285  1.00  0.00    -0.342 OA
ATOM     23  H2  UNL     1      14.461   1.456  17.005  1.00  0.00     0.219 HD
ENDBRANCH  16  22
ENDBRANCH  12  13
ENDBRANCH  10  12
ENDBRANCH   7  10
BRANCH   4  24
HETATM   24  N3  UNL     1      21.677   6.489  11.163  1.00  0.00    -0.225 N 
HETATM   25  C5  UNL     1      22.649   6.053  10.208  1.00  0.00     0.168 C 
HETATM   26  C6  UNL     1      21.878   7.731  11.897  1.00  0.00     0.168 C 
ENDBRANCH   4  24
BRANCH   1  27
HETATM   27  N1  UNL     1      19.113   2.635  10.883  1.00  0.00    -0.199 N 
ATOM     28  H1  UNL     1      19.930   2.026  10.909  1.00  0.00     0.180 HD
BRANCH  27  29
HETATM   29  C2  UNL     1      17.872   2.129  10.376  1.00  0.00     0.230 C 
HETATM   30  C1  UNL     1      17.118   1.491  11.522  1.00  0.00     0.063 C 
BRANCH  29  31
HETATM   31  O1  UNL     1      17.039   3.110   9.829  1.00  0.00    -0.377 OA
ATOM     32  H1  UNL     1      17.144   3.073   8.886  1.00  0.00     0.212 HD
ENDBRANCH  29  31
ENDBRANCH  27  29
ENDBRANCH   1  27
TORSDOF 8
ENDMDL
MODEL 3
REMARK VINA RESULT: -6.704369946      2.999      7.135
REMARK  8 active torsions:
REMARK  status: ('A' for Active; 'I' for Inactive)
REMARK    1  A    between atoms: C2_2  and  O1_3 
REMARK    2  A    between atoms: C2_2  and  N1_5 
REMARK    3  A    between atoms: N1_5  and  C3_7 
REMARK    4  A    between atoms: C4_10  and  N3_11 
REMARK    5  A    between atoms: C7_16  and  N5_17 
REMARK    6  A    between atoms: N5_17  and  C8_19 
REMARK    7  A    between atoms: C8_19  and  C9_20 
REMARK    8  A    between atoms: C11_24  and  O2_25 
ROOT
HETATM    1  C3  UNL     1      19.874   7.087  13.301  1.00  0.00     0.709 A 
HETATM    2  N2  UNL     1      20.396   8.339  13.449  1.00  0.00    -0.021 N 
ATOM      3  H2  UNL     1      21.347   8.546  13.143  1.00  0.00     0.203 HD
HETATM    4  C4  UNL     1      19.637   9.288  14.003  1.00  0.00     0.708 A 
HETATM    5  N4  UNL     1      18.381   8.998  14.404  1.00  0.00    -0.021 N 
ATOM      6  H4  UNL     1      17.819   9.737  14.826  1.00  0.00     0.203 HD
HETATM    7  C7  UNL     1      17.845   7.778  14.270  1.00  0.00     0.707 A 
HETATM    8  N8  UNL     1      18.623   6.819  13.705  1.00  0.00    -0.021 N 
ATOM      9  H8  UNL     1      18.249   5.877  13.587  1.00  0.00     0.203 HD
ENDROOT
BRANCH   7  10
HETATM   10  N5  UNL     1      16.668   7.429  14.651  1.00  0.00    -0.219 N 
ATOM     11  H5  UNL     1      16.179   7.932  15.391  1.00  0.00     0.178 HD
BRANCH  10  12
HETATM   12  C8  UNL     1      16.063   6.291  13.984  1.00  0.00     0.196 C 
BRANCH  12  13
HETATM   13  C9  UNL     1      15.886   5.135  14.887  1.00  0.00     0.048 A 
HETATM   14  C10 UNL     1      15.120   5.222  16.039  1.00  0.00     0.117 A 
HETATM   15  N6  UNL     1      14.960   4.177  16.869  1.00  0.00    -0.341 N 
HETATM   16  C11 UNL     1      15.541   2.988  16.617  1.00  0.00     0.210 A 
ATOM     17  H6  UNL     1      14.388   4.286  17.706  1.00  0.00     0.167 HD
HETATM   18  C12 UNL     1      16.301   2.891  15.479  1.00  0.00     0.298 A 
HETATM   19  O3  UNL     1      16.858   1.780  15.224  1.00  0.00    -0.263 OA
HETATM   20  N7  UNL     1      16.465   3.949  14.635  1.00  0.00    -0.316 N 
HETATM   21  C13 UNL     1      17.274   3.774  13.454  1.00  0.00     0.159 C 
BRANCH  16  22
HETATM   22  O2  UNL     1      15.375   1.895  17.483  1.00  0.00    -0.342 OA
ATOM     23  H2  UNL     1      15.135   1.036  17.156  1.00  0.00     0.219 HD
ENDBRANCH  16  22
ENDBRANCH  12  13
ENDBRANCH  10  12
ENDBRANCH   7  10
BRANCH   4  24
HETATM   24  N3  UNL     1      20.187  10.591  14.157  1.00  0.00    -0.225 N 
HETATM   25  C5  UNL     1      20.913  11.279  13.133  1.00  0.00     0.168 C 
HETATM   26  C6  UNL     1      19.962  11.227  15.447  1.00  0.00     0.168 C 
ENDBRANCH   4  24
BRANCH   1  27
HETATM   27  N1  UNL     1      20.614   6.187  12.768  1.00  0.00    -0.199 N 
ATOM     28  H1  UNL     1      21.249   5.647  13.355  1.00  0.00     0.180 HD
BRANCH  27  29
HETATM   29  C2  UNL     1      20.563   5.928  11.360  1.00  0.00     0.230 C 
HETATM   30  C1  UNL     1      20.202   4.472  11.160  1.00  0.00     0.063 C 
BRANCH  29  31
HETATM   31  O1  UNL     1      19.609   6.688  10.676  1.00  0.00    -0.377 OA
ATOM     32  H1  UNL     1      19.252   6.138   9.988  1.00  0.00     0.212 HD
ENDBRANCH  29  31
ENDBRANCH  27  29
ENDBRANCH   1  27
TORSDOF 8
ENDMDL
MODEL 4
REMARK VINA RESULT: -6.697545161      2.356      3.371
REMARK  8 active torsions:
REMARK  status: ('A' for Active; 'I' for Inactive)
REMARK    1  A    between atoms: C2_2  and  O1_3 
REMARK    2  A    between atoms: C2_2  and  N1_5 
REMARK    3  A    between atoms: N1_5  and  C3_7 
REMARK    4  A    between atoms: C4_10  and  N3_11 
REMARK    5  A    between atoms: C7_16  and  N5_17 
REMARK    6  A    between atoms: N5_17  and  C8_19 
REMARK    7  A    between atoms: C8_19  and  C9_20 
REMARK    8  A    between atoms: C11_24  and  O2_25 
ROOT
HETATM    1  C3  UNL     1      16.544   3.491  15.469  1.00  0.00     0.709 A 
HETATM    2  N2  UNL     1      17.050   2.782  14.418  1.00  0.00    -0.021 N 
ATOM      3  H2  UNL     1      17.407   1.836  14.553  1.00  0.00     0.203 HD
HETATM    4  C4  UNL     1      17.068   3.351  13.211  1.00  0.00     0.708 A 
HETATM    5  N4  UNL     1      16.593   4.604  13.049  1.00  0.00    -0.021 N 
ATOM      6  H4  UNL     1      16.617   5.021  12.119  1.00  0.00     0.203 HD
HETATM    7  C7  UNL     1      16.091   5.321  14.063  1.00  0.00     0.707 A 
HETATM    8  N8  UNL     1      16.076   4.735  15.288  1.00  0.00    -0.021 N 
ATOM      9  H8  UNL     1      15.702   5.250  16.085  1.00  0.00     0.203 HD
ENDROOT
BRANCH   7  10
HETATM   10  N5  UNL     1      15.645   6.525  13.983  1.00  0.00    -0.219 N 
ATOM     11  H5  UNL     1      14.731   6.726  13.578  1.00  0.00     0.178 HD
BRANCH  10  12
HETATM   12  C8  UNL     1      16.496   7.584  14.492  1.00  0.00     0.196 C 
BRANCH  12  13
HETATM   13  C9  UNL     1      17.861   7.535  13.928  1.00  0.00     0.048 A 
HETATM   14  C10 UNL     1      18.900   6.902  14.592  1.00  0.00     0.117 A 
HETATM   15  N6  UNL     1      20.145   6.859  14.089  1.00  0.00    -0.341 N 
HETATM   16  C11 UNL     1      20.443   7.434  12.908  1.00  0.00     0.210 A 
ATOM     17  H6  UNL     1      20.880   6.383  14.612  1.00  0.00     0.167 HD
HETATM   18  C12 UNL     1      19.421   8.062  12.242  1.00  0.00     0.298 A 
HETATM   19  O3  UNL     1      19.680   8.610  11.127  1.00  0.00    -0.263 OA
HETATM   20  N7  UNL     1      18.157   8.107  12.749  1.00  0.00    -0.316 N 
HETATM   21  C13 UNL     1      17.130   8.781  11.993  1.00  0.00     0.159 C 
BRANCH  16  22
HETATM   22  O2  UNL     1      21.744   7.390  12.380  1.00  0.00    -0.342 OA
ATOM     23  H2  UNL     1      22.327   8.137  12.439  1.00  0.00     0.219 HD
ENDBRANCH  16  22
ENDBRANCH  12  13
ENDBRANCH  10  12
ENDBRANCH   7  10
BRANCH   4  24
HETATM   24  N3  UNL     1      17.598   2.608  12.119  1.00  0.00    -0.225 N 
HETATM   25  C5  UNL     1      17.173   1.287  11.769  1.00  0.00     0.168 C 
HETATM   26  C6  UNL     1      18.625   3.278  11.334  1.00  0.00     0.168 C 
ENDBRANCH   4  24
BRANCH   1  27
HETATM   27  N1  UNL     1      16.534   2.931  16.621  1.00  0.00    -0.199 N 
ATOM     28  H1  UNL     1      17.399   2.548  17.001  1.00  0.00     0.180 HD
BRANCH  27  29
HETATM   29  C2  UNL     1      15.325   2.835  17.385  1.00  0.00     0.230 C 
HETATM   30  C1  UNL     1      15.194   4.087  18.224  1.00  0.00     0.063 C 
BRANCH  29  31
HETATM   31  O1  UNL     1      14.168   2.736  16.606  1.00  0.00    -0.377 OA
ATOM     32  H1  UNL     1      14.294   2.010  16.006  1.00  0.00     0.212 HD
ENDBRANCH  29  31
ENDBRANCH  27  29
ENDBRANCH   1  27
TORSDOF 8
ENDMDL
MODEL 5
REMARK VINA RESULT: -6.687740389      2.779      5.853
REMARK  8 active torsions:
REMARK  status: ('A' for Active; 'I' for Inactive)
REMARK    1  A    between atoms: C2_2  and  O1_3 
REMARK    2  A    between atoms: C2_2  and  N1_5 
REMARK    3  A    between atoms: N1_5  and  C3_7 
REMARK    4  A    between atoms: C4_10  and  N3_11 
REMARK    5  A    between atoms: C7_16  and  N5_17 
REMARK    6  A    between atoms: N5_17  and  C8_19 
REMARK    7  A    between atoms: C8_19  and  C9_20 
REMARK    8  A    between atoms: C11_24  and  O2_25 
ROOT
HETATM    1  C3  UNL     1      16.673   4.201  11.148  1.00  0.00     0.709 A 
HETATM    2  N2  UNL     1      16.474   5.172  10.211  1.00  0.00    -0.021 N 
ATOM      3  H2  UNL     1      15.976   4.965   9.345  1.00  0.00     0.203 HD
HETATM    4  C4  UNL     1      16.942   6.399  10.450  1.00  0.00     0.708 A 
HETATM    5  N4  UNL     1      17.600   6.657  11.600  1.00  0.00    -0.021 N 
ATOM      6  H4  UNL     1      17.951   7.601  11.763  1.00  0.00     0.203 HD
HETATM    7  C7  UNL     1      17.809   5.722  12.536  1.00  0.00     0.707 A 
HETATM    8  N8  UNL     1      17.329   4.477  12.286  1.00  0.00    -0.021 N 
ATOM      9  H8  UNL     1      17.469   3.739  12.975  1.00  0.00     0.203 HD
ENDROOT
BRANCH   7  10
HETATM   10  N5  UNL     1      18.446   5.894  13.640  1.00  0.00    -0.219 N 
ATOM     11  H5  UNL     1      19.456   5.765  13.696  1.00  0.00     0.178 HD
BRANCH  10  12
HETATM   12  C8  UNL     1      17.668   6.279  14.803  1.00  0.00     0.196 C 
BRANCH  12  13
HETATM   13  C9  UNL     1      17.032   5.122  15.466  1.00  0.00     0.048 A 
HETATM   14  C10 UNL     1      17.750   3.980  15.783  1.00  0.00     0.117 A 
HETATM   15  N6  UNL     1      17.176   2.920  16.380  1.00  0.00    -0.341 N 
HETATM   16  C11 UNL     1      15.868   2.920  16.699  1.00  0.00     0.210 A 
ATOM     17  H6  UNL     1      17.743   2.100  16.595  1.00  0.00     0.167 HD
HETATM   18  C12 UNL     1      15.148   4.046  16.390  1.00  0.00     0.298 A 
HETATM   19  O3  UNL     1      13.913   4.067  16.682  1.00  0.00    -0.263 OA
HETATM   20  N7  UNL     1      15.727   5.122  15.785  1.00  0.00    -0.316 N 
HETATM   21  C13 UNL     1      14.911   6.275  15.494  1.00  0.00     0.159 C 
BRANCH  16  22
HETATM   22  O2  UNL     1      15.267   1.814  17.323  1.00  0.00    -0.342 OA
ATOM     23  H2  UNL     1      14.745   1.192  16.830  1.00  0.00     0.219 HD
ENDBRANCH  16  22
ENDBRANCH  12  13
ENDBRANCH  10  12
ENDBRANCH   7  10
BRANCH   4  24
HETATM   24  N3  UNL     1      16.733   7.408   9.468  1.00  0.00    -0.225 N 
HETATM   25  C5  UNL     1      17.688   7.753   8.460  1.00  0.00     0.168 C 
HETATM   26  C6  UNL     1      15.450   8.094   9.526  1.00  0.00     0.168 C 
ENDBRANCH   4  24
BRANCH   1  27
HETATM   27  N1  UNL     1      16.218   3.029  10.904  1.00  0.00    -0.199 N 
ATOM     28  H1  UNL     1      15.362   2.926  10.358  1.00  0.00     0.180 HD
BRANCH  27  29
HETATM   29  C2  UNL     1      16.891   1.859  11.386  1.00  0.00     0.230 C 
HETATM   30  C1  UNL     1      18.321   1.899  10.893  1.00  0.00     0.063 C 
BRANCH  29  31
HETATM   31  O1  UNL     1      16.937   1.764  12.780  1.00  0.00    -0.377 OA
ATOM     32  H1  UNL     1      16.394   2.463  13.127  1.00  0.00     0.212 HD
ENDBRANCH  29  31
ENDBRANCH  27  29
ENDBRANCH   1  27
TORSDOF 8
ENDMDL
