MODEL 1
REMARK VINA RESULT: -6.864384408      0.000      0.000
REMARK  8 active torsions:
REMARK  status: ('A' for Active; 'I' for Inactive)
REMARK    1  A    between atoms: O1_2  and  N1_3 
REMARK    2  A    between atoms: N1_3  and  C2_5 
REMARK    3  A    between atoms: C5_11  and  S1_12 
REMARK    4  A    between atoms: S1_12  and  N4_13 
REMARK    5  A    between atoms: C7_19  and  N7_20 
REMARK    6  A    between atoms: N7_20  and  C8_22 
REMARK    7  A    between atoms: C8_22  and  C9_23 
REMARK    8  A    between atoms: C9_23  and  O2_24 
ROOT
HETATM    1  C2  UNL     1      16.564   0.219  15.129  1.00  0.00     0.731 A 
HETATM    2  N2  UNL     1      16.455   1.547  14.949  1.00  0.00    -0.019 N 
ATOM      3  H2  UNL     1      16.166   2.122  15.740  1.00  0.00     0.203 HD
HETATM    4  C3  UNL     1      16.710   2.154  13.770  1.00  0.00     0.722 A 
HETATM    5  N3  UNL     1      16.660   3.452  13.392  1.00  0.00    -0.175 N 
HETATM    6  C4  UNL     1      16.290   4.583  14.237  1.00  0.00     0.176 C 
HETATM    7  C5  UNL     1      17.008   3.540  12.098  1.00  0.00     0.151 A 
HETATM    8  C6  UNL     1      17.276   2.247  11.689  1.00  0.00     0.193 A 
HETATM    9  N5  UNL     1      17.684   1.891  10.372  1.00  0.00    -0.078 NA
HETATM   10  N6  UNL     1      17.093   1.394  12.713  1.00  0.00     0.040 N 
HETATM   11  C7  UNL     1      17.212   0.062  12.863  1.00  0.00     0.715 A 
HETATM   12  N8  UNL     1      16.947  -0.509  14.066  1.00  0.00    -0.019 N 
ATOM     13  H8  UNL     1      17.041  -1.520  14.166  1.00  0.00     0.203 HD
ENDROOT
BRANCH  11  14
HETATM   14  N7  UNL     1      17.579  -0.634  11.838  1.00  0.00    -0.223 N 
ATOM     15  H7  UNL     1      18.066  -0.196  11.055  1.00  0.00     0.177 HD
BRANCH  14  16
HETATM   16  C8  UNL     1      17.282  -2.041  11.829  1.00  0.00     0.164 C 
BRANCH  16  17
HETATM   17  C9  UNL     1      18.538  -2.793  11.413  1.00  0.00     0.184 C 
BRANCH  17  18
HETATM   18  O2  UNL     1      18.226  -4.156  11.497  1.00  0.00    -0.399 OA
ATOM     19  H2  UNL     1      19.052  -4.611  11.611  1.00  0.00     0.209 HD
ENDBRANCH  17  18
ENDBRANCH  16  17
ENDBRANCH  14  16
ENDBRANCH  11  14
BRANCH   1  20
HETATM   20  N1  UNL     1      16.319  -0.367  16.262  1.00  0.00    -0.096 N 
ATOM     21  H1  UNL     1      17.105  -0.550  16.886  1.00  0.00     0.213 HD
BRANCH  20  22
HETATM   22  O1  UNL     1      15.087  -0.750  16.664  1.00  0.00    -0.271 OA
HETATM   23  C1  UNL     1      14.081   0.141  17.067  1.00  0.00     0.238 C 
ENDBRANCH  20  22
ENDBRANCH   1  20
BRANCH   7  24
HETATM   24  S1  UNL     1      17.114   5.018  11.079  1.00  0.00     0.001 SA
BRANCH  24  25
HETATM   25  N4  UNL     1      16.605   4.634   9.442  1.00  0.00    -0.368 N 
ATOM     26  H42 UNL     1      17.087   3.979   8.826  1.00  0.00     0.164 HD
ATOM     27  H41 UNL     1      15.765   5.165   9.216  1.00  0.00     0.164 HD
ENDBRANCH  24  25
ENDBRANCH   7  24
TORSDOF 8
ENDMDL
MODEL 2
REMARK VINA RESULT: -6.615239674      1.216      1.329
REMARK  8 active torsions:
REMARK  status: ('A' for Active; 'I' for Inactive)
REMARK    1  A    between atoms: O1_2  and  N1_3 
REMARK    2  A    between atoms: N1_3  and  C2_5 
REMARK    3  A    between atoms: C5_11  and  S1_12 
REMARK    4  A    between atoms: S1_12  and  N4_13 
REMARK    5  A    between atoms: C7_19  and  N7_20 
REMARK    6  A    between atoms: N7_20  and  C8_22 
REMARK    7  A    between atoms: C8_22  and  C9_23 
REMARK    8  A    between atoms: C9_23  and  O2_24 
ROOT
HETATM    1  C2  UNL     1      16.526   0.416  15.218  1.00  0.00     0.731 A 
HETATM    2  N2  UNL     1      16.179   1.699  15.013  1.00  0.00    -0.019 N 
ATOM      3  H2  UNL     1      15.660   2.184  15.744  1.00  0.00     0.203 HD
HETATM    4  C3  UNL     1      16.486   2.374  13.884  1.00  0.00     0.722 A 
HETATM    5  N3  UNL     1      16.233   3.643  13.493  1.00  0.00    -0.175 N 
HETATM    6  C4  UNL     1      15.515   4.656  14.260  1.00  0.00     0.176 C 
HETATM    7  C5  UNL     1      16.753   3.831  12.269  1.00  0.00     0.151 A 
HETATM    8  C6  UNL     1      17.338   2.629  11.917  1.00  0.00     0.193 A 
HETATM    9  N5  UNL     1      18.009   2.395  10.683  1.00  0.00    -0.078 NA
HETATM   10  N6  UNL     1      17.175   1.732  12.906  1.00  0.00     0.040 N 
HETATM   11  C7  UNL     1      17.536   0.448  13.083  1.00  0.00     0.715 A 
HETATM   12  N8  UNL     1      17.208  -0.193  14.233  1.00  0.00    -0.019 N 
ATOM     13  H8  UNL     1      17.489  -1.167  14.355  1.00  0.00     0.203 HD
ENDROOT
BRANCH  11  14
HETATM   14  N7  UNL     1      18.191  -0.134  12.133  1.00  0.00    -0.223 N 
ATOM     15  H7  UNL     1      19.102   0.216  11.834  1.00  0.00     0.177 HD
BRANCH  14  16
HETATM   16  C8  UNL     1      17.603  -1.289  11.510  1.00  0.00     0.164 C 
BRANCH  16  17
HETATM   17  C9  UNL     1      16.291  -0.869  10.862  1.00  0.00     0.184 C 
BRANCH  17  18
HETATM   18  O2  UNL     1      16.634  -0.173   9.696  1.00  0.00    -0.399 OA
ATOM     19  H2  UNL     1      15.819   0.004   9.242  1.00  0.00     0.209 HD
ENDBRANCH  17  18
ENDBRANCH  16  17
ENDBRANCH  14  16
ENDBRANCH  11  14
BRANCH   1  20
HETATM   20  N1  UNL     1      16.232  -0.235  16.303  1.00  0.00    -0.096 N 
ATOM     21  H1  UNL     1      16.989  -0.449  16.953  1.00  0.00     0.213 HD
BRANCH  20  22
HETATM   22  O1  UNL     1      14.985  -0.646  16.623  1.00  0.00    -0.271 OA
HETATM   23  C1  UNL     1      13.958   0.215  17.037  1.00  0.00     0.238 C 
ENDBRANCH  20  22
ENDBRANCH   1  20
BRANCH   7  24
HETATM   24  S1  UNL     1      16.714   5.325  11.268  1.00  0.00     0.001 SA
BRANCH  24  25
HETATM   25  N4  UNL     1      16.302   4.906   9.613  1.00  0.00    -0.368 N 
ATOM     26  H42 UNL     1      15.371   4.628   9.302  1.00  0.00     0.164 HD
ATOM     27  H41 UNL     1      17.133   4.983   9.028  1.00  0.00     0.164 HD
ENDBRANCH  24  25
ENDBRANCH   7  24
TORSDOF 8
ENDMDL
MODEL 3
REMARK VINA RESULT: -6.578476376      1.588      1.604
REMARK  8 active torsions:
REMARK  status: ('A' for Active; 'I' for Inactive)
REMARK    1  A    between atoms: O1_2  and  N1_3 
REMARK    2  A    between atoms: N1_3  and  C2_5 
REMARK    3  A    between atoms: C5_11  and  S1_12 
REMARK    4  A    between atoms: S1_12  and  N4_13 
REMARK    5  A    between atoms: C7_19  and  N7_20 
REMARK    6  A    between atoms: N7_20  and  C8_22 
REMARK    7  A    between atoms: C8_22  and  C9_23 
REMARK    8  A    between atoms: C9_23  and  O2_24 
ROOT
HETATM    1  C2  UNL     1      16.890   0.386  14.804  1.00  0.00     0.731 A 
HETATM    2  N2  UNL     1      16.839   1.728  14.836  1.00  0.00    -0.019 N 
ATOM      3  H2  UNL     1      16.738   2.189  15.741  1.00  0.00     0.203 HD
HETATM    4  C3  UNL     1      16.915   2.496  13.728  1.00  0.00     0.722 A 
HETATM    5  N3  UNL     1      16.883   3.837  13.553  1.00  0.00    -0.175 N 
HETATM    6  C4  UNL     1      16.750   4.841  14.602  1.00  0.00     0.176 C 
HETATM    7  C5  UNL     1      16.995   4.105  12.241  1.00  0.00     0.151 A 
HETATM    8  C6  UNL     1      17.097   2.879  11.611  1.00  0.00     0.193 A 
HETATM    9  N5  UNL     1      17.233   2.710  10.203  1.00  0.00    -0.078 NA
HETATM   10  N6  UNL     1      17.048   1.889  12.521  1.00  0.00     0.040 N 
HETATM   11  C7  UNL     1      17.102   0.547  12.456  1.00  0.00     0.715 A 
HETATM   12  N8  UNL     1      17.023  -0.188  13.595  1.00  0.00    -0.019 N 
ATOM     13  H8  UNL     1      17.066  -1.205  13.532  1.00  0.00     0.203 HD
ENDROOT
BRANCH  11  14
HETATM   14  N7  UNL     1      17.229  -0.001  11.293  1.00  0.00    -0.223 N 
ATOM     15  H7  UNL     1      16.508   0.111  10.580  1.00  0.00     0.177 HD
BRANCH  14  16
HETATM   16  C8  UNL     1      18.415  -0.771  11.029  1.00  0.00     0.164 C 
BRANCH  16  17
HETATM   17  C9  UNL     1      19.613   0.166  11.062  1.00  0.00     0.184 C 
BRANCH  17  18
HETATM   18  O2  UNL     1      19.636   0.819   9.823  1.00  0.00    -0.399 OA
ATOM     19  H2  UNL     1      20.304   0.385   9.306  1.00  0.00     0.209 HD
ENDBRANCH  17  18
ENDBRANCH  16  17
ENDBRANCH  14  16
ENDBRANCH  11  14
BRANCH   1  20
HETATM   20  N1  UNL     1      16.817  -0.355  15.868  1.00  0.00    -0.096 N 
ATOM     21  H1  UNL     1      17.687  -0.598  16.343  1.00  0.00     0.213 HD
BRANCH  20  22
HETATM   22  O1  UNL     1      15.659  -0.822  16.386  1.00  0.00    -0.271 OA
HETATM   23  C1  UNL     1      14.756  -0.040  17.120  1.00  0.00     0.238 C 
ENDBRANCH  20  22
ENDBRANCH   1  20
BRANCH   7  24
HETATM   24  S1  UNL     1      17.012   5.715  11.439  1.00  0.00     0.001 SA
BRANCH  24  25
HETATM   25  N4  UNL     1      16.037   5.647   9.979  1.00  0.00    -0.368 N 
ATOM     26  H42 UNL     1      16.378   5.338   9.070  1.00  0.00     0.164 HD
ATOM     27  H41 UNL     1      15.091   5.964  10.190  1.00  0.00     0.164 HD
ENDBRANCH  24  25
ENDBRANCH   7  24
TORSDOF 8
ENDMDL
MODEL 4
REMARK VINA RESULT: -6.444289942      1.142      1.142
REMARK  8 active torsions:
REMARK  status: ('A' for Active; 'I' for Inactive)
REMARK    1  A    between atoms: O1_2  and  N1_3 
REMARK    2  A    between atoms: N1_3  and  C2_5 
REMARK    3  A    between atoms: C5_11  and  S1_12 
REMARK    4  A    between atoms: S1_12  and  N4_13 
REMARK    5  A    between atoms: C7_19  and  N7_20 
REMARK    6  A    between atoms: N7_20  and  C8_22 
REMARK    7  A    between atoms: C8_22  and  C9_23 
REMARK    8  A    between atoms: C9_23  and  O2_24 
ROOT
HETATM    1  C2  UNL     1      17.130   0.526  15.301  1.00  0.00     0.731 A 
HETATM    2  N2  UNL     1      17.323   1.834  15.061  1.00  0.00    -0.019 N 
ATOM      3  H2  UNL     1      17.498   2.452  15.854  1.00  0.00     0.203 HD
HETATM    4  C3  UNL     1      17.298   2.368  13.822  1.00  0.00     0.722 A 
HETATM    5  N3  UNL     1      17.466   3.635  13.379  1.00  0.00    -0.175 N 
HETATM    6  C4  UNL     1      17.735   4.808  14.203  1.00  0.00     0.176 C 
HETATM    7  C5  UNL     1      17.344   3.646  12.041  1.00  0.00     0.151 A 
HETATM    8  C6  UNL     1      17.094   2.338  11.673  1.00  0.00     0.193 A 
HETATM    9  N5  UNL     1      16.899   1.907  10.329  1.00  0.00    -0.078 NA
HETATM   10  N6  UNL     1      17.064   1.551  12.763  1.00  0.00     0.040 N 
HETATM   11  C7  UNL     1      16.868   0.236  12.971  1.00  0.00     0.715 A 
HETATM   12  N8  UNL     1      16.902  -0.260  14.235  1.00  0.00    -0.019 N 
ATOM     13  H8  UNL     1      16.752  -1.259  14.379  1.00  0.00     0.203 HD
ENDROOT
BRANCH  11  14
HETATM   14  N7  UNL     1      16.648  -0.515  11.943  1.00  0.00    -0.223 N 
ATOM     15  H7  UNL     1      15.923  -0.278  11.266  1.00  0.00     0.177 HD
BRANCH  14  16
HETATM   16  C8  UNL     1      17.454  -1.695  11.779  1.00  0.00     0.164 C 
BRANCH  16  17
HETATM   17  C9  UNL     1      18.527  -1.402  10.739  1.00  0.00     0.184 C 
BRANCH  17  18
HETATM   18  O2  UNL     1      17.854  -0.959   9.594  1.00  0.00    -0.399 OA
ATOM     19  H2  UNL     1      18.139  -0.065   9.447  1.00  0.00     0.209 HD
ENDBRANCH  17  18
ENDBRANCH  16  17
ENDBRANCH  14  16
ENDBRANCH  11  14
BRANCH   1  20
HETATM   20  N1  UNL     1      17.155   0.010  16.493  1.00  0.00    -0.096 N 
ATOM     21  H1  UNL     1      18.048  -0.020  16.984  1.00  0.00     0.213 HD
BRANCH  20  22
HETATM   22  O1  UNL     1      16.067  -0.490  17.123  1.00  0.00    -0.271 OA
HETATM   23  C1  UNL     1      14.864   0.211  17.286  1.00  0.00     0.238 C 
ENDBRANCH  20  22
ENDBRANCH   1  20
BRANCH   7  24
HETATM   24  S1  UNL     1      17.474   5.055  10.930  1.00  0.00     0.001 SA
BRANCH  24  25
HETATM   25  N4  UNL     1      16.333   4.860   9.609  1.00  0.00    -0.368 N 
ATOM     26  H42 UNL     1      15.864   3.986   9.375  1.00  0.00     0.164 HD
ATOM     27  H41 UNL     1      16.222   5.751   9.125  1.00  0.00     0.164 HD
ENDBRANCH  24  25
ENDBRANCH   7  24
TORSDOF 8
ENDMDL
MODEL 5
REMARK VINA RESULT: -6.300373107      2.716      4.948
REMARK  8 active torsions:
REMARK  status: ('A' for Active; 'I' for Inactive)
REMARK    1  A    between atoms: O1_2  and  N1_3 
REMARK    2  A    between atoms: N1_3  and  C2_5 
REMARK    3  A    between atoms: C5_11  and  S1_12 
REMARK    4  A    between atoms: S1_12  and  N4_13 
REMARK    5  A    between atoms: C7_19  and  N7_20 
REMARK    6  A    between atoms: N7_20  and  C8_22 
REMARK    7  A    between atoms: C8_22  and  C9_23 
REMARK    8  A    between atoms: C9_23  and  O2_24 
ROOT
HETATM    1  C2  UNL     1      17.001   2.426  11.298  1.00  0.00     0.731 A 
HETATM    2  N2  UNL     1      16.393   2.838  12.424  1.00  0.00    -0.019 N 
ATOM      3  H2  UNL     1      15.999   3.778  12.447  1.00  0.00     0.203 HD
HETATM    4  C3  UNL     1      16.278   2.065  13.525  1.00  0.00     0.722 A 
HETATM    5  N3  UNL     1      15.714   2.289  14.733  1.00  0.00    -0.175 N 
HETATM    6  C4  UNL     1      15.046   3.515  15.159  1.00  0.00     0.176 C 
HETATM    7  C5  UNL     1      15.867   1.193  15.494  1.00  0.00     0.151 A 
HETATM    8  C6  UNL     1      16.547   0.280  14.710  1.00  0.00     0.193 A 
HETATM    9  N5  UNL     1      16.916  -1.027  15.138  1.00  0.00    -0.078 NA
HETATM   10  N6  UNL     1      16.802   0.812  13.501  1.00  0.00     0.040 N 
HETATM   11  C7  UNL     1      17.416   0.372  12.388  1.00  0.00     0.715 A 
HETATM   12  N8  UNL     1      17.508   1.182  11.302  1.00  0.00    -0.019 N 
ATOM     13  H8  UNL     1      17.977   0.835  10.464  1.00  0.00     0.203 HD
ENDROOT
BRANCH  11  14
HETATM   14  N7  UNL     1      17.904  -0.825  12.397  1.00  0.00    -0.223 N 
ATOM     15  H7  UNL     1      18.196  -1.265  13.269  1.00  0.00     0.177 HD
BRANCH  14  16
HETATM   16  C8  UNL     1      18.023  -1.520  11.143  1.00  0.00     0.164 C 
BRANCH  16  17
HETATM   17  C9  UNL     1      17.650  -2.979  11.367  1.00  0.00     0.184 C 
BRANCH  17  18
HETATM   18  O2  UNL     1      18.854  -3.694  11.382  1.00  0.00    -0.399 OA
ATOM     19  H2  UNL     1      18.617  -4.613  11.412  1.00  0.00     0.209 HD
ENDBRANCH  17  18
ENDBRANCH  16  17
ENDBRANCH  14  16
ENDBRANCH  11  14
BRANCH   1  20
HETATM   20  N1  UNL     1      17.111   3.168  10.238  1.00  0.00    -0.096 N 
ATOM     21  H1  UNL     1      16.291   3.691   9.931  1.00  0.00     0.213 HD
BRANCH  20  22
HETATM   22  O1  UNL     1      18.248   3.290   9.516  1.00  0.00    -0.271 OA
HETATM   23  C1  UNL     1      19.363   4.035   9.928  1.00  0.00     0.238 C 
ENDBRANCH  20  22
ENDBRANCH   1  20
BRANCH   7  24
HETATM   24  S1  UNL     1      15.312   0.933  17.185  1.00  0.00     0.001 SA
BRANCH  24  25
HETATM   25  N4  UNL     1      15.381  -0.781  17.563  1.00  0.00    -0.368 N 
ATOM     26  H42 UNL     1      14.815  -1.496  17.107  1.00  0.00     0.164 HD
ATOM     27  H41 UNL     1      16.068  -0.937  18.300  1.00  0.00     0.164 HD
ENDBRANCH  24  25
ENDBRANCH   7  24
TORSDOF 8
ENDMDL
