MODEL 1
REMARK VINA RESULT: -6.410316038      0.000      0.000
REMARK  7 active torsions:
REMARK  status: ('A' for Active; 'I' for Inactive)
REMARK    1  A    between atoms: N1_2  and  C3_4 
REMARK    2  A    between atoms: C4_7  and  N3_8 
REMARK    3  A    between atoms: C9_17  and  N6_18 
REMARK    4  A    between atoms: C11_20  and  C12_21 
REMARK    5  A    between atoms: C11_20  and  N8_26 
REMARK    6  A    between atoms: C12_21  and  O1_22 
REMARK    7  A    between atoms: O1_22  and  N7_23 
ROOT
HETATM    1  C3  UNL     1      17.755   2.810  12.320  1.00  0.00     0.708 A 
HETATM    2  N2  UNL     1      17.020   2.824  13.446  1.00  0.00    -0.021 N 
ATOM      3  H2  UNL     1      16.452   2.012  13.688  1.00  0.00     0.203 HD
HETATM    4  C4  UNL     1      17.025   3.907  14.262  1.00  0.00     0.709 A 
HETATM    5  N5  UNL     1      17.795   4.944  13.884  1.00  0.00    -0.021 N 
ATOM      6  H5  UNL     1      17.808   5.767  14.488  1.00  0.00     0.203 HD
HETATM    7  C9  UNL     1      18.544   4.980  12.776  1.00  0.00     0.709 A 
HETATM    8  N9  UNL     1      18.508   3.870  11.991  1.00  0.00    -0.021 N 
ATOM      9  H9  UNL     1      19.063   3.844  11.136  1.00  0.00     0.203 HD
ENDROOT
BRANCH   7  10
HETATM   10  N6  UNL     1      19.311   6.095  12.355  1.00  0.00    -0.212 N 
HETATM   11  C10 UNL     1      19.424   6.902  11.162  1.00  0.00     0.176 C 
HETATM   12  C11 UNL     1      20.732   7.452  11.612  1.00  0.00     0.084 C 
HETATM   13  C15 UNL     1      20.287   6.942  12.992  1.00  0.00     0.176 C 
BRANCH  12  14
HETATM   14  C12 UNL     1      21.917   6.640  11.116  1.00  0.00     0.234 C 
BRANCH  14  15
HETATM   15  O1  UNL     1      23.117   7.285  11.405  1.00  0.00    -0.285 OA
BRANCH  15  16
HETATM   16  N7  UNL     1      23.909   6.598  12.239  1.00  0.00    -0.311 N 
ATOM     17  H72 UNL     1      23.950   5.579  12.237  1.00  0.00     0.184 HD
ATOM     18  H71 UNL     1      24.456   7.190  12.864  1.00  0.00     0.184 HD
ENDBRANCH  15  16
ENDBRANCH  14  15
ENDBRANCH  12  14
BRANCH  12  19
HETATM   19  N8  UNL     1      20.844   8.851  11.632  1.00  0.00    -0.407 N 
HETATM   20  C13 UNL     1      21.210   9.505  12.828  1.00  0.00     0.143 C 
HETATM   21  C14 UNL     1      20.928   9.560  10.416  1.00  0.00     0.143 C 
ENDBRANCH  12  19
ENDBRANCH   7  10
BRANCH   4  22
HETATM   22  N3  UNL     1      16.237   3.942  15.436  1.00  0.00    -0.214 N 
HETATM   23  C5  UNL     1      16.563   3.139  16.623  1.00  0.00     0.160 C 
HETATM   24  C6  UNL     1      15.293   2.345  16.895  1.00  0.00     0.134 C 
HETATM   25  N4  UNL     1      14.208   3.210  17.258  1.00  0.00    -0.418 N 
HETATM   26  C7  UNL     1      14.361   4.582  16.858  1.00  0.00     0.134 C 
ATOM     27  H4  UNL     1      13.387   2.876  17.762  1.00  0.00     0.153 HD
HETATM   28  C8  UNL     1      15.077   4.767  15.538  1.00  0.00     0.160 C 
ENDBRANCH   4  22
BRANCH   1  29
HETATM   29  N1  UNL     1      17.760   1.703  11.426  1.00  0.00    -0.225 N 
HETATM   30  C1  UNL     1      17.407   0.396  11.900  1.00  0.00     0.168 C 
HETATM   31  C2  UNL     1      18.112   1.912  10.049  1.00  0.00     0.168 C 
ENDBRANCH   1  29
TORSDOF 7
ENDMDL
MODEL 2
REMARK VINA RESULT: -6.331686155      0.201      1.003
REMARK  7 active torsions:
REMARK  status: ('A' for Active; 'I' for Inactive)
REMARK    1  A    between atoms: N1_2  and  C3_4 
REMARK    2  A    between atoms: C4_7  and  N3_8 
REMARK    3  A    between atoms: C9_17  and  N6_18 
REMARK    4  A    between atoms: C11_20  and  C12_21 
REMARK    5  A    between atoms: C11_20  and  N8_26 
REMARK    6  A    between atoms: C12_21  and  O1_22 
REMARK    7  A    between atoms: O1_22  and  N7_23 
ROOT
HETATM    1  C3  UNL     1      17.730   2.791  12.277  1.00  0.00     0.708 A 
HETATM    2  N2  UNL     1      16.989   2.827  13.399  1.00  0.00    -0.021 N 
ATOM      3  H2  UNL     1      16.382   2.040  13.629  1.00  0.00     0.203 HD
HETATM    4  C4  UNL     1      17.040   3.901  14.227  1.00  0.00     0.709 A 
HETATM    5  N5  UNL     1      17.861   4.904  13.864  1.00  0.00    -0.021 N 
ATOM      6  H5  UNL     1      17.909   5.718  14.477  1.00  0.00     0.203 HD
HETATM    7  C9  UNL     1      18.617   4.916  12.761  1.00  0.00     0.709 A 
HETATM    8  N9  UNL     1      18.534   3.818  11.964  1.00  0.00    -0.021 N 
ATOM      9  H9  UNL     1      19.092   3.774  11.112  1.00  0.00     0.203 HD
ENDROOT
BRANCH   7  10
HETATM   10  N6  UNL     1      19.438   5.999  12.357  1.00  0.00    -0.212 N 
HETATM   11  C10 UNL     1      19.719   6.702  11.127  1.00  0.00     0.176 C 
HETATM   12  C11 UNL     1      20.952   7.300  11.705  1.00  0.00     0.084 C 
HETATM   13  C15 UNL     1      20.318   6.905  13.048  1.00  0.00     0.176 C 
BRANCH  12  14
HETATM   14  C12 UNL     1      22.193   6.459  11.449  1.00  0.00     0.234 C 
BRANCH  14  15
HETATM   15  O1  UNL     1      23.341   7.248  11.472  1.00  0.00    -0.285 OA
BRANCH  15  16
HETATM   16  N7  UNL     1      24.202   6.916  12.443  1.00  0.00    -0.311 N 
ATOM     17  H72 UNL     1      24.115   6.051  12.976  1.00  0.00     0.184 HD
ATOM     18  H71 UNL     1      24.938   7.607  12.591  1.00  0.00     0.184 HD
ENDBRANCH  15  16
ENDBRANCH  14  15
ENDBRANCH  12  14
BRANCH  12  19
HETATM   19  N8  UNL     1      21.065   8.697  11.620  1.00  0.00    -0.407 N 
HETATM   20  C13 UNL     1      20.827   9.341  10.387  1.00  0.00     0.143 C 
HETATM   21  C14 UNL     1      21.078   9.468  12.799  1.00  0.00     0.143 C 
ENDBRANCH  12  19
ENDBRANCH   7  10
BRANCH   4  22
HETATM   22  N3  UNL     1      16.248   3.960  15.397  1.00  0.00    -0.214 N 
HETATM   23  C5  UNL     1      16.561   3.170  16.597  1.00  0.00     0.160 C 
HETATM   24  C6  UNL     1      15.281   2.394  16.874  1.00  0.00     0.134 C 
HETATM   25  N4  UNL     1      14.204   3.275  17.220  1.00  0.00    -0.418 N 
HETATM   26  C7  UNL     1      14.373   4.639  16.802  1.00  0.00     0.134 C 
ATOM     27  H4  UNL     1      13.377   2.956  17.725  1.00  0.00     0.153 HD
HETATM   28  C8  UNL     1      15.096   4.799  15.483  1.00  0.00     0.160 C 
ENDBRANCH   4  22
BRANCH   1  29
HETATM   29  N1  UNL     1      17.688   1.694  11.371  1.00  0.00    -0.225 N 
HETATM   30  C1  UNL     1      17.897   1.914   9.969  1.00  0.00     0.168 C 
HETATM   31  C2  UNL     1      17.448   0.371  11.877  1.00  0.00     0.168 C 
ENDBRANCH   1  29
TORSDOF 7
ENDMDL
MODEL 3
REMARK VINA RESULT: -6.324805882      1.309      1.930
REMARK  7 active torsions:
REMARK  status: ('A' for Active; 'I' for Inactive)
REMARK    1  A    between atoms: N1_2  and  C3_4 
REMARK    2  A    between atoms: C4_7  and  N3_8 
REMARK    3  A    between atoms: C9_17  and  N6_18 
REMARK    4  A    between atoms: C11_20  and  C12_21 
REMARK    5  A    between atoms: C11_20  and  N8_26 
REMARK    6  A    between atoms: C12_21  and  O1_22 
REMARK    7  A    between atoms: O1_22  and  N7_23 
ROOT
HETATM    1  C3  UNL     1      17.683   2.838  12.382  1.00  0.00     0.708 A 
HETATM    2  N2  UNL     1      16.954   2.824  13.512  1.00  0.00    -0.021 N 
ATOM      3  H2  UNL     1      16.390   2.005  13.739  1.00  0.00     0.203 HD
HETATM    4  C4  UNL     1      16.961   3.890  14.351  1.00  0.00     0.709 A 
HETATM    5  N5  UNL     1      17.726   4.937  13.992  1.00  0.00    -0.021 N 
ATOM      6  H5  UNL     1      17.740   5.746  14.614  1.00  0.00     0.203 HD
HETATM    7  C9  UNL     1      18.469   4.999  12.881  1.00  0.00     0.709 A 
HETATM    8  N9  UNL     1      18.431   3.907  12.072  1.00  0.00    -0.021 N 
ATOM      9  H9  UNL     1      18.982   3.901  11.214  1.00  0.00     0.203 HD
ENDROOT
BRANCH   7  10
HETATM   10  N6  UNL     1      19.230   6.126  12.481  1.00  0.00    -0.212 N 
HETATM   11  C10 UNL     1      20.455   6.767  12.897  1.00  0.00     0.176 C 
HETATM   12  C11 UNL     1      20.101   8.010  12.159  1.00  0.00     0.084 C 
HETATM   13  C15 UNL     1      19.110   7.095  11.422  1.00  0.00     0.176 C 
BRANCH  12  14
HETATM   14  C12 UNL     1      19.345   9.012  13.015  1.00  0.00     0.234 C 
BRANCH  14  15
HETATM   15  O1  UNL     1      20.224   9.783  13.772  1.00  0.00    -0.285 OA
BRANCH  15  16
HETATM   16  N7  UNL     1      19.830   9.958  15.041  1.00  0.00    -0.311 N 
ATOM     17  H72 UNL     1      20.342  10.551  15.693  1.00  0.00     0.184 HD
ATOM     18  H71 UNL     1      18.982   9.445  15.280  1.00  0.00     0.184 HD
ENDBRANCH  15  16
ENDBRANCH  14  15
ENDBRANCH  12  14
BRANCH  12  19
HETATM   19  N8  UNL     1      21.065   8.495  11.260  1.00  0.00    -0.407 N 
HETATM   20  C13 UNL     1      20.699   9.465  10.303  1.00  0.00     0.143 C 
HETATM   21  C14 UNL     1      22.433   8.280  11.522  1.00  0.00     0.143 C 
ENDBRANCH  12  19
ENDBRANCH   7  10
BRANCH   4  22
HETATM   22  N3  UNL     1      16.179   3.896  15.531  1.00  0.00    -0.214 N 
HETATM   23  C5  UNL     1      16.510   3.062  16.695  1.00  0.00     0.160 C 
HETATM   24  C6  UNL     1      15.239   2.264  16.953  1.00  0.00     0.134 C 
HETATM   25  N4  UNL     1      14.159   3.122  17.344  1.00  0.00    -0.418 N 
HETATM   26  C7  UNL     1      14.314   4.503  16.979  1.00  0.00     0.134 C 
ATOM     27  H4  UNL     1      13.340   2.777  17.844  1.00  0.00     0.153 HD
HETATM   28  C8  UNL     1      15.022   4.721  15.660  1.00  0.00     0.160 C 
ENDBRANCH   4  22
BRANCH   1  29
HETATM   29  N1  UNL     1      17.687   1.751  11.464  1.00  0.00    -0.225 N 
HETATM   30  C1  UNL     1      17.299   0.440  11.900  1.00  0.00     0.168 C 
HETATM   31  C2  UNL     1      18.072   1.983  10.099  1.00  0.00     0.168 C 
ENDBRANCH   1  29
TORSDOF 7
ENDMDL
MODEL 4
REMARK VINA RESULT: -6.262948007      3.455      4.149
REMARK  7 active torsions:
REMARK  status: ('A' for Active; 'I' for Inactive)
REMARK    1  A    between atoms: N1_2  and  C3_4 
REMARK    2  A    between atoms: C4_7  and  N3_8 
REMARK    3  A    between atoms: C9_17  and  N6_18 
REMARK    4  A    between atoms: C11_20  and  C12_21 
REMARK    5  A    between atoms: C11_20  and  N8_26 
REMARK    6  A    between atoms: C12_21  and  O1_22 
REMARK    7  A    between atoms: O1_22  and  N7_23 
ROOT
HETATM    1  C3  UNL     1      17.956   3.689  11.994  1.00  0.00     0.708 A 
HETATM    2  N2  UNL     1      17.464   3.497  13.231  1.00  0.00    -0.021 N 
ATOM      3  H2  UNL     1      17.642   2.616  13.713  1.00  0.00     0.203 HD
HETATM    4  C4  UNL     1      16.734   4.462  13.842  1.00  0.00     0.709 A 
HETATM    5  N5  UNL     1      16.536   5.599  13.151  1.00  0.00    -0.021 N 
ATOM      6  H5  UNL     1      15.988   6.334  13.598  1.00  0.00     0.203 HD
HETATM    7  C9  UNL     1      17.003   5.840  11.920  1.00  0.00     0.709 A 
HETATM    8  N9  UNL     1      17.731   4.844  11.349  1.00  0.00    -0.021 N 
ATOM      9  H9  UNL     1      18.113   4.976  10.413  1.00  0.00     0.203 HD
ENDROOT
BRANCH   7  10
HETATM   10  N6  UNL     1      16.746   7.018  11.175  1.00  0.00    -0.212 N 
HETATM   11  C10 UNL     1      15.978   8.228  11.356  1.00  0.00     0.176 C 
HETATM   12  C11 UNL     1      16.045   8.534   9.901  1.00  0.00     0.084 C 
HETATM   13  C15 UNL     1      17.207   7.528   9.909  1.00  0.00     0.176 C 
BRANCH  12  14
HETATM   14  C12 UNL     1      14.871   7.964   9.123  1.00  0.00     0.234 C 
BRANCH  14  15
HETATM   15  O1  UNL     1      14.793   8.533   7.853  1.00  0.00    -0.285 OA
BRANCH  15  16
HETATM   16  N7  UNL     1      14.505   7.651   6.886  1.00  0.00    -0.311 N 
ATOM     17  H72 UNL     1      14.724   7.827   5.906  1.00  0.00     0.184 HD
ATOM     18  H71 UNL     1      14.053   6.803   7.228  1.00  0.00     0.184 HD
ENDBRANCH  15  16
ENDBRANCH  14  15
ENDBRANCH  12  14
BRANCH  12  19
HETATM   19  N8  UNL     1      16.518   9.810   9.554  1.00  0.00    -0.407 N 
HETATM   20  C13 UNL     1      17.535   9.936   8.584  1.00  0.00     0.143 C 
HETATM   21  C14 UNL     1      15.768  10.950   9.907  1.00  0.00     0.143 C 
ENDBRANCH  12  19
ENDBRANCH   7  10
BRANCH   4  22
HETATM   22  N3  UNL     1      16.192   4.261  15.134  1.00  0.00    -0.214 N 
HETATM   23  C5  UNL     1      16.871   3.445  16.150  1.00  0.00     0.160 C 
HETATM   24  C6  UNL     1      15.829   2.411  16.553  1.00  0.00     0.134 C 
HETATM   25  N4  UNL     1      14.705   3.031  17.193  1.00  0.00    -0.418 N 
HETATM   26  C7  UNL     1      14.546   4.433  16.925  1.00  0.00     0.134 C 
ATOM     27  H4  UNL     1      14.064   2.513  17.795  1.00  0.00     0.153 HD
HETATM   28  C8  UNL     1      14.952   4.848  15.528  1.00  0.00     0.160 C 
ENDBRANCH   4  22
BRANCH   1  29
HETATM   29  N1  UNL     1      18.708   2.694  11.308  1.00  0.00    -0.225 N 
HETATM   30  C1  UNL     1      18.228   1.343  11.253  1.00  0.00     0.168 C 
HETATM   31  C2  UNL     1      19.941   3.060  10.667  1.00  0.00     0.168 C 
ENDBRANCH   1  29
TORSDOF 7
ENDMDL
MODEL 5
REMARK VINA RESULT: -6.171808394      0.991      1.310
REMARK  7 active torsions:
REMARK  status: ('A' for Active; 'I' for Inactive)
REMARK    1  A    between atoms: N1_2  and  C3_4 
REMARK    2  A    between atoms: C4_7  and  N3_8 
REMARK    3  A    between atoms: C9_17  and  N6_18 
REMARK    4  A    between atoms: C11_20  and  C12_21 
REMARK    5  A    between atoms: C11_20  and  N8_26 
REMARK    6  A    between atoms: C12_21  and  O1_22 
REMARK    7  A    between atoms: O1_22  and  N7_23 
ROOT
HETATM    1  C3  UNL     1      17.733   2.810  12.321  1.00  0.00     0.708 A 
HETATM    2  N2  UNL     1      17.007   2.814  13.453  1.00  0.00    -0.021 N 
ATOM      3  H2  UNL     1      16.451   1.994  13.700  1.00  0.00     0.203 HD
HETATM    4  C4  UNL     1      17.007   3.896  14.270  1.00  0.00     0.709 A 
HETATM    5  N5  UNL     1      17.761   4.943  13.887  1.00  0.00    -0.021 N 
ATOM      6  H5  UNL     1      17.770   5.765  14.491  1.00  0.00     0.203 HD
HETATM    7  C9  UNL     1      18.500   4.988  12.772  1.00  0.00     0.709 A 
HETATM    8  N9  UNL     1      18.470   3.879  11.986  1.00  0.00    -0.021 N 
ATOM      9  H9  UNL     1      19.018   3.860  11.126  1.00  0.00     0.203 HD
ENDROOT
BRANCH   7  10
HETATM   10  N6  UNL     1      19.249   6.113  12.346  1.00  0.00    -0.212 N 
HETATM   11  C10 UNL     1      19.171   7.084  11.279  1.00  0.00     0.176 C 
HETATM   12  C11 UNL     1      20.586   7.491  11.494  1.00  0.00     0.084 C 
HETATM   13  C15 UNL     1      20.407   6.802  12.856  1.00  0.00     0.176 C 
BRANCH  12  14
HETATM   14  C12 UNL     1      21.564   6.703  10.638  1.00  0.00     0.234 C 
BRANCH  14  15
HETATM   15  O1  UNL     1      21.773   7.334   9.413  1.00  0.00    -0.285 OA
BRANCH  15  16
HETATM   16  N7  UNL     1      21.319   6.634   8.364  1.00  0.00    -0.311 N 
ATOM     17  H72 UNL     1      21.733   6.714   7.436  1.00  0.00     0.184 HD
ATOM     18  H71 UNL     1      20.532   6.026   8.588  1.00  0.00     0.184 HD
ENDBRANCH  15  16
ENDBRANCH  14  15
ENDBRANCH  12  14
BRANCH  12  19
HETATM   19  N8  UNL     1      20.818   8.864  11.677  1.00  0.00    -0.407 N 
HETATM   20  C13 UNL     1      22.043   9.296  12.228  1.00  0.00     0.143 C 
HETATM   21  C14 UNL     1      19.999   9.803  11.018  1.00  0.00     0.143 C 
ENDBRANCH  12  19
ENDBRANCH   7  10
BRANCH   4  22
HETATM   22  N3  UNL     1      16.229   3.921  15.452  1.00  0.00    -0.214 N 
HETATM   23  C5  UNL     1      16.570   3.113  16.632  1.00  0.00     0.160 C 
HETATM   24  C6  UNL     1      15.307   2.311  16.910  1.00  0.00     0.134 C 
HETATM   25  N4  UNL     1      14.220   3.168  17.287  1.00  0.00    -0.418 N 
HETATM   26  C7  UNL     1      14.363   4.543  16.894  1.00  0.00     0.134 C 
ATOM     27  H4  UNL     1      13.406   2.827  17.797  1.00  0.00     0.153 HD
HETATM   28  C8  UNL     1      15.065   4.739  15.568  1.00  0.00     0.160 C 
ENDBRANCH   4  22
BRANCH   1  29
HETATM   29  N1  UNL     1      17.744   1.704  11.426  1.00  0.00    -0.225 N 
HETATM   30  C1  UNL     1      18.101   1.897  10.050  1.00  0.00     0.168 C 
HETATM   31  C2  UNL     1      17.404   0.396  11.917  1.00  0.00     0.168 C 
ENDBRANCH   1  29
TORSDOF 7
ENDMDL
