MODEL 1
REMARK VINA RESULT: -7.860018372      0.000      0.000
REMARK  7 active torsions:
REMARK  status: ('A' for Active; 'I' for Inactive)
REMARK    1  A    between atoms: N1_5  and  O2_6 
REMARK    2  A    between atoms: C4_8  and  C5_9 
REMARK    3  A    between atoms: C5_9  and  N2_10 
REMARK    4  A    between atoms: C6_13  and  N4_14 
REMARK    5  A    between atoms: N6_23  and  C12_25 
REMARK    6  A    between atoms: C12_25  and  C13_26 
REMARK    7  A    between atoms: C13_26  and  O4_27 
ROOT
HETATM    1  N2  UNL     1      17.842   4.442  11.897  1.00  0.00    -0.102 N 
HETATM    2  N3  UNL     1      18.766   5.382  11.706  1.00  0.00    -0.115 N 
ATOM      3  H3  UNL     1      18.634   6.373  11.909  1.00  0.00     0.206 HD
HETATM    4  C6  UNL     1      19.897   4.850  11.211  1.00  0.00     0.710 A 
HETATM    5  N5  UNL     1      19.636   3.539  11.103  1.00  0.00    -0.020 N 
ATOM      6  H5  UNL     1      20.292   2.839  10.755  1.00  0.00     0.203 HD
HETATM    7  C11 UNL     1      18.383   3.282  11.520  1.00  0.00     0.710 A 
HETATM    8  N6  UNL     1      17.880   2.094  11.512  1.00  0.00    -0.222 N 
ATOM      9  H6  UNL     1      16.921   1.958  11.835  1.00  0.00     0.177 HD
ENDROOT
BRANCH   1  10
HETATM   10  C5  UNL     1      16.511   4.606  12.416  1.00  0.00     0.247 C 
BRANCH  10  11
HETATM   11  C4  UNL     1      16.336   4.354  13.834  1.00  0.00     0.132 A 
HETATM   12  N1  UNL     1      15.357   4.920  14.541  1.00  0.00    -0.222 N 
HETATM   13  C3  UNL     1      15.272   4.598  15.861  1.00  0.00     0.130 A 
HETATM   14  C2  UNL     1      16.133   3.730  16.488  1.00  0.00     0.094 A 
HETATM   15  C1  UNL     1      17.131   3.166  15.721  1.00  0.00     0.248 A 
HETATM   16  O1  UNL     1      17.957   2.354  16.257  1.00  0.00    -0.268 OA
HETATM   17  N7  UNL     1      17.184   3.503  14.440  1.00  0.00    -0.310 N 
ATOM     18  H7  UNL     1      17.921   3.085  13.872  1.00  0.00     0.170 HD
BRANCH  12  19
HETATM   19  O2  UNL     1      14.459   5.817  14.003  1.00  0.00    -0.282 OA
ATOM     20  H2  UNL     1      13.748   5.496  13.461  1.00  0.00     0.245 HD
ENDBRANCH  12  19
ENDBRANCH  10  11
ENDBRANCH   1  10
BRANCH   4  21
HETATM   21  N4  UNL     1      21.111   5.531  10.875  1.00  0.00    -0.212 N 
HETATM   22  C7  UNL     1      21.933   5.107   9.772  1.00  0.00     0.167 C 
HETATM   23  C8  UNL     1      23.281   5.787   9.844  1.00  0.00     0.188 C 
HETATM   24  O3  UNL     1      23.728   5.839  11.184  1.00  0.00    -0.388 OA
HETATM   25  C9  UNL     1      22.990   6.859  11.782  1.00  0.00     0.188 C 
HETATM   26  C10 UNL     1      21.515   6.665  11.661  1.00  0.00     0.167 C 
ENDBRANCH   4  21
BRANCH   8  27
HETATM   27  C12 UNL     1      18.636   0.958  11.060  1.00  0.00     0.164 C 
BRANCH  27  28
HETATM   28  C13 UNL     1      18.081  -0.350  11.608  1.00  0.00     0.184 C 
BRANCH  28  29
HETATM   29  O4  UNL     1      18.856  -1.415  11.116  1.00  0.00    -0.399 OA
ATOM     30  H4  UNL     1      19.172  -1.929  11.849  1.00  0.00     0.209 HD
ENDBRANCH  28  29
ENDBRANCH  27  28
ENDBRANCH   8  27
TORSDOF 7
ENDMDL
MODEL 2
REMARK VINA RESULT: -7.809487515      3.236      6.593
REMARK  7 active torsions:
REMARK  status: ('A' for Active; 'I' for Inactive)
REMARK    1  A    between atoms: N1_5  and  O2_6 
REMARK    2  A    between atoms: C4_8  and  C5_9 
REMARK    3  A    between atoms: C5_9  and  N2_10 
REMARK    4  A    between atoms: C6_13  and  N4_14 
REMARK    5  A    between atoms: N6_23  and  C12_25 
REMARK    6  A    between atoms: C12_25  and  C13_26 
REMARK    7  A    between atoms: C13_26  and  O4_27 
ROOT
HETATM    1  N2  UNL     1      17.435   5.597  12.775  1.00  0.00    -0.102 N 
HETATM    2  N3  UNL     1      16.821   5.512  13.954  1.00  0.00    -0.115 N 
ATOM      3  H3  UNL     1      16.510   6.313  14.504  1.00  0.00     0.206 HD
HETATM    4  C6  UNL     1      16.666   4.228  14.323  1.00  0.00     0.710 A 
HETATM    5  N5  UNL     1      17.209   3.520  13.322  1.00  0.00    -0.020 N 
ATOM      6  H5  UNL     1      17.257   2.502  13.285  1.00  0.00     0.203 HD
HETATM    7  C11 UNL     1      17.681   4.348  12.373  1.00  0.00     0.710 A 
HETATM    8  N6  UNL     1      18.259   3.920  11.302  1.00  0.00    -0.222 N 
ATOM      9  H6  UNL     1      18.603   4.594  10.618  1.00  0.00     0.177 HD
ENDROOT
BRANCH   1  10
HETATM   10  C5  UNL     1      17.775   6.787  12.042  1.00  0.00     0.247 C 
BRANCH  10  11
HETATM   11  C4  UNL     1      16.730   7.352  11.210  1.00  0.00     0.132 A 
HETATM   12  N1  UNL     1      16.535   6.959   9.950  1.00  0.00    -0.222 N 
HETATM   13  C3  UNL     1      15.512   7.542   9.265  1.00  0.00     0.130 A 
HETATM   14  C2  UNL     1      14.687   8.499   9.803  1.00  0.00     0.094 A 
HETATM   15  C1  UNL     1      14.923   8.877  11.108  1.00  0.00     0.248 A 
HETATM   16  O1  UNL     1      14.184   9.764  11.652  1.00  0.00    -0.268 OA
HETATM   17  N7  UNL     1      15.926   8.289  11.744  1.00  0.00    -0.310 N 
ATOM     18  H7  UNL     1      16.101   8.568  12.709  1.00  0.00     0.170 HD
BRANCH  12  19
HETATM   19  O2  UNL     1      17.323   6.020   9.322  1.00  0.00    -0.282 OA
ATOM     20  H2  UNL     1      17.866   5.442   9.844  1.00  0.00     0.245 HD
ENDBRANCH  12  19
ENDBRANCH  10  11
ENDBRANCH   1  10
BRANCH   4  21
HETATM   21  N4  UNL     1      16.055   3.728  15.518  1.00  0.00    -0.212 N 
HETATM   22  C7  UNL     1      16.558   2.558  16.189  1.00  0.00     0.167 C 
HETATM   23  C8  UNL     1      15.554   2.081  17.213  1.00  0.00     0.188 C 
HETATM   24  O3  UNL     1      14.244   2.188  16.694  1.00  0.00    -0.388 OA
HETATM   25  C9  UNL     1      13.927   3.543  16.763  1.00  0.00     0.188 C 
HETATM   26  C10 UNL     1      14.912   4.413  16.056  1.00  0.00     0.167 C 
ENDBRANCH   4  21
BRANCH   8  27
HETATM   27  C12 UNL     1      18.431   2.515  11.050  1.00  0.00     0.164 C 
BRANCH  27  28
HETATM   28  C13 UNL     1      17.492   2.012   9.963  1.00  0.00     0.184 C 
BRANCH  28  29
HETATM   29  O4  UNL     1      16.865   3.115   9.357  1.00  0.00    -0.399 OA
ATOM     30  H4  UNL     1      17.052   3.102   8.426  1.00  0.00     0.209 HD
ENDBRANCH  28  29
ENDBRANCH  27  28
ENDBRANCH   8  27
TORSDOF 7
ENDMDL
MODEL 3
REMARK VINA RESULT: -7.801559680      1.993      3.156
REMARK  7 active torsions:
REMARK  status: ('A' for Active; 'I' for Inactive)
REMARK    1  A    between atoms: N1_5  and  O2_6 
REMARK    2  A    between atoms: C4_8  and  C5_9 
REMARK    3  A    between atoms: C5_9  and  N2_10 
REMARK    4  A    between atoms: C6_13  and  N4_14 
REMARK    5  A    between atoms: N6_23  and  C12_25 
REMARK    6  A    between atoms: C12_25  and  C13_26 
REMARK    7  A    between atoms: C13_26  and  O4_27 
ROOT
HETATM    1  N2  UNL     1      17.310   2.597  13.738  1.00  0.00    -0.102 N 
HETATM    2  N3  UNL     1      17.625   3.838  13.370  1.00  0.00    -0.115 N 
ATOM      3  H3  UNL     1      17.608   4.648  13.991  1.00  0.00     0.206 HD
HETATM    4  C6  UNL     1      17.967   3.881  12.071  1.00  0.00     0.710 A 
HETATM    5  N5  UNL     1      17.852   2.614  11.647  1.00  0.00    -0.020 N 
ATOM      6  H5  UNL     1      18.041   2.295  10.697  1.00  0.00     0.203 HD
HETATM    7  C11 UNL     1      17.452   1.824  12.660  1.00  0.00     0.710 A 
HETATM    8  N6  UNL     1      17.258   0.556  12.516  1.00  0.00    -0.222 N 
ATOM      9  H6  UNL     1      16.949   0.006  13.318  1.00  0.00     0.177 HD
ENDROOT
BRANCH   1  10
HETATM   10  C5  UNL     1      16.903   2.140  15.039  1.00  0.00     0.247 C 
BRANCH  10  11
HETATM   11  C4  UNL     1      15.939   2.966  15.741  1.00  0.00     0.132 A 
HETATM   12  N1  UNL     1      15.245   2.516  16.787  1.00  0.00    -0.222 N 
HETATM   13  C3  UNL     1      14.381   3.382  17.384  1.00  0.00     0.130 A 
HETATM   14  C2  UNL     1      14.194   4.677  16.966  1.00  0.00     0.094 A 
HETATM   15  C1  UNL     1      14.931   5.103  15.881  1.00  0.00     0.248 A 
HETATM   16  O1  UNL     1      14.792   6.298  15.453  1.00  0.00    -0.268 OA
HETATM   17  N7  UNL     1      15.762   4.233  15.325  1.00  0.00    -0.310 N 
ATOM     18  H7  UNL     1      16.308   4.548  14.522  1.00  0.00     0.170 HD
BRANCH  12  19
HETATM   19  O2  UNL     1      15.352   1.228  17.265  1.00  0.00    -0.282 OA
ATOM     20  H2  UNL     1      15.357   0.502  16.653  1.00  0.00     0.245 HD
ENDBRANCH  12  19
ENDBRANCH  10  11
ENDBRANCH   1  10
BRANCH   4  21
HETATM   21  N4  UNL     1      18.366   5.026  11.308  1.00  0.00    -0.212 N 
HETATM   22  C7  UNL     1      17.455   5.690  10.412  1.00  0.00     0.167 C 
HETATM   23  C8  UNL     1      18.216   6.642   9.519  1.00  0.00     0.188 C 
HETATM   24  O3  UNL     1      19.434   6.055   9.108  1.00  0.00    -0.388 OA
HETATM   25  C9  UNL     1      20.279   6.145  10.213  1.00  0.00     0.188 C 
HETATM   26  C10 UNL     1      19.709   5.519  11.442  1.00  0.00     0.167 C 
ENDBRANCH   4  21
BRANCH   8  27
HETATM   27  C12 UNL     1      17.468  -0.099  11.254  1.00  0.00     0.164 C 
BRANCH  27  28
HETATM   28  C13 UNL     1      18.642  -1.068  11.304  1.00  0.00     0.184 C 
BRANCH  28  29
HETATM   29  O4  UNL     1      18.146  -2.383  11.337  1.00  0.00    -0.399 OA
ATOM     30  H4  UNL     1      18.522  -2.835  12.083  1.00  0.00     0.209 HD
ENDBRANCH  28  29
ENDBRANCH  27  28
ENDBRANCH   8  27
TORSDOF 7
ENDMDL
MODEL 4
REMARK VINA RESULT: -7.797351797      1.806      6.406
REMARK  7 active torsions:
REMARK  status: ('A' for Active; 'I' for Inactive)
REMARK    1  A    between atoms: N1_5  and  O2_6 
REMARK    2  A    between atoms: C4_8  and  C5_9 
REMARK    3  A    between atoms: C5_9  and  N2_10 
REMARK    4  A    between atoms: C6_13  and  N4_14 
REMARK    5  A    between atoms: N6_23  and  C12_25 
REMARK    6  A    between atoms: C12_25  and  C13_26 
REMARK    7  A    between atoms: C13_26  and  O4_27 
ROOT
HETATM    1  N2  UNL     1      17.387   3.942  12.064  1.00  0.00    -0.102 N 
HETATM    2  N3  UNL     1      16.962   4.488  13.202  1.00  0.00    -0.115 N 
ATOM      3  H3  UNL     1      16.908   5.491  13.378  1.00  0.00     0.206 HD
HETATM    4  C6  UNL     1      16.613   3.539  14.088  1.00  0.00     0.710 A 
HETATM    5  N5  UNL     1      16.839   2.381  13.451  1.00  0.00    -0.020 N 
ATOM      6  H5  UNL     1      16.676   1.455  13.846  1.00  0.00     0.203 HD
HETATM    7  C11 UNL     1      17.312   2.618  12.214  1.00  0.00     0.710 A 
HETATM    8  N6  UNL     1      17.617   1.671  11.394  1.00  0.00    -0.222 N 
ATOM      9  H6  UNL     1      17.977   1.910  10.469  1.00  0.00     0.177 HD
ENDROOT
BRANCH   1  10
HETATM   10  C5  UNL     1      17.838   4.618  10.877  1.00  0.00     0.247 C 
BRANCH  10  11
HETATM   11  C4  UNL     1      19.213   5.080  10.880  1.00  0.00     0.132 A 
HETATM   12  N1  UNL     1      20.210   4.348  10.381  1.00  0.00    -0.222 N 
HETATM   13  C3  UNL     1      21.460   4.886  10.416  1.00  0.00     0.130 A 
HETATM   14  C2  UNL     1      21.737   6.128  10.935  1.00  0.00     0.094 A 
HETATM   15  C1  UNL     1      20.678   6.852  11.442  1.00  0.00     0.248 A 
HETATM   16  O1  UNL     1      20.885   8.010  11.936  1.00  0.00    -0.268 OA
HETATM   17  N7  UNL     1      19.476   6.296  11.390  1.00  0.00    -0.310 N 
ATOM     18  H7  UNL     1      18.692   6.832  11.764  1.00  0.00     0.170 HD
BRANCH  12  19
HETATM   19  O2  UNL     1      20.030   3.085   9.857  1.00  0.00    -0.282 OA
ATOM     20  H2  UNL     1      19.153   2.727   9.794  1.00  0.00     0.245 HD
ENDBRANCH  12  19
ENDBRANCH  10  11
ENDBRANCH   1  10
BRANCH   4  21
HETATM   21  N4  UNL     1      16.110   3.723  15.416  1.00  0.00    -0.212 N 
HETATM   22  C7  UNL     1      16.439   2.811  16.480  1.00  0.00     0.167 C 
HETATM   23  C8  UNL     1      15.536   3.059  17.666  1.00  0.00     0.188 C 
HETATM   24  O3  UNL     1      14.217   3.312  17.228  1.00  0.00    -0.388 OA
HETATM   25  C9  UNL     1      14.231   4.621  16.749  1.00  0.00     0.188 C 
HETATM   26  C10 UNL     1      15.257   4.847  15.689  1.00  0.00     0.167 C 
ENDBRANCH   4  21
BRANCH   8  27
HETATM   27  C12 UNL     1      17.463   0.287  11.751  1.00  0.00     0.164 C 
BRANCH  27  28
HETATM   28  C13 UNL     1      18.651  -0.553  11.302  1.00  0.00     0.184 C 
BRANCH  28  29
HETATM   29  O4  UNL     1      18.300  -1.912  11.369  1.00  0.00    -0.399 OA
ATOM     30  H4  UNL     1      18.964  -2.377  11.863  1.00  0.00     0.209 HD
ENDBRANCH  28  29
ENDBRANCH  27  28
ENDBRANCH   8  27
TORSDOF 7
ENDMDL
MODEL 5
REMARK VINA RESULT: -7.761538831      3.337      4.489
REMARK  7 active torsions:
REMARK  status: ('A' for Active; 'I' for Inactive)
REMARK    1  A    between atoms: N1_5  and  O2_6 
REMARK    2  A    between atoms: C4_8  and  C5_9 
REMARK    3  A    between atoms: C5_9  and  N2_10 
REMARK    4  A    between atoms: C6_13  and  N4_14 
REMARK    5  A    between atoms: N6_23  and  C12_25 
REMARK    6  A    between atoms: C12_25  and  C13_26 
REMARK    7  A    between atoms: C13_26  and  O4_27 
ROOT
HETATM    1  N2  UNL     1      17.220   5.118  13.724  1.00  0.00    -0.102 N 
HETATM    2  N3  UNL     1      16.692   6.266  13.302  1.00  0.00    -0.115 N 
ATOM      3  H3  UNL     1      16.335   6.999  13.915  1.00  0.00     0.206 HD
HETATM    4  C6  UNL     1      16.692   6.329  11.959  1.00  0.00     0.710 A 
HETATM    5  N5  UNL     1      17.243   5.172  11.565  1.00  0.00    -0.020 N 
ATOM      6  H5  UNL     1      17.395   4.897  10.594  1.00  0.00     0.203 HD
HETATM    7  C11 UNL     1      17.569   4.427  12.637  1.00  0.00     0.710 A 
HETATM    8  N6  UNL     1      18.112   3.261  12.533  1.00  0.00    -0.222 N 
ATOM      9  H6  UNL     1      18.333   2.738  13.380  1.00  0.00     0.177 HD
ENDROOT
BRANCH   1  10
HETATM   10  C5  UNL     1      17.405   4.679  15.081  1.00  0.00     0.247 C 
BRANCH  10  11
HETATM   11  C4  UNL     1      16.234   4.148  15.752  1.00  0.00     0.132 A 
HETATM   12  N1  UNL     1      15.129   4.872  15.931  1.00  0.00    -0.222 N 
HETATM   13  C3  UNL     1      14.080   4.269  16.557  1.00  0.00     0.130 A 
HETATM   14  C2  UNL     1      14.109   2.970  17.003  1.00  0.00     0.094 A 
HETATM   15  C1  UNL     1      15.271   2.256  16.798  1.00  0.00     0.248 A 
HETATM   16  O1  UNL     1      15.347   1.046  17.196  1.00  0.00    -0.268 OA
HETATM   17  N7  UNL     1      16.270   2.875  16.187  1.00  0.00    -0.310 N 
ATOM     18  H7  UNL     1      17.130   2.348  16.034  1.00  0.00     0.170 HD
BRANCH  12  19
HETATM   19  O2  UNL     1      15.015   6.187  15.534  1.00  0.00    -0.282 OA
ATOM     20  H2  UNL     1      14.779   6.384  14.636  1.00  0.00     0.245 HD
ENDBRANCH  12  19
ENDBRANCH  10  11
ENDBRANCH   1  10
BRANCH   4  21
HETATM   21  N4  UNL     1      16.210   7.395  11.133  1.00  0.00    -0.212 N 
HETATM   22  C7  UNL     1      15.584   8.562  11.696  1.00  0.00     0.167 C 
HETATM   23  C8  UNL     1      14.901   9.355  10.606  1.00  0.00     0.188 C 
HETATM   24  O3  UNL     1      14.262   8.482   9.697  1.00  0.00    -0.388 OA
HETATM   25  C9  UNL     1      15.284   7.955   8.910  1.00  0.00     0.188 C 
HETATM   26  C10 UNL     1      16.358   7.293   9.707  1.00  0.00     0.167 C 
ENDBRANCH   4  21
BRANCH   8  27
HETATM   27  C12 UNL     1      18.412   2.682  11.252  1.00  0.00     0.164 C 
BRANCH  27  28
HETATM   28  C13 UNL     1      17.175   2.093  10.589  1.00  0.00     0.184 C 
BRANCH  28  29
HETATM   29  O4  UNL     1      16.804   2.910   9.507  1.00  0.00    -0.399 OA
ATOM     30  H4  UNL     1      16.428   2.367   8.826  1.00  0.00     0.209 HD
ENDBRANCH  28  29
ENDBRANCH  27  28
ENDBRANCH   8  27
TORSDOF 7
ENDMDL
