MODEL 1
REMARK VINA RESULT: -8.690109549      0.000      0.000
REMARK  22 active torsions:
REMARK  status: ('A' for Active; 'I' for Inactive)
REMARK    1  A    between atoms: C2_2  and  C3_3 
REMARK    2  A    between atoms: C3_3  and  C4_4 
REMARK    3  A    between atoms: C4_4  and  C5_5 
REMARK    4  A    between atoms: C5_5  and  C6_6 
REMARK    5  A    between atoms: C8_8  and  N1_9 
REMARK    6  A    between atoms: N1_9  and  C9_11 
REMARK    7  A    between atoms: C9_11  and  C10_12 
REMARK    8  A    between atoms: C11_15  and  N3_16 
REMARK    9  A    between atoms: N3_16  and  C12_18 
REMARK   10  A    between atoms: C12_18  and  C13_19 
REMARK   11  A    between atoms: C13_19  and  C14_20 
REMARK   12  A    between atoms: C14_20  and  C15_21 
REMARK   13  A    between atoms: C15_21  and  C16_22 
REMARK   14  A    between atoms: C16_22  and  C17_23 
REMARK   15  A    between atoms: C17_23  and  N4_24 
REMARK   16  A    between atoms: N4_24  and  S1_26 
REMARK   17  A    between atoms: S1_26  and  N5_27 
REMARK   18  A    between atoms: C18_34  and  N7_35 
REMARK   19  A    between atoms: N7_35  and  C19_37 
REMARK   20  A    between atoms: C19_37  and  C20_38 
REMARK   21  A    between atoms: C20_38  and  C21_39 
REMARK   22  A    between atoms: C21_39  and  N8_40 
ROOT
HETATM    1  C6  UNL     1      16.093   3.681  19.554  1.00  0.00     0.029 C 
HETATM    2  C7  UNL     1      16.837   3.749  18.384  1.00  0.00     0.058 C 
HETATM    3  C8  UNL     1      16.537   4.351  17.179  1.00  0.00     0.075 C 
HETATM    4  C11 UNL     1      15.732   5.468  17.012  1.00  0.00     0.143 C 
HETATM    5  N6  UNL     1      14.698   5.836  17.840  1.00  0.00    -0.175 N 
ATOM      6  H6  UNL     1      13.957   6.394  17.417  1.00  0.00     0.186 HD
HETATM    7  C18 UNL     1      14.551   5.536  19.172  1.00  0.00     0.679 C 
HETATM    8  N9  UNL     1      15.012   4.467  19.837  1.00  0.00    -0.196 N 
ATOM      9  H9  UNL     1      14.483   4.204  20.668  1.00  0.00     0.184 HD
ENDROOT
BRANCH   4  10
HETATM   10  N3  UNL     1      15.921   6.237  16.034  1.00  0.00    -0.374 N 
ATOM     11  H3  UNL     1      16.662   6.924  16.175  1.00  0.00     0.161 HD
BRANCH  10  12
HETATM   12  C12 UNL     1      15.293   6.315  14.786  1.00  0.00     0.121 C 
BRANCH  12  13
HETATM   13  C13 UNL     1      14.631   7.708  14.644  1.00  0.00     0.020 C 
BRANCH  13  14
HETATM   14  C14 UNL     1      15.585   8.569  13.864  1.00  0.00     0.002 C 
BRANCH  14  15
HETATM   15  C15 UNL     1      15.952   8.040  12.519  1.00  0.00     0.002 C 
BRANCH  15  16
HETATM   16  C16 UNL     1      16.420   9.139  11.613  1.00  0.00     0.020 C 
BRANCH  16  17
HETATM   17  C17 UNL     1      16.462  10.465  12.278  1.00  0.00     0.133 C 
BRANCH  17  18
HETATM   18  N4  UNL     1      15.829  11.482  11.444  1.00  0.00    -0.303 N 
ATOM     19  H4  UNL     1      16.350  12.114  10.836  1.00  0.00     0.173 HD
BRANCH  18  20
HETATM   20  S1  UNL     1      14.130  11.505  11.589  1.00  0.00     0.312 S 
HETATM   21  O2  UNL     1      13.738  11.175  12.983  1.00  0.00    -0.183 OA
HETATM   22  O3  UNL     1      13.450  10.556  10.657  1.00  0.00    -0.183 OA
BRANCH  20  23
HETATM   23  N5  UNL     1      13.575  13.097  11.209  1.00  0.00    -0.312 N 
ATOM     24  H52 UNL     1      14.153  13.938  11.219  1.00  0.00     0.170 HD
ATOM     25  H51 UNL     1      12.583  13.044  10.977  1.00  0.00     0.170 HD
ENDBRANCH  20  23
ENDBRANCH  18  20
ENDBRANCH  17  18
ENDBRANCH  16  17
ENDBRANCH  15  16
ENDBRANCH  14  15
ENDBRANCH  13  14
ENDBRANCH  12  13
ENDBRANCH  10  12
ENDBRANCH   4  10
BRANCH   3  26
HETATM   26  N1  UNL     1      17.033   3.820  16.128  1.00  0.00    -0.378 N 
ATOM     27  H1  UNL     1      17.335   4.439  15.375  1.00  0.00     0.160 HD
BRANCH  26  28
HETATM   28  C9  UNL     1      17.191   2.406  15.942  1.00  0.00     0.219 C 
BRANCH  28  29
HETATM   29  C10 UNL     1      16.023   1.727  15.361  1.00  0.00     0.248 C 
HETATM   30  N2  UNL     1      15.264   0.752  16.067  1.00  0.00    -0.061 NA
HETATM   31  O1  UNL     1      15.662   2.002  14.201  1.00  0.00    -0.275 OA
ENDBRANCH  28  29
ENDBRANCH  26  28
ENDBRANCH   3  26
BRANCH   7  32
HETATM   32  N7  UNL     1      13.892   6.379  19.856  1.00  0.00    -0.226 N 
ATOM     33  H7  UNL     1      12.879   6.264  19.850  1.00  0.00     0.177 HD
BRANCH  32  34
HETATM   34  C19 UNL     1      14.387   7.458  20.625  1.00  0.00     0.139 C 
BRANCH  34  35
HETATM   35  C20 UNL     1      14.255   8.789  19.913  1.00  0.00     0.040 C 
BRANCH  35  36
HETATM   36  C21 UNL     1      12.863   9.301  19.827  1.00  0.00     0.127 C 
BRANCH  36  37
HETATM   37  N8  UNL     1      12.535  10.079  18.681  1.00  0.00    -0.352 N 
HETATM   38  C22 UNL     1      13.230   9.891  17.392  1.00  0.00     0.126 C 
HETATM   39  C23 UNL     1      13.323  11.366  16.967  1.00  0.00     0.029 C 
HETATM   40  C24 UNL     1      11.865  11.782  17.209  1.00  0.00     0.104 C 
HETATM   41  C25 UNL     1      11.581  11.118  18.498  1.00  0.00     0.219 C 
HETATM   42  O4  UNL     1      10.660  11.422  19.282  1.00  0.00    -0.273 OA
ENDBRANCH  36  37
ENDBRANCH  35  36
ENDBRANCH  34  35
ENDBRANCH  32  34
ENDBRANCH   7  32
BRANCH   1  43
HETATM   43  C5  UNL     1      16.506   2.676  20.561  1.00  0.00     0.057 C 
BRANCH  43  44
HETATM   44  C4  UNL     1      15.410   1.740  20.953  1.00  0.00     0.006 C 
BRANCH  44  45
HETATM   45  C3  UNL     1      14.996   0.891  19.791  1.00  0.00     0.000 C 
BRANCH  45  46
HETATM   46  C2  UNL     1      13.516   0.885  19.554  1.00  0.00    -0.005 C 
HETATM   47  C1  UNL     1      12.768   1.862  20.391  1.00  0.00     0.005 C 
ENDBRANCH  45  46
ENDBRANCH  44  45
ENDBRANCH  43  44
ENDBRANCH   1  43
TORSDOF 22
ENDMDL
MODEL 2
REMARK VINA RESULT: -8.643687003      2.733      6.880
REMARK  22 active torsions:
REMARK  status: ('A' for Active; 'I' for Inactive)
REMARK    1  A    between atoms: C2_2  and  C3_3 
REMARK    2  A    between atoms: C3_3  and  C4_4 
REMARK    3  A    between atoms: C4_4  and  C5_5 
REMARK    4  A    between atoms: C5_5  and  C6_6 
REMARK    5  A    between atoms: C8_8  and  N1_9 
REMARK    6  A    between atoms: N1_9  and  C9_11 
REMARK    7  A    between atoms: C9_11  and  C10_12 
REMARK    8  A    between atoms: C11_15  and  N3_16 
REMARK    9  A    between atoms: N3_16  and  C12_18 
REMARK   10  A    between atoms: C12_18  and  C13_19 
REMARK   11  A    between atoms: C13_19  and  C14_20 
REMARK   12  A    between atoms: C14_20  and  C15_21 
REMARK   13  A    between atoms: C15_21  and  C16_22 
REMARK   14  A    between atoms: C16_22  and  C17_23 
REMARK   15  A    between atoms: C17_23  and  N4_24 
REMARK   16  A    between atoms: N4_24  and  S1_26 
REMARK   17  A    between atoms: S1_26  and  N5_27 
REMARK   18  A    between atoms: C18_34  and  N7_35 
REMARK   19  A    between atoms: N7_35  and  C19_37 
REMARK   20  A    between atoms: C19_37  and  C20_38 
REMARK   21  A    between atoms: C20_38  and  C21_39 
REMARK   22  A    between atoms: C21_39  and  N8_40 
ROOT
HETATM    1  C6  UNL     1      14.111   8.786  16.110  1.00  0.00     0.029 C 
HETATM    2  C7  UNL     1      14.165   9.152  14.771  1.00  0.00     0.058 C 
HETATM    3  C8  UNL     1      15.001   8.711  13.766  1.00  0.00     0.075 C 
HETATM    4  C11 UNL     1      15.577   7.451  13.690  1.00  0.00     0.143 C 
HETATM    5  N6  UNL     1      15.887   6.650  14.763  1.00  0.00    -0.175 N 
ATOM      6  H6  UNL     1      16.641   5.979  14.623  1.00  0.00     0.186 HD
HETATM    7  C18 UNL     1      15.294   6.652  16.002  1.00  0.00     0.679 C 
HETATM    8  N9  UNL     1      14.706   7.675  16.638  1.00  0.00    -0.196 N 
ATOM      9  H9  UNL     1      14.701   7.616  17.656  1.00  0.00     0.184 HD
ENDROOT
BRANCH   4  10
HETATM   10  N3  UNL     1      15.864   6.960  12.567  1.00  0.00    -0.374 N 
ATOM     11  H3  UNL     1      15.397   7.409  11.779  1.00  0.00     0.161 HD
BRANCH  10  12
HETATM   12  C12 UNL     1      16.711   5.904  12.210  1.00  0.00     0.121 C 
BRANCH  12  13
HETATM   13  C13 UNL     1      15.847   4.685  11.805  1.00  0.00     0.020 C 
BRANCH  13  14
HETATM   14  C14 UNL     1      16.190   4.359  10.378  1.00  0.00     0.002 C 
BRANCH  14  15
HETATM   15  C15 UNL     1      16.958   5.416   9.660  1.00  0.00     0.002 C 
BRANCH  15  16
HETATM   16  C16 UNL     1      16.144   6.027   8.559  1.00  0.00     0.020 C 
BRANCH  16  17
HETATM   17  C17 UNL     1      16.504   7.440   8.282  1.00  0.00     0.133 C 
BRANCH  17  18
HETATM   18  N4  UNL     1      16.210   8.284   9.435  1.00  0.00    -0.303 N 
ATOM     19  H4  UNL     1      15.297   8.319   9.889  1.00  0.00     0.173 HD
BRANCH  18  20
HETATM   20  S1  UNL     1      17.549   9.206   9.949  1.00  0.00     0.312 S 
HETATM   21  O2  UNL     1      18.773   8.759   9.237  1.00  0.00    -0.183 OA
HETATM   22  O3  UNL     1      17.788   9.123  11.421  1.00  0.00    -0.183 OA
BRANCH  20  23
HETATM   23  N5  UNL     1      17.246  10.864   9.562  1.00  0.00    -0.312 N 
ATOM     24  H52 UNL     1      16.424  11.210   9.067  1.00  0.00     0.170 HD
ATOM     25  H51 UNL     1      18.025  11.422   9.913  1.00  0.00     0.170 HD
ENDBRANCH  20  23
ENDBRANCH  18  20
ENDBRANCH  17  18
ENDBRANCH  16  17
ENDBRANCH  15  16
ENDBRANCH  14  15
ENDBRANCH  13  14
ENDBRANCH  12  13
ENDBRANCH  10  12
ENDBRANCH   4  10
BRANCH   3  26
HETATM   26  N1  UNL     1      15.277   9.543  12.837  1.00  0.00    -0.378 N 
ATOM     27  H1  UNL     1      15.977   9.273  12.145  1.00  0.00     0.160 HD
BRANCH  26  28
HETATM   28  C9  UNL     1      14.663  10.833  12.707  1.00  0.00     0.219 C 
BRANCH  28  29
HETATM   29  C10 UNL     1      14.007  11.075  11.413  1.00  0.00     0.248 C 
HETATM   30  N2  UNL     1      13.123  12.167  11.186  1.00  0.00    -0.061 NA
HETATM   31  O1  UNL     1      14.218  10.302  10.460  1.00  0.00    -0.275 OA
ENDBRANCH  28  29
ENDBRANCH  26  28
ENDBRANCH   3  26
BRANCH   7  32
HETATM   32  N7  UNL     1      15.310   5.543  16.621  1.00  0.00    -0.226 N 
ATOM     33  H7  UNL     1      14.461   5.306  17.133  1.00  0.00     0.177 HD
BRANCH  32  34
HETATM   34  C19 UNL     1      16.359   4.597  16.689  1.00  0.00     0.139 C 
BRANCH  34  35
HETATM   35  C20 UNL     1      16.645   4.146  18.107  1.00  0.00     0.040 C 
BRANCH  35  36
HETATM   36  C21 UNL     1      15.442   4.058  18.976  1.00  0.00     0.127 C 
BRANCH  36  37
HETATM   37  N8  UNL     1      15.412   4.908  20.117  1.00  0.00    -0.352 N 
HETATM   38  C22 UNL     1      15.313   4.364  21.485  1.00  0.00     0.126 C 
HETATM   39  C23 UNL     1      14.365   5.419  22.081  1.00  0.00     0.029 C 
HETATM   40  C24 UNL     1      15.088   6.689  21.613  1.00  0.00     0.104 C 
HETATM   41  C25 UNL     1      15.453   6.325  20.228  1.00  0.00     0.219 C 
HETATM   42  O4  UNL     1      15.746   7.130  19.321  1.00  0.00    -0.273 OA
ENDBRANCH  36  37
ENDBRANCH  35  36
ENDBRANCH  34  35
ENDBRANCH  32  34
ENDBRANCH   7  32
BRANCH   1  43
HETATM   43  C5  UNL     1      13.358   9.675  17.025  1.00  0.00     0.057 C 
BRANCH  43  44
HETATM   44  C4  UNL     1      13.074  11.023  16.448  1.00  0.00     0.006 C 
BRANCH  44  45
HETATM   45  C3  UNL     1      12.559  11.953  17.503  1.00  0.00     0.000 C 
BRANCH  45  46
HETATM   46  C2  UNL     1      11.322  11.453  18.187  1.00  0.00    -0.005 C 
HETATM   47  C1  UNL     1      11.469  11.297  19.660  1.00  0.00     0.005 C 
ENDBRANCH  45  46
ENDBRANCH  44  45
ENDBRANCH  43  44
ENDBRANCH   1  43
TORSDOF 22
ENDMDL
MODEL 3
REMARK VINA RESULT: -8.527588714      2.550      6.986
REMARK  22 active torsions:
REMARK  status: ('A' for Active; 'I' for Inactive)
REMARK    1  A    between atoms: C2_2  and  C3_3 
REMARK    2  A    between atoms: C3_3  and  C4_4 
REMARK    3  A    between atoms: C4_4  and  C5_5 
REMARK    4  A    between atoms: C5_5  and  C6_6 
REMARK    5  A    between atoms: C8_8  and  N1_9 
REMARK    6  A    between atoms: N1_9  and  C9_11 
REMARK    7  A    between atoms: C9_11  and  C10_12 
REMARK    8  A    between atoms: C11_15  and  N3_16 
REMARK    9  A    between atoms: N3_16  and  C12_18 
REMARK   10  A    between atoms: C12_18  and  C13_19 
REMARK   11  A    between atoms: C13_19  and  C14_20 
REMARK   12  A    between atoms: C14_20  and  C15_21 
REMARK   13  A    between atoms: C15_21  and  C16_22 
REMARK   14  A    between atoms: C16_22  and  C17_23 
REMARK   15  A    between atoms: C17_23  and  N4_24 
REMARK   16  A    between atoms: N4_24  and  S1_26 
REMARK   17  A    between atoms: S1_26  and  N5_27 
REMARK   18  A    between atoms: C18_34  and  N7_35 
REMARK   19  A    between atoms: N7_35  and  C19_37 
REMARK   20  A    between atoms: C19_37  and  C20_38 
REMARK   21  A    between atoms: C20_38  and  C21_39 
REMARK   22  A    between atoms: C21_39  and  N8_40 
ROOT
HETATM    1  C6  UNL     1      13.938   8.890  17.337  1.00  0.00     0.029 C 
HETATM    2  C7  UNL     1      13.878   8.897  15.950  1.00  0.00     0.058 C 
HETATM    3  C8  UNL     1      14.464   8.045  15.036  1.00  0.00     0.075 C 
HETATM    4  C11 UNL     1      14.763   6.708  15.253  1.00  0.00     0.143 C 
HETATM    5  N6  UNL     1      15.052   6.145  16.472  1.00  0.00    -0.175 N 
ATOM      6  H6  UNL     1      15.632   5.306  16.457  1.00  0.00     0.186 HD
HETATM    7  C18 UNL     1      14.648   6.583  17.710  1.00  0.00     0.679 C 
HETATM    8  N9  UNL     1      14.367   7.837  18.094  1.00  0.00    -0.196 N 
ATOM      9  H9  UNL     1      14.491   8.031  19.088  1.00  0.00     0.184 HD
ENDROOT
BRANCH   4  10
HETATM   10  N3  UNL     1      14.789   5.906  14.283  1.00  0.00    -0.374 N 
ATOM     11  H3  UNL     1      14.684   6.347  13.369  1.00  0.00     0.161 HD
BRANCH  10  12
HETATM   12  C12 UNL     1      14.935   4.515  14.240  1.00  0.00     0.121 C 
BRANCH  12  13
HETATM   13  C13 UNL     1      15.057   4.070  12.762  1.00  0.00     0.020 C 
BRANCH  13  14
HETATM   14  C14 UNL     1      15.876   5.114  12.055  1.00  0.00     0.002 C 
BRANCH  14  15
HETATM   15  C15 UNL     1      16.499   4.663  10.777  1.00  0.00     0.002 C 
BRANCH  15  16
HETATM   16  C16 UNL     1      16.569   5.783   9.783  1.00  0.00     0.020 C 
BRANCH  16  17
HETATM   17  C17 UNL     1      16.563   7.126  10.416  1.00  0.00     0.133 C 
BRANCH  17  18
HETATM   18  N4  UNL     1      16.125   8.143   9.465  1.00  0.00    -0.303 N 
ATOM     19  H4  UNL     1      15.152   8.272   9.189  1.00  0.00     0.173 HD
BRANCH  18  20
HETATM   20  S1  UNL     1      17.407   9.094   8.864  1.00  0.00     0.312 S 
HETATM   21  O2  UNL     1      17.594   8.830   7.415  1.00  0.00    -0.183 OA
HETATM   22  O3  UNL     1      18.699   8.849   9.572  1.00  0.00    -0.183 OA
BRANCH  20  23
HETATM   23  N5  UNL     1      16.998  10.759   9.086  1.00  0.00    -0.312 N 
ATOM     24  H52 UNL     1      16.744  11.187   9.977  1.00  0.00     0.170 HD
ATOM     25  H51 UNL     1      17.056  11.226   8.181  1.00  0.00     0.170 HD
ENDBRANCH  20  23
ENDBRANCH  18  20
ENDBRANCH  17  18
ENDBRANCH  16  17
ENDBRANCH  15  16
ENDBRANCH  14  15
ENDBRANCH  13  14
ENDBRANCH  12  13
ENDBRANCH  10  12
ENDBRANCH   4  10
BRANCH   3  26
HETATM   26  N1  UNL     1      14.769   8.540  13.898  1.00  0.00    -0.378 N 
ATOM     27  H1  UNL     1      14.944   7.896  13.127  1.00  0.00     0.160 HD
BRANCH  26  28
HETATM   28  C9  UNL     1      14.879   9.947  13.640  1.00  0.00     0.219 C 
BRANCH  28  29
HETATM   29  C10 UNL     1      15.518  10.289  12.359  1.00  0.00     0.248 C 
HETATM   30  N2  UNL     1      16.856  10.765  12.265  1.00  0.00    -0.061 NA
HETATM   31  O1  UNL     1      14.879  10.166  11.298  1.00  0.00    -0.275 OA
ENDBRANCH  28  29
ENDBRANCH  26  28
ENDBRANCH   3  26
BRANCH   7  32
HETATM   32  N7  UNL     1      14.530   5.685  18.600  1.00  0.00    -0.226 N 
ATOM     33  H7  UNL     1      13.912   4.907  18.369  1.00  0.00     0.177 HD
BRANCH  32  34
HETATM   34  C19 UNL     1      15.147   5.629  19.871  1.00  0.00     0.139 C 
BRANCH  34  35
HETATM   35  C20 UNL     1      14.706   4.426  20.679  1.00  0.00     0.040 C 
BRANCH  35  36
HETATM   36  C21 UNL     1      15.516   3.202  20.446  1.00  0.00     0.127 C 
BRANCH  36  37
HETATM   37  N8  UNL     1      15.053   2.308  19.440  1.00  0.00    -0.352 N 
HETATM   38  C22 UNL     1      14.140   1.192  19.755  1.00  0.00     0.126 C 
HETATM   39  C23 UNL     1      14.748   0.130  18.823  1.00  0.00     0.029 C 
HETATM   40  C24 UNL     1      14.829   0.957  17.532  1.00  0.00     0.104 C 
HETATM   41  C25 UNL     1      15.321   2.253  18.044  1.00  0.00     0.219 C 
HETATM   42  O4  UNL     1      15.872   3.140  17.361  1.00  0.00    -0.273 OA
ENDBRANCH  36  37
ENDBRANCH  35  36
ENDBRANCH  34  35
ENDBRANCH  32  34
ENDBRANCH   7  32
BRANCH   1  43
HETATM   43  C5  UNL     1      13.509  10.122  18.039  1.00  0.00     0.057 C 
BRANCH  43  44
HETATM   44  C4  UNL     1      12.529  10.940  17.264  1.00  0.00     0.006 C 
BRANCH  44  45
HETATM   45  C3  UNL     1      11.457  11.475  18.162  1.00  0.00     0.000 C 
BRANCH  45  46
HETATM   46  C2  UNL     1      11.322  10.717  19.449  1.00  0.00    -0.005 C 
HETATM   47  C1  UNL     1      11.292  11.584  20.658  1.00  0.00     0.005 C 
ENDBRANCH  45  46
ENDBRANCH  44  45
ENDBRANCH  43  44
ENDBRANCH   1  43
TORSDOF 22
ENDMDL
MODEL 4
REMARK VINA RESULT: -8.436483428      2.682      7.404
REMARK  22 active torsions:
REMARK  status: ('A' for Active; 'I' for Inactive)
REMARK    1  A    between atoms: C2_2  and  C3_3 
REMARK    2  A    between atoms: C3_3  and  C4_4 
REMARK    3  A    between atoms: C4_4  and  C5_5 
REMARK    4  A    between atoms: C5_5  and  C6_6 
REMARK    5  A    between atoms: C8_8  and  N1_9 
REMARK    6  A    between atoms: N1_9  and  C9_11 
REMARK    7  A    between atoms: C9_11  and  C10_12 
REMARK    8  A    between atoms: C11_15  and  N3_16 
REMARK    9  A    between atoms: N3_16  and  C12_18 
REMARK   10  A    between atoms: C12_18  and  C13_19 
REMARK   11  A    between atoms: C13_19  and  C14_20 
REMARK   12  A    between atoms: C14_20  and  C15_21 
REMARK   13  A    between atoms: C15_21  and  C16_22 
REMARK   14  A    between atoms: C16_22  and  C17_23 
REMARK   15  A    between atoms: C17_23  and  N4_24 
REMARK   16  A    between atoms: N4_24  and  S1_26 
REMARK   17  A    between atoms: S1_26  and  N5_27 
REMARK   18  A    between atoms: C18_34  and  N7_35 
REMARK   19  A    between atoms: N7_35  and  C19_37 
REMARK   20  A    between atoms: C19_37  and  C20_38 
REMARK   21  A    between atoms: C20_38  and  C21_39 
REMARK   22  A    between atoms: C21_39  and  N8_40 
ROOT
HETATM    1  C6  UNL     1      13.803   9.243  16.409  1.00  0.00     0.029 C 
HETATM    2  C7  UNL     1      13.882   9.505  15.048  1.00  0.00     0.058 C 
HETATM    3  C8  UNL     1      14.735   8.985  14.095  1.00  0.00     0.075 C 
HETATM    4  C11 UNL     1      15.308   7.721  14.128  1.00  0.00     0.143 C 
HETATM    5  N6  UNL     1      15.594   7.005  15.264  1.00  0.00    -0.175 N 
ATOM      6  H6  UNL     1      16.349   6.323  15.191  1.00  0.00     0.186 HD
HETATM    7  C18 UNL     1      14.979   7.104  16.489  1.00  0.00     0.679 C 
HETATM    8  N9  UNL     1      14.384   8.175  17.032  1.00  0.00    -0.196 N 
ATOM      9  H9  UNL     1      14.360   8.195  18.052  1.00  0.00     0.184 HD
ENDROOT
BRANCH   4  10
HETATM   10  N3  UNL     1      15.613   7.144  13.051  1.00  0.00    -0.374 N 
ATOM     11  H3  UNL     1      15.834   7.776  12.282  1.00  0.00     0.161 HD
BRANCH  10  12
HETATM   12  C12 UNL     1      15.702   5.786  12.725  1.00  0.00     0.121 C 
BRANCH  12  13
HETATM   13  C13 UNL     1      16.952   5.565  11.839  1.00  0.00     0.020 C 
BRANCH  13  14
HETATM   14  C14 UNL     1      16.462   5.079  10.503  1.00  0.00     0.002 C 
BRANCH  14  15
HETATM   15  C15 UNL     1      17.085   5.750   9.325  1.00  0.00     0.002 C 
BRANCH  15  16
HETATM   16  C16 UNL     1      16.087   6.596   8.592  1.00  0.00     0.020 C 
BRANCH  16  17
HETATM   17  C17 UNL     1      16.413   8.044   8.626  1.00  0.00     0.133 C 
BRANCH  17  18
HETATM   18  N4  UNL     1      16.198   8.592   9.961  1.00  0.00    -0.303 N 
ATOM     19  H4  UNL     1      15.332   8.468  10.486  1.00  0.00     0.173 HD
BRANCH  18  20
HETATM   20  S1  UNL     1      17.540   9.460  10.554  1.00  0.00     0.312 S 
HETATM   21  O2  UNL     1      18.765   9.063   9.815  1.00  0.00    -0.183 OA
HETATM   22  O3  UNL     1      17.769   9.257  12.016  1.00  0.00    -0.183 OA
BRANCH  20  23
HETATM   23  N5  UNL     1      17.250  11.146  10.301  1.00  0.00    -0.312 N 
ATOM     24  H52 UNL     1      17.107  11.587   9.392  1.00  0.00     0.170 HD
ATOM     25  H51 UNL     1      17.247  11.610  11.210  1.00  0.00     0.170 HD
ENDBRANCH  20  23
ENDBRANCH  18  20
ENDBRANCH  17  18
ENDBRANCH  16  17
ENDBRANCH  15  16
ENDBRANCH  14  15
ENDBRANCH  13  14
ENDBRANCH  12  13
ENDBRANCH  10  12
ENDBRANCH   4  10
BRANCH   3  26
HETATM   26  N1  UNL     1      15.032   9.741  13.110  1.00  0.00    -0.378 N 
ATOM     27  H1  UNL     1      15.738   9.414  12.450  1.00  0.00     0.160 HD
BRANCH  26  28
HETATM   28  C9  UNL     1      14.432  11.024  12.875  1.00  0.00     0.219 C 
BRANCH  28  29
HETATM   29  C10 UNL     1      13.813  11.180  11.549  1.00  0.00     0.248 C 
HETATM   30  N2  UNL     1      12.954  12.266  11.220  1.00  0.00    -0.061 NA
HETATM   31  O1  UNL     1      14.035  10.337  10.660  1.00  0.00    -0.275 OA
ENDBRANCH  28  29
ENDBRANCH  26  28
ENDBRANCH   3  26
BRANCH   7  32
HETATM   32  N7  UNL     1      14.980   6.047  17.191  1.00  0.00    -0.226 N 
ATOM     33  H7  UNL     1      14.096   5.540  17.236  1.00  0.00     0.177 HD
BRANCH  32  34
HETATM   34  C19 UNL     1      16.054   5.484  17.921  1.00  0.00     0.139 C 
BRANCH  34  35
HETATM   35  C20 UNL     1      16.140   3.980  17.760  1.00  0.00     0.040 C 
BRANCH  35  36
HETATM   36  C21 UNL     1      16.065   3.223  19.037  1.00  0.00     0.127 C 
BRANCH  36  37
HETATM   37  N8  UNL     1      14.764   2.903  19.517  1.00  0.00    -0.352 N 
HETATM   38  C22 UNL     1      14.036   3.797  20.438  1.00  0.00     0.126 C 
HETATM   39  C23 UNL     1      13.399   2.726  21.339  1.00  0.00     0.029 C 
HETATM   40  C24 UNL     1      12.824   1.806  20.254  1.00  0.00     0.104 C 
HETATM   41  C25 UNL     1      13.931   1.775  19.277  1.00  0.00     0.219 C 
HETATM   42  O4  UNL     1      14.097   0.907  18.397  1.00  0.00    -0.273 OA
ENDBRANCH  36  37
ENDBRANCH  35  36
ENDBRANCH  34  35
ENDBRANCH  32  34
ENDBRANCH   7  32
BRANCH   1  43
HETATM   43  C5  UNL     1      13.037  10.202  17.238  1.00  0.00     0.057 C 
BRANCH  43  44
HETATM   44  C4  UNL     1      12.764  11.500  16.552  1.00  0.00     0.006 C 
BRANCH  44  45
HETATM   45  C3  UNL     1      13.509  12.617  17.216  1.00  0.00     0.000 C 
BRANCH  45  46
HETATM   46  C2  UNL     1      14.332  12.173  18.387  1.00  0.00    -0.005 C 
HETATM   47  C1  UNL     1      15.047  13.281  19.076  1.00  0.00     0.005 C 
ENDBRANCH  45  46
ENDBRANCH  44  45
ENDBRANCH  43  44
ENDBRANCH   1  43
TORSDOF 22
ENDMDL
MODEL 5
REMARK VINA RESULT: -8.318438445      2.961      7.144
REMARK  22 active torsions:
REMARK  status: ('A' for Active; 'I' for Inactive)
REMARK    1  A    between atoms: C2_2  and  C3_3 
REMARK    2  A    between atoms: C3_3  and  C4_4 
REMARK    3  A    between atoms: C4_4  and  C5_5 
REMARK    4  A    between atoms: C5_5  and  C6_6 
REMARK    5  A    between atoms: C8_8  and  N1_9 
REMARK    6  A    between atoms: N1_9  and  C9_11 
REMARK    7  A    between atoms: C9_11  and  C10_12 
REMARK    8  A    between atoms: C11_15  and  N3_16 
REMARK    9  A    between atoms: N3_16  and  C12_18 
REMARK   10  A    between atoms: C12_18  and  C13_19 
REMARK   11  A    between atoms: C13_19  and  C14_20 
REMARK   12  A    between atoms: C14_20  and  C15_21 
REMARK   13  A    between atoms: C15_21  and  C16_22 
REMARK   14  A    between atoms: C16_22  and  C17_23 
REMARK   15  A    between atoms: C17_23  and  N4_24 
REMARK   16  A    between atoms: N4_24  and  S1_26 
REMARK   17  A    between atoms: S1_26  and  N5_27 
REMARK   18  A    between atoms: C18_34  and  N7_35 
REMARK   19  A    between atoms: N7_35  and  C19_37 
REMARK   20  A    between atoms: C19_37  and  C20_38 
REMARK   21  A    between atoms: C20_38  and  C21_39 
REMARK   22  A    between atoms: C21_39  and  N8_40 
ROOT
HETATM    1  C6  UNL     1      13.783   9.115  16.924  1.00  0.00     0.029 C 
HETATM    2  C7  UNL     1      13.826   9.095  15.536  1.00  0.00     0.058 C 
HETATM    3  C8  UNL     1      14.560   8.293  14.686  1.00  0.00     0.075 C 
HETATM    4  C11 UNL     1      14.973   6.997  14.955  1.00  0.00     0.143 C 
HETATM    5  N6  UNL     1      15.226   6.483  16.204  1.00  0.00    -0.175 N 
ATOM      6  H6  UNL     1      15.886   5.708  16.249  1.00  0.00     0.186 HD
HETATM    7  C18 UNL     1      14.689   6.897  17.399  1.00  0.00     0.679 C 
HETATM    8  N9  UNL     1      14.257   8.122  17.733  1.00  0.00    -0.196 N 
ATOM      9  H9  UNL     1      14.286   8.342  18.729  1.00  0.00     0.184 HD
ENDROOT
BRANCH   4  10
HETATM   10  N3  UNL     1      15.152   6.187  14.008  1.00  0.00    -0.374 N 
ATOM     11  H3  UNL     1      15.607   6.590  13.188  1.00  0.00     0.161 HD
BRANCH  10  12
HETATM   12  C12 UNL     1      14.834   4.829  13.882  1.00  0.00     0.121 C 
BRANCH  12  13
HETATM   13  C13 UNL     1      15.303   4.333  12.492  1.00  0.00     0.020 C 
BRANCH  13  14
HETATM   14  C14 UNL     1      16.239   5.375  11.946  1.00  0.00     0.002 C 
BRANCH  14  15
HETATM   15  C15 UNL     1      16.928   4.997  10.678  1.00  0.00     0.002 C 
BRANCH  15  16
HETATM   16  C16 UNL     1      16.639   5.984   9.588  1.00  0.00     0.020 C 
BRANCH  16  17
HETATM   17  C17 UNL     1      16.399   7.359  10.095  1.00  0.00     0.133 C 
BRANCH  17  18
HETATM   18  N4  UNL     1      16.163   8.283   8.990  1.00  0.00    -0.303 N 
ATOM     19  H4  UNL     1      15.263   8.377   8.520  1.00  0.00     0.173 HD
BRANCH  18  20
HETATM   20  S1  UNL     1      17.544   9.187   8.566  1.00  0.00     0.312 S 
HETATM   21  O2  UNL     1      17.881   8.954   7.138  1.00  0.00    -0.183 OA
HETATM   22  O3  UNL     1      18.737   8.862   9.404  1.00  0.00    -0.183 OA
BRANCH  20  23
HETATM   23  N5  UNL     1      17.187  10.863   8.794  1.00  0.00    -0.312 N 
ATOM     24  H52 UNL     1      17.881  11.594   8.956  1.00  0.00     0.170 HD
ATOM     25  H51 UNL     1      16.176  10.985   8.740  1.00  0.00     0.170 HD
ENDBRANCH  20  23
ENDBRANCH  18  20
ENDBRANCH  17  18
ENDBRANCH  16  17
ENDBRANCH  15  16
ENDBRANCH  14  15
ENDBRANCH  13  14
ENDBRANCH  12  13
ENDBRANCH  10  12
ENDBRANCH   4  10
BRANCH   3  26
HETATM   26  N1  UNL     1      14.899   8.799  13.563  1.00  0.00    -0.378 N 
ATOM     27  H1  UNL     1      15.165   8.163  12.812  1.00  0.00     0.160 HD
BRANCH  26  28
HETATM   28  C9  UNL     1      14.928  10.209  13.295  1.00  0.00     0.219 C 
BRANCH  28  29
HETATM   29  C10 UNL     1      15.429  10.571  11.960  1.00  0.00     0.248 C 
HETATM   30  N2  UNL     1      14.661  10.400  10.773  1.00  0.00    -0.061 NA
HETATM   31  O1  UNL     1      16.572  11.049  11.838  1.00  0.00    -0.275 OA
ENDBRANCH  28  29
ENDBRANCH  26  28
ENDBRANCH   3  26
BRANCH   7  32
HETATM   32  N7  UNL     1      14.594   6.005  18.297  1.00  0.00    -0.226 N 
ATOM     33  H7  UNL     1      13.812   5.358  18.202  1.00  0.00     0.177 HD
BRANCH  32  34
HETATM   34  C19 UNL     1      15.437   5.798  19.414  1.00  0.00     0.139 C 
BRANCH  34  35
HETATM   35  C20 UNL     1      14.712   5.976  20.732  1.00  0.00     0.040 C 
BRANCH  35  36
HETATM   36  C21 UNL     1      14.575   4.729  21.529  1.00  0.00     0.127 C 
BRANCH  36  37
HETATM   37  N8  UNL     1      14.318   3.531  20.806  1.00  0.00    -0.352 N 
HETATM   38  C22 UNL     1      13.024   3.290  20.138  1.00  0.00     0.126 C 
HETATM   39  C23 UNL     1      12.881   1.792  20.453  1.00  0.00     0.029 C 
HETATM   40  C24 UNL     1      14.276   1.317  20.023  1.00  0.00     0.104 C 
HETATM   41  C25 UNL     1      15.133   2.388  20.573  1.00  0.00     0.219 C 
HETATM   42  O4  UNL     1      16.358   2.296  20.790  1.00  0.00    -0.273 OA
ENDBRANCH  36  37
ENDBRANCH  35  36
ENDBRANCH  34  35
ENDBRANCH  32  34
ENDBRANCH   7  32
BRANCH   1  43
HETATM   43  C5  UNL     1      13.182  10.308  17.565  1.00  0.00     0.057 C 
BRANCH  43  44
HETATM   44  C4  UNL     1      12.980  11.452  16.626  1.00  0.00     0.006 C 
BRANCH  44  45
HETATM   45  C3  UNL     1      13.591  12.704  17.177  1.00  0.00     0.000 C 
BRANCH  45  46
HETATM   46  C2  UNL     1      14.529  12.457  18.320  1.00  0.00    -0.005 C 
HETATM   47  C1  UNL     1      14.213  13.249  19.540  1.00  0.00     0.005 C 
ENDBRANCH  45  46
ENDBRANCH  44  45
ENDBRANCH  43  44
ENDBRANCH   1  43
TORSDOF 22
ENDMDL
