MODEL 1
REMARK VINA RESULT: -4.777719330      0.000      0.000
REMARK  5 active torsions:
REMARK  status: ('A' for Active; 'I' for Inactive)
REMARK    1  A    between atoms: N1_1  and  C1_4 
REMARK    2  A    between atoms: C3_12  and  N5_13 
REMARK    3  A    between atoms: N5_13  and  N6_15 
REMARK    4  A    between atoms: N6_15  and  C4_17 
REMARK    5  A    between atoms: N7_18  and  N8_20 
ROOT
HETATM    1  C1  UNL     1     -28.248   9.054  15.112  1.00  0.00     0.147 A 
HETATM    2  N2  UNL     1     -29.520   9.383  15.422  1.00  0.00    -0.335 N 
ATOM      3  H2  UNL     1     -30.012   8.850  16.140  1.00  0.00     0.168 HD
HETATM    4  C2  UNL     1     -30.155  10.396  14.807  1.00  0.00     0.199 A 
HETATM    5  N3  UNL     1     -29.453  11.058  13.871  1.00  0.00    -0.294 N 
ATOM      6  H3  UNL     1     -29.903  11.833  13.384  1.00  0.00     0.187 HD
HETATM    7  N4  UNL     1     -28.204  10.753  13.551  1.00  0.00    -0.281 N 
ATOM      8  H4  UNL     1     -27.731  11.298  12.830  1.00  0.00     0.188 HD
HETATM    9  C3  UNL     1     -27.540   9.744  14.149  1.00  0.00     0.179 A 
ENDROOT
BRANCH   9  10
HETATM   10  N5  UNL     1     -26.199   9.413  13.807  1.00  0.00    -0.280 N 
ATOM     11  H5  UNL     1     -25.441   9.977  14.193  1.00  0.00     0.188 HD
BRANCH  10  12
HETATM   12  N6  UNL     1     -25.883   8.354  12.969  1.00  0.00    -0.293 N 
ATOM     13  H6  UNL     1     -26.380   7.471  13.079  1.00  0.00     0.187 HD
BRANCH  12  14
HETATM   14  C4  UNL     1     -24.898   8.464  11.973  1.00  0.00     0.213 C 
HETATM   15  N7  UNL     1     -23.980   7.597  11.791  1.00  0.00    -0.301 N 
ATOM     16  H7  UNL     1     -23.311   7.766  11.040  1.00  0.00     0.187 HD
BRANCH  15  17
HETATM   17  N8  UNL     1     -23.825   6.441  12.539  1.00  0.00    -0.344 N 
ATOM     18  H82 UNL     1     -24.380   6.372  13.392  1.00  0.00     0.176 HD
ATOM     19  H81 UNL     1     -23.203   5.669  12.296  1.00  0.00     0.176 HD
ENDBRANCH  15  17
ENDBRANCH  12  14
ENDBRANCH  10  12
ENDBRANCH   9  10
BRANCH   1  20
HETATM   20  N1  UNL     1     -27.654   8.069  15.721  1.00  0.00    -0.382 N 
ATOM     21  H12 UNL     1     -28.189   7.533  16.404  1.00  0.00     0.157 HD
ATOM     22  H11 UNL     1     -26.680   7.846  15.515  1.00  0.00     0.157 HD
ENDBRANCH   1  20
TORSDOF 5
ENDMDL
MODEL 2
REMARK VINA RESULT: -4.578329886      1.914      3.101
REMARK  5 active torsions:
REMARK  status: ('A' for Active; 'I' for Inactive)
REMARK    1  A    between atoms: N1_1  and  C1_4 
REMARK    2  A    between atoms: C3_12  and  N5_13 
REMARK    3  A    between atoms: N5_13  and  N6_15 
REMARK    4  A    between atoms: N6_15  and  C4_17 
REMARK    5  A    between atoms: N7_18  and  N8_20 
ROOT
HETATM    1  C1  UNL     1     -26.035   7.442  13.466  1.00  0.00     0.147 A 
HETATM    2  N2  UNL     1     -26.960   7.975  14.293  1.00  0.00    -0.335 N 
ATOM      3  H2  UNL     1     -27.503   7.358  14.897  1.00  0.00     0.168 HD
HETATM    4  C2  UNL     1     -27.181   9.301  14.340  1.00  0.00     0.199 A 
HETATM    5  N3  UNL     1     -26.433  10.059  13.520  1.00  0.00    -0.294 N 
ATOM      6  H3  UNL     1     -26.575  11.069  13.529  1.00  0.00     0.187 HD
HETATM    7  N4  UNL     1     -25.520   9.558  12.701  1.00  0.00    -0.281 N 
ATOM      8  H4  UNL     1     -24.988  10.192  12.106  1.00  0.00     0.188 HD
HETATM    9  C3  UNL     1     -25.274   8.234  12.631  1.00  0.00     0.179 A 
ENDROOT
BRANCH   9  10
HETATM   10  N5  UNL     1     -24.294   7.692  11.752  1.00  0.00    -0.280 N 
ATOM     11  H5  UNL     1     -24.605   7.197  10.917  1.00  0.00     0.188 HD
BRANCH  10  12
HETATM   12  N6  UNL     1     -22.933   7.813  11.989  1.00  0.00    -0.293 N 
ATOM     13  H6  UNL     1     -22.389   8.468  11.428  1.00  0.00     0.187 HD
BRANCH  12  14
HETATM   14  C4  UNL     1     -22.282   7.059  12.981  1.00  0.00     0.213 C 
HETATM   15  N7  UNL     1     -22.011   5.819  12.858  1.00  0.00    -0.301 N 
ATOM     16  H7  UNL     1     -21.535   5.360  13.635  1.00  0.00     0.187 HD
BRANCH  15  17
HETATM   17  N8  UNL     1     -22.314   5.049  11.747  1.00  0.00    -0.344 N 
ATOM     18  H82 UNL     1     -23.295   5.016  11.470  1.00  0.00     0.176 HD
ATOM     19  H81 UNL     1     -21.633   4.523  11.199  1.00  0.00     0.176 HD
ENDBRANCH  15  17
ENDBRANCH  12  14
ENDBRANCH  10  12
ENDBRANCH   9  10
BRANCH   1  20
HETATM   20  N1  UNL     1     -25.837   6.155  13.439  1.00  0.00    -0.382 N 
ATOM     21  H12 UNL     1     -25.146   5.762  14.077  1.00  0.00     0.157 HD
ATOM     22  H11 UNL     1     -26.365   5.565  12.795  1.00  0.00     0.157 HD
ENDBRANCH   1  20
TORSDOF 5
ENDMDL
MODEL 3
REMARK VINA RESULT: -4.567706176      0.923      1.965
REMARK  5 active torsions:
REMARK  status: ('A' for Active; 'I' for Inactive)
REMARK    1  A    between atoms: N1_1  and  C1_4 
REMARK    2  A    between atoms: C3_12  and  N5_13 
REMARK    3  A    between atoms: N5_13  and  N6_15 
REMARK    4  A    between atoms: N6_15  and  C4_17 
REMARK    5  A    between atoms: N7_18  and  N8_20 
ROOT
HETATM    1  C1  UNL     1     -29.013  10.730  13.898  1.00  0.00     0.147 A 
HETATM    2  N2  UNL     1     -30.153  10.668  14.619  1.00  0.00    -0.335 N 
ATOM      3  H2  UNL     1     -30.952  11.237  14.338  1.00  0.00     0.168 HD
HETATM    4  C2  UNL     1     -30.260   9.874  15.700  1.00  0.00     0.199 A 
HETATM    5  N3  UNL     1     -29.172   9.151  16.017  1.00  0.00    -0.294 N 
ATOM      6  H3  UNL     1     -29.218   8.538  16.831  1.00  0.00     0.187 HD
HETATM    7  N4  UNL     1     -28.044   9.195  15.324  1.00  0.00    -0.281 N 
ATOM      8  H4  UNL     1     -27.257   8.619  15.622  1.00  0.00     0.188 HD
HETATM    9  C3  UNL     1     -27.905   9.980  14.237  1.00  0.00     0.179 A 
ENDROOT
BRANCH   9  10
HETATM   10  N5  UNL     1     -26.695  10.031  13.490  1.00  0.00    -0.280 N 
ATOM     11  H5  UNL     1     -26.370  10.934  13.142  1.00  0.00     0.188 HD
BRANCH  10  12
HETATM   12  N6  UNL     1     -25.940   8.900  13.217  1.00  0.00    -0.293 N 
ATOM     13  H6  UNL     1     -26.177   8.023  13.681  1.00  0.00     0.187 HD
BRANCH  12  14
HETATM   14  C4  UNL     1     -24.858   8.928  12.321  1.00  0.00     0.213 C 
HETATM   15  N7  UNL     1     -24.105   7.923  12.095  1.00  0.00    -0.301 N 
ATOM     16  H7  UNL     1     -23.345   8.043  11.425  1.00  0.00     0.187 HD
BRANCH  15  17
HETATM   17  N8  UNL     1     -24.243   6.681  12.692  1.00  0.00    -0.344 N 
ATOM     18  H82 UNL     1     -23.442   6.053  12.627  1.00  0.00     0.176 HD
ATOM     19  H81 UNL     1     -25.078   6.360  13.183  1.00  0.00     0.176 HD
ENDBRANCH  15  17
ENDBRANCH  12  14
ENDBRANCH  10  12
ENDBRANCH   9  10
BRANCH   1  20
HETATM   20  N1  UNL     1     -28.933  11.506  12.855  1.00  0.00    -0.382 N 
ATOM     21  H12 UNL     1     -29.777  11.656  12.302  1.00  0.00     0.157 HD
ATOM     22  H11 UNL     1     -28.048  11.948  12.607  1.00  0.00     0.157 HD
ENDBRANCH   1  20
TORSDOF 5
ENDMDL
MODEL 4
REMARK VINA RESULT: -4.413589322      2.015      5.230
REMARK  5 active torsions:
REMARK  status: ('A' for Active; 'I' for Inactive)
REMARK    1  A    between atoms: N1_1  and  C1_4 
REMARK    2  A    between atoms: C3_12  and  N5_13 
REMARK    3  A    between atoms: N5_13  and  N6_15 
REMARK    4  A    between atoms: N6_15  and  C4_17 
REMARK    5  A    between atoms: N7_18  and  N8_20 
ROOT
HETATM    1  C1  UNL     1     -27.608   8.670  15.052  1.00  0.00     0.147 A 
HETATM    2  N2  UNL     1     -26.684   8.855  14.084  1.00  0.00    -0.335 N 
ATOM      3  H2  UNL     1     -25.985   8.130  13.917  1.00  0.00     0.168 HD
HETATM    4  C2  UNL     1     -26.663   9.973  13.336  1.00  0.00     0.199 A 
HETATM    5  N3  UNL     1     -27.609  10.888  13.606  1.00  0.00    -0.294 N 
ATOM      6  H3  UNL     1     -27.623  11.748  13.057  1.00  0.00     0.187 HD
HETATM    7  N4  UNL     1     -28.525  10.728  14.549  1.00  0.00    -0.281 N 
ATOM      8  H4  UNL     1     -29.215  11.464  14.700  1.00  0.00     0.188 HD
HETATM    9  C3  UNL     1     -28.573   9.620  15.316  1.00  0.00     0.179 A 
ENDROOT
BRANCH   9  10
HETATM   10  N5  UNL     1     -29.556   9.444  16.331  1.00  0.00    -0.280 N 
ATOM     11  H5  UNL     1     -29.252   9.384  17.303  1.00  0.00     0.188 HD
BRANCH  10  12
HETATM   12  N6  UNL     1     -30.910   9.352  16.048  1.00  0.00    -0.293 N 
ATOM     13  H6  UNL     1     -31.316   8.434  15.865  1.00  0.00     0.187 HD
BRANCH  12  14
HETATM   14  C4  UNL     1     -31.740  10.485  16.008  1.00  0.00     0.213 C 
HETATM   15  N7  UNL     1     -32.270  10.932  14.937  1.00  0.00    -0.301 N 
ATOM     16  H7  UNL     1     -32.859  11.762  15.012  1.00  0.00     0.187 HD
BRANCH  15  17
HETATM   17  N8  UNL     1     -32.108  10.373  13.681  1.00  0.00    -0.344 N 
ATOM     18  H82 UNL     1     -31.190  10.482  13.249  1.00  0.00     0.176 HD
ATOM     19  H81 UNL     1     -32.832   9.868  13.169  1.00  0.00     0.176 HD
ENDBRANCH  15  17
ENDBRANCH  12  14
ENDBRANCH  10  12
ENDBRANCH   9  10
BRANCH   1  20
HETATM   20  N1  UNL     1     -27.609   7.580  15.763  1.00  0.00    -0.382 N 
ATOM     21  H12 UNL     1     -28.081   7.597  16.667  1.00  0.00     0.157 HD
ATOM     22  H11 UNL     1     -27.148   6.737  15.418  1.00  0.00     0.157 HD
ENDBRANCH   1  20
TORSDOF 5
ENDMDL
MODEL 5
REMARK VINA RESULT: -4.404924879      1.450      1.830
REMARK  5 active torsions:
REMARK  status: ('A' for Active; 'I' for Inactive)
REMARK    1  A    between atoms: N1_1  and  C1_4 
REMARK    2  A    between atoms: C3_12  and  N5_13 
REMARK    3  A    between atoms: N5_13  and  N6_15 
REMARK    4  A    between atoms: N6_15  and  C4_17 
REMARK    5  A    between atoms: N7_18  and  N8_20 
ROOT
HETATM    1  C1  UNL     1     -29.531   9.711  15.135  1.00  0.00     0.147 A 
HETATM    2  N2  UNL     1     -30.866   9.523  15.214  1.00  0.00    -0.335 N 
ATOM      3  H2  UNL     1     -31.237   8.868  15.903  1.00  0.00     0.168 HD
HETATM    4  C2  UNL     1     -31.718  10.177  14.405  1.00  0.00     0.199 A 
HETATM    5  N3  UNL     1     -31.167  11.025  13.519  1.00  0.00    -0.294 N 
ATOM      6  H3  UNL     1     -31.784  11.538  12.889  1.00  0.00     0.187 HD
HETATM    7  N4  UNL     1     -29.861  11.226  13.424  1.00  0.00    -0.281 N 
ATOM      8  H4  UNL     1     -29.511  11.884  12.728  1.00  0.00     0.188 HD
HETATM    9  C3  UNL     1     -28.981  10.586  14.220  1.00  0.00     0.179 A 
ENDROOT
BRANCH   9  10
HETATM   10  N5  UNL     1     -27.577  10.799  14.121  1.00  0.00    -0.280 N 
ATOM     11  H5  UNL     1     -27.154  11.543  14.676  1.00  0.00     0.188 HD
BRANCH  10  12
HETATM   12  N6  UNL     1     -26.764  10.035  13.297  1.00  0.00    -0.293 N 
ATOM     13  H6  UNL     1     -27.191   9.333  12.693  1.00  0.00     0.187 HD
BRANCH  12  14
HETATM   14  C4  UNL     1     -25.369  10.200  13.272  1.00  0.00     0.213 C 
HETATM   15  N7  UNL     1     -24.582   9.443  12.612  1.00  0.00    -0.301 N 
ATOM     16  H7  UNL     1     -23.583   9.645  12.656  1.00  0.00     0.187 HD
BRANCH  15  17
HETATM   17  N8  UNL     1     -24.984   8.366  11.839  1.00  0.00    -0.344 N 
ATOM     18  H82 UNL     1     -24.695   7.442  12.160  1.00  0.00     0.176 HD
ATOM     19  H81 UNL     1     -25.540   8.436  10.986  1.00  0.00     0.176 HD
ENDBRANCH  15  17
ENDBRANCH  12  14
ENDBRANCH  10  12
ENDBRANCH   9  10
BRANCH   1  20
HETATM   20  N1  UNL     1     -28.726   9.067  15.928  1.00  0.00    -0.382 N 
ATOM     21  H12 UNL     1     -28.041   9.605  16.459  1.00  0.00     0.157 HD
ATOM     22  H11 UNL     1     -28.785   8.052  16.012  1.00  0.00     0.157 HD
ENDBRANCH   1  20
TORSDOF 5
ENDMDL
