MODEL 1
REMARK VINA RESULT: -5.549630988      0.000      0.000
REMARK  12 active torsions:
REMARK  status: ('A' for Active; 'I' for Inactive)
REMARK    1  A    between atoms: N1_1  and  O1_4 
REMARK    2  A    between atoms: O1_4  and  C1_5 
REMARK    3  A    between atoms: C1_5  and  O2_6 
REMARK    4  A    between atoms: C1_5  and  C2_8 
REMARK    5  A    between atoms: C3_9  and  O3_10 
REMARK    6  A    between atoms: N3_18  and  C6_19 
REMARK    7  A    between atoms: C6_19  and  C7_20 
REMARK    8  A    between atoms: C7_20  and  C8_21 
REMARK    9  A    between atoms: C8_21  and  C9_22 
REMARK   10  A    between atoms: C9_22  and  N4_23 
REMARK   11  A    between atoms: N4_23  and  S1_25 
REMARK   12  A    between atoms: S1_25  and  N5_26 
ROOT
HETATM    1  C2  UNL     1     -27.835  48.346  29.650  1.00  0.00     0.123 A 
HETATM    2  C3  UNL     1     -27.489  48.506  31.014  1.00  0.00     0.171 A 
HETATM    3  N2  UNL     1     -28.399  48.406  31.992  1.00  0.00    -0.298 N 
ATOM      4  H2  UNL     1     -28.138  48.525  32.971  1.00  0.00     0.171 HD
HETATM    5  C4  UNL     1     -29.669  48.145  31.638  1.00  0.00     0.315 A 
HETATM    6  O4  UNL     1     -30.556  48.045  32.553  1.00  0.00    -0.262 OA
HETATM    7  C5  UNL     1     -30.034  47.984  30.329  1.00  0.00     0.316 A 
HETATM    8  O5  UNL     1     -31.248  47.739  30.058  1.00  0.00    -0.262 OA
HETATM    9  N3  UNL     1     -29.101  48.087  29.332  1.00  0.00    -0.305 N 
ENDROOT
BRANCH   9  10
HETATM   10  C6  UNL     1     -29.519  47.899  27.995  1.00  0.00     0.133 C 
BRANCH  10  11
HETATM   11  C7  UNL     1     -29.432  46.480  27.492  1.00  0.00     0.022 C 
BRANCH  11  12
HETATM   12  C8  UNL     1     -30.767  46.140  26.856  1.00  0.00     0.022 C 
BRANCH  12  13
HETATM   13  C9  UNL     1     -31.453  45.061  27.695  1.00  0.00     0.133 C 
BRANCH  13  14
HETATM   14  N4  UNL     1     -30.429  44.522  28.575  1.00  0.00    -0.303 N 
ATOM     15  H4  UNL     1     -30.069  45.021  29.389  1.00  0.00     0.173 HD
BRANCH  14  16
HETATM   16  S1  UNL     1     -29.889  42.974  28.114  1.00  0.00     0.312 S 
HETATM   17  O6  UNL     1     -28.726  43.109  27.156  1.00  0.00    -0.183 OA
HETATM   18  O7  UNL     1     -30.982  42.146  27.483  1.00  0.00    -0.183 OA
BRANCH  16  19
HETATM   19  N5  UNL     1     -29.297  42.050  29.465  1.00  0.00    -0.312 N 
ATOM     20  H52 UNL     1     -29.912  41.618  30.156  1.00  0.00     0.170 HD
ATOM     21  H51 UNL     1     -28.278  41.995  29.481  1.00  0.00     0.170 HD
ENDBRANCH  16  19
ENDBRANCH  14  16
ENDBRANCH  13  14
ENDBRANCH  12  13
ENDBRANCH  11  12
ENDBRANCH  10  11
ENDBRANCH   9  10
BRANCH   1  22
HETATM   22  C1  UNL     1     -26.721  48.525  28.724  1.00  0.00     0.341 C 
BRANCH  22  23
HETATM   23  O1  UNL     1     -25.602  47.734  28.883  1.00  0.00    -0.248 OA
BRANCH  23  24
HETATM   24  N1  UNL     1     -24.515  48.576  28.851  1.00  0.00    -0.308 N 
ATOM     25  H12 UNL     1     -24.418  49.404  28.262  1.00  0.00     0.184 HD
ATOM     26  H11 UNL     1     -23.841  48.211  29.523  1.00  0.00     0.184 HD
ENDBRANCH  23  24
ENDBRANCH  22  23
BRANCH  22  27
HETATM   27  O2  UNL     1     -26.199  49.846  28.801  1.00  0.00    -0.364 OA
ATOM     28  H2  UNL     1     -25.979  49.938  29.721  1.00  0.00     0.213 HD
ENDBRANCH  22  27
ENDBRANCH   1  22
BRANCH   2  29
HETATM   29  O3  UNL     1     -26.181  48.776  31.385  1.00  0.00    -0.344 OA
ATOM     30  H3  UNL     1     -25.979  49.081  32.262  1.00  0.00     0.219 HD
ENDBRANCH   2  29
TORSDOF 12
ENDMDL
MODEL 2
REMARK VINA RESULT: -5.201019995      5.735      8.863
REMARK  12 active torsions:
REMARK  status: ('A' for Active; 'I' for Inactive)
REMARK    1  A    between atoms: N1_1  and  O1_4 
REMARK    2  A    between atoms: O1_4  and  C1_5 
REMARK    3  A    between atoms: C1_5  and  O2_6 
REMARK    4  A    between atoms: C1_5  and  C2_8 
REMARK    5  A    between atoms: C3_9  and  O3_10 
REMARK    6  A    between atoms: N3_18  and  C6_19 
REMARK    7  A    between atoms: C6_19  and  C7_20 
REMARK    8  A    between atoms: C7_20  and  C8_21 
REMARK    9  A    between atoms: C8_21  and  C9_22 
REMARK   10  A    between atoms: C9_22  and  N4_23 
REMARK   11  A    between atoms: N4_23  and  S1_25 
REMARK   12  A    between atoms: S1_25  and  N5_26 
ROOT
HETATM    1  C2  UNL     1     -30.119  41.860  22.802  1.00  0.00     0.123 A 
HETATM    2  C3  UNL     1     -29.100  40.953  22.422  1.00  0.00     0.171 A 
HETATM    3  N2  UNL     1     -29.377  39.701  22.032  1.00  0.00    -0.298 N 
ATOM      4  H2  UNL     1     -28.635  39.056  21.761  1.00  0.00     0.171 HD
HETATM    5  C4  UNL     1     -30.667  39.325  22.009  1.00  0.00     0.315 A 
HETATM    6  O4  UNL     1     -30.956  38.136  21.640  1.00  0.00    -0.262 OA
HETATM    7  C5  UNL     1     -31.674  40.179  22.370  1.00  0.00     0.316 A 
HETATM    8  O5  UNL     1     -32.872  39.766  22.328  1.00  0.00    -0.262 OA
HETATM    9  N3  UNL     1     -31.387  41.457  22.768  1.00  0.00    -0.305 N 
ENDROOT
BRANCH   9  10
HETATM   10  C6  UNL     1     -32.458  42.310  23.118  1.00  0.00     0.133 C 
BRANCH  10  11
HETATM   11  C7  UNL     1     -33.031  42.087  24.494  1.00  0.00     0.022 C 
BRANCH  11  12
HETATM   12  C8  UNL     1     -32.618  43.267  25.355  1.00  0.00     0.022 C 
BRANCH  12  13
HETATM   13  C9  UNL     1     -32.299  42.763  26.764  1.00  0.00     0.133 C 
BRANCH  13  14
HETATM   14  N4  UNL     1     -30.957  42.206  26.699  1.00  0.00    -0.303 N 
ATOM     15  H4  UNL     1     -30.681  41.485  26.033  1.00  0.00     0.173 HD
BRANCH  14  16
HETATM   16  S1  UNL     1     -29.892  42.878  27.846  1.00  0.00     0.312 S 
HETATM   17  O6  UNL     1     -28.634  43.349  27.151  1.00  0.00    -0.183 OA
HETATM   18  O7  UNL     1     -29.541  41.906  28.945  1.00  0.00    -0.183 OA
BRANCH  16  19
HETATM   19  N5  UNL     1     -30.564  44.279  28.631  1.00  0.00    -0.312 N 
ATOM     20  H52 UNL     1     -31.552  44.528  28.573  1.00  0.00     0.170 HD
ATOM     21  H51 UNL     1     -29.861  44.810  29.145  1.00  0.00     0.170 HD
ENDBRANCH  16  19
ENDBRANCH  14  16
ENDBRANCH  13  14
ENDBRANCH  12  13
ENDBRANCH  11  12
ENDBRANCH  10  11
ENDBRANCH   9  10
BRANCH   1  22
HETATM   22  C1  UNL     1     -29.629  43.165  23.232  1.00  0.00     0.341 C 
BRANCH  22  23
HETATM   23  O1  UNL     1     -28.827  43.882  22.368  1.00  0.00    -0.248 OA
BRANCH  23  24
HETATM   24  N1  UNL     1     -29.660  44.448  21.432  1.00  0.00    -0.308 N 
ATOM     25  H12 UNL     1     -29.899  45.437  21.365  1.00  0.00     0.184 HD
ATOM     26  H11 UNL     1     -29.983  43.690  20.831  1.00  0.00     0.184 HD
ENDBRANCH  23  24
ENDBRANCH  22  23
BRANCH  22  27
HETATM   27  O2  UNL     1     -28.825  43.050  24.400  1.00  0.00    -0.364 OA
ATOM     28  H2  UNL     1     -29.399  42.611  25.016  1.00  0.00     0.213 HD
ENDBRANCH  22  27
ENDBRANCH   1  22
BRANCH   2  29
HETATM   29  O3  UNL     1     -27.769  41.334  22.443  1.00  0.00    -0.344 OA
ATOM     30  H3  UNL     1     -27.283  41.447  21.634  1.00  0.00     0.219 HD
ENDBRANCH   2  29
TORSDOF 12
ENDMDL
MODEL 3
REMARK VINA RESULT: -5.038203064      4.548      5.883
REMARK  12 active torsions:
REMARK  status: ('A' for Active; 'I' for Inactive)
REMARK    1  A    between atoms: N1_1  and  O1_4 
REMARK    2  A    between atoms: O1_4  and  C1_5 
REMARK    3  A    between atoms: C1_5  and  O2_6 
REMARK    4  A    between atoms: C1_5  and  C2_8 
REMARK    5  A    between atoms: C3_9  and  O3_10 
REMARK    6  A    between atoms: N3_18  and  C6_19 
REMARK    7  A    between atoms: C6_19  and  C7_20 
REMARK    8  A    between atoms: C7_20  and  C8_21 
REMARK    9  A    between atoms: C8_21  and  C9_22 
REMARK   10  A    between atoms: C9_22  and  N4_23 
REMARK   11  A    between atoms: N4_23  and  S1_25 
REMARK   12  A    between atoms: S1_25  and  N5_26 
ROOT
HETATM    1  C2  UNL     1     -30.578  43.898  27.637  1.00  0.00     0.123 A 
HETATM    2  C3  UNL     1     -29.563  44.272  26.723  1.00  0.00     0.171 A 
HETATM    3  N2  UNL     1     -29.639  45.401  26.005  1.00  0.00    -0.298 N 
ATOM      4  H2  UNL     1     -28.902  45.660  25.348  1.00  0.00     0.171 HD
HETATM    5  C4  UNL     1     -30.719  46.181  26.179  1.00  0.00     0.315 A 
HETATM    6  O4  UNL     1     -30.815  47.262  25.506  1.00  0.00    -0.262 OA
HETATM    7  C5  UNL     1     -31.717  45.846  27.056  1.00  0.00     0.316 A 
HETATM    8  O5  UNL     1     -32.712  46.622  27.177  1.00  0.00    -0.262 OA
HETATM    9  N3  UNL     1     -31.635  44.692  27.788  1.00  0.00    -0.305 N 
ENDROOT
BRANCH   9  10
HETATM   10  C6  UNL     1     -32.680  44.393  28.692  1.00  0.00     0.133 C 
BRANCH  10  11
HETATM   11  C7  UNL     1     -34.023  44.138  28.056  1.00  0.00     0.022 C 
BRANCH  11  12
HETATM   12  C8  UNL     1     -34.025  42.707  27.555  1.00  0.00     0.022 C 
BRANCH  12  13
HETATM   13  C9  UNL     1     -33.992  42.719  26.025  1.00  0.00     0.133 C 
BRANCH  13  14
HETATM   14  N4  UNL     1     -32.953  41.780  25.636  1.00  0.00    -0.303 N 
ATOM     15  H4  UNL     1     -32.789  40.895  26.116  1.00  0.00     0.173 HD
BRANCH  14  16
HETATM   16  S1  UNL     1     -32.037  42.303  24.299  1.00  0.00     0.312 S 
HETATM   17  O6  UNL     1     -32.026  43.815  24.256  1.00  0.00    -0.183 OA
HETATM   18  O7  UNL     1     -32.556  41.754  22.993  1.00  0.00    -0.183 OA
BRANCH  16  19
HETATM   19  N5  UNL     1     -30.370  41.811  24.406  1.00  0.00    -0.312 N 
ATOM     20  H52 UNL     1     -30.074  40.837  24.345  1.00  0.00     0.170 HD
ATOM     21  H51 UNL     1     -29.740  42.602  24.535  1.00  0.00     0.170 HD
ENDBRANCH  16  19
ENDBRANCH  14  16
ENDBRANCH  13  14
ENDBRANCH  12  13
ENDBRANCH  11  12
ENDBRANCH  10  11
ENDBRANCH   9  10
BRANCH   1  22
HETATM   22  C1  UNL     1     -30.343  42.621  28.303  1.00  0.00     0.341 C 
BRANCH  22  23
HETATM   23  O1  UNL     1     -29.127  42.417  28.922  1.00  0.00    -0.248 OA
BRANCH  23  24
HETATM   24  N1  UNL     1     -29.339  41.486  29.912  1.00  0.00    -0.308 N 
ATOM     25  H12 UNL     1     -30.243  41.233  30.310  1.00  0.00     0.184 HD
ATOM     26  H11 UNL     1     -28.424  41.110  30.161  1.00  0.00     0.184 HD
ENDBRANCH  23  24
ENDBRANCH  22  23
BRANCH  22  27
HETATM   27  O2  UNL     1     -30.422  41.541  27.380  1.00  0.00    -0.364 OA
ATOM     28  H2  UNL     1     -31.007  40.929  27.811  1.00  0.00     0.213 HD
ENDBRANCH  22  27
ENDBRANCH   1  22
BRANCH   2  29
HETATM   29  O3  UNL     1     -28.446  43.474  26.539  1.00  0.00    -0.344 OA
ATOM     30  H3  UNL     1     -27.874  43.604  25.792  1.00  0.00     0.219 HD
ENDBRANCH   2  29
TORSDOF 12
ENDMDL
MODEL 4
REMARK VINA RESULT: -5.007603870      2.751      4.158
REMARK  12 active torsions:
REMARK  status: ('A' for Active; 'I' for Inactive)
REMARK    1  A    between atoms: N1_1  and  O1_4 
REMARK    2  A    between atoms: O1_4  and  C1_5 
REMARK    3  A    between atoms: C1_5  and  O2_6 
REMARK    4  A    between atoms: C1_5  and  C2_8 
REMARK    5  A    between atoms: C3_9  and  O3_10 
REMARK    6  A    between atoms: N3_18  and  C6_19 
REMARK    7  A    between atoms: C6_19  and  C7_20 
REMARK    8  A    between atoms: C7_20  and  C8_21 
REMARK    9  A    between atoms: C8_21  and  C9_22 
REMARK   10  A    between atoms: C9_22  and  N4_23 
REMARK   11  A    between atoms: N4_23  and  S1_25 
REMARK   12  A    between atoms: S1_25  and  N5_26 
ROOT
HETATM    1  C2  UNL     1     -26.249  48.098  26.978  1.00  0.00     0.123 A 
HETATM    2  C3  UNL     1     -25.234  47.799  26.037  1.00  0.00     0.171 A 
HETATM    3  N2  UNL     1     -25.519  47.344  24.809  1.00  0.00    -0.298 N 
ATOM      4  H2  UNL     1     -24.780  47.131  24.140  1.00  0.00     0.171 HD
HETATM    5  C4  UNL     1     -26.814  47.177  24.490  1.00  0.00     0.315 A 
HETATM    6  O4  UNL     1     -27.112  46.744  23.325  1.00  0.00    -0.262 OA
HETATM    7  C5  UNL     1     -27.817  47.458  25.379  1.00  0.00     0.316 A 
HETATM    8  O5  UNL     1     -29.020  47.280  25.019  1.00  0.00    -0.262 OA
HETATM    9  N3  UNL     1     -27.522  47.923  26.632  1.00  0.00    -0.305 N 
ENDROOT
BRANCH   9  10
HETATM   10  C6  UNL     1     -28.589  48.215  27.511  1.00  0.00     0.133 C 
BRANCH  10  11
HETATM   11  C7  UNL     1     -29.017  47.073  28.398  1.00  0.00     0.022 C 
BRANCH  11  12
HETATM   12  C8  UNL     1     -30.497  46.838  28.155  1.00  0.00     0.022 C 
BRANCH  12  13
HETATM   13  C9  UNL     1     -30.682  45.451  27.537  1.00  0.00     0.133 C 
BRANCH  13  14
HETATM   14  N4  UNL     1     -30.523  44.499  28.624  1.00  0.00    -0.303 N 
ATOM     15  H4  UNL     1     -30.761  44.711  29.593  1.00  0.00     0.173 HD
BRANCH  14  16
HETATM   16  S1  UNL     1     -29.900  42.997  28.119  1.00  0.00     0.312 S 
HETATM   17  O6  UNL     1     -28.726  43.223  27.193  1.00  0.00    -0.183 OA
HETATM   18  O7  UNL     1     -30.938  42.142  27.437  1.00  0.00    -0.183 OA
BRANCH  16  19
HETATM   19  N5  UNL     1     -29.289  42.054  29.450  1.00  0.00    -0.312 N 
ATOM     20  H52 UNL     1     -28.307  41.795  29.543  1.00  0.00     0.170 HD
ATOM     21  H51 UNL     1     -30.022  41.796  30.111  1.00  0.00     0.170 HD
ENDBRANCH  16  19
ENDBRANCH  14  16
ENDBRANCH  13  14
ENDBRANCH  12  13
ENDBRANCH  11  12
ENDBRANCH  10  11
ENDBRANCH   9  10
BRANCH   1  22
HETATM   22  C1  UNL     1     -25.751  48.548  28.274  1.00  0.00     0.341 C 
BRANCH  22  23
HETATM   23  O1  UNL     1     -24.979  49.690  28.320  1.00  0.00    -0.248 OA
BRANCH  23  24
HETATM   24  N1  UNL     1     -23.897  49.405  29.118  1.00  0.00    -0.308 N 
ATOM     25  H12 UNL     1     -23.700  48.506  29.559  1.00  0.00     0.184 HD
ATOM     26  H11 UNL     1     -23.342  50.258  29.177  1.00  0.00     0.184 HD
ENDBRANCH  23  24
ENDBRANCH  22  23
BRANCH  22  27
HETATM   27  O2  UNL     1     -24.911  47.565  28.868  1.00  0.00    -0.364 OA
ATOM     28  H2  UNL     1     -24.156  47.548  28.291  1.00  0.00     0.213 HD
ENDBRANCH  22  27
ENDBRANCH   1  22
BRANCH   2  29
HETATM   29  O3  UNL     1     -23.898  47.969  26.358  1.00  0.00    -0.344 OA
ATOM     30  H3  UNL     1     -23.367  48.613  25.904  1.00  0.00     0.219 HD
ENDBRANCH   2  29
TORSDOF 12
ENDMDL
MODEL 5
REMARK VINA RESULT: -4.989619271      5.826      9.369
REMARK  12 active torsions:
REMARK  status: ('A' for Active; 'I' for Inactive)
REMARK    1  A    between atoms: N1_1  and  O1_4 
REMARK    2  A    between atoms: O1_4  and  C1_5 
REMARK    3  A    between atoms: C1_5  and  O2_6 
REMARK    4  A    between atoms: C1_5  and  C2_8 
REMARK    5  A    between atoms: C3_9  and  O3_10 
REMARK    6  A    between atoms: N3_18  and  C6_19 
REMARK    7  A    between atoms: C6_19  and  C7_20 
REMARK    8  A    between atoms: C7_20  and  C8_21 
REMARK    9  A    between atoms: C8_21  and  C9_22 
REMARK   10  A    between atoms: C9_22  and  N4_23 
REMARK   11  A    between atoms: N4_23  and  S1_25 
REMARK   12  A    between atoms: S1_25  and  N5_26 
ROOT
HETATM    1  C2  UNL     1     -30.011  41.219  21.847  1.00  0.00     0.123 A 
HETATM    2  C3  UNL     1     -29.866  39.856  21.493  1.00  0.00     0.171 A 
HETATM    3  N2  UNL     1     -30.810  38.948  21.774  1.00  0.00    -0.298 N 
ATOM      4  H2  UNL     1     -30.694  37.968  21.515  1.00  0.00     0.171 HD
HETATM    5  C4  UNL     1     -31.916  39.372  22.408  1.00  0.00     0.315 A 
HETATM    6  O4  UNL     1     -32.831  38.525  22.687  1.00  0.00    -0.262 OA
HETATM    7  C5  UNL     1     -32.084  40.684  22.763  1.00  0.00     0.316 A 
HETATM    8  O5  UNL     1     -33.150  41.024  23.361  1.00  0.00    -0.262 OA
HETATM    9  N3  UNL     1     -31.117  41.609  22.474  1.00  0.00    -0.305 N 
ENDROOT
BRANCH   9  10
HETATM   10  C6  UNL     1     -31.340  42.955  22.844  1.00  0.00     0.133 C 
BRANCH  10  11
HETATM   11  C7  UNL     1     -30.736  43.363  24.164  1.00  0.00     0.022 C 
BRANCH  11  12
HETATM   12  C8  UNL     1     -31.858  43.904  25.030  1.00  0.00     0.022 C 
BRANCH  12  13
HETATM   13  C9  UNL     1     -32.157  42.893  26.139  1.00  0.00     0.133 C 
BRANCH  13  14
HETATM   14  N4  UNL     1     -30.921  42.162  26.363  1.00  0.00    -0.303 N 
ATOM     15  H4  UNL     1     -30.607  41.396  25.768  1.00  0.00     0.173 HD
BRANCH  14  16
HETATM   16  S1  UNL     1     -30.047  42.712  27.718  1.00  0.00     0.312 S 
HETATM   17  O6  UNL     1     -28.723  43.287  27.265  1.00  0.00    -0.183 OA
HETATM   18  O7  UNL     1     -29.815  41.622  28.736  1.00  0.00    -0.183 OA
BRANCH  16  19
HETATM   19  N5  UNL     1     -30.869  43.996  28.557  1.00  0.00    -0.312 N 
ATOM     20  H52 UNL     1     -31.871  43.982  28.751  1.00  0.00     0.170 HD
ATOM     21  H51 UNL     1     -30.237  44.750  28.827  1.00  0.00     0.170 HD
ENDBRANCH  16  19
ENDBRANCH  14  16
ENDBRANCH  13  14
ENDBRANCH  12  13
ENDBRANCH  11  12
ENDBRANCH  10  11
ENDBRANCH   9  10
BRANCH   1  22
HETATM   22  C1  UNL     1     -28.867  42.055  21.493  1.00  0.00     0.341 C 
BRANCH  22  23
HETATM   23  O1  UNL     1     -28.525  42.171  20.162  1.00  0.00    -0.248 OA
BRANCH  23  24
HETATM   24  N1  UNL     1     -27.225  41.740  20.048  1.00  0.00    -0.308 N 
ATOM     25  H12 UNL     1     -26.506  41.815  20.768  1.00  0.00     0.184 HD
ATOM     26  H11 UNL     1     -27.129  41.340  19.116  1.00  0.00     0.184 HD
ENDBRANCH  23  24
ENDBRANCH  22  23
BRANCH  22  27
HETATM   27  O2  UNL     1     -27.673  41.567  22.093  1.00  0.00    -0.364 OA
ATOM     28  H2  UNL     1     -27.739  41.875  22.989  1.00  0.00     0.213 HD
ENDBRANCH  22  27
ENDBRANCH   1  22
BRANCH   2  29
HETATM   29  O3  UNL     1     -28.729  39.411  20.838  1.00  0.00    -0.344 OA
ATOM     30  H3  UNL     1     -28.434  39.830  20.038  1.00  0.00     0.219 HD
ENDBRANCH   2  29
TORSDOF 12
ENDMDL
