MODEL 1
REMARK VINA RESULT: -5.664747476      0.000      0.000
REMARK  7 active torsions:
REMARK  status: ('A' for Active; 'I' for Inactive)
REMARK    1  A    between atoms: C5_5  and  C6_6 
REMARK       I    between atoms: C6_6  and  N1_8 
REMARK    2  A    between atoms: N1_8  and  C7_10 
REMARK    3  A    between atoms: C14_20  and  N4_21 
REMARK    4  A    between atoms: N4_21  and  C15_23 
REMARK    5  A    between atoms: C19_31  and  N7_32 
REMARK    6  A    between atoms: N7_32  and  S1_34 
REMARK    7  A    between atoms: C23_39  and  C24_40 
ROOT
HETATM    1  C7  UNL     1      36.265  55.555  59.370  1.00  0.00     0.107 A 
HETATM    2  C8  UNL     1      36.977  56.631  58.850  1.00  0.00     0.050 A 
HETATM    3  C9  UNL     1      38.209  56.931  59.383  1.00  0.00     0.028 A 
HETATM    4  C10 UNL     1      38.767  56.208  60.414  1.00  0.00     0.060 A 
HETATM    5  C11 UNL     1      40.050  56.524  60.969  1.00  0.00     0.101 C 
HETATM    6  N2  UNL     1      41.078  56.790  61.431  1.00  0.00    -0.191 NA
HETATM    7  C12 UNL     1      38.023  55.147  60.901  1.00  0.00     0.112 A 
HETATM    8  N3  UNL     1      36.819  54.852  60.380  1.00  0.00    -0.351 N 
ATOM      9  H3  UNL     1      36.301  54.062  60.765  1.00  0.00     0.166 HD
ENDROOT
BRANCH   1  10
HETATM   10  N1  UNL     1      35.131  55.316  58.850  1.00  0.00    -0.309 N 
HETATM   11  C6  UNL     1      33.901  55.200  59.537  1.00  0.00     0.257 C 
HETATM   12  O1  UNL     1      33.450  54.054  59.766  1.00  0.00    -0.267 OA
ATOM     13  H1  UNL     1      35.105  55.196  57.837  1.00  0.00     0.170 HD
BRANCH  11  14
HETATM   14  C5  UNL     1      33.198  56.392  59.956  1.00  0.00     0.034 A 
HETATM   15  C4  UNL     1      31.964  56.298  60.563  1.00  0.00     0.018 A 
HETATM   16  C3  UNL     1      31.303  57.458  60.969  1.00  0.00     0.010 A 
HETATM   17  C2  UNL     1      31.846  58.717  60.783  1.00  0.00    -0.035 A 
HETATM   18  C1  UNL     1      31.144  59.950  61.216  1.00  0.00     0.050 C 
HETATM   19  C14 UNL     1      33.081  58.787  60.173  1.00  0.00     0.040 A 
HETATM   20  C13 UNL     1      33.748  57.647  59.766  1.00  0.00     0.047 A 
BRANCH  19  21
HETATM   21  N4  UNL     1      33.672  60.088  59.973  1.00  0.00    -0.341 N 
ATOM     22  H4  UNL     1      33.156  60.797  59.453  1.00  0.00     0.167 HD
BRANCH  21  23
HETATM   23  C15 UNL     1      34.822  60.367  60.433  1.00  0.00     0.119 A 
HETATM   24  N5  UNL     1      34.965  60.520  61.790  1.00  0.00    -0.338 N 
HETATM   25  C16 UNL     1      36.152  60.825  62.274  1.00  0.00     0.182 A 
ATOM     26  H5  UNL     1      34.165  60.399  62.412  1.00  0.00     0.168 HD
HETATM   27  N6  UNL     1      37.229  60.991  61.497  1.00  0.00    -0.351 N 
HETATM   28  C17 UNL     1      37.157  60.855  60.165  1.00  0.00     0.049 A 
ATOM     29  H6  UNL     1      38.123  61.226  61.927  1.00  0.00     0.166 HD
HETATM   30  C18 UNL     1      38.264  61.037  59.372  1.00  0.00     0.060 A 
HETATM   31  C27 UNL     1      35.904  60.528  59.602  1.00  0.00     0.042 A 
HETATM   32  C19 UNL     1      38.169  60.904  58.019  1.00  0.00     0.042 A 
HETATM   33  C22 UNL     1      36.960  60.589  57.494  1.00  0.00     0.038 A 
HETATM   34  C23 UNL     1      35.778  60.387  58.248  1.00  0.00    -0.036 A 
BRANCH  32  35
HETATM   35  N7  UNL     1      39.357  61.105  57.263  1.00  0.00    -0.317 N 
ATOM     36  H7  UNL     1      39.920  60.338  56.895  1.00  0.00     0.175 HD
BRANCH  35  37
HETATM   37  S1  UNL     1      39.726  62.635  57.041  1.00  0.00     0.017 S 
HETATM   38  C20 UNL     1      38.304  63.664  57.366  1.00  0.00     0.136 C 
HETATM   39  C21 UNL     1      41.105  63.055  58.037  1.00  0.00     0.136 C 
HETATM   40  O2  UNL     1      39.988  62.721  55.563  1.00  0.00    -0.250 OA
ENDBRANCH  35  37
ENDBRANCH  32  35
BRANCH  34  41
HETATM   41  C24 UNL     1      34.562  60.014  57.556  1.00  0.00     0.011 C 
HETATM   42  C25 UNL     1      34.127  61.137  56.571  1.00  0.00     0.015 C 
HETATM   43  C26 UNL     1      35.035  58.950  56.559  1.00  0.00     0.015 C 
ENDBRANCH  34  41
ENDBRANCH  21  23
ENDBRANCH  19  21
ENDBRANCH  11  14
ENDBRANCH   1  10
TORSDOF 7
ENDMDL
MODEL 2
REMARK VINA RESULT: -5.622960500      2.850      5.204
REMARK  7 active torsions:
REMARK  status: ('A' for Active; 'I' for Inactive)
REMARK    1  A    between atoms: C5_5  and  C6_6 
REMARK       I    between atoms: C6_6  and  N1_8 
REMARK    2  A    between atoms: N1_8  and  C7_10 
REMARK    3  A    between atoms: C14_20  and  N4_21 
REMARK    4  A    between atoms: N4_21  and  C15_23 
REMARK    5  A    between atoms: C19_31  and  N7_32 
REMARK    6  A    between atoms: N7_32  and  S1_34 
REMARK    7  A    between atoms: C23_39  and  C24_40 
ROOT
HETATM    1  C7  UNL     1      34.454  56.164  59.443  1.00  0.00     0.107 A 
HETATM    2  C8  UNL     1      33.321  56.944  59.641  1.00  0.00     0.050 A 
HETATM    3  C9  UNL     1      32.084  56.344  59.583  1.00  0.00     0.028 A 
HETATM    4  C10 UNL     1      31.923  54.998  59.337  1.00  0.00     0.060 A 
HETATM    5  C11 UNL     1      30.634  54.377  59.276  1.00  0.00     0.101 C 
HETATM    6  N2  UNL     1      29.591  53.876  59.208  1.00  0.00    -0.191 NA
HETATM    7  C12 UNL     1      33.078  54.261  59.145  1.00  0.00     0.112 A 
HETATM    8  N3  UNL     1      34.288  54.846  59.202  1.00  0.00    -0.351 N 
ATOM      9  H3  UNL     1      35.116  54.269  59.057  1.00  0.00     0.166 HD
ENDROOT
BRANCH   1  10
HETATM   10  N1  UNL     1      35.576  56.759  59.501  1.00  0.00    -0.309 N 
HETATM   11  C6  UNL     1      36.350  57.198  58.403  1.00  0.00     0.257 C 
HETATM   12  O1  UNL     1      37.331  56.506  58.049  1.00  0.00    -0.267 OA
ATOM     13  H1  UNL     1      35.953  56.938  60.432  1.00  0.00     0.170 HD
BRANCH  11  14
HETATM   14  C5  UNL     1      35.997  58.424  57.722  1.00  0.00     0.034 A 
HETATM   15  C4  UNL     1      35.045  58.417  56.725  1.00  0.00     0.018 A 
HETATM   16  C3  UNL     1      34.708  59.609  56.082  1.00  0.00     0.010 A 
HETATM   17  C2  UNL     1      35.302  60.815  56.412  1.00  0.00    -0.035 A 
HETATM   18  C1  UNL     1      34.942  62.082  55.730  1.00  0.00     0.050 C 
HETATM   19  C14 UNL     1      36.251  60.797  57.412  1.00  0.00     0.040 A 
HETATM   20  C13 UNL     1      36.594  59.625  58.058  1.00  0.00     0.047 A 
BRANCH  19  21
HETATM   21  N4  UNL     1      36.879  62.043  57.780  1.00  0.00    -0.341 N 
ATOM     22  H4  UNL     1      37.076  62.736  57.058  1.00  0.00     0.167 HD
BRANCH  21  23
HETATM   23  C15 UNL     1      37.192  62.293  58.985  1.00  0.00     0.119 A 
HETATM   24  N5  UNL     1      36.183  62.512  59.890  1.00  0.00    -0.338 N 
HETATM   25  C16 UNL     1      36.499  62.788  61.139  1.00  0.00     0.182 A 
ATOM     26  H5  UNL     1      35.207  62.463  59.600  1.00  0.00     0.168 HD
HETATM   27  N6  UNL     1      37.766  62.862  61.565  1.00  0.00    -0.351 N 
HETATM   28  C17 UNL     1      38.797  62.658  60.732  1.00  0.00     0.049 A 
ATOM     29  H6  UNL     1      37.952  63.079  62.544  1.00  0.00     0.166 HD
HETATM   30  C18 UNL     1      40.094  62.745  61.174  1.00  0.00     0.060 A 
HETATM   31  C27 UNL     1      38.505  62.359  59.383  1.00  0.00     0.042 A 
HETATM   32  C19 UNL     1      41.128  62.543  60.310  1.00  0.00     0.042 A 
HETATM   33  C22 UNL     1      40.833  62.257  59.019  1.00  0.00     0.038 A 
HETATM   34  C23 UNL     1      39.522  62.150  58.493  1.00  0.00    -0.036 A 
BRANCH  32  35
HETATM   35  N7  UNL     1      42.445  62.648  60.838  1.00  0.00    -0.317 N 
ATOM     36  H7  UNL     1      42.853  61.949  61.459  1.00  0.00     0.175 HD
BRANCH  35  37
HETATM   37  S1  UNL     1      43.223  63.953  60.371  1.00  0.00     0.017 S 
HETATM   38  C20 UNL     1      44.060  63.651  58.825  1.00  0.00     0.136 C 
HETATM   39  C21 UNL     1      42.105  65.300  60.281  1.00  0.00     0.136 C 
HETATM   40  O2  UNL     1      44.294  64.115  61.414  1.00  0.00    -0.250 OA
ENDBRANCH  35  37
ENDBRANCH  32  35
BRANCH  34  41
HETATM   41  C24 UNL     1      39.353  61.797  57.099  1.00  0.00     0.011 C 
HETATM   42  C25 UNL     1      39.983  62.882  56.179  1.00  0.00     0.015 C 
HETATM   43  C26 UNL     1      40.359  60.658  56.899  1.00  0.00     0.015 C 
ENDBRANCH  34  41
ENDBRANCH  21  23
ENDBRANCH  19  21
ENDBRANCH  11  14
ENDBRANCH   1  10
TORSDOF 7
ENDMDL
MODEL 3
REMARK VINA RESULT: -5.528625931     11.405     14.006
REMARK  7 active torsions:
REMARK  status: ('A' for Active; 'I' for Inactive)
REMARK    1  A    between atoms: C5_5  and  C6_6 
REMARK       I    between atoms: C6_6  and  N1_8 
REMARK    2  A    between atoms: N1_8  and  C7_10 
REMARK    3  A    between atoms: C14_20  and  N4_21 
REMARK    4  A    between atoms: N4_21  and  C15_23 
REMARK    5  A    between atoms: C19_31  and  N7_32 
REMARK    6  A    between atoms: N7_32  and  S1_34 
REMARK    7  A    between atoms: C23_39  and  C24_40 
ROOT
HETATM    1  C7  UNL     1      32.111  58.405  49.461  1.00  0.00     0.107 A 
HETATM    2  C8  UNL     1      33.043  58.026  48.501  1.00  0.00     0.050 A 
HETATM    3  C9  UNL     1      33.868  58.986  47.963  1.00  0.00     0.028 A 
HETATM    4  C10 UNL     1      33.810  60.310  48.336  1.00  0.00     0.060 A 
HETATM    5  C11 UNL     1      34.669  61.307  47.773  1.00  0.00     0.101 C 
HETATM    6  N2  UNL     1      35.351  62.118  47.305  1.00  0.00    -0.191 NA
HETATM    7  C12 UNL     1      32.866  60.642  49.294  1.00  0.00     0.112 A 
HETATM    8  N3  UNL     1      32.059  59.704  49.822  1.00  0.00    -0.351 N 
ATOM      9  H3  UNL     1      31.378  59.988  50.526  1.00  0.00     0.166 HD
ENDROOT
BRANCH   1  10
HETATM   10  N1  UNL     1      31.367  57.487  49.929  1.00  0.00    -0.309 N 
HETATM   11  C6  UNL     1      30.055  57.173  49.505  1.00  0.00     0.257 C 
HETATM   12  O1  UNL     1      29.091  57.579  50.193  1.00  0.00    -0.267 OA
ATOM     13  H1  UNL     1      31.754  56.921  50.684  1.00  0.00     0.170 HD
BRANCH  11  14
HETATM   14  C5  UNL     1      29.858  56.399  48.300  1.00  0.00     0.034 A 
HETATM   15  C4  UNL     1      28.683  56.506  47.586  1.00  0.00     0.018 A 
HETATM   16  C3  UNL     1      28.511  55.759  46.421  1.00  0.00     0.010 A 
HETATM   17  C2  UNL     1      29.489  54.902  45.946  1.00  0.00    -0.035 A 
HETATM   18  C1  UNL     1      29.307  54.109  44.705  1.00  0.00     0.050 C 
HETATM   19  C14 UNL     1      30.655  54.811  46.676  1.00  0.00     0.040 A 
HETATM   20  C13 UNL     1      30.840  55.545  47.832  1.00  0.00     0.047 A 
BRANCH  19  21
HETATM   21  N4  UNL     1      31.693  53.930  46.198  1.00  0.00    -0.341 N 
ATOM     22  H4  UNL     1      31.564  53.437  45.314  1.00  0.00     0.167 HD
BRANCH  21  23
HETATM   23  C15 UNL     1      32.765  53.756  46.857  1.00  0.00     0.119 A 
HETATM   24  N5  UNL     1      32.732  52.929  47.952  1.00  0.00    -0.338 N 
HETATM   25  C16 UNL     1      33.836  52.756  48.651  1.00  0.00     0.182 A 
ATOM     26  H5  UNL     1      31.868  52.457  48.220  1.00  0.00     0.168 HD
HETATM   27  N6  UNL     1      34.992  53.353  48.336  1.00  0.00    -0.351 N 
HETATM   28  C17 UNL     1      35.091  54.172  47.279  1.00  0.00     0.049 A 
ATOM     29  H6  UNL     1      35.816  53.182  48.913  1.00  0.00     0.166 HD
HETATM   30  C18 UNL     1      36.278  54.788  46.967  1.00  0.00     0.060 A 
HETATM   31  C27 UNL     1      33.932  54.386  46.501  1.00  0.00     0.042 A 
HETATM   32  C19 UNL     1      36.356  55.625  45.894  1.00  0.00     0.042 A 
HETATM   33  C22 UNL     1      35.236  55.820  45.157  1.00  0.00     0.038 A 
HETATM   34  C23 UNL     1      33.980  55.219  45.417  1.00  0.00    -0.036 A 
BRANCH  32  35
HETATM   35  N7  UNL     1      37.617  56.227  45.631  1.00  0.00    -0.317 N 
ATOM     36  H7  UNL     1      38.055  56.900  46.261  1.00  0.00     0.175 HD
BRANCH  35  37
HETATM   37  S1  UNL     1      38.283  55.755  44.267  1.00  0.00     0.017 S 
HETATM   38  C20 UNL     1      37.808  54.074  43.900  1.00  0.00     0.136 C 
HETATM   39  C21 UNL     1      37.852  56.873  42.987  1.00  0.00     0.136 C 
HETATM   40  O2  UNL     1      39.752  55.726  44.586  1.00  0.00    -0.250 OA
ENDBRANCH  35  37
ENDBRANCH  32  35
BRANCH  34  41
HETATM   41  C24 UNL     1      32.876  55.487  44.520  1.00  0.00     0.011 C 
HETATM   42  C25 UNL     1      32.571  57.011  44.467  1.00  0.00     0.015 C 
HETATM   43  C26 UNL     1      33.494  55.288  43.131  1.00  0.00     0.015 C 
ENDBRANCH  34  41
ENDBRANCH  21  23
ENDBRANCH  19  21
ENDBRANCH  11  14
ENDBRANCH   1  10
TORSDOF 7
ENDMDL
MODEL 4
REMARK VINA RESULT: -5.439888256     11.913     14.607
REMARK  7 active torsions:
REMARK  status: ('A' for Active; 'I' for Inactive)
REMARK    1  A    between atoms: C5_5  and  C6_6 
REMARK       I    between atoms: C6_6  and  N1_8 
REMARK    2  A    between atoms: N1_8  and  C7_10 
REMARK    3  A    between atoms: C14_20  and  N4_21 
REMARK    4  A    between atoms: N4_21  and  C15_23 
REMARK    5  A    between atoms: C19_31  and  N7_32 
REMARK    6  A    between atoms: N7_32  and  S1_34 
REMARK    7  A    between atoms: C23_39  and  C24_40 
ROOT
HETATM    1  C7  UNL     1      35.740  54.823  46.652  1.00  0.00     0.107 A 
HETATM    2  C8  UNL     1      35.134  55.509  47.699  1.00  0.00     0.050 A 
HETATM    3  C9  UNL     1      33.782  55.354  47.897  1.00  0.00     0.028 A 
HETATM    4  C10 UNL     1      33.001  54.547  47.100  1.00  0.00     0.060 A 
HETATM    5  C11 UNL     1      31.593  54.389  47.309  1.00  0.00     0.101 C 
HETATM    6  N2  UNL     1      30.451  54.276  47.464  1.00  0.00    -0.191 NA
HETATM    7  C12 UNL     1      33.647  53.884  46.070  1.00  0.00     0.112 A 
HETATM    8  N3  UNL     1      34.969  54.033  45.875  1.00  0.00    -0.351 N 
ATOM      9  H3  UNL     1      35.409  53.527  45.106  1.00  0.00     0.166 HD
ENDROOT
BRANCH   1  10
HETATM   10  N1  UNL     1      36.990  54.997  46.502  1.00  0.00    -0.309 N 
HETATM   11  C6  UNL     1      37.634  55.510  45.353  1.00  0.00     0.257 C 
HETATM   12  O1  UNL     1      38.186  54.706  44.568  1.00  0.00    -0.267 OA
ATOM     13  H1  UNL     1      37.587  54.742  47.289  1.00  0.00     0.170 HD
BRANCH  11  14
HETATM   14  C5  UNL     1      37.641  56.935  45.112  1.00  0.00     0.034 A 
HETATM   15  C4  UNL     1      38.801  57.570  44.720  1.00  0.00     0.018 A 
HETATM   16  C3  UNL     1      38.790  58.946  44.483  1.00  0.00     0.010 A 
HETATM   17  C2  UNL     1      37.643  59.707  44.629  1.00  0.00    -0.035 A 
HETATM   18  C1  UNL     1      37.631  61.169  44.375  1.00  0.00     0.050 C 
HETATM   19  C14 UNL     1      36.497  59.051  45.022  1.00  0.00     0.040 A 
HETATM   20  C13 UNL     1      36.491  57.690  45.259  1.00  0.00     0.047 A 
BRANCH  19  21
HETATM   21  N4  UNL     1      35.286  59.822  45.174  1.00  0.00    -0.341 N 
ATOM     22  H4  UNL     1      34.847  60.232  44.349  1.00  0.00     0.167 HD
BRANCH  21  23
HETATM   23  C15 UNL     1      34.756  59.998  46.314  1.00  0.00     0.119 A 
HETATM   24  N5  UNL     1      35.402  60.803  47.219  1.00  0.00    -0.338 N 
HETATM   25  C16 UNL     1      34.867  60.978  48.410  1.00  0.00     0.182 A 
ATOM     26  H5  UNL     1      36.282  61.257  46.972  1.00  0.00     0.168 HD
HETATM   27  N6  UNL     1      33.715  60.404  48.777  1.00  0.00    -0.351 N 
HETATM   28  C17 UNL     1      33.034  59.607  47.941  1.00  0.00     0.049 A 
ATOM     29  H6  UNL     1      33.347  60.576  49.713  1.00  0.00     0.166 HD
HETATM   30  C18 UNL     1      31.857  59.014  48.327  1.00  0.00     0.060 A 
HETATM   31  C27 UNL     1      33.571  59.391  46.652  1.00  0.00     0.042 A 
HETATM   32  C19 UNL     1      31.184  58.199  47.466  1.00  0.00     0.042 A 
HETATM   33  C22 UNL     1      31.712  58.002  46.233  1.00  0.00     0.038 A 
HETATM   34  C23 UNL     1      32.917  58.580  45.766  1.00  0.00    -0.036 A 
BRANCH  32  35
HETATM   35  N7  UNL     1      29.972  57.620  47.934  1.00  0.00    -0.317 N 
ATOM     36  H7  UNL     1      29.874  56.626  48.143  1.00  0.00     0.175 HD
BRANCH  35  37
HETATM   37  S1  UNL     1      28.785  58.663  48.102  1.00  0.00     0.017 S 
HETATM   38  C20 UNL     1      27.226  57.888  47.710  1.00  0.00     0.136 C 
HETATM   39  C21 UNL     1      28.817  59.332  49.722  1.00  0.00     0.136 C 
HETATM   40  O2  UNL     1      29.047  59.671  47.018  1.00  0.00    -0.250 OA
ENDBRANCH  35  37
ENDBRANCH  32  35
BRANCH  34  41
HETATM   41  C24 UNL     1      33.341  58.314  44.408  1.00  0.00     0.011 C 
HETATM   42  C25 UNL     1      33.083  56.826  44.035  1.00  0.00     0.015 C 
HETATM   43  C26 UNL     1      32.260  58.995  43.560  1.00  0.00     0.015 C 
ENDBRANCH  34  41
ENDBRANCH  21  23
ENDBRANCH  19  21
ENDBRANCH  11  14
ENDBRANCH   1  10
TORSDOF 7
ENDMDL
MODEL 5
REMARK VINA RESULT: -5.429133201      1.186      1.225
REMARK  7 active torsions:
REMARK  status: ('A' for Active; 'I' for Inactive)
REMARK    1  A    between atoms: C5_5  and  C6_6 
REMARK       I    between atoms: C6_6  and  N1_8 
REMARK    2  A    between atoms: N1_8  and  C7_10 
REMARK    3  A    between atoms: C14_20  and  N4_21 
REMARK    4  A    between atoms: N4_21  and  C15_23 
REMARK    5  A    between atoms: C19_31  and  N7_32 
REMARK    6  A    between atoms: N7_32  and  S1_34 
REMARK    7  A    between atoms: C23_39  and  C24_40 
ROOT
HETATM    1  C7  UNL     1      36.169  55.669  59.043  1.00  0.00     0.107 A 
HETATM    2  C8  UNL     1      36.893  56.752  58.555  1.00  0.00     0.050 A 
HETATM    3  C9  UNL     1      38.086  57.077  59.158  1.00  0.00     0.028 A 
HETATM    4  C10 UNL     1      38.593  56.374  60.228  1.00  0.00     0.060 A 
HETATM    5  C11 UNL     1      39.834  56.716  60.855  1.00  0.00     0.101 C 
HETATM    6  N2  UNL     1      40.829  57.004  61.376  1.00  0.00    -0.191 NA
HETATM    7  C12 UNL     1      37.838  55.305  60.681  1.00  0.00     0.112 A 
HETATM    8  N3  UNL     1      36.672  54.985  60.091  1.00  0.00    -0.351 N 
ATOM      9  H3  UNL     1      36.145  54.190  60.453  1.00  0.00     0.166 HD
ENDROOT
BRANCH   1  10
HETATM   10  N1  UNL     1      35.071  55.406  58.458  1.00  0.00    -0.309 N 
HETATM   11  C6  UNL     1      33.864  55.011  59.079  1.00  0.00     0.257 C 
HETATM   12  O1  UNL     1      33.554  53.799  59.066  1.00  0.00    -0.267 OA
ATOM     13  H1  UNL     1      35.061  55.488  57.442  1.00  0.00     0.170 HD
BRANCH  11  14
HETATM   14  C5  UNL     1      33.023  56.006  59.707  1.00  0.00     0.034 A 
HETATM   15  C4  UNL     1      31.894  55.627  60.401  1.00  0.00     0.018 A 
HETATM   16  C3  UNL     1      31.097  56.598  61.009  1.00  0.00     0.010 A 
HETATM   17  C2  UNL     1      31.402  57.947  60.941  1.00  0.00    -0.035 A 
HETATM   18  C1  UNL     1      30.556  58.979  61.589  1.00  0.00     0.050 C 
HETATM   19  C14 UNL     1      32.535  58.302  60.241  1.00  0.00     0.040 A 
HETATM   20  C13 UNL     1      33.334  57.352  59.634  1.00  0.00     0.047 A 
BRANCH  19  21
HETATM   21  N4  UNL     1      32.878  59.702  60.161  1.00  0.00    -0.341 N 
ATOM     22  H4  UNL     1      32.193  60.365  59.800  1.00  0.00     0.167 HD
BRANCH  21  23
HETATM   23  C15 UNL     1      34.017  60.123  60.532  1.00  0.00     0.119 A 
HETATM   24  N5  UNL     1      34.314  60.112  61.872  1.00  0.00    -0.338 N 
HETATM   25  C16 UNL     1      35.488  60.562  62.267  1.00  0.00     0.182 A 
ATOM     26  H5  UNL     1      33.638  59.760  62.550  1.00  0.00     0.168 HD
HETATM   27  N6  UNL     1      36.407  61.031  61.414  1.00  0.00    -0.351 N 
HETATM   28  C17 UNL     1      36.179  61.069  60.093  1.00  0.00     0.049 A 
ATOM     29  H6  UNL     1      37.299  61.367  61.776  1.00  0.00     0.166 HD
HETATM   30  C18 UNL     1      37.123  61.561  59.224  1.00  0.00     0.060 A 
HETATM   31  C27 UNL     1      34.934  60.596  59.625  1.00  0.00     0.042 A 
HETATM   32  C19 UNL     1      36.869  61.600  57.886  1.00  0.00     0.042 A 
HETATM   33  C22 UNL     1      35.670  61.142  57.451  1.00  0.00     0.038 A 
HETATM   34  C23 UNL     1      34.652  60.621  58.287  1.00  0.00    -0.036 A 
BRANCH  32  35
HETATM   35  N7  UNL     1      37.893  62.120  57.046  1.00  0.00    -0.317 N 
ATOM     36  H7  UNL     1      38.725  61.590  56.788  1.00  0.00     0.175 HD
BRANCH  35  37
HETATM   37  S1  UNL     1      37.620  63.604  56.545  1.00  0.00     0.017 S 
HETATM   38  C20 UNL     1      36.566  64.460  57.703  1.00  0.00     0.136 C 
HETATM   39  C21 UNL     1      39.147  64.426  56.289  1.00  0.00     0.136 C 
HETATM   40  O2  UNL     1      36.812  63.409  55.293  1.00  0.00    -0.250 OA
ENDBRANCH  35  37
ENDBRANCH  32  35
BRANCH  34  41
HETATM   41  C24 UNL     1      33.432  60.128  57.681  1.00  0.00     0.011 C 
HETATM   42  C25 UNL     1      32.715  61.262  56.893  1.00  0.00     0.015 C 
HETATM   43  C26 UNL     1      33.939  59.271  56.515  1.00  0.00     0.015 C 
ENDBRANCH  34  41
ENDBRANCH  21  23
ENDBRANCH  19  21
ENDBRANCH  11  14
ENDBRANCH   1  10
TORSDOF 7
ENDMDL
