MODEL 1
REMARK VINA RESULT: -8.380282360      0.000      0.000
REMARK  8 active torsions:
REMARK  status: ('A' for Active; 'I' for Inactive)
REMARK    1  A    between atoms: O1_2  and  C2_3 
REMARK    2  A    between atoms: C2_3  and  C4_5 
REMARK       I    between atoms: C4_5  and  N1_7 
REMARK    3  A    between atoms: C7_10  and  C8_11 
REMARK    4  A    between atoms: C10_16  and  O3_17 
REMARK    5  A    between atoms: O3_17  and  C11_18 
REMARK    6  A    between atoms: C11_18  and  C12_20 
REMARK    7  A    between atoms: C13_23  and  O5_24 
REMARK    8  A    between atoms: C15_27  and  N4_28 
ROOT
HETATM    1  C4  UNL     1      33.705  64.379   2.350  1.00  0.00     0.257 C 
HETATM    2  O2  UNL     1      34.009  64.762   3.546  1.00  0.00    -0.270 OA
HETATM    3  N1  UNL     1      32.531  64.906   1.784  1.00  0.00    -0.288 N 
HETATM    4  C5  UNL     1      32.062  64.612   0.557  1.00  0.00     0.101 A 
HETATM    5  C6  UNL     1      30.876  65.319   0.318  1.00  0.00     0.033 A 
HETATM    6  C7  UNL     1      30.630  66.061   1.442  1.00  0.00     0.009 A 
HETATM    7  C9  UNL     1      31.638  65.805   2.327  1.00  0.00     0.075 A 
HETATM    8  C10 UNL     1      31.717  66.381   3.506  1.00  0.00     0.177 C 
ENDROOT
BRANCH   8   9
HETATM    9  O3  UNL     1      30.749  67.293   3.994  1.00  0.00    -0.283 OA
BRANCH   9  10
HETATM   10  C11 UNL     1      30.983  67.957   5.204  1.00  0.00     0.332 C 
HETATM   11  O4  UNL     1      31.864  67.503   5.959  1.00  0.00    -0.256 OA
BRANCH  10  12
HETATM   12  C12 UNL     1      30.227  69.127   5.562  1.00  0.00     0.186 A 
HETATM   13  N3  UNL     1      29.813  69.338   6.823  1.00  0.00    -0.318 N 
HETATM   14  C13 UNL     1      29.114  70.411   7.175  1.00  0.00     0.145 A 
ATOM     15  H3  UNL     1      30.044  68.648   7.538  1.00  0.00     0.169 HD
HETATM   16  C14 UNL     1      28.776  71.381   6.238  1.00  0.00     0.103 A 
HETATM   17  C15 UNL     1      29.201  71.165   4.942  1.00  0.00     0.104 A 
HETATM   18  N5  UNL     1      29.895  70.072   4.657  1.00  0.00    -0.324 N 
ATOM     19  H5  UNL     1      30.198  69.936   3.693  1.00  0.00     0.169 HD
BRANCH  14  20
HETATM   20  O5  UNL     1      28.698  70.605   8.484  1.00  0.00    -0.346 OA
ATOM     21  H5  UNL     1      27.811  70.404   8.757  1.00  0.00     0.219 HD
ENDBRANCH  14  20
BRANCH  17  22
HETATM   22  N4  UNL     1      28.908  72.048   4.022  1.00  0.00    -0.385 N 
ATOM     23  H42 UNL     1      29.583  72.315   3.306  1.00  0.00     0.157 HD
ATOM     24  H41 UNL     1      27.983  72.476   4.024  1.00  0.00     0.157 HD
ENDBRANCH  17  22
ENDBRANCH  10  12
ENDBRANCH   9  10
ENDBRANCH   8   9
BRANCH   6  25
HETATM   25  C8  UNL     1      29.618  66.883   1.609  1.00  0.00     0.094 C 
HETATM   26  N2  UNL     1      28.468  67.305   2.050  1.00  0.00    -0.407 N 
ATOM     27  H22 UNL     1      28.211  66.484   2.597  1.00  0.00     0.155 HD
ATOM     28  H21 UNL     1      27.682  67.943   2.179  1.00  0.00     0.155 HD
ENDBRANCH   6  25
BRANCH   1  29
HETATM   29  C2  UNL     1      34.644  63.440   1.763  1.00  0.00     0.209 C 
HETATM   30  C3  UNL     1      35.910  63.292   2.617  1.00  0.00     0.050 C 
BRANCH  29  31
HETATM   31  O1  UNL     1      34.145  62.202   1.471  1.00  0.00    -0.382 OA
HETATM   32  C1  UNL     1      34.008  61.413   2.635  1.00  0.00     0.202 C 
ENDBRANCH  29  31
ENDBRANCH   1  29
TORSDOF 8
ENDMDL
MODEL 2
REMARK VINA RESULT: -8.349435661      1.069      1.627
REMARK  8 active torsions:
REMARK  status: ('A' for Active; 'I' for Inactive)
REMARK    1  A    between atoms: O1_2  and  C2_3 
REMARK    2  A    between atoms: C2_3  and  C4_5 
REMARK       I    between atoms: C4_5  and  N1_7 
REMARK    3  A    between atoms: C7_10  and  C8_11 
REMARK    4  A    between atoms: C10_16  and  O3_17 
REMARK    5  A    between atoms: O3_17  and  C11_18 
REMARK    6  A    between atoms: C11_18  and  C12_20 
REMARK    7  A    between atoms: C13_23  and  O5_24 
REMARK    8  A    between atoms: C15_27  and  N4_28 
ROOT
HETATM    1  C4  UNL     1      33.715  64.308   2.302  1.00  0.00     0.257 C 
HETATM    2  O2  UNL     1      34.056  64.772   3.458  1.00  0.00    -0.270 OA
HETATM    3  N1  UNL     1      32.536  64.814   1.727  1.00  0.00    -0.288 N 
HETATM    4  C5  UNL     1      32.031  64.439   0.537  1.00  0.00     0.101 A 
HETATM    5  C6  UNL     1      30.851  65.148   0.276  1.00  0.00     0.033 A 
HETATM    6  C7  UNL     1      30.647  65.976   1.347  1.00  0.00     0.009 A 
HETATM    7  C9  UNL     1      31.674  65.767   2.224  1.00  0.00     0.075 A 
HETATM    8  C10 UNL     1      31.792  66.427   3.354  1.00  0.00     0.177 C 
ENDROOT
BRANCH   8   9
HETATM    9  O3  UNL     1      30.853  67.391   3.796  1.00  0.00    -0.283 OA
BRANCH   9  10
HETATM   10  C11 UNL     1      30.981  67.931   5.081  1.00  0.00     0.332 C 
HETATM   11  O4  UNL     1      31.749  67.362   5.882  1.00  0.00    -0.256 OA
BRANCH  10  12
HETATM   12  C12 UNL     1      30.246  69.106   5.465  1.00  0.00     0.186 A 
HETATM   13  N3  UNL     1      29.940  70.067   4.575  1.00  0.00    -0.318 N 
HETATM   14  C13 UNL     1      29.263  71.159   4.907  1.00  0.00     0.145 A 
ATOM     15  H3  UNL     1      30.241  69.952   3.607  1.00  0.00     0.169 HD
HETATM   16  C14 UNL     1      28.830  71.360   6.214  1.00  0.00     0.103 A 
HETATM   17  C15 UNL     1      29.143  70.374   7.129  1.00  0.00     0.104 A 
HETATM   18  N5  UNL     1      29.823  69.308   6.731  1.00  0.00    -0.324 N 
ATOM     19  H5  UNL     1      30.041  68.594   7.425  1.00  0.00     0.169 HD
BRANCH  14  20
HETATM   20  O5  UNL     1      28.961  72.136   3.970  1.00  0.00    -0.346 OA
ATOM     21  H5  UNL     1      28.119  72.158   3.531  1.00  0.00     0.219 HD
ENDBRANCH  14  20
BRANCH  17  22
HETATM   22  N4  UNL     1      28.760  70.516   8.371  1.00  0.00    -0.385 N 
ATOM     23  H42 UNL     1      29.434  70.620   9.129  1.00  0.00     0.157 HD
ATOM     24  H41 UNL     1      27.762  70.522   8.584  1.00  0.00     0.157 HD
ENDBRANCH  17  22
ENDBRANCH  10  12
ENDBRANCH   9  10
ENDBRANCH   8   9
BRANCH   6  25
HETATM   25  C8  UNL     1      29.654  66.827   1.477  1.00  0.00     0.094 C 
HETATM   26  N2  UNL     1      28.504  67.286   1.881  1.00  0.00    -0.407 N 
ATOM     27  H22 UNL     1      28.211  66.478   2.430  1.00  0.00     0.155 HD
ATOM     28  H21 UNL     1      27.733  67.947   1.982  1.00  0.00     0.155 HD
ENDBRANCH   6  25
BRANCH   1  29
HETATM   29  C2  UNL     1      34.622  63.310   1.763  1.00  0.00     0.209 C 
HETATM   30  C3  UNL     1      35.933  63.245   2.559  1.00  0.00     0.050 C 
BRANCH  29  31
HETATM   31  O1  UNL     1      34.111  62.050   1.626  1.00  0.00    -0.382 OA
HETATM   32  C1  UNL     1      34.042  61.384   2.870  1.00  0.00     0.202 C 
ENDBRANCH  29  31
ENDBRANCH   1  29
TORSDOF 8
ENDMDL
MODEL 3
REMARK VINA RESULT: -8.248447656      2.534      7.632
REMARK  8 active torsions:
REMARK  status: ('A' for Active; 'I' for Inactive)
REMARK    1  A    between atoms: O1_2  and  C2_3 
REMARK    2  A    between atoms: C2_3  and  C4_5 
REMARK       I    between atoms: C4_5  and  N1_7 
REMARK    3  A    between atoms: C7_10  and  C8_11 
REMARK    4  A    between atoms: C10_16  and  O3_17 
REMARK    5  A    between atoms: O3_17  and  C11_18 
REMARK    6  A    between atoms: C11_18  and  C12_20 
REMARK    7  A    between atoms: C13_23  and  O5_24 
REMARK    8  A    between atoms: C15_27  and  N4_28 
ROOT
HETATM    1  C4  UNL     1      30.698  67.120   3.252  1.00  0.00     0.257 C 
HETATM    2  O2  UNL     1      31.794  66.481   3.494  1.00  0.00    -0.270 OA
HETATM    3  N1  UNL     1      30.056  66.858   2.030  1.00  0.00    -0.288 N 
HETATM    4  C5  UNL     1      28.915  67.437   1.613  1.00  0.00     0.101 A 
HETATM    5  C6  UNL     1      28.559  66.938   0.352  1.00  0.00     0.033 A 
HETATM    6  C7  UNL     1      29.523  66.030   0.006  1.00  0.00     0.009 A 
HETATM    7  C9  UNL     1      30.428  65.987   1.028  1.00  0.00     0.075 A 
HETATM    8  C10 UNL     1      31.474  65.190   1.023  1.00  0.00     0.177 C 
ENDROOT
BRANCH   8   9
HETATM    9  O3  UNL     1      31.790  64.326  -0.054  1.00  0.00    -0.283 OA
BRANCH   9  10
HETATM   10  C11 UNL     1      32.043  62.974   0.205  1.00  0.00     0.332 C 
HETATM   11  O4  UNL     1      31.419  62.124  -0.459  1.00  0.00    -0.256 OA
BRANCH  10  12
HETATM   12  C12 UNL     1      32.994  62.580   1.210  1.00  0.00     0.186 A 
HETATM   13  N3  UNL     1      34.162  63.227   1.365  1.00  0.00    -0.318 N 
HETATM   14  C13 UNL     1      35.054  62.880   2.286  1.00  0.00     0.145 A 
ATOM     15  H3  UNL     1      34.372  64.015   0.752  1.00  0.00     0.169 HD
HETATM   16  C14 UNL     1      34.813  61.814   3.146  1.00  0.00     0.103 A 
HETATM   17  C15 UNL     1      33.614  61.149   2.988  1.00  0.00     0.104 A 
HETATM   18  N5  UNL     1      32.767  61.547   2.048  1.00  0.00    -0.324 N 
ATOM     19  H5  UNL     1      31.888  61.039   1.952  1.00  0.00     0.169 HD
BRANCH  14  20
HETATM   20  O5  UNL     1      36.253  63.564   2.425  1.00  0.00    -0.346 OA
ATOM     21  H5  UNL     1      36.636  63.723   3.280  1.00  0.00     0.219 HD
ENDBRANCH  14  20
BRANCH  17  22
HETATM   22  N4  UNL     1      33.340  60.138   3.771  1.00  0.00    -0.385 N 
ATOM     23  H42 UNL     1      33.001  60.278   4.723  1.00  0.00     0.157 HD
ATOM     24  H41 UNL     1      33.469  59.190   3.420  1.00  0.00     0.157 HD
ENDBRANCH  17  22
ENDBRANCH  10  12
ENDBRANCH   9  10
ENDBRANCH   8   9
BRANCH   6  25
HETATM   25  C8  UNL     1      29.542  65.321  -1.100  1.00  0.00     0.094 C 
HETATM   26  N2  UNL     1      29.913  64.960  -2.295  1.00  0.00    -0.407 N 
ATOM     27  H22 UNL     1      30.622  65.677  -2.450  1.00  0.00     0.155 HD
ATOM     28  H21 UNL     1      29.928  64.410  -3.154  1.00  0.00     0.155 HD
ENDBRANCH   6  25
BRANCH   1  29
HETATM   29  C2  UNL     1      30.289  68.033   4.306  1.00  0.00     0.209 C 
HETATM   30  C3  UNL     1      31.111  67.828   5.586  1.00  0.00     0.050 C 
BRANCH  29  31
HETATM   31  O1  UNL     1      30.284  69.359   3.976  1.00  0.00    -0.382 OA
HETATM   32  C1  UNL     1      29.897  70.161   5.073  1.00  0.00     0.202 C 
ENDBRANCH  29  31
ENDBRANCH   1  29
TORSDOF 8
ENDMDL
MODEL 4
REMARK VINA RESULT: -8.224393351      2.523      7.588
REMARK  8 active torsions:
REMARK  status: ('A' for Active; 'I' for Inactive)
REMARK    1  A    between atoms: O1_2  and  C2_3 
REMARK    2  A    between atoms: C2_3  and  C4_5 
REMARK       I    between atoms: C4_5  and  N1_7 
REMARK    3  A    between atoms: C7_10  and  C8_11 
REMARK    4  A    between atoms: C10_16  and  O3_17 
REMARK    5  A    between atoms: O3_17  and  C11_18 
REMARK    6  A    between atoms: C11_18  and  C12_20 
REMARK    7  A    between atoms: C13_23  and  O5_24 
REMARK    8  A    between atoms: C15_27  and  N4_28 
ROOT
HETATM    1  C4  UNL     1      30.742  67.144   3.370  1.00  0.00     0.257 C 
HETATM    2  O2  UNL     1      31.879  66.570   3.586  1.00  0.00    -0.270 OA
HETATM    3  N1  UNL     1      30.088  66.844   2.163  1.00  0.00    -0.288 N 
HETATM    4  C5  UNL     1      28.906  67.355   1.774  1.00  0.00     0.101 A 
HETATM    5  C6  UNL     1      28.551  66.837   0.521  1.00  0.00     0.033 A 
HETATM    6  C7  UNL     1      29.558  65.987   0.151  1.00  0.00     0.009 A 
HETATM    7  C9  UNL     1      30.488  65.997   1.152  1.00  0.00     0.075 A 
HETATM    8  C10 UNL     1      31.578  65.263   1.121  1.00  0.00     0.177 C 
ENDROOT
BRANCH   8   9
HETATM    9  O3  UNL     1      31.919  64.419   0.036  1.00  0.00    -0.283 OA
BRANCH   9  10
HETATM   10  C11 UNL     1      32.111  63.052   0.267  1.00  0.00     0.332 C 
HETATM   11  O4  UNL     1      31.410  62.246  -0.375  1.00  0.00    -0.256 OA
BRANCH  10  12
HETATM   12  C12 UNL     1      33.089  62.594   1.218  1.00  0.00     0.186 A 
HETATM   13  N3  UNL     1      32.881  61.499   1.970  1.00  0.00    -0.318 N 
HETATM   14  C13 UNL     1      33.769  61.059   2.853  1.00  0.00     0.145 A 
ATOM     15  H3  UNL     1      32.006  60.986   1.857  1.00  0.00     0.169 HD
HETATM   16  C14 UNL     1      34.976  61.724   3.041  1.00  0.00     0.103 A 
HETATM   17  C15 UNL     1      35.191  62.848   2.270  1.00  0.00     0.104 A 
HETATM   18  N5  UNL     1      34.262  63.234   1.406  1.00  0.00    -0.324 N 
ATOM     19  H5  UNL     1      34.446  64.067   0.848  1.00  0.00     0.169 HD
BRANCH  14  20
HETATM   20  O5  UNL     1      33.529  59.927   3.617  1.00  0.00    -0.346 OA
ATOM     21  H5  UNL     1      33.333  59.987   4.544  1.00  0.00     0.219 HD
ENDBRANCH  14  20
BRANCH  17  22
HETATM   22  N4  UNL     1      36.311  63.510   2.410  1.00  0.00    -0.385 N 
ATOM     23  H42 UNL     1      36.576  64.252   1.762  1.00  0.00     0.157 HD
ATOM     24  H41 UNL     1      36.932  63.275   3.184  1.00  0.00     0.157 HD
ENDBRANCH  17  22
ENDBRANCH  10  12
ENDBRANCH   9  10
ENDBRANCH   8   9
BRANCH   6  25
HETATM   25  C8  UNL     1      29.593  65.280  -0.956  1.00  0.00     0.094 C 
HETATM   26  N2  UNL     1      30.031  64.871  -2.113  1.00  0.00    -0.407 N 
ATOM     27  H22 UNL     1      30.840  65.487  -2.188  1.00  0.00     0.155 HD
ATOM     28  H21 UNL     1      30.058  64.323  -2.973  1.00  0.00     0.155 HD
ENDBRANCH   6  25
BRANCH   1  29
HETATM   29  C2  UNL     1      30.306  68.031   4.434  1.00  0.00     0.209 C 
HETATM   30  C3  UNL     1      31.179  67.890   5.688  1.00  0.00     0.050 C 
BRANCH  29  31
HETATM   31  O1  UNL     1      30.198  69.352   4.102  1.00  0.00    -0.382 OA
HETATM   32  C1  UNL     1      29.934  70.150   5.238  1.00  0.00     0.202 C 
ENDBRANCH  29  31
ENDBRANCH   1  29
TORSDOF 8
ENDMDL
MODEL 5
REMARK VINA RESULT: -8.214338870      2.398      7.414
REMARK  8 active torsions:
REMARK  status: ('A' for Active; 'I' for Inactive)
REMARK    1  A    between atoms: O1_2  and  C2_3 
REMARK    2  A    between atoms: C2_3  and  C4_5 
REMARK       I    between atoms: C4_5  and  N1_7 
REMARK    3  A    between atoms: C7_10  and  C8_11 
REMARK    4  A    between atoms: C10_16  and  O3_17 
REMARK    5  A    between atoms: O3_17  and  C11_18 
REMARK    6  A    between atoms: C11_18  and  C12_20 
REMARK    7  A    between atoms: C13_23  and  O5_24 
REMARK    8  A    between atoms: C15_27  and  N4_28 
ROOT
HETATM    1  C4  UNL     1      30.508  68.389   4.577  1.00  0.00     0.257 C 
HETATM    2  O2  UNL     1      30.677  67.112   4.480  1.00  0.00    -0.270 OA
HETATM    3  N1  UNL     1      30.350  69.111   3.381  1.00  0.00    -0.288 N 
HETATM    4  C5  UNL     1      30.172  70.442   3.297  1.00  0.00     0.101 A 
HETATM    5  C6  UNL     1      30.046  70.822   1.954  1.00  0.00     0.033 A 
HETATM    6  C7  UNL     1      30.153  69.677   1.212  1.00  0.00     0.009 A 
HETATM    7  C9  UNL     1      30.338  68.642   2.085  1.00  0.00     0.075 A 
HETATM    8  C10 UNL     1      30.453  67.392   1.696  1.00  0.00     0.177 C 
ENDROOT
BRANCH   8   9
HETATM    9  O3  UNL     1      30.436  66.993   0.337  1.00  0.00    -0.283 OA
BRANCH   9  10
HETATM   10  C11 UNL     1      30.644  65.647   0.016  1.00  0.00     0.332 C 
HETATM   11  O4  UNL     1      29.834  65.097  -0.754  1.00  0.00    -0.256 OA
BRANCH  10  12
HETATM   12  C12 UNL     1      31.760  64.922   0.562  1.00  0.00     0.186 A 
HETATM   13  N3  UNL     1      32.961  65.501   0.731  1.00  0.00    -0.318 N 
HETATM   14  C13 UNL     1      34.004  64.851   1.233  1.00  0.00     0.145 A 
ATOM     15  H3  UNL     1      33.076  66.479   0.464  1.00  0.00     0.169 HD
HETATM   16  C14 UNL     1      33.897  63.517   1.614  1.00  0.00     0.103 A 
HETATM   17  C15 UNL     1      32.664  62.921   1.440  1.00  0.00     0.104 A 
HETATM   18  N5  UNL     1      31.663  63.628   0.933  1.00  0.00    -0.324 N 
ATOM     19  H5  UNL     1      30.763  63.164   0.816  1.00  0.00     0.169 HD
BRANCH  14  20
HETATM   20  O5  UNL     1      35.233  65.472   1.397  1.00  0.00    -0.346 OA
ATOM     21  H5  UNL     1      35.313  66.418   1.403  1.00  0.00     0.219 HD
ENDBRANCH  14  20
BRANCH  17  22
HETATM   22  N4  UNL     1      32.511  61.668   1.782  1.00  0.00    -0.385 N 
ATOM     23  H42 UNL     1      33.184  61.193   2.384  1.00  0.00     0.157 HD
ATOM     24  H41 UNL     1      31.699  61.156   1.437  1.00  0.00     0.157 HD
ENDBRANCH  17  22
ENDBRANCH  10  12
ENDBRANCH   9  10
ENDBRANCH   8   9
BRANCH   6  25
HETATM   25  C8  UNL     1      30.065  69.603  -0.097  1.00  0.00     0.094 C 
HETATM   26  N2  UNL     1      30.455  69.670  -1.338  1.00  0.00    -0.407 N 
ATOM     27  H22 UNL     1      31.420  69.955  -1.171  1.00  0.00     0.155 HD
ATOM     28  H21 UNL     1      30.387  69.613  -2.354  1.00  0.00     0.155 HD
ENDBRANCH   6  25
BRANCH   1  29
HETATM   29  C2  UNL     1      30.508  68.893   5.939  1.00  0.00     0.209 C 
HETATM   30  C3  UNL     1      31.888  69.426   6.348  1.00  0.00     0.050 C 
BRANCH  29  31
HETATM   31  O1  UNL     1      29.555  69.829   6.228  1.00  0.00    -0.382 OA
HETATM   32  C1  UNL     1      30.061  70.831   7.086  1.00  0.00     0.202 C 
ENDBRANCH  29  31
ENDBRANCH   1  29
TORSDOF 8
ENDMDL
