MODEL 1
REMARK VINA RESULT: -8.125781513      0.000      0.000
REMARK  8 active torsions:
REMARK  status: ('A' for Active; 'I' for Inactive)
REMARK    1  A    between atoms: O1_2  and  C2_3 
REMARK    2  A    between atoms: C2_3  and  C3_5 
REMARK    3  A    between atoms: C3_5  and  N1_6 
REMARK    4  A    between atoms: C3_5  and  C4_10 
REMARK    5  A    between atoms: N1_6  and  O3_8 
REMARK    6  A    between atoms: C5_13  and  S1_14 
REMARK    7  A    between atoms: C7_20  and  C8_21 
REMARK    8  A    between atoms: C10_28  and  O7_29 
ROOT
HETATM    1  C4  UNL     1      30.232  68.549   1.918  1.00  0.00     0.099 A 
HETATM    2  N2  UNL     1      30.415  67.644   0.875  1.00  0.00    -0.329 N 
ATOM      3  H2  UNL     1      30.271  67.828  -0.118  1.00  0.00     0.168 HD
HETATM    4  C5  UNL     1      30.815  66.489   1.417  1.00  0.00     0.203 A 
HETATM    5  N3  UNL     1      30.882  66.638   2.718  1.00  0.00    -0.329 N 
ATOM      6  H3  UNL     1      31.165  65.908   3.373  1.00  0.00     0.168 HD
HETATM    7  C7  UNL     1      30.515  67.920   3.079  1.00  0.00     0.095 A 
ENDROOT
BRANCH   7   8
HETATM    8  C8  UNL     1      30.504  68.371   4.447  1.00  0.00     0.117 A 
HETATM    9  N4  UNL     1      29.957  69.589   4.801  1.00  0.00    -0.303 N 
HETATM   10  C9  UNL     1      30.202  69.877   6.065  1.00  0.00     0.326 A 
ATOM     11  H4  UNL     1      29.430  70.189   4.166  1.00  0.00     0.171 HD
HETATM   12  O6  UNL     1      29.819  70.927   6.657  1.00  0.00    -0.247 OA
HETATM   13  N5  UNL     1      30.904  68.903   6.605  1.00  0.00    -0.287 N 
HETATM   14  C10 UNL     1      31.097  67.970   5.611  1.00  0.00     0.174 A 
ATOM     15  H5  UNL     1      31.238  68.851   7.567  1.00  0.00     0.172 HD
BRANCH  14  16
HETATM   16  O7  UNL     1      31.819  66.845   5.887  1.00  0.00    -0.344 OA
ATOM     17  H7  UNL     1      31.529  65.990   6.183  1.00  0.00     0.219 HD
ENDBRANCH  14  16
ENDBRANCH   7   8
BRANCH   1  18
HETATM   18  C3  UNL     1      30.138  69.943   1.531  1.00  0.00     0.158 C 
BRANCH  18  19
HETATM   19  C2  UNL     1      28.876  70.638   1.652  1.00  0.00     0.314 C 
HETATM   20  O2  UNL     1      27.838  70.358   1.037  1.00  0.00    -0.257 OA
BRANCH  19  21
HETATM   21  O1  UNL     1      28.781  71.729   2.532  1.00  0.00    -0.321 OA
HETATM   22  C1  UNL     1      27.618  71.956   3.296  1.00  0.00     0.213 C 
ENDBRANCH  19  21
ENDBRANCH  18  19
BRANCH  18  23
HETATM   23  N1  UNL     1      31.131  70.602   1.150  1.00  0.00    -0.261 N 
ATOM     24  H1  UNL     1      31.629  70.286   0.318  1.00  0.00     0.194 HD
BRANCH  23  25
HETATM   25  O3  UNL     1      31.581  71.714   1.787  1.00  0.00    -0.289 OA
ATOM     26  H3  UNL     1      31.096  72.531   1.819  1.00  0.00     0.244 HD
ENDBRANCH  23  25
ENDBRANCH  18  23
ENDBRANCH   1  18
BRANCH   4  27
HETATM   27  S1  UNL     1      31.166  65.056   0.450  1.00  0.00     0.203 S 
HETATM   28  C6  UNL     1      30.205  65.069  -1.047  1.00  0.00     0.170 C 
HETATM   29  O4  UNL     1      32.645  65.163   0.098  1.00  0.00    -0.220 OA
HETATM   30  O5  UNL     1      30.960  63.835   1.262  1.00  0.00    -0.220 OA
ENDBRANCH   4  27
TORSDOF 8
ENDMDL
MODEL 2
REMARK VINA RESULT: -8.028710413      0.817      1.036
REMARK  8 active torsions:
REMARK  status: ('A' for Active; 'I' for Inactive)
REMARK    1  A    between atoms: O1_2  and  C2_3 
REMARK    2  A    between atoms: C2_3  and  C3_5 
REMARK    3  A    between atoms: C3_5  and  N1_6 
REMARK    4  A    between atoms: C3_5  and  C4_10 
REMARK    5  A    between atoms: N1_6  and  O3_8 
REMARK    6  A    between atoms: C5_13  and  S1_14 
REMARK    7  A    between atoms: C7_20  and  C8_21 
REMARK    8  A    between atoms: C10_28  and  O7_29 
ROOT
HETATM    1  C4  UNL     1      30.174  68.651   1.970  1.00  0.00     0.099 A 
HETATM    2  N2  UNL     1      30.328  67.749   0.920  1.00  0.00    -0.329 N 
ATOM      3  H2  UNL     1      30.176  67.942  -0.071  1.00  0.00     0.168 HD
HETATM    4  C5  UNL     1      30.712  66.583   1.450  1.00  0.00     0.203 A 
HETATM    5  N3  UNL     1      30.796  66.722   2.751  1.00  0.00    -0.329 N 
ATOM      6  H3  UNL     1      31.073  65.983   3.398  1.00  0.00     0.168 HD
HETATM    7  C7  UNL     1      30.457  68.009   3.124  1.00  0.00     0.095 A 
ENDROOT
BRANCH   7   8
HETATM    8  C8  UNL     1      30.471  68.451   4.495  1.00  0.00     0.117 A 
HETATM    9  N4  UNL     1      29.950  69.676   4.863  1.00  0.00    -0.303 N 
HETATM   10  C9  UNL     1      30.214  69.951   6.126  1.00  0.00     0.326 A 
ATOM     11  H4  UNL     1      29.427  70.290   4.238  1.00  0.00     0.171 HD
HETATM   12  O6  UNL     1      29.857  71.004   6.729  1.00  0.00    -0.247 OA
HETATM   13  N5  UNL     1      30.905  68.962   6.651  1.00  0.00    -0.287 N 
HETATM   14  C10 UNL     1      31.070  68.032   5.649  1.00  0.00     0.174 A 
ATOM     15  H5  UNL     1      31.250  68.897   7.609  1.00  0.00     0.172 HD
BRANCH  14  16
HETATM   16  O7  UNL     1      31.775  66.892   5.910  1.00  0.00    -0.344 OA
ATOM     17  H7  UNL     1      32.708  66.723   5.851  1.00  0.00     0.219 HD
ENDBRANCH  14  16
ENDBRANCH   7   8
BRANCH   1  18
HETATM   18  C3  UNL     1      30.101  70.048   1.594  1.00  0.00     0.158 C 
BRANCH  18  19
HETATM   19  C2  UNL     1      28.859  70.771   1.749  1.00  0.00     0.314 C 
HETATM   20  O2  UNL     1      27.815  70.554   1.118  1.00  0.00    -0.257 OA
BRANCH  19  21
HETATM   21  O1  UNL     1      28.791  71.814   2.687  1.00  0.00    -0.321 OA
HETATM   22  C1  UNL     1      27.613  72.067   3.419  1.00  0.00     0.213 C 
ENDBRANCH  19  21
ENDBRANCH  18  19
BRANCH  18  23
HETATM   23  N1  UNL     1      31.100  70.687   1.192  1.00  0.00    -0.261 N 
ATOM     24  H1  UNL     1      31.580  70.356   0.354  1.00  0.00     0.194 HD
BRANCH  23  25
HETATM   25  O3  UNL     1      31.577  71.798   1.811  1.00  0.00    -0.289 OA
ATOM     26  H3  UNL     1      32.027  71.778   2.647  1.00  0.00     0.244 HD
ENDBRANCH  23  25
ENDBRANCH  18  23
ENDBRANCH   1  18
BRANCH   4  27
HETATM   27  S1  UNL     1      31.025  65.150   0.470  1.00  0.00     0.203 S 
HETATM   28  C6  UNL     1      32.757  64.745   0.502  1.00  0.00     0.170 C 
HETATM   29  O4  UNL     1      30.237  64.029   1.137  1.00  0.00    -0.220 OA
HETATM   30  O5  UNL     1      30.499  65.349  -0.899  1.00  0.00    -0.220 OA
ENDBRANCH   4  27
TORSDOF 8
ENDMDL
MODEL 3
REMARK VINA RESULT: -8.020863945      0.868      1.052
REMARK  8 active torsions:
REMARK  status: ('A' for Active; 'I' for Inactive)
REMARK    1  A    between atoms: O1_2  and  C2_3 
REMARK    2  A    between atoms: C2_3  and  C3_5 
REMARK    3  A    between atoms: C3_5  and  N1_6 
REMARK    4  A    between atoms: C3_5  and  C4_10 
REMARK    5  A    between atoms: N1_6  and  O3_8 
REMARK    6  A    between atoms: C5_13  and  S1_14 
REMARK    7  A    between atoms: C7_20  and  C8_21 
REMARK    8  A    between atoms: C10_28  and  O7_29 
ROOT
HETATM    1  C4  UNL     1      30.408  68.395   1.912  1.00  0.00     0.099 A 
HETATM    2  N2  UNL     1      30.683  67.495   0.885  1.00  0.00    -0.329 N 
ATOM      3  H2  UNL     1      30.576  67.667  -0.115  1.00  0.00     0.168 HD
HETATM    4  C5  UNL     1      31.112  66.363   1.452  1.00  0.00     0.203 A 
HETATM    5  N3  UNL     1      31.111  66.520   2.754  1.00  0.00    -0.329 N 
ATOM      6  H3  UNL     1      31.399  65.808   3.426  1.00  0.00     0.168 HD
HETATM    7  C7  UNL     1      30.666  67.785   3.089  1.00  0.00     0.095 A 
ENDROOT
BRANCH   7   8
HETATM    8  C8  UNL     1      30.571  68.240   4.452  1.00  0.00     0.117 A 
HETATM    9  N4  UNL     1      29.940  69.427   4.774  1.00  0.00    -0.303 N 
HETATM   10  C9  UNL     1      30.112  69.734   6.046  1.00  0.00     0.326 A 
ATOM     11  H4  UNL     1      29.408  69.994   4.113  1.00  0.00     0.171 HD
HETATM   12  O6  UNL     1      29.645  70.763   6.613  1.00  0.00    -0.247 OA
HETATM   13  N5  UNL     1      30.844  68.804   6.622  1.00  0.00    -0.287 N 
HETATM   14  C10 UNL     1      31.134  67.880   5.644  1.00  0.00     0.174 A 
ATOM     15  H5  UNL     1      31.139  68.775   7.598  1.00  0.00     0.172 HD
BRANCH  14  16
HETATM   16  O7  UNL     1      31.906  66.799   5.959  1.00  0.00    -0.344 OA
ATOM     17  H7  UNL     1      32.584  66.703   6.617  1.00  0.00     0.219 HD
ENDBRANCH  14  16
ENDBRANCH   7   8
BRANCH   1  18
HETATM   18  C3  UNL     1      30.265  69.781   1.513  1.00  0.00     0.158 C 
BRANCH  18  19
HETATM   19  C2  UNL     1      29.260  70.609   2.140  1.00  0.00     0.314 C 
HETATM   20  O2  UNL     1      29.437  71.759   2.566  1.00  0.00    -0.257 OA
BRANCH  19  21
HETATM   21  O1  UNL     1      27.959  70.102   2.295  1.00  0.00    -0.321 OA
HETATM   22  C1  UNL     1      26.830  70.841   1.887  1.00  0.00     0.213 C 
ENDBRANCH  19  21
ENDBRANCH  18  19
BRANCH  18  23
HETATM   23  N1  UNL     1      31.027  70.321   0.680  1.00  0.00    -0.261 N 
ATOM     24  H1  UNL     1      31.598  71.108   0.987  1.00  0.00     0.194 HD
BRANCH  23  25
HETATM   25  O3  UNL     1      31.133  69.913  -0.612  1.00  0.00    -0.289 OA
ATOM     26  H3  UNL     1      31.358  69.025  -0.864  1.00  0.00     0.244 HD
ENDBRANCH  23  25
ENDBRANCH  18  23
ENDBRANCH   1  18
BRANCH   4  27
HETATM   27  S1  UNL     1      31.577  64.944   0.512  1.00  0.00     0.203 S 
HETATM   28  C6  UNL     1      30.558  64.804  -0.940  1.00  0.00     0.170 C 
HETATM   29  O4  UNL     1      33.018  65.199   0.090  1.00  0.00    -0.220 OA
HETATM   30  O5  UNL     1      31.539  63.737   1.367  1.00  0.00    -0.220 OA
ENDBRANCH   4  27
TORSDOF 8
ENDMDL
MODEL 4
REMARK VINA RESULT: -8.001231243      2.803      5.475
REMARK  8 active torsions:
REMARK  status: ('A' for Active; 'I' for Inactive)
REMARK    1  A    between atoms: O1_2  and  C2_3 
REMARK    2  A    between atoms: C2_3  and  C3_5 
REMARK    3  A    between atoms: C3_5  and  N1_6 
REMARK    4  A    between atoms: C3_5  and  C4_10 
REMARK    5  A    between atoms: N1_6  and  O3_8 
REMARK    6  A    between atoms: C5_13  and  S1_14 
REMARK    7  A    between atoms: C7_20  and  C8_21 
REMARK    8  A    between atoms: C10_28  and  O7_29 
ROOT
HETATM    1  C4  UNL     1      29.752  70.639   2.610  1.00  0.00     0.099 A 
HETATM    2  N2  UNL     1      28.783  71.531   2.157  1.00  0.00    -0.329 N 
ATOM      3  H2  UNL     1      28.624  71.812   1.189  1.00  0.00     0.168 HD
HETATM    4  C5  UNL     1      28.098  71.951   3.226  1.00  0.00     0.203 A 
HETATM    5  N3  UNL     1      28.594  71.373   4.294  1.00  0.00    -0.329 N 
ATOM      6  H3  UNL     1      28.251  71.516   5.245  1.00  0.00     0.168 HD
HETATM    7  C7  UNL     1      29.645  70.543   3.953  1.00  0.00     0.095 A 
ENDROOT
BRANCH   7   8
HETATM    8  C8  UNL     1      30.373  69.770   4.926  1.00  0.00     0.117 A 
HETATM    9  N4  UNL     1      30.848  68.506   4.634  1.00  0.00    -0.303 N 
HETATM   10  C9  UNL     1      31.334  67.915   5.709  1.00  0.00     0.326 A 
ATOM     11  H4  UNL     1      30.825  68.083   3.706  1.00  0.00     0.171 HD
HETATM   12  O6  UNL     1      31.836  66.754   5.734  1.00  0.00    -0.247 OA
HETATM   13  N5  UNL     1      31.213  68.721   6.741  1.00  0.00    -0.287 N 
HETATM   14  C10 UNL     1      30.618  69.869   6.266  1.00  0.00     0.174 A 
ATOM     15  H5  UNL     1      31.501  68.534   7.701  1.00  0.00     0.172 HD
BRANCH  14  16
HETATM   16  O7  UNL     1      30.351  70.887   7.135  1.00  0.00    -0.344 OA
ATOM     17  H7  UNL     1      30.122  71.793   6.964  1.00  0.00     0.219 HD
ENDBRANCH  14  16
ENDBRANCH   7   8
BRANCH   1  18
HETATM   18  C3  UNL     1      30.369  69.811   1.594  1.00  0.00     0.158 C 
BRANCH  18  19
HETATM   19  C2  UNL     1      30.145  68.383   1.596  1.00  0.00     0.314 C 
HETATM   20  O2  UNL     1      29.138  67.812   2.038  1.00  0.00    -0.257 OA
BRANCH  19  21
HETATM   21  O1  UNL     1      31.130  67.538   1.060  1.00  0.00    -0.321 OA
HETATM   22  C1  UNL     1      31.520  66.354   1.720  1.00  0.00     0.213 C 
ENDBRANCH  19  21
ENDBRANCH  18  19
BRANCH  18  23
HETATM   23  N1  UNL     1      31.048  70.291   0.658  1.00  0.00    -0.261 N 
ATOM     24  H1  UNL     1      31.665  71.077   0.864  1.00  0.00     0.194 HD
BRANCH  23  25
HETATM   25  O3  UNL     1      31.006  69.821  -0.616  1.00  0.00    -0.289 OA
ATOM     26  H3  UNL     1      31.743  69.401  -1.043  1.00  0.00     0.244 HD
ENDBRANCH  23  25
ENDBRANCH  18  23
ENDBRANCH   1  18
BRANCH   4  27
HETATM   27  S1  UNL     1      26.765  73.100   3.111  1.00  0.00     0.203 S 
HETATM   28  C6  UNL     1      26.479  73.548   1.413  1.00  0.00     0.170 C 
HETATM   29  O4  UNL     1      25.547  72.354   3.644  1.00  0.00    -0.220 OA
HETATM   30  O5  UNL     1      27.026  74.266   3.984  1.00  0.00    -0.220 OA
ENDBRANCH   4  27
TORSDOF 8
ENDMDL
MODEL 5
REMARK VINA RESULT: -7.969876670      3.352      7.273
REMARK  8 active torsions:
REMARK  status: ('A' for Active; 'I' for Inactive)
REMARK    1  A    between atoms: O1_2  and  C2_3 
REMARK    2  A    between atoms: C2_3  and  C3_5 
REMARK    3  A    between atoms: C3_5  and  N1_6 
REMARK    4  A    between atoms: C3_5  and  C4_10 
REMARK    5  A    between atoms: N1_6  and  O3_8 
REMARK    6  A    between atoms: C5_13  and  S1_14 
REMARK    7  A    between atoms: C7_20  and  C8_21 
REMARK    8  A    between atoms: C10_28  and  O7_29 
ROOT
HETATM    1  C4  UNL     1      32.792  65.485   2.649  1.00  0.00     0.099 A 
HETATM    2  N2  UNL     1      32.776  66.202   3.844  1.00  0.00    -0.329 N 
ATOM      3  H2  UNL     1      33.468  66.147   4.591  1.00  0.00     0.168 HD
HETATM    4  C5  UNL     1      31.685  66.975   3.829  1.00  0.00     0.203 A 
HETATM    5  N3  UNL     1      31.041  66.769   2.705  1.00  0.00    -0.329 N 
ATOM      6  H3  UNL     1      30.175  67.237   2.438  1.00  0.00     0.168 HD
HETATM    7  C7  UNL     1      31.699  65.830   1.934  1.00  0.00     0.095 A 
ENDROOT
BRANCH   7   8
HETATM    8  C8  UNL     1      31.223  65.415   0.640  1.00  0.00     0.117 A 
HETATM    9  N4  UNL     1      30.195  66.081   0.001  1.00  0.00    -0.303 N 
HETATM   10  C9  UNL     1      29.808  65.439  -1.085  1.00  0.00     0.326 A 
ATOM     11  H4  UNL     1      29.787  66.957   0.327  1.00  0.00     0.171 HD
HETATM   12  O6  UNL     1      28.887  65.821  -1.863  1.00  0.00    -0.247 OA
HETATM   13  N5  UNL     1      30.528  64.347  -1.225  1.00  0.00    -0.287 N 
HETATM   14  C10 UNL     1      31.403  64.323  -0.162  1.00  0.00     0.174 A 
ATOM     15  H5  UNL     1      30.453  63.656  -1.971  1.00  0.00     0.172 HD
BRANCH  14  16
HETATM   16  O7  UNL     1      32.272  63.277  -0.040  1.00  0.00    -0.344 OA
ATOM     17  H7  UNL     1      32.534  62.786   0.730  1.00  0.00     0.219 HD
ENDBRANCH  14  16
ENDBRANCH   7   8
BRANCH   1  18
HETATM   18  C3  UNL     1      34.052  64.855   2.310  1.00  0.00     0.158 C 
BRANCH  18  19
HETATM   19  C2  UNL     1      34.361  63.542   2.829  1.00  0.00     0.314 C 
HETATM   20  O2  UNL     1      35.307  63.268   3.581  1.00  0.00    -0.257 OA
BRANCH  19  21
HETATM   21  O1  UNL     1      33.541  62.458   2.473  1.00  0.00    -0.321 OA
HETATM   22  C1  UNL     1      33.728  61.180   3.038  1.00  0.00     0.213 C 
ENDBRANCH  19  21
ENDBRANCH  18  19
BRANCH  18  23
HETATM   23  N1  UNL     1      34.873  65.378   1.524  1.00  0.00    -0.261 N 
ATOM     24  H1  UNL     1      35.737  65.759   1.911  1.00  0.00     0.194 HD
BRANCH  23  25
HETATM   25  O3  UNL     1      34.675  65.464   0.183  1.00  0.00    -0.289 OA
ATOM     26  H3  UNL     1      34.108  64.876  -0.302  1.00  0.00     0.244 HD
ENDBRANCH  23  25
ENDBRANCH  18  23
ENDBRANCH   1  18
BRANCH   4  27
HETATM   27  S1  UNL     1      31.270  68.059   5.157  1.00  0.00     0.203 S 
HETATM   28  C6  UNL     1      30.424  69.497   4.541  1.00  0.00     0.170 C 
HETATM   29  O4  UNL     1      30.321  67.260   6.043  1.00  0.00    -0.220 OA
HETATM   30  O5  UNL     1      32.483  68.388   5.939  1.00  0.00    -0.220 OA
ENDBRANCH   4  27
TORSDOF 8
ENDMDL
