MODEL 1
REMARK VINA RESULT: -5.163974548      0.000      0.000
REMARK  1 active torsions:
REMARK  status: ('A' for Active; 'I' for Inactive)
REMARK    1  A    between atoms: C2_2  and  N1_4 
ROOT
HETATM    1  N1  UNL     1      28.142  80.712  62.552  1.00  0.00    -0.321 N 
HETATM    2  C4  UNL     1      27.385  81.058  61.350  1.00  0.00     0.144 C 
HETATM    3  C5  UNL     1      25.938  80.685  61.552  1.00  0.00     0.041 C 
HETATM    4  C6  UNL     1      25.644  79.262  61.209  1.00  0.00     0.124 C 
HETATM    5  N2  UNL     1      26.285  78.307  62.053  1.00  0.00    -0.363 N 
ATOM      6  H2  UNL     1      26.087  77.328  61.845  1.00  0.00     0.162 HD
HETATM    7  C7  UNL     1      27.165  78.542  63.150  1.00  0.00     0.202 C 
HETATM    8  N3  UNL     1      27.192  77.535  64.150  1.00  0.00    -0.062 NA
HETATM    9  N4  UNL     1      27.923  79.564  63.316  1.00  0.00    -0.276 N 
ATOM     10  H4  UNL     1      28.473  79.532  64.174  1.00  0.00     0.189 HD
ENDROOT
BRANCH   1  11
HETATM   11  C2  UNL     1      29.186  81.616  62.974  1.00  0.00     0.094 C 
HETATM   12  C1  UNL     1      28.602  82.524  64.036  1.00  0.00     0.033 C 
HETATM   13  C3  UNL     1      29.599  82.433  61.766  1.00  0.00     0.033 C 
ENDBRANCH   1  11
TORSDOF 1
ENDMDL
MODEL 2
REMARK VINA RESULT: -5.082364721      1.680      4.445
REMARK  1 active torsions:
REMARK  status: ('A' for Active; 'I' for Inactive)
REMARK    1  A    between atoms: C2_2  and  N1_4 
ROOT
HETATM    1  N1  UNL     1      27.723  80.200  62.476  1.00  0.00    -0.321 N 
HETATM    2  C4  UNL     1      28.585  79.413  63.356  1.00  0.00     0.144 C 
HETATM    3  C5  UNL     1      29.359  80.345  64.253  1.00  0.00     0.041 C 
HETATM    4  C6  UNL     1      30.619  80.850  63.633  1.00  0.00     0.124 C 
HETATM    5  N2  UNL     1      30.421  81.685  62.492  1.00  0.00    -0.363 N 
ATOM      6  H2  UNL     1      31.268  82.052  62.059  1.00  0.00     0.162 HD
HETATM    7  C7  UNL     1      29.193  82.072  61.878  1.00  0.00     0.202 C 
HETATM    8  N3  UNL     1      29.212  83.307  61.180  1.00  0.00    -0.062 NA
HETATM    9  N4  UNL     1      28.089  81.417  61.899  1.00  0.00    -0.276 N 
ATOM     10  H4  UNL     1      27.331  81.877  61.396  1.00  0.00     0.189 HD
ENDROOT
BRANCH   1  11
HETATM   11  C2  UNL     1      26.406  79.683  62.184  1.00  0.00     0.094 C 
HETATM   12  C1  UNL     1      26.524  78.178  62.064  1.00  0.00     0.033 C 
HETATM   13  C3  UNL     1      25.967  80.274  60.859  1.00  0.00     0.033 C 
ENDBRANCH   1  11
TORSDOF 1
ENDMDL
MODEL 3
REMARK VINA RESULT: -5.067310747      1.602      3.718
REMARK  1 active torsions:
REMARK  status: ('A' for Active; 'I' for Inactive)
REMARK    1  A    between atoms: C2_2  and  N1_4 
ROOT
HETATM    1  N1  UNL     1      27.697  80.229  62.537  1.00  0.00    -0.321 N 
HETATM    2  C4  UNL     1      27.936  81.628  62.183  1.00  0.00     0.144 C 
HETATM    3  C5  UNL     1      29.361  81.783  61.716  1.00  0.00     0.041 C 
HETATM    4  C6  UNL     1      30.327  82.003  62.833  1.00  0.00     0.124 C 
HETATM    5  N2  UNL     1      30.459  80.896  63.724  1.00  0.00    -0.363 N 
ATOM      6  H2  UNL     1      31.124  81.019  64.489  1.00  0.00     0.162 HD
HETATM    7  C7  UNL     1      29.784  79.641  63.686  1.00  0.00     0.202 C 
HETATM    8  N3  UNL     1      30.474  78.548  64.274  1.00  0.00    -0.062 NA
HETATM    9  N4  UNL     1      28.628  79.410  63.178  1.00  0.00    -0.276 N 
ATOM     10  H4  UNL     1      28.333  78.438  63.257  1.00  0.00     0.189 HD
ENDROOT
BRANCH   1  11
HETATM   11  C2  UNL     1      26.413  79.660  62.203  1.00  0.00     0.094 C 
HETATM   12  C1  UNL     1      26.600  78.165  62.056  1.00  0.00     0.033 C 
HETATM   13  C3  UNL     1      25.979  80.259  60.880  1.00  0.00     0.033 C 
ENDBRANCH   1  11
TORSDOF 1
ENDMDL
MODEL 4
REMARK VINA RESULT: -5.049863705      0.527      1.036
REMARK  1 active torsions:
REMARK  status: ('A' for Active; 'I' for Inactive)
REMARK    1  A    between atoms: C2_2  and  N1_4 
ROOT
HETATM    1  N1  UNL     1      28.149  80.615  62.483  1.00  0.00    -0.321 N 
HETATM    2  C4  UNL     1      27.355  80.979  61.310  1.00  0.00     0.144 C 
HETATM    3  C5  UNL     1      25.904  80.670  61.580  1.00  0.00     0.041 C 
HETATM    4  C6  UNL     1      25.535  79.257  61.269  1.00  0.00     0.124 C 
HETATM    5  N2  UNL     1      26.172  78.286  62.098  1.00  0.00    -0.363 N 
ATOM      6  H2  UNL     1      25.924  77.314  61.912  1.00  0.00     0.162 HD
HETATM    7  C7  UNL     1      27.108  78.496  63.153  1.00  0.00     0.202 C 
HETATM    8  N3  UNL     1      27.137  77.501  64.164  1.00  0.00    -0.062 NA
HETATM    9  N4  UNL     1      27.915  79.487  63.271  1.00  0.00    -0.276 N 
ATOM     10  H4  UNL     1      28.500  79.442  64.105  1.00  0.00     0.189 HD
ENDROOT
BRANCH   1  11
HETATM   11  C2  UNL     1      29.248  81.479  62.847  1.00  0.00     0.094 C 
HETATM   12  C1  UNL     1      29.445  82.468  61.718  1.00  0.00     0.033 C 
HETATM   13  C3  UNL     1      30.481  80.611  62.995  1.00  0.00     0.033 C 
ENDBRANCH   1  11
TORSDOF 1
ENDMDL
MODEL 5
REMARK VINA RESULT: -4.727591776      5.394      6.737
REMARK  1 active torsions:
REMARK  status: ('A' for Active; 'I' for Inactive)
REMARK    1  A    between atoms: C2_2  and  N1_4 
ROOT
HETATM    1  N1  UNL     1      26.517  75.674  65.996  1.00  0.00    -0.321 N 
HETATM    2  C4  UNL     1      27.421  76.387  66.898  1.00  0.00     0.144 C 
HETATM    3  C5  UNL     1      28.431  77.154  66.082  1.00  0.00     0.041 C 
HETATM    4  C6  UNL     1      29.619  76.336  65.696  1.00  0.00     0.124 C 
HETATM    5  N2  UNL     1      29.328  75.255  64.811  1.00  0.00    -0.363 N 
ATOM      6  H2  UNL     1      30.128  74.690  64.524  1.00  0.00     0.162 HD
HETATM    7  C7  UNL     1      28.067  74.861  64.276  1.00  0.00     0.202 C 
HETATM    8  N3  UNL     1      28.107  74.183  63.029  1.00  0.00    -0.062 NA
HETATM    9  N4  UNL     1      26.916  75.059  64.809  1.00  0.00    -0.276 N 
ATOM     10  H4  UNL     1      26.140  74.695  64.255  1.00  0.00     0.189 HD
ENDROOT
BRANCH   1  11
HETATM   11  C2  UNL     1      25.121  75.601  66.360  1.00  0.00     0.094 C 
HETATM   12  C1  UNL     1      24.966  76.270  67.709  1.00  0.00     0.033 C 
HETATM   13  C3  UNL     1      24.753  74.134  66.465  1.00  0.00     0.033 C 
ENDBRANCH   1  11
TORSDOF 1
ENDMDL
