MODEL 1
REMARK VINA RESULT: -9.797832762      0.000      0.000
REMARK  6 active torsions:
REMARK  status: ('A' for Active; 'I' for Inactive)
REMARK    1  A    between atoms: C5_6  and  C6_7 
REMARK    2  A    between atoms: C7_10  and  C8_11 
REMARK    3  A    between atoms: C8_11  and  O1_12 
REMARK    4  A    between atoms: O1_12  and  C9_13 
REMARK    5  A    between atoms: C15_21  and  C16_22 
REMARK    6  A    between atoms: C23_32  and  C24_33 
ROOT
HETATM    1  C1  UNL     1       4.474 -29.643   8.063  1.00  0.00     0.229 C 
HETATM    2  N1  UNL     1       3.363 -29.347   8.085  1.00  0.00    -0.429 NA
HETATM    3  C2  UNL     1       2.042 -29.016   8.099  1.00  0.00     0.120 A 
HETATM    4  C3  UNL     1       1.251 -29.293   9.194  1.00  0.00     0.046 A 
HETATM    5  C4  UNL     1      -0.102 -28.952   9.205  1.00  0.00     0.018 A 
HETATM    6  C5  UNL     1      -0.647 -28.331   8.104  1.00  0.00     0.009 A 
HETATM    7  C22 UNL     1       0.161 -28.057   7.009  1.00  0.00     0.035 A 
HETATM    8  C23 UNL     1       1.497 -28.394   6.997  1.00  0.00     0.089 A 
ENDROOT
BRANCH   8   9
HETATM    9  C24 UNL     1       2.370 -28.107   5.834  1.00  0.00     0.420 C 
HETATM   10  F1  UNL     1       3.421 -27.264   6.161  1.00  0.00    -0.166 F 
HETATM   11  F2  UNL     1       1.619 -27.502   4.837  1.00  0.00    -0.166 F 
HETATM   12  F3  UNL     1       2.879 -29.283   5.315  1.00  0.00    -0.166 F 
ENDBRANCH   8   9
BRANCH   6  13
HETATM   13  C6  UNL     1      -2.071 -27.955   8.074  1.00  0.00     0.116 A 
HETATM   14  N2  UNL     1      -2.570 -26.790   7.647  1.00  0.00    -0.342 N 
HETATM   15  C7  UNL     1      -3.919 -26.798   7.767  1.00  0.00     0.058 A 
ATOM     16  H2  UNL     1      -2.018 -26.014   7.285  1.00  0.00     0.167 HD
HETATM   17  C15 UNL     1      -4.269 -28.015   8.289  1.00  0.00     0.045 A 
HETATM   18  N5  UNL     1      -3.120 -28.697   8.466  1.00  0.00    -0.343 N 
ATOM     19  H5  UNL     1      -3.056 -29.642   8.844  1.00  0.00     0.167 HD
BRANCH  15  20
HETATM   20  C8  UNL     1      -4.822 -25.670   7.431  1.00  0.00     0.234 C 
BRANCH  20  21
HETATM   21  O1  UNL     1      -5.271 -24.951   8.547  1.00  0.00    -0.343 OA
BRANCH  21  22
HETATM   22  C9  UNL     1      -6.265 -23.995   8.413  1.00  0.00     0.092 A 
HETATM   23  C10 UNL     1      -6.408 -22.956   7.513  1.00  0.00     0.125 A 
HETATM   24  N3  UNL     1      -7.555 -22.297   7.788  1.00  0.00    -0.366 N 
HETATM   25  C11 UNL     1      -8.182 -22.840   8.818  1.00  0.00     0.013 A 
ATOM     26  H3  UNL     1      -7.893 -21.487   7.269  1.00  0.00     0.165 HD
HETATM   27  C12 UNL     1      -9.484 -22.408   9.436  1.00  0.00     0.068 C 
HETATM   28  C13 UNL     1      -7.408 -23.898   9.232  1.00  0.00    -0.005 A 
HETATM   29  C14 UNL     1      -7.674 -24.832  10.355  1.00  0.00     0.053 C 
ENDBRANCH  21  22
ENDBRANCH  20  21
ENDBRANCH  15  20
BRANCH  17  30
HETATM   30  C16 UNL     1      -5.659 -28.465   8.587  1.00  0.00     0.076 C 
HETATM   31  C17 UNL     1      -6.060 -28.059   9.994  1.00  0.00     0.021 C 
HETATM   32  C18 UNL     1      -7.273 -28.827  10.461  1.00  0.00     0.046 C 
HETATM   33  C19 UNL     1      -6.801 -30.265  10.536  1.00  0.00     0.062 C 
HETATM   34  N4  UNL     1      -6.477 -30.731   9.255  1.00  0.00    -0.377 N 
HETATM   35  C20 UNL     1      -7.395 -31.683   8.681  1.00  0.00     0.154 C 
HETATM   36  C21 UNL     1      -5.866 -29.904   8.306  1.00  0.00     0.073 C 
ENDBRANCH  17  30
ENDBRANCH   6  13
TORSDOF 6
ENDMDL
MODEL 2
REMARK VINA RESULT: -9.724769091      0.597      1.078
REMARK  6 active torsions:
REMARK  status: ('A' for Active; 'I' for Inactive)
REMARK    1  A    between atoms: C5_6  and  C6_7 
REMARK    2  A    between atoms: C7_10  and  C8_11 
REMARK    3  A    between atoms: C8_11  and  O1_12 
REMARK    4  A    between atoms: O1_12  and  C9_13 
REMARK    5  A    between atoms: C15_21  and  C16_22 
REMARK    6  A    between atoms: C23_32  and  C24_33 
ROOT
HETATM    1  C1  UNL     1       4.403 -29.610   7.933  1.00  0.00     0.229 C 
HETATM    2  N1  UNL     1       3.288 -29.328   7.982  1.00  0.00    -0.429 NA
HETATM    3  C2  UNL     1       1.964 -29.014   8.028  1.00  0.00     0.120 A 
HETATM    4  C3  UNL     1       1.207 -29.284   9.148  1.00  0.00     0.046 A 
HETATM    5  C4  UNL     1      -0.149 -28.961   9.193  1.00  0.00     0.018 A 
HETATM    6  C5  UNL     1      -0.733 -28.364   8.097  1.00  0.00     0.009 A 
HETATM    7  C22 UNL     1       0.040 -28.098   6.976  1.00  0.00     0.035 A 
HETATM    8  C23 UNL     1       1.380 -28.416   6.932  1.00  0.00     0.089 A 
ENDROOT
BRANCH   8   9
HETATM    9  C24 UNL     1       2.216 -28.137   5.740  1.00  0.00     0.420 C 
HETATM   10  F1  UNL     1       3.269 -27.282   6.027  1.00  0.00    -0.166 F 
HETATM   11  F2  UNL     1       1.432 -27.551   4.759  1.00  0.00    -0.166 F 
HETATM   12  F3  UNL     1       2.720 -29.315   5.221  1.00  0.00    -0.166 F 
ENDBRANCH   8   9
BRANCH   6  13
HETATM   13  C6  UNL     1      -2.162 -28.007   8.102  1.00  0.00     0.116 A 
HETATM   14  N2  UNL     1      -2.682 -26.830   7.739  1.00  0.00    -0.342 N 
HETATM   15  C7  UNL     1      -4.030 -26.863   7.872  1.00  0.00     0.058 A 
ATOM     16  H2  UNL     1      -2.144 -26.029   7.410  1.00  0.00     0.167 HD
HETATM   17  C15 UNL     1      -4.356 -28.109   8.337  1.00  0.00     0.045 A 
HETATM   18  N5  UNL     1      -3.197 -28.783   8.467  1.00  0.00    -0.343 N 
ATOM     19  H5  UNL     1      -3.116 -29.744   8.797  1.00  0.00     0.167 HD
BRANCH  15  20
HETATM   20  C8  UNL     1      -4.951 -25.732   7.603  1.00  0.00     0.234 C 
BRANCH  20  21
HETATM   21  O1  UNL     1      -5.255 -24.966   8.736  1.00  0.00    -0.343 OA
BRANCH  21  22
HETATM   22  C9  UNL     1      -6.513 -24.403   8.886  1.00  0.00     0.092 A 
HETATM   23  C10 UNL     1      -7.589 -24.784   9.665  1.00  0.00     0.125 A 
HETATM   24  N3  UNL     1      -8.598 -23.907   9.470  1.00  0.00    -0.366 N 
HETATM   25  C11 UNL     1      -8.252 -22.965   8.609  1.00  0.00     0.013 A 
ATOM     26  H3  UNL     1      -9.508 -23.963   9.929  1.00  0.00     0.165 HD
HETATM   27  C12 UNL     1      -9.084 -21.808   8.125  1.00  0.00     0.068 C 
HETATM   28  C13 UNL     1      -6.962 -23.243   8.224  1.00  0.00    -0.005 A 
HETATM   29  C14 UNL     1      -6.116 -22.483   7.270  1.00  0.00     0.053 C 
ENDBRANCH  21  22
ENDBRANCH  20  21
ENDBRANCH  15  20
BRANCH  17  30
HETATM   30  C16 UNL     1      -5.737 -28.594   8.627  1.00  0.00     0.076 C 
HETATM   31  C17 UNL     1      -6.146 -28.220  10.040  1.00  0.00     0.021 C 
HETATM   32  C18 UNL     1      -7.342 -29.022  10.493  1.00  0.00     0.046 C 
HETATM   33  C19 UNL     1      -6.841 -30.451  10.543  1.00  0.00     0.062 C 
HETATM   34  N4  UNL     1      -6.507 -30.887   9.254  1.00  0.00    -0.377 N 
HETATM   35  C20 UNL     1      -7.406 -31.848   8.663  1.00  0.00     0.154 C 
HETATM   36  C21 UNL     1      -5.914 -30.031   8.320  1.00  0.00     0.073 C 
ENDBRANCH  17  30
ENDBRANCH   6  13
TORSDOF 6
ENDMDL
MODEL 3
REMARK VINA RESULT: -9.376998393      1.483      2.087
REMARK  6 active torsions:
REMARK  status: ('A' for Active; 'I' for Inactive)
REMARK    1  A    between atoms: C5_6  and  C6_7 
REMARK    2  A    between atoms: C7_10  and  C8_11 
REMARK    3  A    between atoms: C8_11  and  O1_12 
REMARK    4  A    between atoms: O1_12  and  C9_13 
REMARK    5  A    between atoms: C15_21  and  C16_22 
REMARK    6  A    between atoms: C23_32  and  C24_33 
ROOT
HETATM    1  C1  UNL     1       4.245 -29.539   7.876  1.00  0.00     0.229 C 
HETATM    2  N1  UNL     1       3.128 -29.272   7.931  1.00  0.00    -0.429 NA
HETATM    3  C2  UNL     1       1.799 -28.976   7.986  1.00  0.00     0.120 A 
HETATM    4  C3  UNL     1       1.055 -29.248   9.114  1.00  0.00     0.046 A 
HETATM    5  C4  UNL     1      -0.305 -28.942   9.167  1.00  0.00     0.018 A 
HETATM    6  C5  UNL     1      -0.906 -28.361   8.072  1.00  0.00     0.009 A 
HETATM    7  C22 UNL     1      -0.144 -28.092   6.943  1.00  0.00     0.035 A 
HETATM    8  C23 UNL     1       1.199 -28.393   6.891  1.00  0.00     0.089 A 
ENDROOT
BRANCH   8   9
HETATM    9  C24 UNL     1       2.022 -28.111   5.690  1.00  0.00     0.420 C 
HETATM   10  F1  UNL     1       3.044 -27.211   5.954  1.00  0.00    -0.166 F 
HETATM   11  F2  UNL     1       1.214 -27.576   4.698  1.00  0.00    -0.166 F 
HETATM   12  F3  UNL     1       2.568 -29.281   5.197  1.00  0.00    -0.166 F 
ENDBRANCH   8   9
BRANCH   6  13
HETATM   13  C6  UNL     1      -2.339 -28.023   8.086  1.00  0.00     0.116 A 
HETATM   14  N2  UNL     1      -2.879 -26.859   7.709  1.00  0.00    -0.342 N 
HETATM   15  C7  UNL     1      -4.224 -26.908   7.857  1.00  0.00     0.058 A 
ATOM     16  H2  UNL     1      -2.355 -26.056   7.362  1.00  0.00     0.167 HD
HETATM   17  C15 UNL     1      -4.529 -28.151   8.345  1.00  0.00     0.045 A 
HETATM   18  N5  UNL     1      -3.359 -28.806   8.474  1.00  0.00    -0.343 N 
ATOM     19  H5  UNL     1      -3.262 -29.761   8.819  1.00  0.00     0.167 HD
BRANCH  15  20
HETATM   20  C8  UNL     1      -5.163 -25.793   7.579  1.00  0.00     0.234 C 
BRANCH  20  21
HETATM   21  O1  UNL     1      -4.658 -24.529   7.912  1.00  0.00    -0.343 OA
BRANCH  21  22
HETATM   22  C9  UNL     1      -4.368 -23.605   6.921  1.00  0.00     0.092 A 
HETATM   23  C10 UNL     1      -3.272 -23.484   6.088  1.00  0.00     0.125 A 
HETATM   24  N3  UNL     1      -3.456 -22.416   5.281  1.00  0.00    -0.366 N 
HETATM   25  C11 UNL     1      -4.611 -21.822   5.530  1.00  0.00     0.013 A 
ATOM     26  H3  UNL     1      -2.790 -22.107   4.572  1.00  0.00     0.165 HD
HETATM   27  C12 UNL     1      -5.187 -20.607   4.856  1.00  0.00     0.068 C 
HETATM   28  C13 UNL     1      -5.205 -22.535   6.545  1.00  0.00    -0.005 A 
HETATM   29  C14 UNL     1      -6.516 -22.276   7.189  1.00  0.00     0.053 C 
ENDBRANCH  21  22
ENDBRANCH  20  21
ENDBRANCH  15  20
BRANCH  17  30
HETATM   30  C16 UNL     1      -5.900 -28.648   8.657  1.00  0.00     0.076 C 
HETATM   31  C17 UNL     1      -6.297 -28.264  10.071  1.00  0.00     0.021 C 
HETATM   32  C18 UNL     1      -7.478 -29.075  10.547  1.00  0.00     0.046 C 
HETATM   33  C19 UNL     1      -6.958 -30.497  10.607  1.00  0.00     0.062 C 
HETATM   34  N4  UNL     1      -6.634 -30.943   9.320  1.00  0.00    -0.377 N 
HETATM   35  C20 UNL     1      -7.528 -31.922   8.751  1.00  0.00     0.154 C 
HETATM   36  C21 UNL     1      -6.063 -30.091   8.369  1.00  0.00     0.073 C 
ENDBRANCH  17  30
ENDBRANCH   6  13
TORSDOF 6
ENDMDL
MODEL 4
REMARK VINA RESULT: -8.882048237      1.798      2.704
REMARK  6 active torsions:
REMARK  status: ('A' for Active; 'I' for Inactive)
REMARK    1  A    between atoms: C5_6  and  C6_7 
REMARK    2  A    between atoms: C7_10  and  C8_11 
REMARK    3  A    between atoms: C8_11  and  O1_12 
REMARK    4  A    between atoms: O1_12  and  C9_13 
REMARK    5  A    between atoms: C15_21  and  C16_22 
REMARK    6  A    between atoms: C23_32  and  C24_33 
ROOT
HETATM    1  C1  UNL     1       5.558 -28.541   6.070  1.00  0.00     0.229 C 
HETATM    2  N1  UNL     1       4.426 -28.528   6.279  1.00  0.00    -0.429 NA
HETATM    3  C2  UNL     1       3.090 -28.493   6.540  1.00  0.00     0.120 A 
HETATM    4  C3  UNL     1       2.215 -27.852   5.691  1.00  0.00     0.046 A 
HETATM    5  C4  UNL     1       0.847 -27.819   5.961  1.00  0.00     0.018 A 
HETATM    6  C5  UNL     1       0.372 -28.438   7.096  1.00  0.00     0.009 A 
HETATM    7  C22 UNL     1       1.264 -29.080   7.943  1.00  0.00     0.035 A 
HETATM    8  C23 UNL     1       2.616 -29.113   7.676  1.00  0.00     0.089 A 
ENDROOT
BRANCH   8   9
HETATM    9  C24 UNL     1       3.579 -29.796   8.573  1.00  0.00     0.420 C 
HETATM   10  F1  UNL     1       4.254 -30.824   7.933  1.00  0.00    -0.166 F 
HETATM   11  F2  UNL     1       2.895 -30.329   9.655  1.00  0.00    -0.166 F 
HETATM   12  F3  UNL     1       4.499 -28.891   9.067  1.00  0.00    -0.166 F 
ENDBRANCH   8   9
BRANCH   6  13
HETATM   13  C6  UNL     1      -1.065 -28.426   7.420  1.00  0.00     0.116 A 
HETATM   14  N2  UNL     1      -1.955 -27.511   7.022  1.00  0.00    -0.342 N 
HETATM   15  C7  UNL     1      -3.180 -27.821   7.510  1.00  0.00     0.058 A 
ATOM     16  H2  UNL     1      -1.743 -26.702   6.439  1.00  0.00     0.167 HD
HETATM   17  C15 UNL     1      -3.043 -28.973   8.238  1.00  0.00     0.045 A 
HETATM   18  N5  UNL     1      -1.742 -29.316   8.165  1.00  0.00    -0.343 N 
ATOM     19  H5  UNL     1      -1.330 -30.135   8.611  1.00  0.00     0.167 HD
BRANCH  15  20
HETATM   20  C8  UNL     1      -4.414 -27.021   7.315  1.00  0.00     0.234 C 
BRANCH  20  21
HETATM   21  O1  UNL     1      -4.398 -25.784   7.974  1.00  0.00    -0.343 OA
BRANCH  21  22
HETATM   22  C9  UNL     1      -5.583 -25.126   8.262  1.00  0.00     0.092 A 
HETATM   23  C10 UNL     1      -6.697 -25.534   8.971  1.00  0.00     0.125 A 
HETATM   24  N3  UNL     1      -7.599 -24.529   8.979  1.00  0.00    -0.366 N 
HETATM   25  C11 UNL     1      -7.148 -23.477   8.316  1.00  0.00     0.013 A 
ATOM     26  H3  UNL     1      -8.510 -24.575   9.437  1.00  0.00     0.165 HD
HETATM   27  C12 UNL     1      -7.843 -22.161   8.092  1.00  0.00     0.068 C 
HETATM   28  C13 UNL     1      -5.897 -23.814   7.855  1.00  0.00    -0.005 A 
HETATM   29  C14 UNL     1      -4.970 -22.977   7.054  1.00  0.00     0.053 C 
ENDBRANCH  21  22
ENDBRANCH  20  21
ENDBRANCH  15  20
BRANCH  17  30
HETATM   30  C16 UNL     1      -4.141 -29.683   8.955  1.00  0.00     0.076 C 
HETATM   31  C17 UNL     1      -4.855 -30.641   8.019  1.00  0.00     0.021 C 
HETATM   32  C18 UNL     1      -6.190 -31.065   8.584  1.00  0.00     0.046 C 
HETATM   33  C19 UNL     1      -7.007 -29.789   8.616  1.00  0.00     0.062 C 
HETATM   34  N4  UNL     1      -6.439 -28.878   9.516  1.00  0.00    -0.377 N 
HETATM   35  C20 UNL     1      -7.167 -28.674  10.745  1.00  0.00     0.154 C 
HETATM   36  C21 UNL     1      -5.054 -28.757   9.662  1.00  0.00     0.073 C 
ENDBRANCH  17  30
ENDBRANCH   6  13
TORSDOF 6
ENDMDL
MODEL 5
REMARK VINA RESULT: -8.674775544      1.219      1.937
REMARK  6 active torsions:
REMARK  status: ('A' for Active; 'I' for Inactive)
REMARK    1  A    between atoms: C5_6  and  C6_7 
REMARK    2  A    between atoms: C7_10  and  C8_11 
REMARK    3  A    between atoms: C8_11  and  O1_12 
REMARK    4  A    between atoms: O1_12  and  C9_13 
REMARK    5  A    between atoms: C15_21  and  C16_22 
REMARK    6  A    between atoms: C23_32  and  C24_33 
ROOT
HETATM    1  C1  UNL     1       4.835 -29.349   7.252  1.00  0.00     0.229 C 
HETATM    2  N1  UNL     1       3.722 -29.176   7.486  1.00  0.00    -0.429 NA
HETATM    3  C2  UNL     1       2.399 -28.994   7.753  1.00  0.00     0.120 A 
HETATM    4  C3  UNL     1       1.866 -29.331   8.978  1.00  0.00     0.046 A 
HETATM    5  C4  UNL     1       0.511 -29.142   9.248  1.00  0.00     0.018 A 
HETATM    6  C5  UNL     1      -0.301 -28.609   8.271  1.00  0.00     0.009 A 
HETATM    7  C22 UNL     1       0.249 -28.273   7.041  1.00  0.00     0.035 A 
HETATM    8  C23 UNL     1       1.588 -28.460   6.774  1.00  0.00     0.089 A 
ENDROOT
BRANCH   8   9
HETATM    9  C24 UNL     1       2.186 -28.106   5.465  1.00  0.00     0.420 C 
HETATM   10  F1  UNL     1       3.200 -27.168   5.588  1.00  0.00    -0.166 F 
HETATM   11  F2  UNL     1       1.202 -27.579   4.642  1.00  0.00    -0.166 F 
HETATM   12  F3  UNL     1       2.687 -29.234   4.845  1.00  0.00    -0.166 F 
ENDBRANCH   8   9
BRANCH   6  13
HETATM   13  C6  UNL     1      -1.737 -28.394   8.514  1.00  0.00     0.116 A 
HETATM   14  N2  UNL     1      -2.525 -27.529   7.867  1.00  0.00    -0.342 N 
HETATM   15  C7  UNL     1      -3.786 -27.603   8.356  1.00  0.00     0.058 A 
ATOM     16  H2  UNL     1      -2.222 -26.908   7.117  1.00  0.00     0.167 HD
HETATM   17  C15 UNL     1      -3.778 -28.551   9.345  1.00  0.00     0.045 A 
HETATM   18  N5  UNL     1      -2.515 -29.013   9.417  1.00  0.00    -0.343 N 
ATOM     19  H5  UNL     1      -2.194 -29.732  10.067  1.00  0.00     0.167 HD
BRANCH  15  20
HETATM   20  C8  UNL     1      -4.932 -26.770   7.916  1.00  0.00     0.234 C 
BRANCH  20  21
HETATM   21  O1  UNL     1      -4.978 -25.505   8.519  1.00  0.00    -0.343 OA
BRANCH  21  22
HETATM   22  C9  UNL     1      -6.116 -24.720   8.419  1.00  0.00     0.092 A 
HETATM   23  C10 UNL     1      -7.396 -24.916   8.901  1.00  0.00     0.125 A 
HETATM   24  N3  UNL     1      -8.160 -23.860   8.547  1.00  0.00    -0.366 N 
HETATM   25  C11 UNL     1      -7.459 -22.973   7.859  1.00  0.00     0.013 A 
ATOM     26  H3  UNL     1      -9.148 -23.758   8.780  1.00  0.00     0.165 HD
HETATM   27  C12 UNL     1      -7.935 -21.667   7.285  1.00  0.00     0.068 C 
HETATM   28  C13 UNL     1      -6.184 -23.477   7.760  1.00  0.00    -0.005 A 
HETATM   29  C14 UNL     1      -5.015 -22.861   7.083  1.00  0.00     0.053 C 
ENDBRANCH  21  22
ENDBRANCH  20  21
ENDBRANCH  15  20
BRANCH  17  30
HETATM   30  C16 UNL     1      -4.956 -28.966  10.159  1.00  0.00     0.076 C 
HETATM   31  C17 UNL     1      -5.952 -29.729   9.303  1.00  0.00     0.021 C 
HETATM   32  C18 UNL     1      -7.301 -29.811   9.975  1.00  0.00     0.046 C 
HETATM   33  C19 UNL     1      -7.780 -28.374  10.032  1.00  0.00     0.062 C 
HETATM   34  N4  UNL     1      -6.942 -27.622  10.865  1.00  0.00    -0.377 N 
HETATM   35  C20 UNL     1      -7.501 -27.237  12.137  1.00  0.00     0.154 C 
HETATM   36  C21 UNL     1      -5.561 -27.840  10.906  1.00  0.00     0.073 C 
ENDBRANCH  17  30
ENDBRANCH   6  13
TORSDOF 6
ENDMDL
