MODEL 1
REMARK VINA RESULT: -7.992480548      0.000      0.000
REMARK  13 active torsions:
REMARK  status: ('A' for Active; 'I' for Inactive)
REMARK    1  A    between atoms: O1_2  and  C2_3 
REMARK    2  A    between atoms: C2_3  and  C3_4 
REMARK    3  A    between atoms: C4_5  and  O2_6 
REMARK    4  A    between atoms: O2_6  and  C5_7 
REMARK    5  A    between atoms: C5_7  and  C6_8 
REMARK    6  A    between atoms: C6_8  and  C7_9 
REMARK    7  A    between atoms: C7_9  and  C8_10 
REMARK    8  A    between atoms: C11_13  and  N1_15 
REMARK    9  A    between atoms: C16_24  and  C17_25 
REMARK   10  A    between atoms: C17_25  and  O5_27 
REMARK   11  A    between atoms: C19_29  and  O6_30 
REMARK   12  A    between atoms: C19_29  and  N2_32 
REMARK   13  A    between atoms: N2_32  and  N3_34 
ROOT
HETATM    1  C8  UNL     1      18.623  -6.301 -30.424  1.00  0.00     0.006 C 
HETATM    2  C9  UNL     1      17.441  -6.220 -31.294  1.00  0.00     0.024 C 
HETATM    3  C10 UNL     1      17.467  -6.292 -32.734  1.00  0.00     0.075 C 
HETATM    4  C11 UNL     1      16.651  -5.073 -33.193  1.00  0.00     0.221 C 
HETATM    5  C12 UNL     1      15.214  -5.437 -33.485  1.00  0.00     0.078 C 
HETATM    6  O3  UNL     1      16.742  -4.170 -32.125  1.00  0.00    -0.348 OA
HETATM    7  C13 UNL     1      16.616  -4.985 -30.998  1.00  0.00     0.136 C 
HETATM    8  C14 UNL     1      17.053  -4.227 -29.791  1.00  0.00     0.111 C 
HETATM    9  C15 UNL     1      18.495  -3.971 -29.896  1.00  0.00     0.136 C 
HETATM   10  O4  UNL     1      18.919  -2.841 -29.819  1.00  0.00    -0.297 OA
HETATM   11  C16 UNL     1      19.441  -5.123 -30.101  1.00  0.00     0.088 C 
ENDROOT
BRANCH   1  12
HETATM   12  C7  UNL     1      19.327  -7.637 -30.397  1.00  0.00     0.013 C 
BRANCH  12  13
HETATM   13  C6  UNL     1      19.574  -8.233 -29.056  1.00  0.00     0.070 C 
BRANCH  13  14
HETATM   14  C5  UNL     1      20.731  -9.160 -29.226  1.00  0.00     0.104 C 
HETATM   15  C19 UNL     1      20.561 -10.446 -29.450  1.00  0.00     0.184 C 
BRANCH  14  16
HETATM   16  O2  UNL     1      22.011  -8.658 -29.146  1.00  0.00    -0.323 OA
BRANCH  16  17
HETATM   17  C4  UNL     1      22.369  -7.785 -28.139  1.00  0.00     0.140 C 
HETATM   18  C3  UNL     1      23.397  -6.986 -28.304  1.00  0.00     0.024 C 
BRANCH  18  19
HETATM   19  C2  UNL     1      23.815  -6.024 -27.230  1.00  0.00     0.196 C 
BRANCH  19  20
HETATM   20  O1  UNL     1      24.535  -5.013 -27.869  1.00  0.00    -0.392 OA
HETATM   21  C1  UNL     1      24.213  -3.778 -27.333  1.00  0.00     0.201 C 
ENDBRANCH  19  20
ENDBRANCH  18  19
ENDBRANCH  16  17
ENDBRANCH  14  16
BRANCH  15  22
HETATM   22  O6  UNL     1      19.255 -10.968 -29.533  1.00  0.00    -0.343 OA
ATOM     23  H6  UNL     1      18.937 -11.303 -30.363  1.00  0.00     0.219 HD
ENDBRANCH  15  22
BRANCH  15  24
HETATM   24  N2  UNL     1      21.651 -11.338 -29.613  1.00  0.00    -0.285 N 
ATOM     25  H2  UNL     1      21.840 -11.720 -30.539  1.00  0.00     0.188 HD
BRANCH  24  26
HETATM   26  N3  UNL     1      22.473 -11.709 -28.552  1.00  0.00    -0.343 N 
ATOM     27  H32 UNL     1      23.288 -12.285 -28.759  1.00  0.00     0.176 HD
ATOM     28  H31 UNL     1      22.284 -11.424 -27.590  1.00  0.00     0.176 HD
ENDBRANCH  24  26
ENDBRANCH  15  24
ENDBRANCH  13  14
ENDBRANCH  12  13
ENDBRANCH   1  12
BRANCH  11  29
HETATM   29  C17 UNL     1      20.626  -4.700 -30.821  1.00  0.00     0.125 C 
HETATM   30  C18 UNL     1      21.804  -4.181 -30.043  1.00  0.00     0.040 C 
BRANCH  29  31
HETATM   31  O5  UNL     1      20.441  -3.872 -31.925  1.00  0.00    -0.395 OA
ATOM     32  H5  UNL     1      21.061  -3.163 -32.048  1.00  0.00     0.210 HD
ENDBRANCH  29  31
ENDBRANCH  11  29
BRANCH   4  33
HETATM   33  N1  UNL     1      17.246  -4.431 -34.344  1.00  0.00    -0.047 N 
ATOM     34  H13 UNL     1      18.230  -4.679 -34.441  1.00  0.00     0.278 HD
ATOM     35  H12 UNL     1      16.894  -4.830 -35.214  1.00  0.00     0.278 HD
ATOM     36  H11 UNL     1      17.118  -3.419 -34.322  1.00  0.00     0.278 HD
ENDBRANCH   4  33
TORSDOF 13
ENDMDL
MODEL 2
REMARK VINA RESULT: -7.802492222      2.073      3.062
REMARK  13 active torsions:
REMARK  status: ('A' for Active; 'I' for Inactive)
REMARK    1  A    between atoms: O1_2  and  C2_3 
REMARK    2  A    between atoms: C2_3  and  C3_4 
REMARK    3  A    between atoms: C4_5  and  O2_6 
REMARK    4  A    between atoms: O2_6  and  C5_7 
REMARK    5  A    between atoms: C5_7  and  C6_8 
REMARK    6  A    between atoms: C6_8  and  C7_9 
REMARK    7  A    between atoms: C7_9  and  C8_10 
REMARK    8  A    between atoms: C11_13  and  N1_15 
REMARK    9  A    between atoms: C16_24  and  C17_25 
REMARK   10  A    between atoms: C17_25  and  O5_27 
REMARK   11  A    between atoms: C19_29  and  O6_30 
REMARK   12  A    between atoms: C19_29  and  N2_32 
REMARK   13  A    between atoms: N2_32  and  N3_34 
ROOT
HETATM    1  C8  UNL     1      16.918  -5.384 -31.073  1.00  0.00     0.006 C 
HETATM    2  C9  UNL     1      17.359  -6.053 -32.305  1.00  0.00     0.024 C 
HETATM    3  C10 UNL     1      18.715  -6.073 -32.796  1.00  0.00     0.075 C 
HETATM    4  C11 UNL     1      18.598  -5.633 -34.263  1.00  0.00     0.221 C 
HETATM    5  C12 UNL     1      18.542  -6.816 -35.202  1.00  0.00     0.078 C 
HETATM    6  O3  UNL     1      17.411  -4.887 -34.310  1.00  0.00    -0.348 OA
HETATM    7  C13 UNL     1      16.538  -5.615 -33.500  1.00  0.00     0.136 C 
HETATM    8  C14 UNL     1      15.360  -4.767 -33.161  1.00  0.00     0.111 C 
HETATM    9  C15 UNL     1      15.811  -3.659 -32.307  1.00  0.00     0.136 C 
HETATM   10  O4  UNL     1      15.580  -2.516 -32.625  1.00  0.00    -0.297 OA
HETATM   11  C16 UNL     1      16.563  -3.958 -31.038  1.00  0.00     0.088 C 
ENDROOT
BRANCH   1  12
HETATM   12  C7  UNL     1      17.431  -5.980 -29.783  1.00  0.00     0.013 C 
BRANCH  12  13
HETATM   13  C6  UNL     1      17.173  -7.430 -29.570  1.00  0.00     0.070 C 
BRANCH  13  14
HETATM   14  C5  UNL     1      18.482  -8.026 -29.173  1.00  0.00     0.104 C 
HETATM   15  C19 UNL     1      18.671  -9.328 -29.149  1.00  0.00     0.184 C 
BRANCH  14  16
HETATM   16  O2  UNL     1      19.520  -7.192 -28.822  1.00  0.00    -0.323 OA
BRANCH  16  17
HETATM   17  C4  UNL     1      20.809  -7.447 -29.243  1.00  0.00     0.140 C 
HETATM   18  C3  UNL     1      21.824  -7.038 -28.519  1.00  0.00     0.024 C 
BRANCH  18  19
HETATM   19  C2  UNL     1      23.240  -7.297 -28.946  1.00  0.00     0.196 C 
BRANCH  19  20
HETATM   20  O1  UNL     1      23.290  -8.633 -29.345  1.00  0.00    -0.392 OA
HETATM   21  C1  UNL     1      23.829  -9.418 -28.341  1.00  0.00     0.201 C 
ENDBRANCH  19  20
ENDBRANCH  18  19
ENDBRANCH  16  17
ENDBRANCH  14  16
BRANCH  15  22
HETATM   22  O6  UNL     1      17.613 -10.189 -29.506  1.00  0.00    -0.343 OA
ATOM     23  H6  UNL     1      17.319 -10.848 -28.889  1.00  0.00     0.219 HD
ENDBRANCH  15  22
BRANCH  15  24
HETATM   24  N2  UNL     1      19.909  -9.908 -28.774  1.00  0.00    -0.285 N 
ATOM     25  H2  UNL     1      20.502  -9.414 -28.107  1.00  0.00     0.188 HD
BRANCH  24  26
HETATM   26  N3  UNL     1      20.344 -11.128 -29.284  1.00  0.00    -0.343 N 
ATOM     27  H32 UNL     1      20.191 -11.312 -30.276  1.00  0.00     0.176 HD
ATOM     28  H31 UNL     1      20.802 -11.830 -28.703  1.00  0.00     0.176 HD
ENDBRANCH  24  26
ENDBRANCH  15  24
ENDBRANCH  13  14
ENDBRANCH  12  13
ENDBRANCH   1  12
BRANCH  11  29
HETATM   29  C17 UNL     1      17.465  -2.874 -30.703  1.00  0.00     0.125 C 
HETATM   30  C18 UNL     1      17.013  -1.827 -29.722  1.00  0.00     0.040 C 
BRANCH  29  31
HETATM   31  O5  UNL     1      18.107  -2.229 -31.756  1.00  0.00    -0.395 OA
ATOM     32  H5  UNL     1      17.572  -1.701 -32.337  1.00  0.00     0.210 HD
ENDBRANCH  29  31
ENDBRANCH  11  29
BRANCH   4  33
HETATM   33  N1  UNL     1      19.673  -4.745 -34.645  1.00  0.00    -0.047 N 
ATOM     34  H13 UNL     1      20.297  -4.557 -33.860  1.00  0.00     0.278 HD
ATOM     35  H12 UNL     1      20.334  -5.209 -35.267  1.00  0.00     0.278 HD
ATOM     36  H11 UNL     1      19.322  -3.879 -35.055  1.00  0.00     0.278 HD
ENDBRANCH   4  33
TORSDOF 13
ENDMDL
MODEL 3
REMARK VINA RESULT: -7.777646894      1.635      2.562
REMARK  13 active torsions:
REMARK  status: ('A' for Active; 'I' for Inactive)
REMARK    1  A    between atoms: O1_2  and  C2_3 
REMARK    2  A    between atoms: C2_3  and  C3_4 
REMARK    3  A    between atoms: C4_5  and  O2_6 
REMARK    4  A    between atoms: O2_6  and  C5_7 
REMARK    5  A    between atoms: C5_7  and  C6_8 
REMARK    6  A    between atoms: C6_8  and  C7_9 
REMARK    7  A    between atoms: C7_9  and  C8_10 
REMARK    8  A    between atoms: C11_13  and  N1_15 
REMARK    9  A    between atoms: C16_24  and  C17_25 
REMARK   10  A    between atoms: C17_25  and  O5_27 
REMARK   11  A    between atoms: C19_29  and  O6_30 
REMARK   12  A    between atoms: C19_29  and  N2_32 
REMARK   13  A    between atoms: N2_32  and  N3_34 
ROOT
HETATM    1  C8  UNL     1      17.253  -5.531 -30.937  1.00  0.00     0.006 C 
HETATM    2  C9  UNL     1      17.658  -6.169 -32.198  1.00  0.00     0.024 C 
HETATM    3  C10 UNL     1      18.971  -6.076 -32.789  1.00  0.00     0.075 C 
HETATM    4  C11 UNL     1      18.706  -5.659 -34.244  1.00  0.00     0.221 C 
HETATM    5  C12 UNL     1      18.683  -6.850 -35.175  1.00  0.00     0.078 C 
HETATM    6  O3  UNL     1      17.459  -5.020 -34.203  1.00  0.00    -0.348 OA
HETATM    7  C13 UNL     1      16.715  -5.814 -33.329  1.00  0.00     0.136 C 
HETATM    8  C14 UNL     1      15.496  -5.068 -32.903  1.00  0.00     0.111 C 
HETATM    9  C15 UNL     1      15.911  -3.919 -32.088  1.00  0.00     0.136 C 
HETATM   10  O4  UNL     1      15.558  -2.803 -32.389  1.00  0.00    -0.297 OA
HETATM   11  C16 UNL     1      16.779  -4.141 -30.878  1.00  0.00     0.088 C 
ENDROOT
BRANCH   1  12
HETATM   12  C7  UNL     1      17.912  -6.071 -29.689  1.00  0.00     0.013 C 
BRANCH  12  13
HETATM   13  C6  UNL     1      17.717  -7.518 -29.405  1.00  0.00     0.070 C 
BRANCH  13  14
HETATM   14  C5  UNL     1      19.075  -8.135 -29.466  1.00  0.00     0.104 C 
HETATM   15  C19 UNL     1      19.253  -9.432 -29.334  1.00  0.00     0.184 C 
BRANCH  14  16
HETATM   16  O2  UNL     1      20.171  -7.325 -29.666  1.00  0.00    -0.323 OA
BRANCH  16  17
HETATM   17  C4  UNL     1      21.234  -7.340 -28.787  1.00  0.00     0.140 C 
HETATM   18  C3  UNL     1      22.149  -6.402 -28.855  1.00  0.00     0.024 C 
BRANCH  18  19
HETATM   19  C2  UNL     1      23.320  -6.387 -27.915  1.00  0.00     0.196 C 
BRANCH  19  20
HETATM   20  O1  UNL     1      23.158  -5.262 -27.106  1.00  0.00    -0.392 OA
HETATM   21  C1  UNL     1      23.972  -4.231 -27.542  1.00  0.00     0.201 C 
ENDBRANCH  19  20
ENDBRANCH  18  19
ENDBRANCH  16  17
ENDBRANCH  14  16
BRANCH  15  22
HETATM   22  O6  UNL     1      18.136 -10.267 -29.129  1.00  0.00    -0.343 OA
ATOM     23  H6  UNL     1      18.200 -11.192 -29.337  1.00  0.00     0.219 HD
ENDBRANCH  15  22
BRANCH  15  24
HETATM   24  N2  UNL     1      20.537 -10.030 -29.390  1.00  0.00    -0.285 N 
ATOM     25  H2  UNL     1      21.273  -9.674 -28.781  1.00  0.00     0.188 HD
BRANCH  24  26
HETATM   26  N3  UNL     1      20.827 -11.088 -30.249  1.00  0.00    -0.343 N 
ATOM     27  H32 UNL     1      20.516 -11.015 -31.217  1.00  0.00     0.176 HD
ATOM     28  H31 UNL     1      21.334 -11.918 -29.939  1.00  0.00     0.176 HD
ENDBRANCH  24  26
ENDBRANCH  15  24
ENDBRANCH  13  14
ENDBRANCH  12  13
ENDBRANCH   1  12
BRANCH  11  29
HETATM   29  C17 UNL     1      17.605  -2.981 -30.614  1.00  0.00     0.125 C 
HETATM   30  C18 UNL     1      17.133  -1.963 -29.612  1.00  0.00     0.040 C 
BRANCH  29  31
HETATM   31  O5  UNL     1      18.119  -2.297 -31.713  1.00  0.00    -0.395 OA
ATOM     32  H5  UNL     1      17.686  -1.490 -31.966  1.00  0.00     0.210 HD
ENDBRANCH  29  31
ENDBRANCH  11  29
BRANCH   4  33
HETATM   33  N1  UNL     1      19.668  -4.684 -34.707  1.00  0.00    -0.047 N 
ATOM     34  H13 UNL     1      19.211  -3.819 -34.997  1.00  0.00     0.278 HD
ATOM     35  H12 UNL     1      20.226  -4.319 -33.936  1.00  0.00     0.278 HD
ATOM     36  H11 UNL     1      20.259  -5.058 -35.450  1.00  0.00     0.278 HD
ENDBRANCH   4  33
TORSDOF 13
ENDMDL
MODEL 4
REMARK VINA RESULT: -7.721041721      0.987      1.040
REMARK  13 active torsions:
REMARK  status: ('A' for Active; 'I' for Inactive)
REMARK    1  A    between atoms: O1_2  and  C2_3 
REMARK    2  A    between atoms: C2_3  and  C3_4 
REMARK    3  A    between atoms: C4_5  and  O2_6 
REMARK    4  A    between atoms: O2_6  and  C5_7 
REMARK    5  A    between atoms: C5_7  and  C6_8 
REMARK    6  A    between atoms: C6_8  and  C7_9 
REMARK    7  A    between atoms: C7_9  and  C8_10 
REMARK    8  A    between atoms: C11_13  and  N1_15 
REMARK    9  A    between atoms: C16_24  and  C17_25 
REMARK   10  A    between atoms: C17_25  and  O5_27 
REMARK   11  A    between atoms: C19_29  and  O6_30 
REMARK   12  A    between atoms: C19_29  and  N2_32 
REMARK   13  A    between atoms: N2_32  and  N3_34 
ROOT
HETATM    1  C8  UNL     1      17.889  -6.038 -30.574  1.00  0.00     0.006 C 
HETATM    2  C9  UNL     1      16.879  -5.750 -31.603  1.00  0.00     0.024 C 
HETATM    3  C10 UNL     1      17.073  -5.915 -33.023  1.00  0.00     0.075 C 
HETATM    4  C11 UNL     1      16.626  -4.576 -33.629  1.00  0.00     0.221 C 
HETATM    5  C12 UNL     1      15.193  -4.627 -34.107  1.00  0.00     0.078 C 
HETATM    6  O3  UNL     1      16.783  -3.651 -32.587  1.00  0.00    -0.348 OA
HETATM    7  C13 UNL     1      16.329  -4.345 -31.464  1.00  0.00     0.136 C 
HETATM    8  C14 UNL     1      16.770  -3.631 -30.233  1.00  0.00     0.111 C 
HETATM    9  C15 UNL     1      18.234  -3.711 -30.143  1.00  0.00     0.136 C 
HETATM   10  O4  UNL     1      18.892  -2.701 -30.043  1.00  0.00    -0.297 OA
HETATM   11  C16 UNL     1      18.908  -5.056 -30.178  1.00  0.00     0.088 C 
ENDROOT
BRANCH   1  12
HETATM   12  C7  UNL     1      18.258  -7.494 -30.408  1.00  0.00     0.013 C 
BRANCH  12  13
HETATM   13  C6  UNL     1      18.647  -7.930 -29.040  1.00  0.00     0.070 C 
BRANCH  13  14
HETATM   14  C5  UNL     1      19.667  -9.003 -29.225  1.00  0.00     0.104 C 
HETATM   15  C19 UNL     1      19.353 -10.279 -29.151  1.00  0.00     0.184 C 
BRANCH  14  16
HETATM   16  O2  UNL     1      20.974  -8.649 -29.481  1.00  0.00    -0.323 OA
BRANCH  16  17
HETATM   17  C4  UNL     1      21.800  -8.207 -28.469  1.00  0.00     0.140 C 
HETATM   18  C3  UNL     1      23.069  -7.981 -28.716  1.00  0.00     0.024 C 
BRANCH  18  19
HETATM   19  C2  UNL     1      23.999  -7.500 -27.640  1.00  0.00     0.196 C 
BRANCH  19  20
HETATM   20  O1  UNL     1      24.624  -6.359 -28.144  1.00  0.00    -0.392 OA
HETATM   21  C1  UNL     1      24.076  -5.219 -27.582  1.00  0.00     0.201 C 
ENDBRANCH  19  20
ENDBRANCH  18  19
ENDBRANCH  16  17
ENDBRANCH  14  16
BRANCH  15  22
HETATM   22  O6  UNL     1      18.018 -10.649 -28.888  1.00  0.00    -0.343 OA
ATOM     23  H6  UNL     1      17.774 -10.927 -28.013  1.00  0.00     0.219 HD
ENDBRANCH  15  22
BRANCH  15  24
HETATM   24  N2  UNL     1      20.312 -11.308 -29.325  1.00  0.00    -0.285 N 
ATOM     25  H2  UNL     1      20.393 -12.031 -28.611  1.00  0.00     0.188 HD
BRANCH  24  26
HETATM   26  N3  UNL     1      21.148 -11.364 -30.437  1.00  0.00    -0.343 N 
ATOM     27  H32 UNL     1      22.063 -11.799 -30.324  1.00  0.00     0.176 HD
ATOM     28  H31 UNL     1      20.873 -10.989 -31.346  1.00  0.00     0.176 HD
ENDBRANCH  24  26
ENDBRANCH  15  24
ENDBRANCH  13  14
ENDBRANCH  12  13
ENDBRANCH   1  12
BRANCH  11  29
HETATM   29  C17 UNL     1      20.240  -4.953 -30.738  1.00  0.00     0.125 C 
HETATM   30  C18 UNL     1      21.406  -4.747 -29.810  1.00  0.00     0.040 C 
BRANCH  29  31
HETATM   31  O5  UNL     1      20.409  -4.113 -31.836  1.00  0.00    -0.395 OA
ATOM     32  H5  UNL     1      20.991  -4.409 -32.526  1.00  0.00     0.210 HD
ENDBRANCH  29  31
ENDBRANCH  11  29
BRANCH   4  33
HETATM   33  N1  UNL     1      17.495  -4.156 -34.705  1.00  0.00    -0.047 N 
ATOM     34  H13 UNL     1      17.000  -4.140 -35.597  1.00  0.00     0.278 HD
ATOM     35  H12 UNL     1      17.724  -3.165 -34.632  1.00  0.00     0.278 HD
ATOM     36  H11 UNL     1      18.337  -4.729 -34.758  1.00  0.00     0.278 HD
ENDBRANCH   4  33
TORSDOF 13
ENDMDL
MODEL 5
REMARK VINA RESULT: -7.685034896      2.110      3.272
REMARK  13 active torsions:
REMARK  status: ('A' for Active; 'I' for Inactive)
REMARK    1  A    between atoms: O1_2  and  C2_3 
REMARK    2  A    between atoms: C2_3  and  C3_4 
REMARK    3  A    between atoms: C4_5  and  O2_6 
REMARK    4  A    between atoms: O2_6  and  C5_7 
REMARK    5  A    between atoms: C5_7  and  C6_8 
REMARK    6  A    between atoms: C6_8  and  C7_9 
REMARK    7  A    between atoms: C7_9  and  C8_10 
REMARK    8  A    between atoms: C11_13  and  N1_15 
REMARK    9  A    between atoms: C16_24  and  C17_25 
REMARK   10  A    between atoms: C17_25  and  O5_27 
REMARK   11  A    between atoms: C19_29  and  O6_30 
REMARK   12  A    between atoms: C19_29  and  N2_32 
REMARK   13  A    between atoms: N2_32  and  N3_34 
ROOT
HETATM    1  C8  UNL     1      16.642  -5.266 -31.436  1.00  0.00     0.006 C 
HETATM    2  C9  UNL     1      17.116  -5.965 -32.639  1.00  0.00     0.024 C 
HETATM    3  C10 UNL     1      18.496  -6.069 -33.047  1.00  0.00     0.075 C 
HETATM    4  C11 UNL     1      18.494  -5.627 -34.519  1.00  0.00     0.221 C 
HETATM    5  C12 UNL     1      18.424  -6.808 -35.459  1.00  0.00     0.078 C 
HETATM    6  O3  UNL     1      17.359  -4.812 -34.638  1.00  0.00    -0.348 OA
HETATM    7  C13 UNL     1      16.396  -5.484 -33.882  1.00  0.00     0.136 C 
HETATM    8  C14 UNL     1      15.253  -4.565 -33.615  1.00  0.00     0.111 C 
HETATM    9  C15 UNL     1      15.717  -3.483 -32.736  1.00  0.00     0.136 C 
HETATM   10  O4  UNL     1      15.575  -2.329 -33.067  1.00  0.00    -0.297 OA
HETATM   11  C16 UNL     1      16.372  -3.822 -31.424  1.00  0.00     0.088 C 
ENDROOT
BRANCH   1  12
HETATM   12  C7  UNL     1      17.040  -5.887 -30.118  1.00  0.00     0.013 C 
BRANCH  12  13
HETATM   13  C6  UNL     1      16.928  -7.368 -30.018  1.00  0.00     0.070 C 
BRANCH  13  14
HETATM   14  C5  UNL     1      18.172  -7.828 -29.334  1.00  0.00     0.104 C 
HETATM   15  C19 UNL     1      18.427  -9.105 -29.146  1.00  0.00     0.184 C 
BRANCH  14  16
HETATM   16  O2  UNL     1      19.078  -6.892 -28.887  1.00  0.00    -0.323 OA
BRANCH  16  17
HETATM   17  C4  UNL     1      19.989  -6.317 -29.749  1.00  0.00     0.140 C 
HETATM   18  C3  UNL     1      20.309  -5.052 -29.610  1.00  0.00     0.024 C 
BRANCH  18  19
HETATM   19  C2  UNL     1      21.297  -4.394 -30.529  1.00  0.00     0.196 C 
BRANCH  19  20
HETATM   20  O1  UNL     1      22.177  -3.682 -29.714  1.00  0.00    -0.392 OA
HETATM   21  C1  UNL     1      23.241  -4.483 -29.336  1.00  0.00     0.201 C 
ENDBRANCH  19  20
ENDBRANCH  18  19
ENDBRANCH  16  17
ENDBRANCH  14  16
BRANCH  15  22
HETATM   22  O6  UNL     1      17.505 -10.070 -29.601  1.00  0.00    -0.343 OA
ATOM     23  H6  UNL     1      17.789 -10.969 -29.719  1.00  0.00     0.219 HD
ENDBRANCH  15  22
BRANCH  15  24
HETATM   24  N2  UNL     1      19.604  -9.556 -28.498  1.00  0.00    -0.285 N 
ATOM     25  H2  UNL     1      19.562  -9.789 -27.506  1.00  0.00     0.188 HD
BRANCH  24  26
HETATM   26  N3  UNL     1      20.817  -9.693 -29.170  1.00  0.00    -0.343 N 
ATOM     27  H32 UNL     1      20.928  -9.203 -30.057  1.00  0.00     0.176 HD
ATOM     28  H31 UNL     1      21.582 -10.261 -28.803  1.00  0.00     0.176 HD
ENDBRANCH  24  26
ENDBRANCH  15  24
ENDBRANCH  13  14
ENDBRANCH  12  13
ENDBRANCH   1  12
BRANCH  11  29
HETATM   29  C17 UNL     1      17.315  -2.792 -31.035  1.00  0.00     0.125 C 
HETATM   30  C18 UNL     1      16.862  -1.705 -30.100  1.00  0.00     0.040 C 
BRANCH  29  31
HETATM   31  O5  UNL     1      18.072  -2.204 -32.045  1.00  0.00    -0.395 OA
ATOM     32  H5  UNL     1      19.004  -2.108 -31.892  1.00  0.00     0.210 HD
ENDBRANCH  29  31
ENDBRANCH  11  29
BRANCH   4  33
HETATM   33  N1  UNL     1      19.642  -4.806 -34.835  1.00  0.00    -0.047 N 
ATOM     34  H13 UNL     1      20.351  -4.861 -34.104  1.00  0.00     0.278 HD
ATOM     35  H12 UNL     1      20.178  -5.201 -35.607  1.00  0.00     0.278 HD
ATOM     36  H11 UNL     1      19.376  -3.840 -35.024  1.00  0.00     0.278 HD
ENDBRANCH   4  33
TORSDOF 13
ENDMDL
