MODEL 1
REMARK VINA RESULT: -7.402198429      0.000      0.000
REMARK  16 active torsions:
REMARK  status: ('A' for Active; 'I' for Inactive)
REMARK    1  A    between atoms: C2_2  and  C3_3 
REMARK    2  A    between atoms: C3_3  and  C4_4 
REMARK    3  A    between atoms: C4_4  and  C5_5 
REMARK    4  A    between atoms: C5_5  and  C6_6 
REMARK    5  A    between atoms: C6_6  and  O2_8 
REMARK    6  A    between atoms: O2_8  and  C7_9 
REMARK    7  A    between atoms: C9_11  and  C10_12 
REMARK    8  A    between atoms: C10_12  and  O3_13 
REMARK    9  A    between atoms: O3_13  and  C11_14 
REMARK   10  A    between atoms: C12_17  and  O6_18 
REMARK   11  A    between atoms: O6_18  and  C13_19 
REMARK   12  A    between atoms: C15_22  and  O8_23 
REMARK   13  A    between atoms: O8_23  and  C16_24 
REMARK   14  A    between atoms: C16_24  and  C17_26 
REMARK   15  A    between atoms: C19_28  and  O10_29 
REMARK   16  A    between atoms: O10_29  and  C20_30 
ROOT
HETATM    1  C7  UNL     1      19.519  -5.566  17.134  1.00  0.00     0.164 C 
HETATM    2  C8  UNL     1      18.089  -5.416  17.673  1.00  0.00     0.044 C 
HETATM    3  C9  UNL     1      17.921  -4.014  18.272  1.00  0.00     0.045 C 
HETATM    4  C12 UNL     1      18.948  -3.777  19.329  1.00  0.00     0.170 C 
HETATM    5  C15 UNL     1      20.343  -3.893  18.677  1.00  0.00     0.194 C 
HETATM    6  C19 UNL     1      20.442  -5.362  18.282  1.00  0.00     0.193 C 
ENDROOT
BRANCH   1   7
HETATM    7  O2  UNL     1      19.600  -6.857  16.566  1.00  0.00    -0.313 OA
BRANCH   7   8
HETATM    8  C6  UNL     1      19.506  -6.977  15.199  1.00  0.00     0.259 C 
HETATM    9  O1  UNL     1      18.688  -6.326  14.509  1.00  0.00    -0.265 OA
BRANCH   8  10
HETATM   10  C5  UNL     1      20.401  -7.926  14.406  1.00  0.00     0.111 C 
BRANCH  10  11
HETATM   11  C4  UNL     1      19.961  -7.980  12.993  1.00  0.00     0.010 C 
BRANCH  11  12
HETATM   12  C3  UNL     1      20.554  -9.098  12.225  1.00  0.00     0.000 C 
BRANCH  12  13
HETATM   13  C2  UNL     1      20.352  -9.155  10.757  1.00  0.00    -0.005 C 
HETATM   14  C1  UNL     1      21.079  -8.193   9.904  1.00  0.00     0.005 C 
ENDBRANCH  12  13
ENDBRANCH  11  12
ENDBRANCH  10  11
ENDBRANCH   8  10
ENDBRANCH   7   8
ENDBRANCH   1   7
BRANCH   6  15
HETATM   15  O10 UNL     1      21.761  -5.768  18.052  1.00  0.00    -0.311 OA
BRANCH  15  16
HETATM   16  C20 UNL     1      22.420  -6.730  18.791  1.00  0.00     0.255 C 
HETATM   17  C21 UNL     1      23.789  -6.431  19.276  1.00  0.00     0.126 C 
HETATM   18  O11 UNL     1      21.812  -7.806  19.006  1.00  0.00    -0.266 OA
ENDBRANCH  15  16
ENDBRANCH   6  15
BRANCH   3  19
HETATM   19  C10 UNL     1      16.553  -4.017  18.898  1.00  0.00     0.189 C 
BRANCH  19  20
HETATM   20  O3  UNL     1      15.478  -4.034  18.013  1.00  0.00    -0.295 OA
BRANCH  20  21
HETATM   21  C11 UNL     1      15.187  -2.988  17.186  1.00  0.00     0.332 C 
HETATM   22  O4  UNL     1      15.295  -1.792  17.537  1.00  0.00    -0.624 OA
HETATM   23  O5  UNL     1      14.745  -3.217  15.871  1.00  0.00    -0.624 OA
ENDBRANCH  20  21
ENDBRANCH  19  20
ENDBRANCH   3  19
BRANCH   5  24
HETATM   24  O8  UNL     1      21.344  -3.491  19.549  1.00  0.00    -0.311 OA
BRANCH  24  25
HETATM   25  C16 UNL     1      22.062  -2.331  19.291  1.00  0.00     0.259 C 
HETATM   26  O9  UNL     1      21.687  -1.235  19.800  1.00  0.00    -0.265 OA
BRANCH  25  27
HETATM   27  C17 UNL     1      23.285  -2.361  18.412  1.00  0.00     0.106 C 
HETATM   28  C18 UNL     1      23.618  -0.972  17.978  1.00  0.00     0.015 C 
ENDBRANCH  25  27
ENDBRANCH  24  25
ENDBRANCH   5  24
BRANCH   4  29
HETATM   29  O6  UNL     1      18.781  -2.574  19.983  1.00  0.00    -0.313 OA
BRANCH  29  30
HETATM   30  C13 UNL     1      18.759  -2.558  21.385  1.00  0.00     0.255 C 
HETATM   31  C14 UNL     1      18.919  -3.812  22.177  1.00  0.00     0.126 C 
HETATM   32  O7  UNL     1      18.601  -1.442  21.935  1.00  0.00    -0.266 OA
ENDBRANCH  29  30
ENDBRANCH   4  29
TORSDOF 16
ENDMDL
MODEL 2
REMARK VINA RESULT: -7.337890658      3.515      5.769
REMARK  16 active torsions:
REMARK  status: ('A' for Active; 'I' for Inactive)
REMARK    1  A    between atoms: C2_2  and  C3_3 
REMARK    2  A    between atoms: C3_3  and  C4_4 
REMARK    3  A    between atoms: C4_4  and  C5_5 
REMARK    4  A    between atoms: C5_5  and  C6_6 
REMARK    5  A    between atoms: C6_6  and  O2_8 
REMARK    6  A    between atoms: O2_8  and  C7_9 
REMARK    7  A    between atoms: C9_11  and  C10_12 
REMARK    8  A    between atoms: C10_12  and  O3_13 
REMARK    9  A    between atoms: O3_13  and  C11_14 
REMARK   10  A    between atoms: C12_17  and  O6_18 
REMARK   11  A    between atoms: O6_18  and  C13_19 
REMARK   12  A    between atoms: C15_22  and  O8_23 
REMARK   13  A    between atoms: O8_23  and  C16_24 
REMARK   14  A    between atoms: C16_24  and  C17_26 
REMARK   15  A    between atoms: C19_28  and  O10_29 
REMARK   16  A    between atoms: O10_29  and  C20_30 
ROOT
HETATM    1  C7  UNL     1      18.718  -6.391  12.674  1.00  0.00     0.164 C 
HETATM    2  C8  UNL     1      17.336  -6.328  12.009  1.00  0.00     0.044 C 
HETATM    3  C9  UNL     1      16.706  -4.956  12.283  1.00  0.00     0.045 C 
HETATM    4  C12 UNL     1      16.634  -4.706  13.753  1.00  0.00     0.170 C 
HETATM    5  C15 UNL     1      18.072  -4.733  14.316  1.00  0.00     0.194 C 
HETATM    6  C19 UNL     1      18.510  -6.182  14.133  1.00  0.00     0.193 C 
ENDROOT
BRANCH   1   7
HETATM    7  O2  UNL     1      19.259  -7.656  12.357  1.00  0.00    -0.313 OA
BRANCH   7   8
HETATM    8  C6  UNL     1      20.014  -7.777  11.214  1.00  0.00     0.259 C 
HETATM    9  O1  UNL     1      20.299  -8.882  10.696  1.00  0.00    -0.265 OA
BRANCH   8  10
HETATM   10  C5  UNL     1      20.571  -6.562  10.478  1.00  0.00     0.111 C 
BRANCH  10  11
HETATM   11  C4  UNL     1      21.108  -6.966   9.158  1.00  0.00     0.010 C 
BRANCH  11  12
HETATM   12  C3  UNL     1      22.517  -6.565   8.939  1.00  0.00     0.000 C 
BRANCH  12  13
HETATM   13  C2  UNL     1      22.938  -5.187   9.285  1.00  0.00    -0.005 C 
HETATM   14  C1  UNL     1      24.377  -4.855   9.252  1.00  0.00     0.005 C 
ENDBRANCH  12  13
ENDBRANCH  11  12
ENDBRANCH  10  11
ENDBRANCH   8  10
ENDBRANCH   7   8
ENDBRANCH   1   7
BRANCH   6  15
HETATM   15  O10 UNL     1      19.607  -6.516  14.934  1.00  0.00    -0.311 OA
BRANCH  15  16
HETATM   16  C20 UNL     1      19.572  -7.448  15.953  1.00  0.00     0.255 C 
HETATM   17  C21 UNL     1      20.480  -8.616  15.869  1.00  0.00     0.126 C 
HETATM   18  O11 UNL     1      18.766  -7.242  16.892  1.00  0.00    -0.266 OA
ENDBRANCH  15  16
ENDBRANCH   6  15
BRANCH   3  19
HETATM   19  C10 UNL     1      15.313  -5.047  11.724  1.00  0.00     0.189 C 
BRANCH  19  20
HETATM   20  O3  UNL     1      14.892  -3.963  10.959  1.00  0.00    -0.295 OA
BRANCH  20  21
HETATM   21  C11 UNL     1      14.900  -3.975   9.594  1.00  0.00     0.332 C 
HETATM   22  O4  UNL     1      15.840  -4.459   8.924  1.00  0.00    -0.624 OA
HETATM   23  O5  UNL     1      13.827  -3.432   8.866  1.00  0.00    -0.624 OA
ENDBRANCH  20  21
ENDBRANCH  19  20
ENDBRANCH   3  19
BRANCH   5  24
HETATM   24  O8  UNL     1      18.106  -4.313  15.638  1.00  0.00    -0.311 OA
BRANCH  24  25
HETATM   25  C16 UNL     1      18.979  -3.304  16.021  1.00  0.00     0.259 C 
HETATM   26  O9  UNL     1      19.140  -2.297  15.272  1.00  0.00    -0.265 OA
BRANCH  25  27
HETATM   27  C17 UNL     1      19.737  -3.392  17.319  1.00  0.00     0.106 C 
HETATM   28  C18 UNL     1      18.825  -3.880  18.394  1.00  0.00     0.015 C 
ENDBRANCH  25  27
ENDBRANCH  24  25
ENDBRANCH   5  24
BRANCH   4  29
HETATM   29  O6  UNL     1      15.976  -3.535  14.069  1.00  0.00    -0.313 OA
BRANCH  29  30
HETATM   30  C13 UNL     1      14.864  -3.587  14.920  1.00  0.00     0.255 C 
HETATM   31  C14 UNL     1      14.997  -3.349  16.386  1.00  0.00     0.126 C 
HETATM   32  O7  UNL     1      13.757  -3.843  14.388  1.00  0.00    -0.266 OA
ENDBRANCH  29  30
ENDBRANCH   4  29
TORSDOF 16
ENDMDL
MODEL 3
REMARK VINA RESULT: -7.337405731      1.299      1.556
REMARK  16 active torsions:
REMARK  status: ('A' for Active; 'I' for Inactive)
REMARK    1  A    between atoms: C2_2  and  C3_3 
REMARK    2  A    between atoms: C3_3  and  C4_4 
REMARK    3  A    between atoms: C4_4  and  C5_5 
REMARK    4  A    between atoms: C5_5  and  C6_6 
REMARK    5  A    between atoms: C6_6  and  O2_8 
REMARK    6  A    between atoms: O2_8  and  C7_9 
REMARK    7  A    between atoms: C9_11  and  C10_12 
REMARK    8  A    between atoms: C10_12  and  O3_13 
REMARK    9  A    between atoms: O3_13  and  C11_14 
REMARK   10  A    between atoms: C12_17  and  O6_18 
REMARK   11  A    between atoms: O6_18  and  C13_19 
REMARK   12  A    between atoms: C15_22  and  O8_23 
REMARK   13  A    between atoms: O8_23  and  C16_24 
REMARK   14  A    between atoms: C16_24  and  C17_26 
REMARK   15  A    between atoms: C19_28  and  O10_29 
REMARK   16  A    between atoms: O10_29  and  C20_30 
ROOT
HETATM    1  C7  UNL     1      19.608  -5.734  17.179  1.00  0.00     0.164 C 
HETATM    2  C8  UNL     1      18.161  -5.580  17.667  1.00  0.00     0.044 C 
HETATM    3  C9  UNL     1      17.955  -4.155  18.196  1.00  0.00     0.045 C 
HETATM    4  C12 UNL     1      18.945  -3.856  19.272  1.00  0.00     0.170 C 
HETATM    5  C15 UNL     1      20.362  -3.980  18.669  1.00  0.00     0.194 C 
HETATM    6  C19 UNL     1      20.492  -5.464  18.346  1.00  0.00     0.193 C 
ENDROOT
BRANCH   1   7
HETATM    7  O2  UNL     1      19.725  -7.047  16.674  1.00  0.00    -0.313 OA
BRANCH   7   8
HETATM    8  C6  UNL     1      19.895  -7.215  15.320  1.00  0.00     0.259 C 
HETATM    9  O1  UNL     1      20.835  -7.879  14.825  1.00  0.00    -0.265 OA
BRANCH   8  10
HETATM   10  C5  UNL     1      18.941  -6.598  14.300  1.00  0.00     0.111 C 
BRANCH  10  11
HETATM   11  C4  UNL     1      19.091  -7.271  12.989  1.00  0.00     0.010 C 
BRANCH  11  12
HETATM   12  C3  UNL     1      18.583  -6.475  11.848  1.00  0.00     0.000 C 
BRANCH  12  13
HETATM   13  C2  UNL     1      17.175  -6.013  11.859  1.00  0.00    -0.005 C 
HETATM   14  C1  UNL     1      16.716  -5.111  10.783  1.00  0.00     0.005 C 
ENDBRANCH  12  13
ENDBRANCH  11  12
ENDBRANCH  10  11
ENDBRANCH   8  10
ENDBRANCH   7   8
ENDBRANCH   1   7
BRANCH   6  15
HETATM   15  O10 UNL     1      21.823  -5.861  18.175  1.00  0.00    -0.311 OA
BRANCH  15  16
HETATM   16  C20 UNL     1      22.456  -6.817  18.944  1.00  0.00     0.255 C 
HETATM   17  C21 UNL     1      23.934  -6.774  19.047  1.00  0.00     0.126 C 
HETATM   18  O11 UNL     1      21.731  -7.669  19.512  1.00  0.00    -0.266 OA
ENDBRANCH  15  16
ENDBRANCH   6  15
BRANCH   3  19
HETATM   19  C10 UNL     1      16.568  -4.151  18.779  1.00  0.00     0.189 C 
BRANCH  19  20
HETATM   20  O3  UNL     1      15.522  -4.145  17.861  1.00  0.00    -0.295 OA
BRANCH  20  21
HETATM   21  C11 UNL     1      15.208  -3.053  17.104  1.00  0.00     0.332 C 
HETATM   22  O4  UNL     1      15.320  -1.879  17.525  1.00  0.00    -0.624 OA
HETATM   23  O5  UNL     1      14.737  -3.204  15.788  1.00  0.00    -0.624 OA
ENDBRANCH  20  21
ENDBRANCH  19  20
ENDBRANCH   3  19
BRANCH   5  24
HETATM   24  O8  UNL     1      21.329  -3.524  19.553  1.00  0.00    -0.311 OA
BRANCH  24  25
HETATM   25  C16 UNL     1      21.838  -2.240  19.419  1.00  0.00     0.259 C 
HETATM   26  O9  UNL     1      21.957  -1.503  20.441  1.00  0.00    -0.265 OA
BRANCH  25  27
HETATM   27  C17 UNL     1      22.252  -1.711  18.071  1.00  0.00     0.106 C 
HETATM   28  C18 UNL     1      23.449  -0.834  18.229  1.00  0.00     0.015 C 
ENDBRANCH  25  27
ENDBRANCH  24  25
ENDBRANCH   5  24
BRANCH   4  29
HETATM   29  O6  UNL     1      18.741  -2.626  19.865  1.00  0.00    -0.313 OA
BRANCH  29  30
HETATM   30  C13 UNL     1      18.568  -2.562  21.255  1.00  0.00     0.255 C 
HETATM   31  C14 UNL     1      18.381  -3.795  22.071  1.00  0.00     0.126 C 
HETATM   32  O7  UNL     1      18.579  -1.419  21.772  1.00  0.00    -0.266 OA
ENDBRANCH  29  30
ENDBRANCH   4  29
TORSDOF 16
ENDMDL
MODEL 4
REMARK VINA RESULT: -7.190523691      1.450      1.780
REMARK  16 active torsions:
REMARK  status: ('A' for Active; 'I' for Inactive)
REMARK    1  A    between atoms: C2_2  and  C3_3 
REMARK    2  A    between atoms: C3_3  and  C4_4 
REMARK    3  A    between atoms: C4_4  and  C5_5 
REMARK    4  A    between atoms: C5_5  and  C6_6 
REMARK    5  A    between atoms: C6_6  and  O2_8 
REMARK    6  A    between atoms: O2_8  and  C7_9 
REMARK    7  A    between atoms: C9_11  and  C10_12 
REMARK    8  A    between atoms: C10_12  and  O3_13 
REMARK    9  A    between atoms: O3_13  and  C11_14 
REMARK   10  A    between atoms: C12_17  and  O6_18 
REMARK   11  A    between atoms: O6_18  and  C13_19 
REMARK   12  A    between atoms: C15_22  and  O8_23 
REMARK   13  A    between atoms: O8_23  and  C16_24 
REMARK   14  A    between atoms: C16_24  and  C17_26 
REMARK   15  A    between atoms: C19_28  and  O10_29 
REMARK   16  A    between atoms: O10_29  and  C20_30 
ROOT
HETATM    1  C7  UNL     1      20.368  -6.427  17.785  1.00  0.00     0.164 C 
HETATM    2  C8  UNL     1      18.842  -6.268  17.771  1.00  0.00     0.044 C 
HETATM    3  C9  UNL     1      18.487  -4.784  17.932  1.00  0.00     0.045 C 
HETATM    4  C12 UNL     1      19.097  -4.241  19.181  1.00  0.00     0.170 C 
HETATM    5  C15 UNL     1      20.630  -4.393  19.072  1.00  0.00     0.194 C 
HETATM    6  C19 UNL     1      20.850  -5.902  19.091  1.00  0.00     0.193 C 
ENDROOT
BRANCH   1   7
HETATM    7  O2  UNL     1      20.631  -7.802  17.597  1.00  0.00    -0.313 OA
BRANCH   7   8
HETATM    8  C6  UNL     1      20.700  -8.285  16.311  1.00  0.00     0.259 C 
HETATM    9  O1  UNL     1      21.030  -9.463  16.040  1.00  0.00    -0.265 OA
BRANCH   8  10
HETATM   10  C5  UNL     1      20.377  -7.415  15.099  1.00  0.00     0.111 C 
BRANCH  10  11
HETATM   11  C4  UNL     1      20.430  -8.226  13.861  1.00  0.00     0.010 C 
BRANCH  11  12
HETATM   12  C3  UNL     1      19.588  -7.696  12.764  1.00  0.00     0.000 C 
BRANCH  12  13
HETATM   13  C2  UNL     1      18.621  -6.611  13.054  1.00  0.00    -0.005 C 
HETATM   14  C1  UNL     1      17.625  -6.255  12.024  1.00  0.00     0.005 C 
ENDBRANCH  12  13
ENDBRANCH  11  12
ENDBRANCH  10  11
ENDBRANCH   8  10
ENDBRANCH   7   8
ENDBRANCH   1   7
BRANCH   6  15
HETATM   15  O10 UNL     1      22.167  -6.248  19.411  1.00  0.00    -0.311 OA
BRANCH  15  16
HETATM   16  C20 UNL     1      22.525  -7.045  20.480  1.00  0.00     0.255 C 
HETATM   17  C21 UNL     1      21.793  -6.880  21.758  1.00  0.00     0.126 C 
HETATM   18  O11 UNL     1      23.457  -7.865  20.298  1.00  0.00    -0.266 OA
ENDBRANCH  15  16
ENDBRANCH   6  15
BRANCH   3  19
HETATM   19  C10 UNL     1      16.988  -4.752  18.054  1.00  0.00     0.189 C 
BRANCH  19  20
HETATM   20  O3  UNL     1      16.312  -4.039  17.068  1.00  0.00    -0.295 OA
BRANCH  20  21
HETATM   21  C11 UNL     1      15.500  -2.978  17.348  1.00  0.00     0.332 C 
HETATM   22  O4  UNL     1      15.622  -2.283  18.382  1.00  0.00    -0.624 OA
HETATM   23  O5  UNL     1      14.468  -2.613  16.466  1.00  0.00    -0.624 OA
ENDBRANCH  20  21
ENDBRANCH  19  20
ENDBRANCH   3  19
BRANCH   5  24
HETATM   24  O8  UNL     1      21.279  -3.732  20.105  1.00  0.00    -0.311 OA
BRANCH  24  25
HETATM   25  C16 UNL     1      21.962  -2.551  19.849  1.00  0.00     0.259 C 
HETATM   26  O9  UNL     1      21.789  -1.550  20.605  1.00  0.00    -0.265 OA
BRANCH  25  27
HETATM   27  C17 UNL     1      22.907  -2.443  18.681  1.00  0.00     0.106 C 
HETATM   28  C18 UNL     1      23.124  -1.005  18.350  1.00  0.00     0.015 C 
ENDBRANCH  25  27
ENDBRANCH  24  25
ENDBRANCH   5  24
BRANCH   4  29
HETATM   29  O6  UNL     1      18.724  -2.938  19.440  1.00  0.00    -0.313 OA
BRANCH  29  30
HETATM   30  C13 UNL     1      18.309  -2.593  20.734  1.00  0.00     0.255 C 
HETATM   31  C14 UNL     1      17.891  -3.633  21.717  1.00  0.00     0.126 C 
HETATM   32  O7  UNL     1      18.309  -1.372  21.020  1.00  0.00    -0.266 OA
ENDBRANCH  29  30
ENDBRANCH   4  29
TORSDOF 16
ENDMDL
MODEL 5
REMARK VINA RESULT: -7.136310416      1.661      1.966
REMARK  16 active torsions:
REMARK  status: ('A' for Active; 'I' for Inactive)
REMARK    1  A    between atoms: C2_2  and  C3_3 
REMARK    2  A    between atoms: C3_3  and  C4_4 
REMARK    3  A    between atoms: C4_4  and  C5_5 
REMARK    4  A    between atoms: C5_5  and  C6_6 
REMARK    5  A    between atoms: C6_6  and  O2_8 
REMARK    6  A    between atoms: O2_8  and  C7_9 
REMARK    7  A    between atoms: C9_11  and  C10_12 
REMARK    8  A    between atoms: C10_12  and  O3_13 
REMARK    9  A    between atoms: O3_13  and  C11_14 
REMARK   10  A    between atoms: C12_17  and  O6_18 
REMARK   11  A    between atoms: O6_18  and  C13_19 
REMARK   12  A    between atoms: C15_22  and  O8_23 
REMARK   13  A    between atoms: O8_23  and  C16_24 
REMARK   14  A    between atoms: C16_24  and  C17_26 
REMARK   15  A    between atoms: C19_28  and  O10_29 
REMARK   16  A    between atoms: O10_29  and  C20_30 
ROOT
HETATM    1  C7  UNL     1      20.255  -6.247  18.440  1.00  0.00     0.164 C 
HETATM    2  C8  UNL     1      18.881  -6.149  19.116  1.00  0.00     0.044 C 
HETATM    3  C9  UNL     1      18.534  -4.671  19.343  1.00  0.00     0.045 C 
HETATM    4  C12 UNL     1      19.604  -4.008  20.145  1.00  0.00     0.170 C 
HETATM    5  C15 UNL     1      20.928  -4.110  19.357  1.00  0.00     0.194 C 
HETATM    6  C19 UNL     1      21.238  -5.603  19.354  1.00  0.00     0.193 C 
ENDROOT
BRANCH   1   7
HETATM    7  O2  UNL     1      20.500  -7.621  18.226  1.00  0.00    -0.313 OA
BRANCH   7   8
HETATM    8  C6  UNL     1      20.300  -8.133  16.965  1.00  0.00     0.259 C 
HETATM    9  O1  UNL     1      20.424  -9.350  16.693  1.00  0.00    -0.265 OA
BRANCH   8  10
HETATM   10  C5  UNL     1      19.906  -7.250  15.785  1.00  0.00     0.111 C 
BRANCH  10  11
HETATM   11  C4  UNL     1      20.436  -7.817  14.524  1.00  0.00     0.010 C 
BRANCH  11  12
HETATM   12  C3  UNL     1      19.685  -7.398  13.318  1.00  0.00     0.000 C 
BRANCH  12  13
HETATM   13  C2  UNL     1      18.573  -6.428  13.460  1.00  0.00    -0.005 C 
HETATM   14  C1  UNL     1      17.697  -6.179  12.298  1.00  0.00     0.005 C 
ENDBRANCH  12  13
ENDBRANCH  11  12
ENDBRANCH  10  11
ENDBRANCH   8  10
ENDBRANCH   7   8
ENDBRANCH   1   7
BRANCH   6  15
HETATM   15  O10 UNL     1      22.578  -5.872  19.055  1.00  0.00    -0.311 OA
BRANCH  15  16
HETATM   16  C20 UNL     1      23.379  -6.733  19.779  1.00  0.00     0.255 C 
HETATM   17  C21 UNL     1      24.775  -6.944  19.326  1.00  0.00     0.126 C 
HETATM   18  O11 UNL     1      22.868  -7.286  20.783  1.00  0.00    -0.266 OA
ENDBRANCH  15  16
ENDBRANCH   6  15
BRANCH   3  19
HETATM   19  C10 UNL     1      17.255  -4.686  20.133  1.00  0.00     0.189 C 
BRANCH  19  20
HETATM   20  O3  UNL     1      16.130  -4.188  19.482  1.00  0.00    -0.295 OA
BRANCH  20  21
HETATM   21  C11 UNL     1      15.958  -2.860  19.217  1.00  0.00     0.332 C 
HETATM   22  O4  UNL     1      16.082  -1.971  20.089  1.00  0.00    -0.624 OA
HETATM   23  O5  UNL     1      15.627  -2.425  17.922  1.00  0.00    -0.624 OA
ENDBRANCH  20  21
ENDBRANCH  19  20
ENDBRANCH   3  19
BRANCH   5  24
HETATM   24  O8  UNL     1      21.926  -3.345  19.944  1.00  0.00    -0.311 OA
BRANCH  24  25
HETATM   25  C16 UNL     1      22.364  -2.184  19.322  1.00  0.00     0.259 C 
HETATM   26  O9  UNL     1      21.795  -1.083  19.578  1.00  0.00    -0.265 OA
BRANCH  25  27
HETATM   27  C17 UNL     1      23.509  -2.217  18.344  1.00  0.00     0.106 C 
HETATM   28  C18 UNL     1      23.757  -0.841  17.824  1.00  0.00     0.015 C 
ENDBRANCH  25  27
ENDBRANCH  24  25
ENDBRANCH   5  24
BRANCH   4  29
HETATM   29  O6  UNL     1      19.299  -2.704  20.477  1.00  0.00    -0.313 OA
BRANCH  29  30
HETATM   30  C13 UNL     1      19.324  -2.321  21.825  1.00  0.00     0.255 C 
HETATM   31  C14 UNL     1      20.170  -3.040  22.820  1.00  0.00     0.126 C 
HETATM   32  O7  UNL     1      18.604  -1.346  22.149  1.00  0.00    -0.266 OA
ENDBRANCH  29  30
ENDBRANCH   4  29
TORSDOF 16
ENDMDL
