MODEL 1
REMARK VINA RESULT: -9.620284067      0.000      0.000
REMARK  8 active torsions:
REMARK  status: ('A' for Active; 'I' for Inactive)
REMARK    1  A    between atoms: C2_2  and  O1_3 
REMARK    2  A    between atoms: C2_2  and  C12_34 
REMARK    3  A    between atoms: O1_3  and  N1_4 
REMARK    4  A    between atoms: C3_5  and  C4_6 
REMARK    5  A    between atoms: N4_11  and  N5_12 
REMARK    6  A    between atoms: N5_12  and  C5_14 
REMARK    7  A    between atoms: C6_19  and  C7_20 
REMARK    8  A    between atoms: C13_40  and  N15_41 
ROOT
HETATM    1  C4  UNL     1      34.496  -1.199 -11.930  1.00  0.00     0.141 A 
HETATM    2  N2  UNL     1      33.176  -1.022 -12.112  1.00  0.00    -0.278 N 
ATOM      3  H2  UNL     1      32.438  -1.539 -11.634  1.00  0.00     0.189 HD
HETATM    4  N3  UNL     1      32.989  -0.073 -13.008  1.00  0.00    -0.219 N 
ATOM      5  H3  UNL     1      32.083   0.262 -13.334  1.00  0.00     0.210 HD
HETATM    6  N4  UNL     1      34.173   0.378 -13.420  1.00  0.00    -0.162 N 
HETATM    7  C8  UNL     1      35.130  -0.304 -12.765  1.00  0.00     0.189 A 
HETATM    8  N10 UNL     1      36.528  -0.180 -12.867  1.00  0.00    -0.076 NA
ENDROOT
BRANCH   1   9
HETATM    9  C3  UNL     1      35.128  -2.144 -11.031  1.00  0.00     0.173 C 
HETATM   10  N1  UNL     1      35.004  -2.164  -9.585  1.00  0.00    -0.211 N 
HETATM   11  C9  UNL     1      35.623  -3.359  -9.162  1.00  0.00     0.143 C 
HETATM   12  N12 UNL     1      36.354  -3.839 -10.351  1.00  0.00    -0.106 NA
HETATM   13  C10 UNL     1      34.655  -4.485  -8.831  1.00  0.00     0.062 C 
HETATM   14  C11 UNL     1      36.647  -3.247  -8.080  1.00  0.00     0.062 C 
HETATM   15  N11 UNL     1      35.888  -3.093 -11.405  1.00  0.00    -0.283 N 
ATOM     16  H11 UNL     1      36.124  -3.280 -12.380  1.00  0.00     0.184 HD
BRANCH  10  17
HETATM   17  O1  UNL     1      34.398  -1.189  -8.939  1.00  0.00    -0.263 OA
BRANCH  17  18
HETATM   18  C2  UNL     1      35.154  -0.298  -8.239  1.00  0.00     0.204 C 
HETATM   19  C1  UNL     1      35.994   0.580  -9.192  1.00  0.00     0.049 C 
BRANCH  18  20
HETATM   20  C12 UNL     1      34.298   0.612  -7.465  1.00  0.00     0.110 A 
HETATM   21  N13 UNL     1      32.940   0.532  -7.448  1.00  0.00    -0.239 N 
HETATM   22  O3  UNL     1      32.443   1.452  -6.706  1.00  0.00    -0.155 OA
ATOM     23  H13 UNL     1      32.393  -0.163  -7.954  1.00  0.00     0.196 HD
HETATM   24  N14 UNL     1      33.407   2.160  -6.213  1.00  0.00    -0.224 N 
HETATM   25  C13 UNL     1      34.581   1.681  -6.653  1.00  0.00     0.148 A 
ATOM     26  H14 UNL     1      33.293   2.958  -5.589  1.00  0.00     0.198 HD
BRANCH  25  27
HETATM   27  N15 UNL     1      35.740   2.120  -6.366  1.00  0.00    -0.382 N 
ATOM     28 2H15 UNL     1      36.524   2.240  -7.007  1.00  0.00     0.157 HD
ATOM     29 1H15 UNL     1      36.057   2.430  -5.448  1.00  0.00     0.157 HD
ENDBRANCH  25  27
ENDBRANCH  18  20
ENDBRANCH  17  18
ENDBRANCH  10  17
ENDBRANCH   1   9
BRANCH   6  30
HETATM   30  N5  UNL     1      34.435   1.375 -14.351  1.00  0.00    -0.239 N 
ATOM     31  H5  UNL     1      35.352   1.462 -14.787  1.00  0.00     0.193 HD
BRANCH  30  32
HETATM   32  C5  UNL     1      33.460   2.200 -14.651  1.00  0.00     0.262 A 
HETATM   33  N6  UNL     1      32.919   2.413 -15.862  1.00  0.00    -0.262 N 
HETATM   34  N7  UNL     1      31.970   3.319 -15.717  1.00  0.00    -0.274 N 
ATOM     35  H6  UNL     1      33.191   1.959 -16.733  1.00  0.00     0.190 HD
HETATM   36  C6  UNL     1      31.898   3.694 -14.404  1.00  0.00     0.207 A 
ATOM     37  H7  UNL     1      31.383   3.683 -16.468  1.00  0.00     0.189 HD
HETATM   38  O2  UNL     1      32.821   2.981 -13.820  1.00  0.00    -0.255 OA
BRANCH  36  39
HETATM   39  C7  UNL     1      30.980   4.667 -13.848  1.00  0.00     0.163 C 
HETATM   40  N8  UNL     1      30.521   4.520 -12.667  1.00  0.00    -0.384 N 
ATOM     41  H82 UNL     1      30.801   3.712 -12.111  1.00  0.00     0.157 HD
ATOM     42  H81 UNL     1      29.874   5.205 -12.276  1.00  0.00     0.157 HD
HETATM   43  N9  UNL     1      30.593   5.783 -14.615  1.00  0.00    -0.079 NA
ENDBRANCH  36  39
ENDBRANCH  30  32
ENDBRANCH   6  30
TORSDOF 8
ENDMDL
MODEL 2
REMARK VINA RESULT: -9.586996062      5.663      7.647
REMARK  8 active torsions:
REMARK  status: ('A' for Active; 'I' for Inactive)
REMARK    1  A    between atoms: C2_2  and  O1_3 
REMARK    2  A    between atoms: C2_2  and  C12_34 
REMARK    3  A    between atoms: O1_3  and  N1_4 
REMARK    4  A    between atoms: C3_5  and  C4_6 
REMARK    5  A    between atoms: N4_11  and  N5_12 
REMARK    6  A    between atoms: N5_12  and  C5_14 
REMARK    7  A    between atoms: C6_19  and  C7_20 
REMARK    8  A    between atoms: C13_40  and  N15_41 
ROOT
HETATM    1  C4  UNL     1      36.461   2.549 -18.549  1.00  0.00     0.141 A 
HETATM    2  N2  UNL     1      37.124   3.434 -19.313  1.00  0.00    -0.278 N 
ATOM      3  H2  UNL     1      38.112   3.670 -19.224  1.00  0.00     0.189 HD
HETATM    4  N3  UNL     1      36.291   3.948 -20.196  1.00  0.00    -0.219 N 
ATOM      5  H3  UNL     1      36.533   4.645 -20.900  1.00  0.00     0.210 HD
HETATM    6  N4  UNL     1      35.084   3.411 -20.023  1.00  0.00    -0.162 N 
HETATM    7  C8  UNL     1      35.160   2.536 -19.004  1.00  0.00     0.189 A 
HETATM    8  N10 UNL     1      34.144   1.730 -18.457  1.00  0.00    -0.076 NA
ENDROOT
BRANCH   1   9
HETATM    9  C3  UNL     1      37.007   1.761 -17.462  1.00  0.00     0.173 C 
HETATM   10  N1  UNL     1      36.585   1.809 -16.074  1.00  0.00    -0.211 N 
HETATM   11  C9  UNL     1      37.251   0.743 -15.433  1.00  0.00     0.143 C 
HETATM   12  N12 UNL     1      38.271   0.305 -16.404  1.00  0.00    -0.106 NA
HETATM   13  C10 UNL     1      36.390  -0.489 -15.203  1.00  0.00     0.062 C 
HETATM   14  C11 UNL     1      38.001   1.067 -14.181  1.00  0.00     0.062 C 
HETATM   15  N11 UNL     1      37.945   0.911 -17.591  1.00  0.00    -0.283 N 
ATOM     16  H11 UNL     1      38.404   0.703 -18.479  1.00  0.00     0.184 HD
BRANCH  10  17
HETATM   17  O1  UNL     1      35.736   2.723 -15.651  1.00  0.00    -0.263 OA
BRANCH  17  18
HETATM   18  C2  UNL     1      34.689   2.334 -14.870  1.00  0.00     0.204 C 
HETATM   19  C1  UNL     1      34.869   2.834 -13.421  1.00  0.00     0.049 C 
BRANCH  18  20
HETATM   20  C12 UNL     1      33.431   2.908 -15.367  1.00  0.00     0.110 A 
HETATM   21  N13 UNL     1      32.202   2.450 -15.005  1.00  0.00    -0.239 N 
HETATM   22  O3  UNL     1      31.280   3.119 -15.595  1.00  0.00    -0.155 OA
ATOM     23  H13 UNL     1      32.037   1.682 -14.356  1.00  0.00     0.196 HD
HETATM   24  N14 UNL     1      31.828   4.017 -16.346  1.00  0.00    -0.224 N 
HETATM   25  C13 UNL     1      33.164   3.930 -16.242  1.00  0.00     0.148 A 
ATOM     26  H14 UNL     1      31.325   4.686 -16.928  1.00  0.00     0.198 HD
BRANCH  25  27
HETATM   27  N15 UNL     1      34.024   4.661 -16.830  1.00  0.00    -0.382 N 
ATOM     28 2H15 UNL     1      34.774   5.195 -16.391  1.00  0.00     0.157 HD
ATOM     29 1H15 UNL     1      34.099   4.813 -17.835  1.00  0.00     0.157 HD
ENDBRANCH  25  27
ENDBRANCH  18  20
ENDBRANCH  17  18
ENDBRANCH  10  17
ENDBRANCH   1   9
BRANCH   6  30
HETATM   30  N5  UNL     1      33.921   3.668 -20.737  1.00  0.00    -0.239 N 
ATOM     31  H5  UNL     1      33.503   2.957 -21.337  1.00  0.00     0.193 HD
BRANCH  30  32
HETATM   32  C5  UNL     1      33.379   4.855 -20.613  1.00  0.00     0.262 A 
HETATM   33  N6  UNL     1      32.997   5.682 -21.601  1.00  0.00    -0.262 N 
HETATM   34  N7  UNL     1      32.503   6.769 -21.038  1.00  0.00    -0.274 N 
ATOM     35  H6  UNL     1      33.076   5.503 -22.601  1.00  0.00     0.190 HD
HETATM   36  C6  UNL     1      32.564   6.644 -19.678  1.00  0.00     0.207 A 
ATOM     37  H7  UNL     1      32.132   7.576 -21.540  1.00  0.00     0.189 HD
HETATM   38  O2  UNL     1      33.102   5.469 -19.492  1.00  0.00    -0.255 OA
BRANCH  36  39
HETATM   39  C7  UNL     1      32.118   7.628 -18.714  1.00  0.00     0.163 C 
HETATM   40  N8  UNL     1      31.201   8.461 -19.019  1.00  0.00    -0.384 N 
ATOM     41  H82 UNL     1      30.781   8.435 -19.949  1.00  0.00     0.157 HD
ATOM     42  H81 UNL     1      30.887   9.155 -18.341  1.00  0.00     0.157 HD
HETATM   43  N9  UNL     1      32.697   7.664 -17.431  1.00  0.00    -0.079 NA
ENDBRANCH  36  39
ENDBRANCH  30  32
ENDBRANCH   6  30
TORSDOF 8
ENDMDL
MODEL 3
REMARK VINA RESULT: -9.582779022      5.977      9.200
REMARK  8 active torsions:
REMARK  status: ('A' for Active; 'I' for Inactive)
REMARK    1  A    between atoms: C2_2  and  O1_3 
REMARK    2  A    between atoms: C2_2  and  C12_34 
REMARK    3  A    between atoms: O1_3  and  N1_4 
REMARK    4  A    between atoms: C3_5  and  C4_6 
REMARK    5  A    between atoms: N4_11  and  N5_12 
REMARK    6  A    between atoms: N5_12  and  C5_14 
REMARK    7  A    between atoms: C6_19  and  C7_20 
REMARK    8  A    between atoms: C13_40  and  N15_41 
ROOT
HETATM    1  C4  UNL     1      34.291   4.096 -17.754  1.00  0.00     0.141 A 
HETATM    2  N2  UNL     1      35.183   5.076 -17.977  1.00  0.00    -0.278 N 
ATOM      3  H2  UNL     1      36.045   5.223 -17.450  1.00  0.00     0.189 HD
HETATM    4  N3  UNL     1      34.766   5.816 -18.984  1.00  0.00    -0.219 N 
ATOM      5  H3  UNL     1      35.254   6.629 -19.362  1.00  0.00     0.210 HD
HETATM    6  N4  UNL     1      33.607   5.336 -19.429  1.00  0.00    -0.162 N 
HETATM    7  C8  UNL     1      33.286   4.263 -18.683  1.00  0.00     0.189 A 
HETATM    8  N10 UNL     1      32.157   3.429 -18.778  1.00  0.00    -0.076 NA
ENDROOT
BRANCH   1   9
HETATM    9  C3  UNL     1      34.371   3.064 -16.740  1.00  0.00     0.173 C 
HETATM   10  N1  UNL     1      35.564   2.335 -16.352  1.00  0.00    -0.211 N 
HETATM   11  C9  UNL     1      35.205   1.588 -15.210  1.00  0.00     0.143 C 
HETATM   12  N12 UNL     1      33.733   1.674 -15.158  1.00  0.00    -0.106 NA
HETATM   13  C10 UNL     1      35.668   2.192 -13.893  1.00  0.00     0.062 C 
HETATM   14  C11 UNL     1      35.521   0.127 -15.227  1.00  0.00     0.062 C 
HETATM   15  N11 UNL     1      33.383   2.659 -16.047  1.00  0.00    -0.283 N 
ATOM     16  H11 UNL     1      32.436   3.027 -16.143  1.00  0.00     0.184 HD
BRANCH  10  17
HETATM   17  O1  UNL     1      36.688   2.457 -17.029  1.00  0.00    -0.263 OA
BRANCH  17  18
HETATM   18  C2  UNL     1      36.889   1.658 -18.114  1.00  0.00     0.204 C 
HETATM   19  C1  UNL     1      36.864   2.485 -19.417  1.00  0.00     0.049 C 
BRANCH  18  20
HETATM   20  C12 UNL     1      38.207   1.011 -18.044  1.00  0.00     0.110 A 
HETATM   21  N13 UNL     1      38.991   0.785 -19.133  1.00  0.00    -0.239 N 
HETATM   22  O3  UNL     1      40.077   0.196 -18.791  1.00  0.00    -0.155 OA
ATOM     23  H13 UNL     1      38.748   1.047 -20.088  1.00  0.00     0.196 HD
HETATM   24  N14 UNL     1      40.070   0.009 -17.512  1.00  0.00    -0.224 N 
HETATM   25  C13 UNL     1      38.930   0.498 -16.997  1.00  0.00     0.148 A 
ATOM     26  H14 UNL     1      40.813  -0.439 -16.977  1.00  0.00     0.198 HD
BRANCH  25  27
HETATM   27  N15 UNL     1      38.584   0.500 -15.773  1.00  0.00    -0.382 N 
ATOM     28 2H15 UNL     1      37.670   0.749 -15.396  1.00  0.00     0.157 HD
ATOM     29 1H15 UNL     1      39.172   0.240 -14.981  1.00  0.00     0.157 HD
ENDBRANCH  25  27
ENDBRANCH  18  20
ENDBRANCH  17  18
ENDBRANCH  10  17
ENDBRANCH   1   9
BRANCH   6  30
HETATM   30  N5  UNL     1      32.826   5.811 -20.475  1.00  0.00    -0.239 N 
ATOM     31  H5  UNL     1      32.870   5.388 -21.402  1.00  0.00     0.193 HD
BRANCH  30  32
HETATM   32  C5  UNL     1      32.029   6.823 -20.229  1.00  0.00     0.262 A 
HETATM   33  N6  UNL     1      31.856   7.457 -19.057  1.00  0.00    -0.262 N 
HETATM   34  N7  UNL     1      30.967   8.413 -19.251  1.00  0.00    -0.274 N 
ATOM     35  H6  UNL     1      32.326   7.238 -18.179  1.00  0.00     0.190 HD
HETATM   36  C6  UNL     1      30.563   8.398 -20.557  1.00  0.00     0.207 A 
ATOM     37  H7  UNL     1      30.634   9.061 -18.538  1.00  0.00     0.189 HD
HETATM   38  O2  UNL     1      31.241   7.417 -21.087  1.00  0.00    -0.255 OA
BRANCH  36  39
HETATM   39  C7  UNL     1      29.597   9.294 -21.157  1.00  0.00     0.163 C 
HETATM   40  N8  UNL     1      28.368   8.959 -21.237  1.00  0.00    -0.384 N 
ATOM     41  H82 UNL     1      28.065   8.054 -20.876  1.00  0.00     0.157 HD
ATOM     42  H81 UNL     1      27.687   9.590 -21.660  1.00  0.00     0.157 HD
HETATM   43  N9  UNL     1      30.014  10.544 -21.655  1.00  0.00    -0.079 NA
ENDBRANCH  36  39
ENDBRANCH  30  32
ENDBRANCH   6  30
TORSDOF 8
ENDMDL
MODEL 4
REMARK VINA RESULT: -9.500119685      6.021      9.367
REMARK  8 active torsions:
REMARK  status: ('A' for Active; 'I' for Inactive)
REMARK    1  A    between atoms: C2_2  and  O1_3 
REMARK    2  A    between atoms: C2_2  and  C12_34 
REMARK    3  A    between atoms: O1_3  and  N1_4 
REMARK    4  A    between atoms: C3_5  and  C4_6 
REMARK    5  A    between atoms: N4_11  and  N5_12 
REMARK    6  A    between atoms: N5_12  and  C5_14 
REMARK    7  A    between atoms: C6_19  and  C7_20 
REMARK    8  A    between atoms: C13_40  and  N15_41 
ROOT
HETATM    1  C4  UNL     1      33.966   4.422 -17.809  1.00  0.00     0.141 A 
HETATM    2  N2  UNL     1      34.839   5.430 -17.967  1.00  0.00    -0.278 N 
ATOM      3  H2  UNL     1      35.659   5.600 -17.384  1.00  0.00     0.189 HD
HETATM    4  N3  UNL     1      34.468   6.164 -18.997  1.00  0.00    -0.219 N 
ATOM      5  H3  UNL     1      34.954   6.993 -19.338  1.00  0.00     0.210 HD
HETATM    6  N4  UNL     1      33.356   5.650 -19.521  1.00  0.00    -0.162 N 
HETATM    7  C8  UNL     1      33.020   4.564 -18.802  1.00  0.00     0.189 A 
HETATM    8  N10 UNL     1      31.926   3.695 -18.976  1.00  0.00    -0.076 NA
ENDROOT
BRANCH   1   9
HETATM    9  C3  UNL     1      34.010   3.386 -16.796  1.00  0.00     0.173 C 
HETATM   10  N1  UNL     1      35.182   2.631 -16.394  1.00  0.00    -0.211 N 
HETATM   11  C9  UNL     1      34.792   1.890 -15.259  1.00  0.00     0.143 C 
HETATM   12  N12 UNL     1      33.321   2.008 -15.225  1.00  0.00    -0.106 NA
HETATM   13  C10 UNL     1      35.250   2.481 -13.934  1.00  0.00     0.062 C 
HETATM   14  C11 UNL     1      35.076   0.423 -15.274  1.00  0.00     0.062 C 
HETATM   15  N11 UNL     1      33.004   3.002 -16.117  1.00  0.00    -0.283 N 
ATOM     16  H11 UNL     1      32.066   3.390 -16.224  1.00  0.00     0.184 HD
BRANCH  10  17
HETATM   17  O1  UNL     1      36.316   2.730 -17.056  1.00  0.00    -0.263 OA
BRANCH  17  18
HETATM   18  C2  UNL     1      36.530   1.903 -18.118  1.00  0.00     0.204 C 
HETATM   19  C1  UNL     1      36.522   2.697 -19.442  1.00  0.00     0.049 C 
BRANCH  18  20
HETATM   20  C12 UNL     1      37.846   1.258 -18.015  1.00  0.00     0.110 A 
HETATM   21  N13 UNL     1      38.626   0.966 -19.092  1.00  0.00    -0.239 N 
HETATM   22  O3  UNL     1      39.711   0.394 -18.720  1.00  0.00    -0.155 OA
ATOM     23  H13 UNL     1      38.380   1.174 -20.059  1.00  0.00     0.196 HD
HETATM   24  N14 UNL     1      39.707   0.281 -17.433  1.00  0.00    -0.224 N 
HETATM   25  C13 UNL     1      38.571   0.802 -16.943  1.00  0.00     0.148 A 
ATOM     26  H14 UNL     1      40.451  -0.138 -16.875  1.00  0.00     0.198 HD
BRANCH  25  27
HETATM   27  N15 UNL     1      38.230   0.875 -15.720  1.00  0.00    -0.382 N 
ATOM     28 2H15 UNL     1      38.163   1.721 -15.153  1.00  0.00     0.157 HD
ATOM     29 1H15 UNL     1      37.959   0.095 -15.122  1.00  0.00     0.157 HD
ENDBRANCH  25  27
ENDBRANCH  18  20
ENDBRANCH  17  18
ENDBRANCH  10  17
ENDBRANCH   1   9
BRANCH   6  30
HETATM   30  N5  UNL     1      32.632   6.108 -20.614  1.00  0.00    -0.239 N 
ATOM     31  H5  UNL     1      32.619   5.590 -21.493  1.00  0.00     0.193 HD
BRANCH  30  32
HETATM   32  C5  UNL     1      31.965   7.229 -20.478  1.00  0.00     0.262 A 
HETATM   33  N6  UNL     1      30.699   7.376 -20.054  1.00  0.00    -0.262 N 
HETATM   34  N7  UNL     1      30.424   8.667 -20.067  1.00  0.00    -0.274 N 
ATOM     35  H6  UNL     1      30.066   6.627 -19.774  1.00  0.00     0.190 HD
HETATM   36  C6  UNL     1      31.521   9.359 -20.501  1.00  0.00     0.207 A 
ATOM     37  H7  UNL     1      29.533   9.083 -19.795  1.00  0.00     0.189 HD
HETATM   38  O2  UNL     1      32.410   8.433 -20.730  1.00  0.00    -0.255 OA
BRANCH  36  39
HETATM   39  C7  UNL     1      31.612  10.797 -20.651  1.00  0.00     0.163 C 
HETATM   40  N8  UNL     1      32.412  11.473 -19.921  1.00  0.00    -0.384 N 
ATOM     41  H82 UNL     1      32.990  10.997 -19.227  1.00  0.00     0.157 HD
ATOM     42  H81 UNL     1      32.476  12.485 -20.027  1.00  0.00     0.157 HD
HETATM   43  N9  UNL     1      30.815  11.453 -21.609  1.00  0.00    -0.079 NA
ENDBRANCH  36  39
ENDBRANCH  30  32
ENDBRANCH   6  30
TORSDOF 8
ENDMDL
MODEL 5
REMARK VINA RESULT: -9.460188000      5.843      9.092
REMARK  8 active torsions:
REMARK  status: ('A' for Active; 'I' for Inactive)
REMARK    1  A    between atoms: C2_2  and  O1_3 
REMARK    2  A    between atoms: C2_2  and  C12_34 
REMARK    3  A    between atoms: O1_3  and  N1_4 
REMARK    4  A    between atoms: C3_5  and  C4_6 
REMARK    5  A    between atoms: N4_11  and  N5_12 
REMARK    6  A    between atoms: N5_12  and  C5_14 
REMARK    7  A    between atoms: C6_19  and  C7_20 
REMARK    8  A    between atoms: C13_40  and  N15_41 
ROOT
HETATM    1  C4  UNL     1      34.026   4.207 -17.679  1.00  0.00     0.141 A 
HETATM    2  N2  UNL     1      35.111   4.964 -17.908  1.00  0.00    -0.278 N 
ATOM      3  H2  UNL     1      35.854   5.153 -17.234  1.00  0.00     0.189 HD
HETATM    4  N3  UNL     1      35.063   5.424 -19.142  1.00  0.00    -0.219 N 
ATOM      5  H3  UNL     1      35.762   6.026 -19.577  1.00  0.00     0.210 HD
HETATM    6  N4  UNL     1      33.954   4.978 -19.731  1.00  0.00    -0.162 N 
HETATM    7  C8  UNL     1      33.289   4.217 -18.844  1.00  0.00     0.189 A 
HETATM    8  N10 UNL     1      32.069   3.534 -19.008  1.00  0.00    -0.076 NA
ENDROOT
BRANCH   1   9
HETATM    9  C3  UNL     1      33.695   3.513 -16.449  1.00  0.00     0.173 C 
HETATM   10  N1  UNL     1      34.317   2.298 -15.958  1.00  0.00    -0.211 N 
HETATM   11  C9  UNL     1      33.817   2.110 -14.653  1.00  0.00     0.143 C 
HETATM   12  N12 UNL     1      32.689   3.056 -14.547  1.00  0.00    -0.106 NA
HETATM   13  C10 UNL     1      34.772   2.533 -13.547  1.00  0.00     0.062 C 
HETATM   14  C11 UNL     1      33.245   0.767 -14.331  1.00  0.00     0.062 C 
HETATM   15  N11 UNL     1      32.799   3.893 -15.630  1.00  0.00    -0.283 N 
ATOM     16  H11 UNL     1      32.225   4.726 -15.762  1.00  0.00     0.184 HD
BRANCH  10  17
HETATM   17  O1  UNL     1      35.166   1.618 -16.702  1.00  0.00    -0.263 OA
BRANCH  17  18
HETATM   18  C2  UNL     1      36.440   1.447 -16.251  1.00  0.00     0.204 C 
HETATM   19  C1  UNL     1      36.555   0.164 -15.400  1.00  0.00     0.049 C 
BRANCH  18  20
HETATM   20  C12 UNL     1      37.371   1.295 -17.379  1.00  0.00     0.110 A 
HETATM   21  N13 UNL     1      38.606   0.735 -17.262  1.00  0.00    -0.239 N 
HETATM   22  O3  UNL     1      39.212   0.742 -18.392  1.00  0.00    -0.155 OA
ATOM     23  H13 UNL     1      38.995   0.362 -16.396  1.00  0.00     0.196 HD
HETATM   24  N14 UNL     1      38.443   1.284 -19.278  1.00  0.00    -0.224 N 
HETATM   25  C13 UNL     1      37.286   1.646 -18.702  1.00  0.00     0.148 A 
ATOM     26  H14 UNL     1      38.678   1.417 -20.261  1.00  0.00     0.198 HD
BRANCH  25  27
HETATM   27  N15 UNL     1      36.291   2.198 -19.270  1.00  0.00    -0.382 N 
ATOM     28 2H15 UNL     1      35.543   1.731 -19.782  1.00  0.00     0.157 HD
ATOM     29 1H15 UNL     1      36.085   3.197 -19.288  1.00  0.00     0.157 HD
ENDBRANCH  25  27
ENDBRANCH  18  20
ENDBRANCH  17  18
ENDBRANCH  10  17
ENDBRANCH   1   9
BRANCH   6  30
HETATM   30  N5  UNL     1      33.514   5.219 -21.026  1.00  0.00    -0.239 N 
ATOM     31  H5  UNL     1      33.763   4.595 -21.792  1.00  0.00     0.193 HD
BRANCH  30  32
HETATM   32  C5  UNL     1      32.768   6.279 -21.229  1.00  0.00     0.262 A 
HETATM   33  N6  UNL     1      33.133   7.430 -21.816  1.00  0.00    -0.262 N 
HETATM   34  N7  UNL     1      32.080   8.226 -21.816  1.00  0.00    -0.274 N 
ATOM     35  H6  UNL     1      34.055   7.649 -22.193  1.00  0.00     0.190 HD
HETATM   36  C6  UNL     1      31.027   7.584 -21.225  1.00  0.00     0.207 A 
ATOM     37  H7  UNL     1      32.056   9.172 -22.196  1.00  0.00     0.189 HD
HETATM   38  O2  UNL     1      31.511   6.418 -20.896  1.00  0.00    -0.255 OA
BRANCH  36  39
HETATM   39  C7  UNL     1      29.699   8.129 -21.036  1.00  0.00     0.163 C 
HETATM   40  N8  UNL     1      28.733   7.370 -20.691  1.00  0.00    -0.384 N 
ATOM     41  H82 UNL     1      28.897   6.373 -20.547  1.00  0.00     0.157 HD
ATOM     42  H81 UNL     1      27.797   7.753 -20.558  1.00  0.00     0.157 HD
HETATM   43  N9  UNL     1      29.471   9.505 -21.233  1.00  0.00    -0.079 NA
ENDBRANCH  36  39
ENDBRANCH  30  32
ENDBRANCH   6  30
TORSDOF 8
ENDMDL
