MODEL 1
REMARK VINA RESULT: -8.460625491      0.000      0.000
REMARK  14 active torsions:
REMARK  status: ('A' for Active; 'I' for Inactive)
REMARK    1  A    between atoms: C3_3  and  C4_4 
REMARK    2  A    between atoms: C4_4  and  N1_5 
REMARK    3  A    between atoms: C4_4  and  C16_23 
REMARK       I    between atoms: N1_5  and  C5_7 
REMARK    4  A    between atoms: C5_7  and  C6_9 
REMARK    5  A    between atoms: C6_9  and  N2_10 
REMARK    6  A    between atoms: C6_9  and  C12_19 
REMARK       I    between atoms: N2_10  and  C7_12 
REMARK    7  A    between atoms: C7_12  and  O3_14 
REMARK    8  A    between atoms: O3_14  and  C8_15 
REMARK       I    between atoms: C16_23  and  N3_25 
REMARK    9  A    between atoms: N3_25  and  C18_27 
REMARK   10  A    between atoms: C18_27  and  C19_28 
REMARK       I    between atoms: C19_28  and  N4_30 
REMARK   11  A    between atoms: N4_30  and  C20_32 
REMARK   12  A    between atoms: C20_32  and  C21_33 
REMARK   13  A    between atoms: C20_32  and  C23_35 
REMARK   14  A    between atoms: C23_35  and  C24_37 
ROOT
HETATM    1  C1  UNL     1     -10.614  21.389 -19.514  1.00  0.00     0.012 C 
HETATM    2  C2  UNL     1     -11.090  21.866 -18.515  1.00  0.00    -0.115 C 
HETATM    3  C3  UNL     1     -11.663  22.461 -17.318  1.00  0.00     0.128 C 
ENDROOT
BRANCH   3   4
HETATM    4  C4  UNL     1     -13.032  21.861 -16.969  1.00  0.00     0.188 C 
BRANCH   4   5
HETATM    5  N1  UNL     1     -14.032  22.915 -17.142  1.00  0.00    -0.345 N 
HETATM    6  C5  UNL     1     -15.002  22.819 -18.151  1.00  0.00     0.242 C 
HETATM    7  O1  UNL     1     -14.931  21.769 -18.888  1.00  0.00    -0.271 OA
ATOM      8  H1  UNL     1     -14.023  23.726 -16.525  1.00  0.00     0.163 HD
BRANCH   6   9
HETATM    9  C6  UNL     1     -16.065  23.798 -18.427  1.00  0.00     0.186 C 
BRANCH   9  10
HETATM   10  N2  UNL     1     -16.226  24.621 -17.230  1.00  0.00    -0.323 N 
HETATM   11  C7  UNL     1     -17.404  24.747 -16.508  1.00  0.00     0.362 C 
HETATM   12  O2  UNL     1     -18.437  24.137 -16.856  1.00  0.00    -0.238 OA
ATOM     13  H2  UNL     1     -15.413  25.142 -16.902  1.00  0.00     0.165 HD
BRANCH  11  14
HETATM   14  O3  UNL     1     -17.467  25.546 -15.387  1.00  0.00    -0.294 OA
BRANCH  14  15
HETATM   15  C8  UNL     1     -17.857  26.900 -15.481  1.00  0.00     0.061 C 
HETATM   16  C9  UNL     1     -17.409  27.535 -16.776  1.00  0.00     0.046 C 
HETATM   17  C10 UNL     1     -19.350  27.090 -15.320  1.00  0.00     0.046 C 
HETATM   18  C11 UNL     1     -17.190  27.653 -14.350  1.00  0.00     0.046 C 
ENDBRANCH  14  15
ENDBRANCH  11  14
ENDBRANCH   9  10
BRANCH   9  19
HETATM   19  C12 UNL     1     -15.734  24.721 -19.573  1.00  0.00    -0.022 C 
HETATM   20  C13 UNL     1     -14.940  25.897 -19.011  1.00  0.00     0.017 C 
HETATM   21  C14 UNL     1     -14.955  24.118 -20.685  1.00  0.00     0.017 C 
HETATM   22  C15 UNL     1     -17.033  25.240 -20.194  1.00  0.00     0.017 C 
ENDBRANCH   9  19
ENDBRANCH   6   9
ENDBRANCH   4   5
BRANCH   4  23
HETATM   23  C16 UNL     1     -12.933  21.437 -15.564  1.00  0.00     0.243 C 
HETATM   24  O4  UNL     1     -13.315  22.304 -14.701  1.00  0.00    -0.271 OA
HETATM   25  N3  UNL     1     -12.474  20.211 -15.120  1.00  0.00    -0.346 N 
HETATM   26  C17 UNL     1     -12.350  19.990 -13.662  1.00  0.00     0.153 C 
BRANCH  25  27
HETATM   27  C18 UNL     1     -12.159  19.077 -15.947  1.00  0.00     0.228 C 
BRANCH  27  28
HETATM   28  C19 UNL     1     -10.678  18.838 -15.985  1.00  0.00     0.236 C 
HETATM   29  O5  UNL     1      -9.865  19.789 -16.029  1.00  0.00    -0.272 OA
HETATM   30  N4  UNL     1     -10.191  17.513 -15.972  1.00  0.00    -0.348 N 
ATOM     31  H4  UNL     1     -10.838  16.726 -15.933  1.00  0.00     0.163 HD
BRANCH  30  32
HETATM   32  C20 UNL     1      -8.748  17.283 -16.013  1.00  0.00     0.161 C 
BRANCH  32  33
HETATM   33  C21 UNL     1      -8.340  16.398 -14.842  1.00  0.00     0.029 C 
HETATM   34  C22 UNL     1      -6.866  16.369 -14.606  1.00  0.00     0.007 C 
ENDBRANCH  32  33
BRANCH  32  35
HETATM   35  C23 UNL     1      -8.341  16.731 -17.320  1.00  0.00     0.205 C 
HETATM   36  O6  UNL     1      -8.304  15.490 -17.540  1.00  0.00    -0.288 OA
BRANCH  35  37
HETATM   37  C24 UNL     1      -7.974  17.668 -18.391  1.00  0.00     0.122 A 
HETATM   38  N5  UNL     1      -7.856  18.974 -18.402  1.00  0.00    -0.357 N 
HETATM   39  C25 UNL     1      -7.516  19.603 -19.475  1.00  0.00     0.096 A 
ATOM     40  H5  UNL     1      -8.036  19.501 -17.547  1.00  0.00     0.166 HD
HETATM   41  C26 UNL     1      -7.284  18.858 -20.606  1.00  0.00     0.069 A 
HETATM   42  S1  UNL     1      -7.574  17.274 -20.036  1.00  0.00    -0.079 SA
ENDBRANCH  35  37
ENDBRANCH  32  35
ENDBRANCH  30  32
ENDBRANCH  27  28
ENDBRANCH  25  27
ENDBRANCH   4  23
ENDBRANCH   3   4
TORSDOF 14
ENDMDL
MODEL 2
REMARK VINA RESULT: -8.366173101      3.004     10.550
REMARK  14 active torsions:
REMARK  status: ('A' for Active; 'I' for Inactive)
REMARK    1  A    between atoms: C3_3  and  C4_4 
REMARK    2  A    between atoms: C4_4  and  N1_5 
REMARK    3  A    between atoms: C4_4  and  C16_23 
REMARK       I    between atoms: N1_5  and  C5_7 
REMARK    4  A    between atoms: C5_7  and  C6_9 
REMARK    5  A    between atoms: C6_9  and  N2_10 
REMARK    6  A    between atoms: C6_9  and  C12_19 
REMARK       I    between atoms: N2_10  and  C7_12 
REMARK    7  A    between atoms: C7_12  and  O3_14 
REMARK    8  A    between atoms: O3_14  and  C8_15 
REMARK       I    between atoms: C16_23  and  N3_25 
REMARK    9  A    between atoms: N3_25  and  C18_27 
REMARK   10  A    between atoms: C18_27  and  C19_28 
REMARK       I    between atoms: C19_28  and  N4_30 
REMARK   11  A    between atoms: N4_30  and  C20_32 
REMARK   12  A    between atoms: C20_32  and  C21_33 
REMARK   13  A    between atoms: C20_32  and  C23_35 
REMARK   14  A    between atoms: C23_35  and  C24_37 
ROOT
HETATM    1  C1  UNL     1     -12.765  20.312 -13.695  1.00  0.00     0.012 C 
HETATM    2  C2  UNL     1     -12.180  20.678 -14.682  1.00  0.00    -0.115 C 
HETATM    3  C3  UNL     1     -11.455  21.121 -15.862  1.00  0.00     0.128 C 
ENDROOT
BRANCH   3   4
HETATM    4  C4  UNL     1     -11.541  20.108 -17.012  1.00  0.00     0.188 C 
BRANCH   4   5
HETATM    5  N1  UNL     1     -10.329  19.291 -16.973  1.00  0.00    -0.345 N 
HETATM    6  C5  UNL     1     -10.407  17.910 -16.739  1.00  0.00     0.242 C 
HETATM    7  O1  UNL     1     -11.592  17.445 -16.560  1.00  0.00    -0.271 OA
ATOM      8  H1  UNL     1      -9.419  19.729 -17.115  1.00  0.00     0.163 HD
BRANCH   6   9
HETATM    9  C6  UNL     1      -9.273  16.975 -16.683  1.00  0.00     0.186 C 
BRANCH   9  10
HETATM   10  N2  UNL     1      -8.254  17.464 -17.611  1.00  0.00    -0.323 N 
HETATM   11  C7  UNL     1      -7.646  16.698 -18.595  1.00  0.00     0.362 C 
HETATM   12  O2  UNL     1      -7.948  15.496 -18.750  1.00  0.00    -0.238 OA
ATOM     13  H2  UNL     1      -7.969  18.440 -17.528  1.00  0.00     0.165 HD
BRANCH  11  14
HETATM   14  O3  UNL     1      -6.693  17.242 -19.429  1.00  0.00    -0.294 OA
BRANCH  14  15
HETATM   15  C8  UNL     1      -7.042  17.751 -20.699  1.00  0.00     0.061 C 
HETATM   16  C9  UNL     1      -6.802  16.747 -21.802  1.00  0.00     0.046 C 
HETATM   17  C10 UNL     1      -8.477  18.231 -20.761  1.00  0.00     0.046 C 
HETATM   18  C11 UNL     1      -6.161  18.950 -20.975  1.00  0.00     0.046 C 
ENDBRANCH  14  15
ENDBRANCH  11  14
ENDBRANCH   9  10
BRANCH   9  19
HETATM   19  C12 UNL     1      -8.642  16.893 -15.316  1.00  0.00    -0.022 C 
HETATM   20  C13 UNL     1      -8.726  15.443 -14.849  1.00  0.00     0.017 C 
HETATM   21  C14 UNL     1      -7.226  17.332 -15.231  1.00  0.00     0.017 C 
HETATM   22  C15 UNL     1      -9.425  17.782 -14.346  1.00  0.00     0.017 C 
ENDBRANCH   9  19
ENDBRANCH   6   9
ENDBRANCH   4   5
BRANCH   4  23
HETATM   23  C16 UNL     1     -11.611  20.911 -18.243  1.00  0.00     0.243 C 
HETATM   24  O4  UNL     1     -10.496  21.086 -18.847  1.00  0.00    -0.271 OA
HETATM   25  N3  UNL     1     -12.755  21.473 -18.778  1.00  0.00    -0.346 N 
HETATM   26  C17 UNL     1     -12.625  22.335 -19.973  1.00  0.00     0.153 C 
BRANCH  25  27
HETATM   27  C18 UNL     1     -14.100  21.247 -18.322  1.00  0.00     0.228 C 
BRANCH  27  28
HETATM   28  C19 UNL     1     -14.700  22.511 -17.777  1.00  0.00     0.236 C 
HETATM   29  O5  UNL     1     -14.057  23.258 -17.007  1.00  0.00    -0.272 OA
HETATM   30  N4  UNL     1     -16.017  22.864 -18.143  1.00  0.00    -0.348 N 
ATOM     31  H4  UNL     1     -16.555  22.269 -18.772  1.00  0.00     0.163 HD
BRANCH  30  32
HETATM   32  C20 UNL     1     -16.600  24.094 -17.608  1.00  0.00     0.161 C 
BRANCH  32  33
HETATM   33  C21 UNL     1     -17.383  24.804 -18.705  1.00  0.00     0.029 C 
HETATM   34  C22 UNL     1     -16.666  24.844 -20.014  1.00  0.00     0.007 C 
ENDBRANCH  32  33
BRANCH  32  35
HETATM   35  C23 UNL     1     -17.414  23.812 -16.410  1.00  0.00     0.205 C 
HETATM   36  O6  UNL     1     -18.543  23.256 -16.484  1.00  0.00    -0.288 OA
BRANCH  35  37
HETATM   37  C24 UNL     1     -16.878  24.192 -15.095  1.00  0.00     0.122 A 
HETATM   38  N5  UNL     1     -15.780  23.842 -14.469  1.00  0.00    -0.357 N 
HETATM   39  C25 UNL     1     -15.505  24.307 -13.299  1.00  0.00     0.096 A 
ATOM     40  H5  UNL     1     -15.133  23.192 -14.916  1.00  0.00     0.166 HD
HETATM   41  C26 UNL     1     -16.401  25.179 -12.730  1.00  0.00     0.069 A 
HETATM   42  S1  UNL     1     -17.601  25.274 -13.942  1.00  0.00    -0.079 SA
ENDBRANCH  35  37
ENDBRANCH  32  35
ENDBRANCH  30  32
ENDBRANCH  27  28
ENDBRANCH  25  27
ENDBRANCH   4  23
ENDBRANCH   3   4
TORSDOF 14
ENDMDL
MODEL 3
REMARK VINA RESULT: -8.307793937      1.076      1.284
REMARK  14 active torsions:
REMARK  status: ('A' for Active; 'I' for Inactive)
REMARK    1  A    between atoms: C3_3  and  C4_4 
REMARK    2  A    between atoms: C4_4  and  N1_5 
REMARK    3  A    between atoms: C4_4  and  C16_23 
REMARK       I    between atoms: N1_5  and  C5_7 
REMARK    4  A    between atoms: C5_7  and  C6_9 
REMARK    5  A    between atoms: C6_9  and  N2_10 
REMARK    6  A    between atoms: C6_9  and  C12_19 
REMARK       I    between atoms: N2_10  and  C7_12 
REMARK    7  A    between atoms: C7_12  and  O3_14 
REMARK    8  A    between atoms: O3_14  and  C8_15 
REMARK       I    between atoms: C16_23  and  N3_25 
REMARK    9  A    between atoms: N3_25  and  C18_27 
REMARK   10  A    between atoms: C18_27  and  C19_28 
REMARK       I    between atoms: C19_28  and  N4_30 
REMARK   11  A    between atoms: N4_30  and  C20_32 
REMARK   12  A    between atoms: C20_32  and  C21_33 
REMARK   13  A    between atoms: C20_32  and  C23_35 
REMARK   14  A    between atoms: C23_35  and  C24_37 
ROOT
HETATM    1  C1  UNL     1     -11.861  22.262 -19.794  1.00  0.00     0.012 C 
HETATM    2  C2  UNL     1     -12.039  22.444 -18.616  1.00  0.00    -0.115 C 
HETATM    3  C3  UNL     1     -12.250  22.685 -17.198  1.00  0.00     0.128 C 
ENDROOT
BRANCH   3   4
HETATM    4  C4  UNL     1     -13.610  22.162 -16.715  1.00  0.00     0.188 C 
BRANCH   4   5
HETATM    5  N1  UNL     1     -14.555  23.277 -16.768  1.00  0.00    -0.345 N 
HETATM    6  C5  UNL     1     -15.493  23.370 -17.807  1.00  0.00     0.242 C 
HETATM    7  O1  UNL     1     -15.444  22.429 -18.681  1.00  0.00    -0.271 OA
ATOM      8  H1  UNL     1     -14.531  23.994 -16.044  1.00  0.00     0.163 HD
BRANCH   6   9
HETATM    9  C6  UNL     1     -16.500  24.428 -17.973  1.00  0.00     0.186 C 
BRANCH   9  10
HETATM   10  N2  UNL     1     -16.752  25.008 -16.655  1.00  0.00    -0.323 N 
HETATM   11  C7  UNL     1     -17.770  24.616 -15.799  1.00  0.00     0.362 C 
HETATM   12  O2  UNL     1     -18.565  23.708 -16.121  1.00  0.00    -0.238 OA
ATOM     13  H2  UNL     1     -16.132  25.755 -16.342  1.00  0.00     0.165 HD
BRANCH  11  14
HETATM   14  O3  UNL     1     -17.935  25.217 -14.569  1.00  0.00    -0.294 OA
BRANCH  14  15
HETATM   15  C8  UNL     1     -18.380  26.553 -14.467  1.00  0.00     0.061 C 
HETATM   16  C9  UNL     1     -17.236  27.524 -14.292  1.00  0.00     0.046 C 
HETATM   17  C10 UNL     1     -19.223  26.981 -15.649  1.00  0.00     0.046 C 
HETATM   18  C11 UNL     1     -19.255  26.656 -13.237  1.00  0.00     0.046 C 
ENDBRANCH  14  15
ENDBRANCH  11  14
ENDBRANCH   9  10
BRANCH   9  19
HETATM   19  C12 UNL     1     -16.041  25.543 -18.880  1.00  0.00    -0.022 C 
HETATM   20  C13 UNL     1     -16.633  26.847 -18.353  1.00  0.00     0.017 C 
HETATM   21  C14 UNL     1     -14.571  25.711 -19.004  1.00  0.00     0.017 C 
HETATM   22  C15 UNL     1     -16.564  25.288 -20.296  1.00  0.00     0.017 C 
ENDBRANCH   9  19
ENDBRANCH   6   9
ENDBRANCH   4   5
BRANCH   4  23
HETATM   23  C16 UNL     1     -13.392  21.703 -15.334  1.00  0.00     0.243 C 
HETATM   24  O4  UNL     1     -13.832  22.486 -14.421  1.00  0.00    -0.271 OA
HETATM   25  N3  UNL     1     -12.768  20.528 -14.962  1.00  0.00    -0.346 N 
HETATM   26  C17 UNL     1     -12.547  20.272 -13.522  1.00  0.00     0.153 C 
BRANCH  25  27
HETATM   27  C18 UNL     1     -12.361  19.470 -15.848  1.00  0.00     0.228 C 
BRANCH  27  28
HETATM   28  C19 UNL     1     -10.866  19.424 -15.974  1.00  0.00     0.236 C 
HETATM   29  O5  UNL     1     -10.182  20.471 -16.003  1.00  0.00    -0.272 OA
HETATM   30  N4  UNL     1     -10.218  18.173 -16.061  1.00  0.00    -0.348 N 
ATOM     31  H4  UNL     1     -10.759  17.309 -16.036  1.00  0.00     0.163 HD
BRANCH  30  32
HETATM   32  C20 UNL     1      -8.762  18.130 -16.187  1.00  0.00     0.161 C 
BRANCH  32  33
HETATM   33  C21 UNL     1      -8.180  17.273 -15.071  1.00  0.00     0.029 C 
HETATM   34  C22 UNL     1      -9.135  16.251 -14.549  1.00  0.00     0.007 C 
ENDBRANCH  32  33
BRANCH  32  35
HETATM   35  C23 UNL     1      -8.365  17.672 -17.532  1.00  0.00     0.205 C 
HETATM   36  O6  UNL     1      -8.321  16.449 -17.836  1.00  0.00    -0.288 OA
BRANCH  35  37
HETATM   37  C24 UNL     1      -8.015  18.682 -18.541  1.00  0.00     0.122 A 
HETATM   38  N5  UNL     1      -6.857  19.063 -19.025  1.00  0.00    -0.357 N 
HETATM   39  C25 UNL     1      -6.782  19.986 -19.922  1.00  0.00     0.096 A 
ATOM     40  H5  UNL     1      -6.001  18.621 -18.687  1.00  0.00     0.166 HD
HETATM   41  C26 UNL     1      -7.955  20.558 -20.350  1.00  0.00     0.069 A 
HETATM   42  S1  UNL     1      -9.108  19.711 -19.417  1.00  0.00    -0.079 SA
ENDBRANCH  35  37
ENDBRANCH  32  35
ENDBRANCH  30  32
ENDBRANCH  27  28
ENDBRANCH  25  27
ENDBRANCH   4  23
ENDBRANCH   3   4
TORSDOF 14
ENDMDL
MODEL 4
REMARK VINA RESULT: -8.247411094      3.144     10.688
REMARK  14 active torsions:
REMARK  status: ('A' for Active; 'I' for Inactive)
REMARK    1  A    between atoms: C3_3  and  C4_4 
REMARK    2  A    between atoms: C4_4  and  N1_5 
REMARK    3  A    between atoms: C4_4  and  C16_23 
REMARK       I    between atoms: N1_5  and  C5_7 
REMARK    4  A    between atoms: C5_7  and  C6_9 
REMARK    5  A    between atoms: C6_9  and  N2_10 
REMARK    6  A    between atoms: C6_9  and  C12_19 
REMARK       I    between atoms: N2_10  and  C7_12 
REMARK    7  A    between atoms: C7_12  and  O3_14 
REMARK    8  A    between atoms: O3_14  and  C8_15 
REMARK       I    between atoms: C16_23  and  N3_25 
REMARK    9  A    between atoms: N3_25  and  C18_27 
REMARK   10  A    between atoms: C18_27  and  C19_28 
REMARK       I    between atoms: C19_28  and  N4_30 
REMARK   11  A    between atoms: N4_30  and  C20_32 
REMARK   12  A    between atoms: C20_32  and  C21_33 
REMARK   13  A    between atoms: C20_32  and  C23_35 
REMARK   14  A    between atoms: C23_35  and  C24_37 
ROOT
HETATM    1  C1  UNL     1     -12.533  20.338 -14.016  1.00  0.00     0.012 C 
HETATM    2  C2  UNL     1     -12.036  20.762 -15.029  1.00  0.00    -0.115 C 
HETATM    3  C3  UNL     1     -11.418  21.278 -16.239  1.00  0.00     0.128 C 
ENDROOT
BRANCH   3   4
HETATM    4  C4  UNL     1     -11.473  20.270 -17.396  1.00  0.00     0.188 C 
BRANCH   4   5
HETATM    5  N1  UNL     1     -10.181  19.587 -17.447  1.00  0.00    -0.345 N 
HETATM    6  C5  UNL     1     -10.082  18.220 -17.149  1.00  0.00     0.242 C 
HETATM    7  O1  UNL     1     -11.186  17.644 -16.828  1.00  0.00    -0.271 OA
ATOM      8  H1  UNL     1      -9.343  20.110 -17.702  1.00  0.00     0.163 HD
BRANCH   6   9
HETATM    9  C6  UNL     1      -8.853  17.414 -17.172  1.00  0.00     0.186 C 
BRANCH   9  10
HETATM   10  N2  UNL     1      -7.819  18.207 -17.835  1.00  0.00    -0.323 N 
HETATM   11  C7  UNL     1      -7.512  18.139 -19.186  1.00  0.00     0.362 C 
HETATM   12  O2  UNL     1      -8.129  17.361 -19.944  1.00  0.00    -0.238 OA
ATOM     13  H2  UNL     1      -7.284  18.859 -17.261  1.00  0.00     0.165 HD
BRANCH  11  14
HETATM   14  O3  UNL     1      -6.520  18.926 -19.729  1.00  0.00    -0.294 OA
BRANCH  14  15
HETATM   15  C8  UNL     1      -5.254  18.387 -20.043  1.00  0.00     0.061 C 
HETATM   16  C9  UNL     1      -4.861  17.269 -19.106  1.00  0.00     0.046 C 
HETATM   17  C10 UNL     1      -5.165  17.897 -21.472  1.00  0.00     0.046 C 
HETATM   18  C11 UNL     1      -4.230  19.491 -19.888  1.00  0.00     0.046 C 
ENDBRANCH  14  15
ENDBRANCH  11  14
ENDBRANCH   9  10
BRANCH   9  19
HETATM   19  C12 UNL     1      -8.347  17.069 -15.793  1.00  0.00    -0.022 C 
HETATM   20  C13 UNL     1      -8.423  18.331 -14.939  1.00  0.00     0.017 C 
HETATM   21  C14 UNL     1      -9.076  15.983 -15.091  1.00  0.00     0.017 C 
HETATM   22  C15 UNL     1      -6.889  16.612 -15.891  1.00  0.00     0.017 C 
ENDBRANCH   9  19
ENDBRANCH   6   9
ENDBRANCH   4   5
BRANCH   4  23
HETATM   23  C16 UNL     1     -11.711  21.068 -18.608  1.00  0.00     0.243 C 
HETATM   24  O4  UNL     1     -10.681  21.273 -19.340  1.00  0.00    -0.271 OA
HETATM   25  N3  UNL     1     -12.926  21.597 -19.001  1.00  0.00    -0.346 N 
HETATM   26  C17 UNL     1     -12.963  22.461 -20.202  1.00  0.00     0.153 C 
BRANCH  25  27
HETATM   27  C18 UNL     1     -14.200  21.335 -18.388  1.00  0.00     0.228 C 
BRANCH  27  28
HETATM   28  C19 UNL     1     -14.796  22.596 -17.832  1.00  0.00     0.236 C 
HETATM   29  O5  UNL     1     -14.139  23.351 -17.081  1.00  0.00    -0.272 OA
HETATM   30  N4  UNL     1     -16.125  22.937 -18.164  1.00  0.00    -0.348 N 
ATOM     31  H4  UNL     1     -16.674  22.336 -18.777  1.00  0.00     0.163 HD
BRANCH  30  32
HETATM   32  C20 UNL     1     -16.704  24.164 -17.619  1.00  0.00     0.161 C 
BRANCH  32  33
HETATM   33  C21 UNL     1     -17.505  24.874 -18.702  1.00  0.00     0.029 C 
HETATM   34  C22 UNL     1     -16.775  24.987 -20.000  1.00  0.00     0.007 C 
ENDBRANCH  32  33
BRANCH  32  35
HETATM   35  C23 UNL     1     -17.500  23.876 -16.410  1.00  0.00     0.205 C 
HETATM   36  O6  UNL     1     -18.642  23.347 -16.471  1.00  0.00    -0.288 OA
BRANCH  35  37
HETATM   37  C24 UNL     1     -16.930  24.218 -15.099  1.00  0.00     0.122 A 
HETATM   38  N5  UNL     1     -15.827  23.832 -14.502  1.00  0.00    -0.357 N 
HETATM   39  C25 UNL     1     -15.518  24.267 -13.329  1.00  0.00     0.096 A 
ATOM     40  H5  UNL     1     -15.204  23.177 -14.975  1.00  0.00     0.166 HD
HETATM   41  C26 UNL     1     -16.383  25.147 -12.725  1.00  0.00     0.069 A 
HETATM   42  S1  UNL     1     -17.605  25.292 -13.910  1.00  0.00    -0.079 SA
ENDBRANCH  35  37
ENDBRANCH  32  35
ENDBRANCH  30  32
ENDBRANCH  27  28
ENDBRANCH  25  27
ENDBRANCH   4  23
ENDBRANCH   3   4
TORSDOF 14
ENDMDL
MODEL 5
REMARK VINA RESULT: -8.082424035      2.665      9.255
REMARK  14 active torsions:
REMARK  status: ('A' for Active; 'I' for Inactive)
REMARK    1  A    between atoms: C3_3  and  C4_4 
REMARK    2  A    between atoms: C4_4  and  N1_5 
REMARK    3  A    between atoms: C4_4  and  C16_23 
REMARK       I    between atoms: N1_5  and  C5_7 
REMARK    4  A    between atoms: C5_7  and  C6_9 
REMARK    5  A    between atoms: C6_9  and  N2_10 
REMARK    6  A    between atoms: C6_9  and  C12_19 
REMARK       I    between atoms: N2_10  and  C7_12 
REMARK    7  A    between atoms: C7_12  and  O3_14 
REMARK    8  A    between atoms: O3_14  and  C8_15 
REMARK       I    between atoms: C16_23  and  N3_25 
REMARK    9  A    between atoms: N3_25  and  C18_27 
REMARK   10  A    between atoms: C18_27  and  C19_28 
REMARK       I    between atoms: C19_28  and  N4_30 
REMARK   11  A    between atoms: N4_30  and  C20_32 
REMARK   12  A    between atoms: C20_32  and  C21_33 
REMARK   13  A    between atoms: C20_32  and  C23_35 
REMARK   14  A    between atoms: C23_35  and  C24_37 
ROOT
HETATM    1  C1  UNL     1     -14.058  22.076 -19.751  1.00  0.00     0.012 C 
HETATM    2  C2  UNL     1     -14.242  21.756 -18.605  1.00  0.00    -0.115 C 
HETATM    3  C3  UNL     1     -14.472  21.349 -17.228  1.00  0.00     0.128 C 
ENDROOT
BRANCH   3   4
HETATM    4  C4  UNL     1     -13.194  21.418 -16.380  1.00  0.00     0.188 C 
BRANCH   4   5
HETATM    5  N1  UNL     1     -12.160  20.657 -17.078  1.00  0.00    -0.345 N 
HETATM    6  C5  UNL     1     -10.841  21.132 -17.138  1.00  0.00     0.242 C 
HETATM    7  O1  UNL     1     -10.633  22.258 -16.556  1.00  0.00    -0.271 OA
ATOM      8  H1  UNL     1     -12.399  19.772 -17.527  1.00  0.00     0.163 HD
BRANCH   6   9
HETATM    9  C6  UNL     1      -9.708  20.464 -17.797  1.00  0.00     0.186 C 
BRANCH   9  10
HETATM   10  N2  UNL     1      -9.727  19.061 -17.389  1.00  0.00    -0.323 N 
HETATM   11  C7  UNL     1      -9.801  18.618 -16.077  1.00  0.00     0.362 C 
HETATM   12  O2  UNL     1      -9.856  19.430 -15.129  1.00  0.00    -0.238 OA
ATOM     13  H2  UNL     1      -9.683  18.354 -18.124  1.00  0.00     0.165 HD
BRANCH  11  14
HETATM   14  O3  UNL     1      -9.814  17.272 -15.781  1.00  0.00    -0.294 OA
BRANCH  14  15
HETATM   15  C8  UNL     1      -8.616  16.571 -15.527  1.00  0.00     0.061 C 
HETATM   16  C9  UNL     1      -8.046  15.940 -16.776  1.00  0.00     0.046 C 
HETATM   17  C10 UNL     1      -7.558  17.438 -14.877  1.00  0.00     0.046 C 
HETATM   18  C11 UNL     1      -8.930  15.453 -14.556  1.00  0.00     0.046 C 
ENDBRANCH  14  15
ENDBRANCH  11  14
ENDBRANCH   9  10
BRANCH   9  19
HETATM   19  C12 UNL     1      -9.795  20.501 -19.303  1.00  0.00    -0.022 C 
HETATM   20  C13 UNL     1      -8.382  20.338 -19.856  1.00  0.00     0.017 C 
HETATM   21  C14 UNL     1     -10.665  19.471 -19.925  1.00  0.00     0.017 C 
HETATM   22  C15 UNL     1     -10.355  21.857 -19.742  1.00  0.00     0.017 C 
ENDBRANCH   9  19
ENDBRANCH   6   9
ENDBRANCH   4   5
BRANCH   4  23
HETATM   23  C16 UNL     1     -13.541  20.801 -15.090  1.00  0.00     0.243 C 
HETATM   24  O4  UNL     1     -13.197  19.575 -14.959  1.00  0.00    -0.271 OA
HETATM   25  N3  UNL     1     -14.189  21.428 -14.042  1.00  0.00    -0.346 N 
HETATM   26  C17 UNL     1     -14.546  20.625 -12.852  1.00  0.00     0.153 C 
BRANCH  25  27
HETATM   27  C18 UNL     1     -14.501  22.829 -13.959  1.00  0.00     0.228 C 
BRANCH  27  28
HETATM   28  C19 UNL     1     -15.882  23.101 -14.482  1.00  0.00     0.236 C 
HETATM   29  O5  UNL     1     -16.840  22.340 -14.220  1.00  0.00    -0.272 OA
HETATM   30  N4  UNL     1     -16.104  24.240 -15.286  1.00  0.00    -0.348 N 
ATOM     31  H4  UNL     1     -15.337  24.874 -15.507  1.00  0.00     0.163 HD
BRANCH  30  32
HETATM   32  C20 UNL     1     -17.449  24.501 -15.797  1.00  0.00     0.161 C 
BRANCH  32  33
HETATM   33  C21 UNL     1     -17.803  25.966 -15.574  1.00  0.00     0.029 C 
HETATM   34  C22 UNL     1     -17.825  26.357 -14.133  1.00  0.00     0.007 C 
ENDBRANCH  32  33
BRANCH  32  35
HETATM   35  C23 UNL     1     -17.562  24.091 -17.211  1.00  0.00     0.205 C 
HETATM   36  O6  UNL     1     -18.410  23.241 -17.594  1.00  0.00    -0.288 OA
BRANCH  35  37
HETATM   37  C24 UNL     1     -16.655  24.703 -18.192  1.00  0.00     0.122 A 
HETATM   38  N5  UNL     1     -15.431  25.162 -18.076  1.00  0.00    -0.357 N 
HETATM   39  C25 UNL     1     -14.812  25.666 -19.089  1.00  0.00     0.096 A 
ATOM     40  H5  UNL     1     -14.962  25.119 -17.172  1.00  0.00     0.166 HD
HETATM   41  C26 UNL     1     -15.478  25.707 -20.290  1.00  0.00     0.069 A 
HETATM   42  S1  UNL     1     -16.977  25.002 -19.873  1.00  0.00    -0.079 SA
ENDBRANCH  35  37
ENDBRANCH  32  35
ENDBRANCH  30  32
ENDBRANCH  27  28
ENDBRANCH  25  27
ENDBRANCH   4  23
ENDBRANCH   3   4
TORSDOF 14
ENDMDL
