MODEL 1
REMARK VINA RESULT: -9.221821428      0.000      0.000
REMARK  16 active torsions:
REMARK  status: ('A' for Active; 'I' for Inactive)
REMARK    1  A    between atoms: N1_2  and  C2_4 
REMARK    2  A    between atoms: C2_4  and  C3_5 
REMARK    3  A    between atoms: C2_4  and  C12_15 
REMARK    4  A    between atoms: C3_5  and  S1_6 
REMARK    5  A    between atoms: S1_6  and  C4_7 
REMARK    6  A    between atoms: C4_7  and  C5_8 
REMARK       I    between atoms: C12_15  and  N2_17 
REMARK    7  A    between atoms: N2_17  and  C13_19 
REMARK    8  A    between atoms: C13_19  and  C14_20 
REMARK    9  A    between atoms: C13_19  and  C22_31 
REMARK   10  A    between atoms: C14_20  and  C15_21 
REMARK   11  A    between atoms: C15_21  and  C16_22 
REMARK   12  A    between atoms: C16_22  and  C17_23 
REMARK       I    between atoms: C22_31  and  N4_33 
REMARK   13  A    between atoms: N4_33  and  C23_35 
REMARK   14  A    between atoms: C23_35  and  C24_36 
REMARK   15  A    between atoms: C24_36  and  N5_39 
REMARK       I    between atoms: N5_39  and  C27_41 
REMARK   16  A    between atoms: C27_41  and  C28_43 
ROOT
HETATM    1  C13 UNL     1       7.095  25.220   3.805  1.00  0.00     0.176 C 
ENDROOT
BRANCH   1   2
HETATM    2  N2  UNL     1       7.963  25.227   2.656  1.00  0.00    -0.346 N 
HETATM    3  C12 UNL     1       7.540  25.468   1.325  1.00  0.00     0.241 C 
HETATM    4  O1  UNL     1       6.313  25.694   1.171  1.00  0.00    -0.271 OA
ATOM      5  H2  UNL     1       8.955  25.046   2.811  1.00  0.00     0.163 HD
BRANCH   3   6
HETATM    6  C2  UNL     1       8.475  25.460   0.166  1.00  0.00     0.178 C 
BRANCH   6   7
HETATM    7  N1  UNL     1       9.050  24.193  -0.079  1.00  0.00    -0.413 N 
HETATM    8  C1  UNL     1       9.029  23.702  -1.415  1.00  0.00     0.140 C 
ATOM      9  H1  UNL     1       9.466  23.649   0.677  1.00  0.00     0.153 HD
ENDBRANCH   6   7
BRANCH   6  10
HETATM   10  C3  UNL     1       9.473  26.533   0.372  1.00  0.00     0.108 C 
BRANCH  10  11
HETATM   11  S1  UNL     1      10.521  27.086  -0.909  1.00  0.00    -0.166 SA
BRANCH  11  12
HETATM   12  C4  UNL     1      12.135  26.440  -1.083  1.00  0.00     0.079 C 
BRANCH  12  13
HETATM   13  C5  UNL     1      13.308  27.361  -1.051  1.00  0.00    -0.001 C 
HETATM   14  C6  UNL     1      12.770  28.769  -1.365  1.00  0.00     0.010 C 
HETATM   15  C7  UNL     1      13.386  29.198  -2.654  1.00  0.00    -0.014 C 
HETATM   16  C8  UNL     1      14.839  29.479  -2.426  1.00  0.00     0.005 C 
HETATM   17  C11 UNL     1      13.487  27.832  -3.358  1.00  0.00     0.009 C 
HETATM   18  C9  UNL     1      15.385  28.088  -2.065  1.00  0.00     0.005 C 
HETATM   19  C10 UNL     1      14.220  27.128  -2.247  1.00  0.00    -0.009 C 
ENDBRANCH  12  13
ENDBRANCH  11  12
ENDBRANCH  10  11
ENDBRANCH   6  10
ENDBRANCH   3   6
ENDBRANCH   1   2
BRANCH   1  20
HETATM   20  C14 UNL     1       7.434  24.265   4.885  1.00  0.00     0.035 C 
BRANCH  20  21
HETATM   21  C15 UNL     1       6.353  23.235   5.123  1.00  0.00     0.003 C 
BRANCH  21  22
HETATM   22  C16 UNL     1       5.508  23.610   6.331  1.00  0.00     0.006 C 
BRANCH  22  23
HETATM   23  C17 UNL     1       4.103  23.025   6.143  1.00  0.00     0.011 C 
HETATM   24  C18 UNL     1       3.217  23.968   5.420  1.00  0.00     0.008 C 
HETATM   25  C19 UNL     1       1.833  24.133   5.951  1.00  0.00     0.028 C 
HETATM   26  C20 UNL     1       1.692  23.831   7.413  1.00  0.00     0.232 C 
HETATM   27  N3  UNL     1       2.160  22.457   7.579  1.00  0.00    -0.075 N 
HETATM   28  C21 UNL     1       3.579  22.465   7.431  1.00  0.00     0.237 C 
ATOM     29  H32 UNL     1       1.854  22.036   8.456  1.00  0.00     0.277 HD
ATOM     30  H31 UNL     1       1.699  21.801   6.948  1.00  0.00     0.277 HD
ENDBRANCH  22  23
ENDBRANCH  21  22
ENDBRANCH  20  21
ENDBRANCH   1  20
BRANCH   1  31
HETATM   31  C22 UNL     1       7.004  26.625   4.322  1.00  0.00     0.240 C 
HETATM   32  O2  UNL     1       6.720  26.776   5.567  1.00  0.00    -0.271 OA
HETATM   33  N4  UNL     1       7.214  27.748   3.499  1.00  0.00    -0.357 N 
ATOM     34  H4  UNL     1       7.427  27.626   2.508  1.00  0.00     0.162 HD
BRANCH  33  35
HETATM   35  C23 UNL     1       7.126  29.076   4.068  1.00  0.00     0.152 C 
BRANCH  35  36
HETATM   36  C24 UNL     1       8.473  29.545   4.570  1.00  0.00     0.041 C 
HETATM   37  C25 UNL     1       8.613  31.011   4.214  1.00  0.00     0.039 C 
HETATM   38  C26 UNL     1       9.509  28.789   3.705  1.00  0.00     0.039 C 
BRANCH  36  39
HETATM   39  N5  UNL     1       8.712  29.255   5.955  1.00  0.00    -0.351 N 
HETATM   40  C27 UNL     1       8.037  29.923   7.006  1.00  0.00     0.221 C 
HETATM   41  O3  UNL     1       7.189  30.808   6.735  1.00  0.00    -0.273 OA
ATOM     42  H5  UNL     1       9.396  28.537   6.191  1.00  0.00     0.163 HD
BRANCH  40  43
HETATM   43  C28 UNL     1       8.336  29.573   8.420  1.00  0.00     0.070 C 
HETATM   44  C29 UNL     1       9.313  30.581   8.973  1.00  0.00     0.019 C 
HETATM   45  C30 UNL     1       7.044  29.564   9.240  1.00  0.00     0.019 C 
ENDBRANCH  40  43
ENDBRANCH  36  39
ENDBRANCH  35  36
ENDBRANCH  33  35
ENDBRANCH   1  31
TORSDOF 16
ENDMDL
MODEL 2
REMARK VINA RESULT: -9.105884958      2.520      8.767
REMARK  16 active torsions:
REMARK  status: ('A' for Active; 'I' for Inactive)
REMARK    1  A    between atoms: N1_2  and  C2_4 
REMARK    2  A    between atoms: C2_4  and  C3_5 
REMARK    3  A    between atoms: C2_4  and  C12_15 
REMARK    4  A    between atoms: C3_5  and  S1_6 
REMARK    5  A    between atoms: S1_6  and  C4_7 
REMARK    6  A    between atoms: C4_7  and  C5_8 
REMARK       I    between atoms: C12_15  and  N2_17 
REMARK    7  A    between atoms: N2_17  and  C13_19 
REMARK    8  A    between atoms: C13_19  and  C14_20 
REMARK    9  A    between atoms: C13_19  and  C22_31 
REMARK   10  A    between atoms: C14_20  and  C15_21 
REMARK   11  A    between atoms: C15_21  and  C16_22 
REMARK   12  A    between atoms: C16_22  and  C17_23 
REMARK       I    between atoms: C22_31  and  N4_33 
REMARK   13  A    between atoms: N4_33  and  C23_35 
REMARK   14  A    between atoms: C23_35  and  C24_36 
REMARK   15  A    between atoms: C24_36  and  N5_39 
REMARK       I    between atoms: N5_39  and  C27_41 
REMARK   16  A    between atoms: C27_41  and  C28_43 
ROOT
HETATM    1  C13 UNL     1       8.350  25.381   3.511  1.00  0.00     0.176 C 
ENDROOT
BRANCH   1   2
HETATM    2  N2  UNL     1       7.602  26.482   4.061  1.00  0.00    -0.346 N 
HETATM    3  C12 UNL     1       8.175  27.675   4.566  1.00  0.00     0.241 C 
HETATM    4  O1  UNL     1       9.429  27.749   4.510  1.00  0.00    -0.271 OA
ATOM      5  H2  UNL     1       6.586  26.396   4.089  1.00  0.00     0.163 HD
BRANCH   3   6
HETATM    6  C2  UNL     1       7.360  28.786   5.132  1.00  0.00     0.178 C 
BRANCH   6   7
HETATM    7  N1  UNL     1       6.789  29.618   4.143  1.00  0.00    -0.413 N 
HETATM    8  C1  UNL     1       7.467  30.827   3.819  1.00  0.00     0.140 C 
ATOM      9  H1  UNL     1       5.919  29.360   3.678  1.00  0.00     0.153 HD
ENDBRANCH   6   7
BRANCH   6  10
HETATM   10  C3  UNL     1       8.195  29.518   6.111  1.00  0.00     0.108 C 
BRANCH  10  11
HETATM   11  S1  UNL     1       7.760  29.637   7.796  1.00  0.00    -0.166 SA
BRANCH  11  12
HETATM   12  C4  UNL     1       8.975  29.952   9.011  1.00  0.00     0.079 C 
BRANCH  12  13
HETATM   13  C5  UNL     1       8.568  30.131  10.435  1.00  0.00    -0.001 C 
HETATM   14  C6  UNL     1       9.785  29.736  11.293  1.00  0.00     0.010 C 
HETATM   15  C7  UNL     1       9.393  28.536  12.087  1.00  0.00    -0.014 C 
HETATM   16  C8  UNL     1       8.410  28.951  13.138  1.00  0.00     0.005 C 
HETATM   17  C11 UNL     1       8.438  27.863  11.082  1.00  0.00     0.009 C 
HETATM   18  C9  UNL     1       7.203  29.392  12.296  1.00  0.00     0.005 C 
HETATM   19  C10 UNL     1       7.564  29.068  10.855  1.00  0.00    -0.009 C 
ENDBRANCH  12  13
ENDBRANCH  11  12
ENDBRANCH  10  11
ENDBRANCH   6  10
ENDBRANCH   3   6
ENDBRANCH   1   2
BRANCH   1  20
HETATM   20  C14 UNL     1       8.345  24.121   4.289  1.00  0.00     0.035 C 
BRANCH  20  21
HETATM   21  C15 UNL     1       7.397  24.158   5.466  1.00  0.00     0.003 C 
BRANCH  21  22
HETATM   22  C16 UNL     1       6.227  23.212   5.245  1.00  0.00     0.006 C 
BRANCH  22  23
HETATM   23  C17 UNL     1       5.021  23.737   6.035  1.00  0.00     0.011 C 
HETATM   24  C18 UNL     1       4.502  22.713   6.972  1.00  0.00     0.008 C 
HETATM   25  C19 UNL     1       3.021  22.547   7.035  1.00  0.00     0.028 C 
HETATM   26  C20 UNL     1       2.300  22.958   5.787  1.00  0.00     0.232 C 
HETATM   27  N3  UNL     1       2.664  24.355   5.562  1.00  0.00    -0.075 N 
HETATM   28  C21 UNL     1       4.020  24.379   5.121  1.00  0.00     0.237 C 
ATOM     29  H32 UNL     1       2.030  24.833   4.923  1.00  0.00     0.277 HD
ATOM     30  H31 UNL     1       2.501  24.944   6.379  1.00  0.00     0.277 HD
ENDBRANCH  22  23
ENDBRANCH  21  22
ENDBRANCH  20  21
ENDBRANCH   1  20
BRANCH   1  31
HETATM   31  C22 UNL     1       7.876  25.160   2.105  1.00  0.00     0.240 C 
HETATM   32  O2  UNL     1       6.651  25.453   1.844  1.00  0.00    -0.271 OA
HETATM   33  N4  UNL     1       8.716  24.654   1.095  1.00  0.00    -0.357 N 
ATOM     34  H4  UNL     1       9.685  24.411   1.306  1.00  0.00     0.162 HD
BRANCH  33  35
HETATM   35  C23 UNL     1       8.198  24.481  -0.245  1.00  0.00     0.152 C 
BRANCH  35  36
HETATM   36  C24 UNL     1       9.106  25.124  -1.270  1.00  0.00     0.041 C 
HETATM   37  C25 UNL     1       8.253  26.016  -2.148  1.00  0.00     0.039 C 
HETATM   38  C26 UNL     1       9.583  23.959  -2.169  1.00  0.00     0.039 C 
BRANCH  36  39
HETATM   39  N5  UNL     1      10.248  25.782  -0.703  1.00  0.00    -0.351 N 
HETATM   40  C27 UNL     1      11.159  26.541  -1.479  1.00  0.00     0.221 C 
HETATM   41  O3  UNL     1      10.976  26.655  -2.715  1.00  0.00    -0.273 OA
ATOM     42  H5  UNL     1      10.410  25.700   0.300  1.00  0.00     0.163 HD
BRANCH  40  43
HETATM   43  C28 UNL     1      12.324  27.195  -0.826  1.00  0.00     0.070 C 
HETATM   44  C29 UNL     1      13.546  26.978  -1.684  1.00  0.00     0.019 C 
HETATM   45  C30 UNL     1      12.049  28.688  -0.642  1.00  0.00     0.019 C 
ENDBRANCH  40  43
ENDBRANCH  36  39
ENDBRANCH  35  36
ENDBRANCH  33  35
ENDBRANCH   1  31
TORSDOF 16
ENDMDL
MODEL 3
REMARK VINA RESULT: -9.090090937      2.479      3.185
REMARK  16 active torsions:
REMARK  status: ('A' for Active; 'I' for Inactive)
REMARK    1  A    between atoms: N1_2  and  C2_4 
REMARK    2  A    between atoms: C2_4  and  C3_5 
REMARK    3  A    between atoms: C2_4  and  C12_15 
REMARK    4  A    between atoms: C3_5  and  S1_6 
REMARK    5  A    between atoms: S1_6  and  C4_7 
REMARK    6  A    between atoms: C4_7  and  C5_8 
REMARK       I    between atoms: C12_15  and  N2_17 
REMARK    7  A    between atoms: N2_17  and  C13_19 
REMARK    8  A    between atoms: C13_19  and  C14_20 
REMARK    9  A    between atoms: C13_19  and  C22_31 
REMARK   10  A    between atoms: C14_20  and  C15_21 
REMARK   11  A    between atoms: C15_21  and  C16_22 
REMARK   12  A    between atoms: C16_22  and  C17_23 
REMARK       I    between atoms: C22_31  and  N4_33 
REMARK   13  A    between atoms: N4_33  and  C23_35 
REMARK   14  A    between atoms: C23_35  and  C24_36 
REMARK   15  A    between atoms: C24_36  and  N5_39 
REMARK       I    between atoms: N5_39  and  C27_41 
REMARK   16  A    between atoms: C27_41  and  C28_43 
ROOT
HETATM    1  C13 UNL     1       7.757  25.542   2.785  1.00  0.00     0.176 C 
ENDROOT
BRANCH   1   2
HETATM    2  N2  UNL     1       8.383  24.970   1.621  1.00  0.00    -0.346 N 
HETATM    3  C12 UNL     1       8.061  25.304   0.283  1.00  0.00     0.241 C 
HETATM    4  O1  UNL     1       7.161  26.170   0.135  1.00  0.00    -0.271 OA
ATOM      5  H2  UNL     1       9.113  24.273   1.772  1.00  0.00     0.163 HD
BRANCH   3   6
HETATM    6  C2  UNL     1       8.733  24.680  -0.890  1.00  0.00     0.178 C 
BRANCH   6   7
HETATM    7  N1  UNL     1      10.124  24.925  -0.931  1.00  0.00    -0.413 N 
HETATM    8  C1  UNL     1      10.557  26.227  -1.311  1.00  0.00     0.140 C 
ATOM      9  H1  UNL     1      10.794  24.194  -0.696  1.00  0.00     0.153 HD
ENDBRANCH   6   7
BRANCH   6  10
HETATM   10  C3  UNL     1       8.019  25.111  -2.113  1.00  0.00     0.108 C 
BRANCH  10  11
HETATM   11  S1  UNL     1       8.256  24.324  -3.652  1.00  0.00    -0.166 SA
BRANCH  11  12
HETATM   12  C4  UNL     1       9.659  24.680  -4.630  1.00  0.00     0.079 C 
BRANCH  12  13
HETATM   13  C5  UNL     1      10.581  23.578  -5.029  1.00  0.00    -0.001 C 
HETATM   14  C6  UNL     1      11.683  23.516  -3.955  1.00  0.00     0.010 C 
HETATM   15  C7  UNL     1      12.971  23.860  -4.626  1.00  0.00    -0.014 C 
HETATM   16  C8  UNL     1      13.366  22.730  -5.523  1.00  0.00     0.005 C 
HETATM   17  C11 UNL     1      12.454  24.863  -5.675  1.00  0.00     0.009 C 
HETATM   18  C9  UNL     1      12.250  22.747  -6.578  1.00  0.00     0.005 C 
HETATM   19  C10 UNL     1      11.396  23.963  -6.255  1.00  0.00    -0.009 C 
ENDBRANCH  12  13
ENDBRANCH  11  12
ENDBRANCH  10  11
ENDBRANCH   6  10
ENDBRANCH   3   6
ENDBRANCH   1   2
BRANCH   1  20
HETATM   20  C14 UNL     1       7.334  24.596   3.844  1.00  0.00     0.035 C 
BRANCH  20  21
HETATM   21  C15 UNL     1       6.411  25.224   4.862  1.00  0.00     0.003 C 
BRANCH  21  22
HETATM   22  C16 UNL     1       6.144  24.264   6.011  1.00  0.00     0.006 C 
BRANCH  22  23
HETATM   23  C17 UNL     1       4.885  23.452   5.684  1.00  0.00     0.011 C 
HETATM   24  C18 UNL     1       3.820  24.311   5.114  1.00  0.00     0.008 C 
HETATM   25  C19 UNL     1       2.436  24.098   5.627  1.00  0.00     0.028 C 
HETATM   26  C20 UNL     1       2.372  23.520   7.009  1.00  0.00     0.232 C 
HETATM   27  N3  UNL     1       3.109  22.260   6.944  1.00  0.00    -0.075 N 
HETATM   28  C21 UNL     1       4.495  22.579   6.840  1.00  0.00     0.237 C 
ATOM     29  H32 UNL     1       2.902  21.638   7.725  1.00  0.00     0.277 HD
ATOM     30  H31 UNL     1       2.785  21.648   6.195  1.00  0.00     0.277 HD
ENDBRANCH  22  23
ENDBRANCH  21  22
ENDBRANCH  20  21
ENDBRANCH   1  20
BRANCH   1  31
HETATM   31  C22 UNL     1       8.672  26.600   3.327  1.00  0.00     0.240 C 
HETATM   32  O2  UNL     1       9.827  26.220   3.747  1.00  0.00    -0.271 OA
HETATM   33  N4  UNL     1       8.306  27.958   3.385  1.00  0.00    -0.357 N 
ATOM     34  H4  UNL     1       7.384  28.256   3.063  1.00  0.00     0.162 HD
BRANCH  33  35
HETATM   35  C23 UNL     1       9.245  28.929   3.906  1.00  0.00     0.152 C 
BRANCH  35  36
HETATM   36  C24 UNL     1       8.526  30.116   4.507  1.00  0.00     0.041 C 
HETATM   37  C25 UNL     1       7.144  30.180   3.889  1.00  0.00     0.039 C 
HETATM   38  C26 UNL     1       9.291  31.355   3.984  1.00  0.00     0.039 C 
BRANCH  36  39
HETATM   39  N5  UNL     1       8.526  30.132   5.941  1.00  0.00    -0.351 N 
HETATM   40  C27 UNL     1       7.695  29.288   6.718  1.00  0.00     0.221 C 
HETATM   41  O3  UNL     1       6.921  28.483   6.146  1.00  0.00    -0.273 OA
ATOM     42  H5  UNL     1       9.151  30.779   6.422  1.00  0.00     0.163 HD
BRANCH  40  43
HETATM   43  C28 UNL     1       7.746  29.360   8.203  1.00  0.00     0.070 C 
HETATM   44  C29 UNL     1       8.914  30.225   8.606  1.00  0.00     0.019 C 
HETATM   45  C30 UNL     1       6.434  29.933   8.742  1.00  0.00     0.019 C 
ENDBRANCH  40  43
ENDBRANCH  36  39
ENDBRANCH  35  36
ENDBRANCH  33  35
ENDBRANCH   1  31
TORSDOF 16
ENDMDL
MODEL 4
REMARK VINA RESULT: -9.035533545      2.979      9.242
REMARK  16 active torsions:
REMARK  status: ('A' for Active; 'I' for Inactive)
REMARK    1  A    between atoms: N1_2  and  C2_4 
REMARK    2  A    between atoms: C2_4  and  C3_5 
REMARK    3  A    between atoms: C2_4  and  C12_15 
REMARK    4  A    between atoms: C3_5  and  S1_6 
REMARK    5  A    between atoms: S1_6  and  C4_7 
REMARK    6  A    between atoms: C4_7  and  C5_8 
REMARK       I    between atoms: C12_15  and  N2_17 
REMARK    7  A    between atoms: N2_17  and  C13_19 
REMARK    8  A    between atoms: C13_19  and  C14_20 
REMARK    9  A    between atoms: C13_19  and  C22_31 
REMARK   10  A    between atoms: C14_20  and  C15_21 
REMARK   11  A    between atoms: C15_21  and  C16_22 
REMARK   12  A    between atoms: C16_22  and  C17_23 
REMARK       I    between atoms: C22_31  and  N4_33 
REMARK   13  A    between atoms: N4_33  and  C23_35 
REMARK   14  A    between atoms: C23_35  and  C24_36 
REMARK   15  A    between atoms: C24_36  and  N5_39 
REMARK       I    between atoms: N5_39  and  C27_41 
REMARK   16  A    between atoms: C27_41  and  C28_43 
ROOT
HETATM    1  C13 UNL     1       8.345  25.330   3.828  1.00  0.00     0.176 C 
ENDROOT
BRANCH   1   2
HETATM    2  N2  UNL     1       7.627  26.427   4.425  1.00  0.00    -0.346 N 
HETATM    3  C12 UNL     1       8.189  27.692   4.726  1.00  0.00     0.241 C 
HETATM    4  O1  UNL     1       9.403  27.838   4.433  1.00  0.00    -0.271 OA
ATOM      5  H2  UNL     1       6.642  26.281   4.648  1.00  0.00     0.163 HD
BRANCH   3   6
HETATM    6  C2  UNL     1       7.407  28.795   5.350  1.00  0.00     0.178 C 
BRANCH   6   7
HETATM    7  N1  UNL     1       6.822  29.668   4.406  1.00  0.00    -0.413 N 
HETATM    8  C1  UNL     1       7.500  30.886   4.119  1.00  0.00     0.140 C 
ATOM      9  H1  UNL     1       5.943  29.432   3.945  1.00  0.00     0.153 HD
ENDBRANCH   6   7
BRANCH   6  10
HETATM   10  C3  UNL     1       8.279  29.481   6.330  1.00  0.00     0.108 C 
BRANCH  10  11
HETATM   11  S1  UNL     1       7.792  29.739   7.985  1.00  0.00    -0.166 SA
BRANCH  11  12
HETATM   12  C4  UNL     1       8.986  29.941   9.245  1.00  0.00     0.079 C 
BRANCH  12  13
HETATM   13  C5  UNL     1       8.547  30.095  10.662  1.00  0.00    -0.001 C 
HETATM   14  C6  UNL     1       9.755  29.719  11.540  1.00  0.00     0.010 C 
HETATM   15  C7  UNL     1       9.374  28.501  12.314  1.00  0.00    -0.014 C 
HETATM   16  C8  UNL     1       8.361  28.882  13.348  1.00  0.00     0.005 C 
HETATM   17  C11 UNL     1       8.455  27.818  11.283  1.00  0.00     0.009 C 
HETATM   18  C9  UNL     1       7.162  29.306  12.487  1.00  0.00     0.005 C 
HETATM   19  C10 UNL     1       7.559  29.005  11.051  1.00  0.00    -0.009 C 
ENDBRANCH  12  13
ENDBRANCH  11  12
ENDBRANCH  10  11
ENDBRANCH   6  10
ENDBRANCH   3   6
ENDBRANCH   1   2
BRANCH   1  20
HETATM   20  C14 UNL     1       8.247  24.021   4.514  1.00  0.00     0.035 C 
BRANCH  20  21
HETATM   21  C15 UNL     1       7.263  24.028   5.661  1.00  0.00     0.003 C 
BRANCH  21  22
HETATM   22  C16 UNL     1       6.056  23.161   5.340  1.00  0.00     0.006 C 
BRANCH  22  23
HETATM   23  C17 UNL     1       4.848  23.700   6.116  1.00  0.00     0.011 C 
HETATM   24  C18 UNL     1       4.338  22.701   7.085  1.00  0.00     0.008 C 
HETATM   25  C19 UNL     1       2.858  22.527   7.157  1.00  0.00     0.028 C 
HETATM   26  C20 UNL     1       2.132  22.895   5.898  1.00  0.00     0.232 C 
HETATM   27  N3  UNL     1       2.486  24.287   5.631  1.00  0.00    -0.075 N 
HETATM   28  C21 UNL     1       3.841  24.307   5.186  1.00  0.00     0.237 C 
ATOM     29  H32 UNL     1       1.846  24.741   4.979  1.00  0.00     0.277 HD
ATOM     30  H31 UNL     1       2.321  24.899   6.429  1.00  0.00     0.277 HD
ENDBRANCH  22  23
ENDBRANCH  21  22
ENDBRANCH  20  21
ENDBRANCH   1  20
BRANCH   1  31
HETATM   31  C22 UNL     1       7.922  25.231   2.392  1.00  0.00     0.240 C 
HETATM   32  O2  UNL     1       6.679  25.431   2.130  1.00  0.00    -0.271 OA
HETATM   33  N4  UNL     1       8.828  24.933   1.356  1.00  0.00    -0.357 N 
ATOM     34  H4  UNL     1       9.812  24.763   1.567  1.00  0.00     0.162 HD
BRANCH  33  35
HETATM   35  C23 UNL     1       8.354  24.868  -0.010  1.00  0.00     0.152 C 
BRANCH  35  36
HETATM   36  C24 UNL     1       9.108  25.835  -0.895  1.00  0.00     0.041 C 
HETATM   37  C25 UNL     1      10.249  26.411  -0.082  1.00  0.00     0.039 C 
HETATM   38  C26 UNL     1       8.124  27.001  -1.147  1.00  0.00     0.039 C 
BRANCH  36  39
HETATM   39  N5  UNL     1       9.512  25.277  -2.154  1.00  0.00    -0.351 N 
HETATM   40  C27 UNL     1       8.590  24.737  -3.085  1.00  0.00     0.221 C 
HETATM   41  O3  UNL     1       7.365  24.738  -2.816  1.00  0.00    -0.273 OA
ATOM     42  H5  UNL     1      10.504  25.270  -2.389  1.00  0.00     0.163 HD
BRANCH  40  43
HETATM   43  C28 UNL     1       9.080  24.173  -4.371  1.00  0.00     0.070 C 
HETATM   44  C29 UNL     1      10.547  23.849  -4.231  1.00  0.00     0.019 C 
HETATM   45  C30 UNL     1       8.280  22.919  -4.729  1.00  0.00     0.019 C 
ENDBRANCH  40  43
ENDBRANCH  36  39
ENDBRANCH  35  36
ENDBRANCH  33  35
ENDBRANCH   1  31
TORSDOF 16
ENDMDL
MODEL 5
REMARK VINA RESULT: -8.951587421      1.565      1.900
REMARK  16 active torsions:
REMARK  status: ('A' for Active; 'I' for Inactive)
REMARK    1  A    between atoms: N1_2  and  C2_4 
REMARK    2  A    between atoms: C2_4  and  C3_5 
REMARK    3  A    between atoms: C2_4  and  C12_15 
REMARK    4  A    between atoms: C3_5  and  S1_6 
REMARK    5  A    between atoms: S1_6  and  C4_7 
REMARK    6  A    between atoms: C4_7  and  C5_8 
REMARK       I    between atoms: C12_15  and  N2_17 
REMARK    7  A    between atoms: N2_17  and  C13_19 
REMARK    8  A    between atoms: C13_19  and  C14_20 
REMARK    9  A    between atoms: C13_19  and  C22_31 
REMARK   10  A    between atoms: C14_20  and  C15_21 
REMARK   11  A    between atoms: C15_21  and  C16_22 
REMARK   12  A    between atoms: C16_22  and  C17_23 
REMARK       I    between atoms: C22_31  and  N4_33 
REMARK   13  A    between atoms: N4_33  and  C23_35 
REMARK   14  A    between atoms: C23_35  and  C24_36 
REMARK   15  A    between atoms: C24_36  and  N5_39 
REMARK       I    between atoms: N5_39  and  C27_41 
REMARK   16  A    between atoms: C27_41  and  C28_43 
ROOT
HETATM    1  C13 UNL     1       7.534  24.928   3.711  1.00  0.00     0.176 C 
ENDROOT
BRANCH   1   2
HETATM    2  N2  UNL     1       8.188  24.993   2.429  1.00  0.00    -0.346 N 
HETATM    3  C12 UNL     1       7.556  25.370   1.218  1.00  0.00     0.241 C 
HETATM    4  O1  UNL     1       6.337  25.668   1.304  1.00  0.00    -0.271 OA
ATOM      5  H2  UNL     1       9.178  24.751   2.390  1.00  0.00     0.163 HD
BRANCH   3   6
HETATM    6  C2  UNL     1       8.273  25.418  -0.087  1.00  0.00     0.178 C 
BRANCH   6   7
HETATM    7  N1  UNL     1       9.124  24.310  -0.297  1.00  0.00    -0.413 N 
HETATM    8  C1  UNL     1       9.065  23.658  -1.561  1.00  0.00     0.140 C 
ATOM      9  H1  UNL     1       9.759  23.988   0.433  1.00  0.00     0.153 HD
ENDBRANCH   6   7
BRANCH   6  10
HETATM   10  C3  UNL     1       8.965  26.723  -0.184  1.00  0.00     0.108 C 
BRANCH  10  11
HETATM   11  S1  UNL     1      10.703  26.848  -0.266  1.00  0.00    -0.166 SA
BRANCH  11  12
HETATM   12  C4  UNL     1      11.463  28.108  -1.207  1.00  0.00     0.079 C 
BRANCH  12  13
HETATM   13  C5  UNL     1      12.941  28.299  -1.131  1.00  0.00    -0.001 C 
HETATM   14  C6  UNL     1      13.303  29.355  -2.192  1.00  0.00     0.010 C 
HETATM   15  C7  UNL     1      14.171  28.683  -3.203  1.00  0.00    -0.014 C 
HETATM   16  C8  UNL     1      15.508  28.409  -2.588  1.00  0.00     0.005 C 
HETATM   17  C11 UNL     1      13.564  27.267  -3.162  1.00  0.00     0.009 C 
HETATM   18  C9  UNL     1      15.158  27.389  -1.493  1.00  0.00     0.005 C 
HETATM   19  C10 UNL     1      13.679  27.083  -1.672  1.00  0.00    -0.009 C 
ENDBRANCH  12  13
ENDBRANCH  11  12
ENDBRANCH  10  11
ENDBRANCH   6  10
ENDBRANCH   3   6
ENDBRANCH   1   2
BRANCH   1  20
HETATM   20  C14 UNL     1       8.097  23.973   4.694  1.00  0.00     0.035 C 
BRANCH  20  21
HETATM   21  C15 UNL     1       7.188  23.742   5.878  1.00  0.00     0.003 C 
BRANCH  21  22
HETATM   22  C16 UNL     1       5.921  23.016   5.451  1.00  0.00     0.006 C 
BRANCH  22  23
HETATM   23  C17 UNL     1       4.730  23.638   6.191  1.00  0.00     0.011 C 
HETATM   24  C18 UNL     1       4.160  22.698   7.184  1.00  0.00     0.008 C 
HETATM   25  C19 UNL     1       2.672  22.597   7.239  1.00  0.00     0.028 C 
HETATM   26  C20 UNL     1       1.982  22.956   5.958  1.00  0.00     0.232 C 
HETATM   27  N3  UNL     1       2.406  24.320   5.650  1.00  0.00    -0.075 N 
HETATM   28  C21 UNL     1       3.766  24.261   5.225  1.00  0.00     0.237 C 
ATOM     29  H32 UNL     1       1.798  24.782   4.973  1.00  0.00     0.277 HD
ATOM     30  H31 UNL     1       2.259  24.966   6.425  1.00  0.00     0.277 HD
ENDBRANCH  22  23
ENDBRANCH  21  22
ENDBRANCH  20  21
ENDBRANCH   1  20
BRANCH   1  31
HETATM   31  C22 UNL     1       7.474  26.319   4.268  1.00  0.00     0.240 C 
HETATM   32  O2  UNL     1       6.340  26.720   4.726  1.00  0.00    -0.271 OA
HETATM   33  N4  UNL     1       8.595  27.170   4.299  1.00  0.00    -0.357 N 
ATOM     34  H4  UNL     1       9.490  26.854   3.925  1.00  0.00     0.162 HD
BRANCH  33  35
HETATM   35  C23 UNL     1       8.469  28.496   4.867  1.00  0.00     0.152 C 
BRANCH  35  36
HETATM   36  C24 UNL     1       8.827  29.560   3.853  1.00  0.00     0.041 C 
HETATM   37  C25 UNL     1       7.613  29.787   2.975  1.00  0.00     0.039 C 
HETATM   38  C26 UNL     1       9.899  28.908   2.950  1.00  0.00     0.039 C 
BRANCH  36  39
HETATM   39  N5  UNL     1       9.362  30.759   4.432  1.00  0.00    -0.351 N 
HETATM   40  C27 UNL     1       8.613  31.592   5.299  1.00  0.00     0.221 C 
HETATM   41  O3  UNL     1       7.431  31.285   5.588  1.00  0.00    -0.273 OA
ATOM     42  H5  UNL     1      10.321  31.022   4.209  1.00  0.00     0.163 HD
BRANCH  40  43
HETATM   43  C28 UNL     1       9.231  32.823   5.861  1.00  0.00     0.070 C 
HETATM   44  C29 UNL     1       9.974  33.538   4.760  1.00  0.00     0.019 C 
HETATM   45  C30 UNL     1       8.149  33.724   6.459  1.00  0.00     0.019 C 
ENDBRANCH  40  43
ENDBRANCH  36  39
ENDBRANCH  35  36
ENDBRANCH  33  35
ENDBRANCH   1  31
TORSDOF 16
ENDMDL
