MODEL 1
REMARK VINA RESULT: -5.959823942      0.000      0.000
REMARK  17 active torsions:
REMARK  status: ('A' for Active; 'I' for Inactive)
REMARK    1  A    between atoms: C2_2  and  C3_3 
REMARK    2  A    between atoms: C3_3  and  C4_4 
REMARK    3  A    between atoms: C4_4  and  C5_5 
REMARK    4  A    between atoms: C5_5  and  C6_6 
REMARK    5  A    between atoms: C6_6  and  C7_7 
REMARK    6  A    between atoms: C11_14  and  C12_15 
REMARK    7  A    between atoms: C13_16  and  C14_17 
REMARK    8  A    between atoms: C14_17  and  N2_18 
REMARK    9  A    between atoms: C16_25  and  C17_26 
REMARK   10  A    between atoms: C17_26  and  C18_27 
REMARK   11  A    between atoms: C18_27  and  C19_28 
REMARK   12  A    between atoms: C19_28  and  C20_29 
REMARK   13  A    between atoms: C20_29  and  C21_30 
REMARK   14  A    between atoms: C21_30  and  C22_31 
REMARK   15  A    between atoms: C24_38  and  C25_39 
REMARK   16  A    between atoms: C25_39  and  C26_40 
REMARK   17  A    between atoms: C29_45  and  O7_46 
ROOT
HETATM    1  C7  UNL     1       7.647  32.260   8.309  1.00  0.00     0.159 C 
HETATM    2  N1  UNL     1       6.686  32.473   7.285  1.00  0.00    -0.349 N 
ATOM      3  H1  UNL     1       5.846  31.909   7.416  1.00  0.00     0.163 HD
HETATM    4  C8  UNL     1       6.620  33.263   6.153  1.00  0.00     0.218 C 
HETATM    5  O1  UNL     1       5.534  33.972   6.065  1.00  0.00    -0.274 OA
HETATM    6  C9  UNL     1       7.544  33.450   5.036  1.00  0.00     0.105 C 
HETATM    7  C10 UNL     1       7.207  32.665   3.804  1.00  0.00     0.046 C 
HETATM    8  C11 UNL     1       6.776  31.242   4.065  1.00  0.00     0.155 C 
HETATM    9  O2  UNL     1       7.775  30.588   4.715  1.00  0.00    -0.310 OA
HETATM   10  C15 UNL     1       8.492  29.473   4.641  1.00  0.00     0.282 C 
HETATM   11  O3  UNL     1       9.706  29.435   4.218  1.00  0.00    -0.263 OA
HETATM   12  C16 UNL     1       7.947  28.171   5.047  1.00  0.00     0.184 C 
HETATM   13  N3  UNL     1       6.975  28.170   6.099  1.00  0.00    -0.345 N 
ATOM     14  H3  UNL     1       6.079  27.749   5.855  1.00  0.00     0.163 HD
HETATM   15  C23 UNL     1       7.059  28.659   7.421  1.00  0.00     0.241 C 
HETATM   16  O6  UNL     1       5.937  29.097   7.864  1.00  0.00    -0.271 OA
HETATM   17  C24 UNL     1       8.182  28.746   8.343  1.00  0.00     0.175 C 
HETATM   18  N4  UNL     1       8.906  29.966   8.456  1.00  0.00    -0.359 N 
ATOM     19  H4  UNL     1       9.799  29.842   8.933  1.00  0.00     0.162 HD
HETATM   20  C29 UNL     1       8.695  31.275   8.078  1.00  0.00     0.135 C 
ENDROOT
BRANCH  12  21
HETATM   21  C17 UNL     1       9.064  27.139   5.290  1.00  0.00     0.035 C 
BRANCH  21  22
HETATM   22  C18 UNL     1       8.957  26.054   4.268  1.00  0.00     0.002 C 
BRANCH  22  23
HETATM   23  C19 UNL     1       8.899  24.708   4.944  1.00  0.00     0.001 C 
BRANCH  23  24
HETATM   24  C20 UNL     1       7.608  24.411   5.617  1.00  0.00     0.010 C 
BRANCH  24  25
HETATM   25  C21 UNL     1       6.395  24.502   4.739  1.00  0.00     0.113 C 
BRANCH  25  26
HETATM   26  C22 UNL     1       5.188  23.853   5.238  1.00  0.00     0.172 C 
HETATM   27  O4  UNL     1       4.056  24.209   4.833  1.00  0.00    -0.648 OA
HETATM   28  O5  UNL     1       5.268  22.817   6.181  1.00  0.00    -0.648 OA
ENDBRANCH  25  26
ENDBRANCH  24  25
ENDBRANCH  23  24
ENDBRANCH  22  23
ENDBRANCH  21  22
ENDBRANCH  12  21
BRANCH   8  29
HETATM   29  C12 UNL     1       6.394  30.579   2.793  1.00  0.00     0.003 C 
HETATM   30  C13 UNL     1       7.104  30.832   1.711  1.00  0.00    -0.001 C 
BRANCH  30  31
HETATM   31  C14 UNL     1       6.815  30.228   0.382  1.00  0.00     0.256 C 
BRANCH  31  32
HETATM   32  N2  UNL     1       6.764  28.781   0.564  1.00  0.00    -0.076 N 
ATOM     33  H23 UNL     1       7.663  28.382   0.836  1.00  0.00     0.274 HD
ATOM     34  H22 UNL     1       6.239  28.501   1.392  1.00  0.00     0.274 HD
ATOM     35  H21 UNL     1       6.394  28.379  -0.297  1.00  0.00     0.274 HD
ENDBRANCH  31  32
ENDBRANCH  30  31
ENDBRANCH   8  29
BRANCH  17  36
HETATM   36  C25 UNL     1       7.893  28.319   9.774  1.00  0.00     0.038 C 
BRANCH  36  37
HETATM   37  C26 UNL     1       8.375  29.192  10.848  1.00  0.00    -0.020 C 
HETATM   38  C27 UNL     1       7.112  29.831  11.479  1.00  0.00     0.009 C 
HETATM   39  C28 UNL     1       9.120  28.597  11.985  1.00  0.00     0.009 C 
ENDBRANCH  36  37
ENDBRANCH  17  36
BRANCH  20  40
HETATM   40  O7  UNL     1       9.664  31.751   7.339  1.00  0.00    -0.348 OA
ATOM     41  H7  UNL     1      10.347  32.156   7.861  1.00  0.00     0.219 HD
ENDBRANCH  20  40
BRANCH   1  42
HETATM   42  C6  UNL     1       8.260  33.626   8.703  1.00  0.00     0.033 C 
BRANCH  42  43
HETATM   43  C5  UNL     1       8.369  33.731  10.203  1.00  0.00     0.002 C 
BRANCH  43  44
HETATM   44  C4  UNL     1       9.851  33.729  10.535  1.00  0.00     0.000 C 
BRANCH  44  45
HETATM   45  C3  UNL     1      10.277  32.409  11.141  1.00  0.00    -0.000 C 
BRANCH  45  46
HETATM   46  C2  UNL     1      10.507  32.668  12.634  1.00  0.00    -0.005 C 
HETATM   47  C1  UNL     1       9.391  32.056  13.451  1.00  0.00     0.005 C 
ENDBRANCH  45  46
ENDBRANCH  44  45
ENDBRANCH  43  44
ENDBRANCH  42  43
ENDBRANCH   1  42
TORSDOF 17
ENDMDL
MODEL 2
REMARK VINA RESULT: -5.858957537      2.571      4.206
REMARK  17 active torsions:
REMARK  status: ('A' for Active; 'I' for Inactive)
REMARK    1  A    between atoms: C2_2  and  C3_3 
REMARK    2  A    between atoms: C3_3  and  C4_4 
REMARK    3  A    between atoms: C4_4  and  C5_5 
REMARK    4  A    between atoms: C5_5  and  C6_6 
REMARK    5  A    between atoms: C6_6  and  C7_7 
REMARK    6  A    between atoms: C11_14  and  C12_15 
REMARK    7  A    between atoms: C13_16  and  C14_17 
REMARK    8  A    between atoms: C14_17  and  N2_18 
REMARK    9  A    between atoms: C16_25  and  C17_26 
REMARK   10  A    between atoms: C17_26  and  C18_27 
REMARK   11  A    between atoms: C18_27  and  C19_28 
REMARK   12  A    between atoms: C19_28  and  C20_29 
REMARK   13  A    between atoms: C20_29  and  C21_30 
REMARK   14  A    between atoms: C21_30  and  C22_31 
REMARK   15  A    between atoms: C24_38  and  C25_39 
REMARK   16  A    between atoms: C25_39  and  C26_40 
REMARK   17  A    between atoms: C29_45  and  O7_46 
ROOT
HETATM    1  C7  UNL     1       8.112  31.193   4.479  1.00  0.00     0.159 C 
HETATM    2  N1  UNL     1       7.416  30.813   3.301  1.00  0.00    -0.349 N 
ATOM      3  H1  UNL     1       6.480  30.459   3.498  1.00  0.00     0.163 HD
HETATM    4  C8  UNL     1       7.707  30.809   1.950  1.00  0.00     0.218 C 
HETATM    5  O1  UNL     1       6.801  31.377   1.211  1.00  0.00    -0.274 OA
HETATM    6  C9  UNL     1       8.845  30.284   1.196  1.00  0.00     0.105 C 
HETATM    7  C10 UNL     1       8.613  28.946   0.561  1.00  0.00     0.046 C 
HETATM    8  C11 UNL     1       7.895  27.950   1.439  1.00  0.00     0.155 C 
HETATM    9  O2  UNL     1       8.620  27.753   2.572  1.00  0.00    -0.310 OA
HETATM   10  C15 UNL     1       9.129  26.773   3.309  1.00  0.00     0.282 C 
HETATM   11  O3  UNL     1      10.374  26.453   3.306  1.00  0.00    -0.263 OA
HETATM   12  C16 UNL     1       8.293  25.964   4.207  1.00  0.00     0.184 C 
HETATM   13  N3  UNL     1       7.155  26.605   4.794  1.00  0.00    -0.345 N 
ATOM     14  H3  UNL     1       6.262  26.154   4.600  1.00  0.00     0.163 HD
HETATM   15  C23 UNL     1       7.072  27.763   5.598  1.00  0.00     0.241 C 
HETATM   16  O6  UNL     1       5.982  28.417   5.422  1.00  0.00    -0.271 OA
HETATM   17  C24 UNL     1       7.997  28.322   6.573  1.00  0.00     0.175 C 
HETATM   18  N4  UNL     1       8.891  29.357   6.179  1.00  0.00    -0.359 N 
ATOM     19  H4  UNL     1       9.641  29.497   6.857  1.00  0.00     0.162 HD
HETATM   20  C29 UNL     1       8.993  30.217   5.106  1.00  0.00     0.135 C 
ENDROOT
BRANCH  12  21
HETATM   21  C17 UNL     1       9.143  25.219   5.254  1.00  0.00     0.035 C 
BRANCH  21  22
HETATM   22  C18 UNL     1       8.984  23.747   5.055  1.00  0.00     0.002 C 
BRANCH  22  23
HETATM   23  C19 UNL     1       7.523  23.390   4.959  1.00  0.00     0.001 C 
BRANCH  23  24
HETATM   24  C20 UNL     1       6.817  23.329   6.265  1.00  0.00     0.010 C 
BRANCH  24  25
HETATM   25  C21 UNL     1       5.432  22.753   6.216  1.00  0.00     0.113 C 
BRANCH  25  26
HETATM   26  C22 UNL     1       4.415  23.574   5.570  1.00  0.00     0.172 C 
HETATM   27  O4  UNL     1       3.221  23.194   5.522  1.00  0.00    -0.648 OA
HETATM   28  O5  UNL     1       4.751  24.806   4.987  1.00  0.00    -0.648 OA
ENDBRANCH  25  26
ENDBRANCH  24  25
ENDBRANCH  23  24
ENDBRANCH  22  23
ENDBRANCH  21  22
ENDBRANCH  12  21
BRANCH   8  29
HETATM   29  C12 UNL     1       7.650  26.690   0.693  1.00  0.00     0.003 C 
HETATM   30  C13 UNL     1       8.680  26.056   0.168  1.00  0.00    -0.001 C 
BRANCH  30  31
HETATM   31  C14 UNL     1       8.556  24.787  -0.601  1.00  0.00     0.256 C 
BRANCH  31  32
HETATM   32  N2  UNL     1       9.178  23.734   0.196  1.00  0.00    -0.076 N 
ATOM     33  H23 UNL     1       8.758  22.817   0.040  1.00  0.00     0.274 HD
ATOM     34  H22 UNL     1      10.121  23.503  -0.115  1.00  0.00     0.274 HD
ATOM     35  H21 UNL     1       9.141  24.030   1.171  1.00  0.00     0.274 HD
ENDBRANCH  31  32
ENDBRANCH  30  31
ENDBRANCH   8  29
BRANCH  17  36
HETATM   36  C25 UNL     1       7.371  28.808   7.871  1.00  0.00     0.038 C 
BRANCH  36  37
HETATM   37  C26 UNL     1       8.241  28.896   9.048  1.00  0.00    -0.020 C 
HETATM   38  C27 UNL     1       8.384  30.408   9.361  1.00  0.00     0.009 C 
HETATM   39  C28 UNL     1       7.801  28.274  10.321  1.00  0.00     0.009 C 
ENDBRANCH  36  37
ENDBRANCH  17  36
BRANCH  20  40
HETATM   40  O7  UNL     1      10.153  30.143   4.506  1.00  0.00    -0.348 OA
ATOM     41  H7  UNL     1      10.327  29.273   4.168  1.00  0.00     0.219 HD
ENDBRANCH  20  40
BRANCH   1  42
HETATM   42  C6  UNL     1       8.871  32.513   4.200  1.00  0.00     0.033 C 
BRANCH  42  43
HETATM   43  C5  UNL     1       8.937  33.347   5.454  1.00  0.00     0.002 C 
BRANCH  43  44
HETATM   44  C4  UNL     1      10.409  33.537   5.777  1.00  0.00     0.000 C 
BRANCH  44  45
HETATM   45  C3  UNL     1      11.155  34.142   4.607  1.00  0.00    -0.000 C 
BRANCH  45  46
HETATM   46  C2  UNL     1      12.482  33.383   4.495  1.00  0.00    -0.005 C 
HETATM   47  C1  UNL     1      12.470  32.483   3.280  1.00  0.00     0.005 C 
ENDBRANCH  45  46
ENDBRANCH  44  45
ENDBRANCH  43  44
ENDBRANCH  42  43
ENDBRANCH   1  42
TORSDOF 17
ENDMDL
MODEL 3
REMARK VINA RESULT: -5.845496100      3.752      8.893
REMARK  17 active torsions:
REMARK  status: ('A' for Active; 'I' for Inactive)
REMARK    1  A    between atoms: C2_2  and  C3_3 
REMARK    2  A    between atoms: C3_3  and  C4_4 
REMARK    3  A    between atoms: C4_4  and  C5_5 
REMARK    4  A    between atoms: C5_5  and  C6_6 
REMARK    5  A    between atoms: C6_6  and  C7_7 
REMARK    6  A    between atoms: C11_14  and  C12_15 
REMARK    7  A    between atoms: C13_16  and  C14_17 
REMARK    8  A    between atoms: C14_17  and  N2_18 
REMARK    9  A    between atoms: C16_25  and  C17_26 
REMARK   10  A    between atoms: C17_26  and  C18_27 
REMARK   11  A    between atoms: C18_27  and  C19_28 
REMARK   12  A    between atoms: C19_28  and  C20_29 
REMARK   13  A    between atoms: C20_29  and  C21_30 
REMARK   14  A    between atoms: C21_30  and  C22_31 
REMARK   15  A    between atoms: C24_38  and  C25_39 
REMARK   16  A    between atoms: C25_39  and  C26_40 
REMARK   17  A    between atoms: C29_45  and  O7_46 
ROOT
HETATM    1  C7  UNL     1       8.821  25.448   1.189  1.00  0.00     0.159 C 
HETATM    2  N1  UNL     1       9.754  26.364   0.636  1.00  0.00    -0.349 N 
ATOM      3  H1  UNL     1      10.552  26.527   1.250  1.00  0.00     0.163 HD
HETATM    4  C8  UNL     1       9.835  27.088  -0.539  1.00  0.00     0.218 C 
HETATM    5  O1  UNL     1      10.969  26.960  -1.162  1.00  0.00    -0.274 OA
HETATM    6  C9  UNL     1       8.885  27.972  -1.211  1.00  0.00     0.105 C 
HETATM    7  C10 UNL     1       9.110  29.435  -0.971  1.00  0.00     0.046 C 
HETATM    8  C11 UNL     1       9.439  29.794   0.458  1.00  0.00     0.155 C 
HETATM    9  O2  UNL     1       8.419  29.392   1.262  1.00  0.00    -0.310 OA
HETATM   10  C15 UNL     1       7.615  29.856   2.211  1.00  0.00     0.282 C 
HETATM   11  O3  UNL     1       6.386  30.176   2.009  1.00  0.00    -0.263 OA
HETATM   12  C16 UNL     1       8.074  30.042   3.594  1.00  0.00     0.184 C 
HETATM   13  N3  UNL     1       9.084  29.146   4.072  1.00  0.00    -0.345 N 
ATOM     14  H3  UNL     1       9.934  29.598   4.408  1.00  0.00     0.163 HD
HETATM   15  C23 UNL     1       9.092  27.736   4.154  1.00  0.00     0.241 C 
HETATM   16  O6  UNL     1      10.261  27.233   3.994  1.00  0.00    -0.271 OA
HETATM   17  C24 UNL     1       8.016  26.783   4.384  1.00  0.00     0.175 C 
HETATM   18  N4  UNL     1       7.395  26.143   3.275  1.00  0.00    -0.359 N 
ATOM     19  H4  UNL     1       6.515  25.695   3.532  1.00  0.00     0.162 HD
HETATM   20  C29 UNL     1       7.691  25.980   1.938  1.00  0.00     0.135 C 
ENDROOT
BRANCH  12  21
HETATM   21  C17 UNL     1       6.890  30.155   4.574  1.00  0.00     0.035 C 
BRANCH  21  22
HETATM   22  C18 UNL     1       7.414  30.460   5.940  1.00  0.00     0.002 C 
BRANCH  22  23
HETATM   23  C19 UNL     1       6.906  29.444   6.931  1.00  0.00     0.001 C 
BRANCH  23  24
HETATM   24  C20 UNL     1       7.970  28.732   7.684  1.00  0.00     0.010 C 
BRANCH  24  25
HETATM   25  C21 UNL     1       8.141  29.165   9.111  1.00  0.00     0.113 C 
BRANCH  25  26
HETATM   26  C22 UNL     1       9.300  30.003   9.396  1.00  0.00     0.172 C 
HETATM   27  O4  UNL     1      10.164  29.639  10.227  1.00  0.00    -0.648 OA
HETATM   28  O5  UNL     1       9.471  31.236   8.746  1.00  0.00    -0.648 OA
ENDBRANCH  25  26
ENDBRANCH  24  25
ENDBRANCH  23  24
ENDBRANCH  22  23
ENDBRANCH  21  22
ENDBRANCH  12  21
BRANCH   8  29
HETATM   29  C12 UNL     1       9.717  31.247   0.572  1.00  0.00     0.003 C 
HETATM   30  C13 UNL     1      10.533  31.805  -0.300  1.00  0.00    -0.001 C 
BRANCH  30  31
HETATM   31  C14 UNL     1      10.886  33.251  -0.284  1.00  0.00     0.256 C 
BRANCH  31  32
HETATM   32  N2  UNL     1      10.065  33.887   0.741  1.00  0.00    -0.076 N 
ATOM     33  H23 UNL     1       9.707  33.227   1.432  1.00  0.00     0.274 HD
ATOM     34  H22 UNL     1      10.605  34.469   1.380  1.00  0.00     0.274 HD
ATOM     35  H21 UNL     1       9.326  34.402   0.262  1.00  0.00     0.274 HD
ENDBRANCH  31  32
ENDBRANCH  30  31
ENDBRANCH   8  29
BRANCH  17  36
HETATM   36  C25 UNL     1       8.329  25.664   5.367  1.00  0.00     0.038 C 
BRANCH  36  37
HETATM   37  C26 UNL     1       7.755  24.344   5.089  1.00  0.00    -0.020 C 
HETATM   38  C27 UNL     1       8.958  23.379   4.930  1.00  0.00     0.009 C 
HETATM   39  C28 UNL     1       6.878  23.708   6.104  1.00  0.00     0.009 C 
ENDBRANCH  36  37
ENDBRANCH  17  36
BRANCH  20  40
HETATM   40  O7  UNL     1       6.733  26.400   1.153  1.00  0.00    -0.348 OA
ATOM     41  H7  UNL     1       6.121  25.708   0.932  1.00  0.00     0.219 HD
ENDBRANCH  20  40
BRANCH   1  42
HETATM   42  C6  UNL     1       8.333  24.500   0.066  1.00  0.00     0.033 C 
BRANCH  42  43
HETATM   43  C5  UNL     1       9.508  23.797  -0.565  1.00  0.00     0.002 C 
BRANCH  43  44
HETATM   44  C4  UNL     1       9.198  23.669  -2.046  1.00  0.00     0.000 C 
BRANCH  44  45
HETATM   45  C3  UNL     1      10.401  24.022  -2.893  1.00  0.00    -0.000 C 
BRANCH  45  46
HETATM   46  C2  UNL     1       9.920  25.042  -3.932  1.00  0.00    -0.005 C 
HETATM   47  C1  UNL     1       8.428  25.255  -3.806  1.00  0.00     0.005 C 
ENDBRANCH  45  46
ENDBRANCH  44  45
ENDBRANCH  43  44
ENDBRANCH  42  43
ENDBRANCH   1  42
TORSDOF 17
ENDMDL
MODEL 4
REMARK VINA RESULT: -5.674536763      2.863      7.451
REMARK  17 active torsions:
REMARK  status: ('A' for Active; 'I' for Inactive)
REMARK    1  A    between atoms: C2_2  and  C3_3 
REMARK    2  A    between atoms: C3_3  and  C4_4 
REMARK    3  A    between atoms: C4_4  and  C5_5 
REMARK    4  A    between atoms: C5_5  and  C6_6 
REMARK    5  A    between atoms: C6_6  and  C7_7 
REMARK    6  A    between atoms: C11_14  and  C12_15 
REMARK    7  A    between atoms: C13_16  and  C14_17 
REMARK    8  A    between atoms: C14_17  and  N2_18 
REMARK    9  A    between atoms: C16_25  and  C17_26 
REMARK   10  A    between atoms: C17_26  and  C18_27 
REMARK   11  A    between atoms: C18_27  and  C19_28 
REMARK   12  A    between atoms: C19_28  and  C20_29 
REMARK   13  A    between atoms: C20_29  and  C21_30 
REMARK   14  A    between atoms: C21_30  and  C22_31 
REMARK   15  A    between atoms: C24_38  and  C25_39 
REMARK   16  A    between atoms: C25_39  and  C26_40 
REMARK   17  A    between atoms: C29_45  and  O7_46 
ROOT
HETATM    1  C7  UNL     1       7.992  28.714   7.566  1.00  0.00     0.159 C 
HETATM    2  N1  UNL     1       8.620  29.939   7.218  1.00  0.00    -0.349 N 
ATOM      3  H1  UNL     1       9.487  30.092   7.733  1.00  0.00     0.163 HD
HETATM    4  C8  UNL     1       8.335  30.972   6.345  1.00  0.00     0.218 C 
HETATM    5  O1  UNL     1       9.322  31.292   5.562  1.00  0.00    -0.274 OA
HETATM    6  C9  UNL     1       7.130  31.774   6.139  1.00  0.00     0.105 C 
HETATM    7  C10 UNL     1       7.145  33.114   6.810  1.00  0.00     0.046 C 
HETATM    8  C11 UNL     1       7.693  33.106   8.217  1.00  0.00     0.155 C 
HETATM    9  O2  UNL     1       6.943  32.268   8.980  1.00  0.00    -0.310 OA
HETATM   10  C15 UNL     1       6.282  32.240  10.131  1.00  0.00     0.282 C 
HETATM   11  O3  UNL     1       5.002  32.317  10.218  1.00  0.00    -0.263 OA
HETATM   12  C16 UNL     1       6.975  32.114  11.420  1.00  0.00     0.184 C 
HETATM   13  N3  UNL     1       8.200  31.372  11.433  1.00  0.00    -0.345 N 
ATOM     14  H3  UNL     1       9.010  31.888  11.775  1.00  0.00     0.163 HD
HETATM   15  C23 UNL     1       8.466  30.040  11.047  1.00  0.00     0.241 C 
HETATM   16  O6  UNL     1       9.647  29.884  10.570  1.00  0.00    -0.271 OA
HETATM   17  C24 UNL     1       7.640  28.843  11.101  1.00  0.00     0.175 C 
HETATM   18  N4  UNL     1       6.924  28.430   9.942  1.00  0.00    -0.359 N 
ATOM     19  H4  UNL     1       6.205  27.739  10.159  1.00  0.00     0.162 HD
HETATM   20  C29 UNL     1       6.964  28.735   8.599  1.00  0.00     0.135 C 
ENDROOT
BRANCH  12  21
HETATM   21  C17 UNL     1       6.015  31.666  12.539  1.00  0.00     0.035 C 
BRANCH  21  22
HETATM   22  C18 UNL     1       6.813  31.299  13.749  1.00  0.00     0.002 C 
BRANCH  22  23
HETATM   23  C19 UNL     1       6.297  30.013  14.340  1.00  0.00     0.001 C 
BRANCH  23  24
HETATM   24  C20 UNL     1       5.110  29.447  13.647  1.00  0.00     0.010 C 
BRANCH  24  25
HETATM   25  C21 UNL     1       4.899  27.975  13.842  1.00  0.00     0.113 C 
BRANCH  25  26
HETATM   26  C22 UNL     1       3.512  27.524  13.894  1.00  0.00     0.172 C 
HETATM   27  O4  UNL     1       2.599  28.202  13.367  1.00  0.00    -0.648 OA
HETATM   28  O5  UNL     1       3.172  26.323  14.536  1.00  0.00    -0.648 OA
ENDBRANCH  25  26
ENDBRANCH  24  25
ENDBRANCH  23  24
ENDBRANCH  22  23
ENDBRANCH  21  22
ENDBRANCH  12  21
BRANCH   8  29
HETATM   29  C12 UNL     1       7.734  34.487   8.759  1.00  0.00     0.003 C 
HETATM   30  C13 UNL     1       8.794  34.864   9.448  1.00  0.00    -0.001 C 
BRANCH  30  31
HETATM   31  C14 UNL     1       8.946  36.221  10.040  1.00  0.00     0.256 C 
BRANCH  31  32
HETATM   32  N2  UNL     1      10.326  36.343  10.498  1.00  0.00    -0.076 N 
ATOM     33  H23 UNL     1      10.402  36.749  11.431  1.00  0.00     0.274 HD
ATOM     34  H22 UNL     1      10.757  35.443  10.710  1.00  0.00     0.274 HD
ATOM     35  H21 UNL     1      10.836  36.872   9.791  1.00  0.00     0.274 HD
ENDBRANCH  31  32
ENDBRANCH  30  31
ENDBRANCH   8  29
BRANCH  17  36
HETATM   36  C25 UNL     1       8.334  27.588  11.610  1.00  0.00     0.038 C 
BRANCH  36  37
HETATM   37  C26 UNL     1       8.864  27.619  12.977  1.00  0.00    -0.020 C 
HETATM   38  C27 UNL     1       8.271  26.378  13.693  1.00  0.00     0.009 C 
HETATM   39  C28 UNL     1      10.330  27.526  13.187  1.00  0.00     0.009 C 
ENDBRANCH  36  37
ENDBRANCH  17  36
BRANCH  20  40
HETATM   40  O7  UNL     1       5.809  29.136   8.136  1.00  0.00    -0.348 OA
ATOM     41  H7  UNL     1       5.548  29.974   8.501  1.00  0.00     0.219 HD
ENDBRANCH  20  40
BRANCH   1  42
HETATM   42  C6  UNL     1       7.454  28.049   6.275  1.00  0.00     0.033 C 
BRANCH  42  43
HETATM   43  C5  UNL     1       8.578  27.364   5.539  1.00  0.00     0.002 C 
BRANCH  43  44
HETATM   44  C4  UNL     1       7.990  26.115   4.908  1.00  0.00     0.000 C 
BRANCH  44  45
HETATM   45  C3  UNL     1       9.075  25.145   4.492  1.00  0.00    -0.000 C 
BRANCH  45  46
HETATM   46  C2  UNL     1       8.752  23.809   5.172  1.00  0.00    -0.005 C 
HETATM   47  C1  UNL     1       7.345  23.828   5.725  1.00  0.00     0.005 C 
ENDBRANCH  45  46
ENDBRANCH  44  45
ENDBRANCH  43  44
ENDBRANCH  42  43
ENDBRANCH   1  42
TORSDOF 17
ENDMDL
MODEL 5
REMARK VINA RESULT: -5.633905912      2.578      8.013
REMARK  17 active torsions:
REMARK  status: ('A' for Active; 'I' for Inactive)
REMARK    1  A    between atoms: C2_2  and  C3_3 
REMARK    2  A    between atoms: C3_3  and  C4_4 
REMARK    3  A    between atoms: C4_4  and  C5_5 
REMARK    4  A    between atoms: C5_5  and  C6_6 
REMARK    5  A    between atoms: C6_6  and  C7_7 
REMARK    6  A    between atoms: C11_14  and  C12_15 
REMARK    7  A    between atoms: C13_16  and  C14_17 
REMARK    8  A    between atoms: C14_17  and  N2_18 
REMARK    9  A    between atoms: C16_25  and  C17_26 
REMARK   10  A    between atoms: C17_26  and  C18_27 
REMARK   11  A    between atoms: C18_27  and  C19_28 
REMARK   12  A    between atoms: C19_28  and  C20_29 
REMARK   13  A    between atoms: C20_29  and  C21_30 
REMARK   14  A    between atoms: C21_30  and  C22_31 
REMARK   15  A    between atoms: C24_38  and  C25_39 
REMARK   16  A    between atoms: C25_39  and  C26_40 
REMARK   17  A    between atoms: C29_45  and  O7_46 
ROOT
HETATM    1  C7  UNL     1       7.838  28.337   7.163  1.00  0.00     0.159 C 
HETATM    2  N1  UNL     1       8.653  29.320   6.543  1.00  0.00    -0.349 N 
ATOM      3  H1  UNL     1       9.592  29.354   6.939  1.00  0.00     0.163 HD
HETATM    4  C8  UNL     1       8.474  30.242   5.529  1.00  0.00     0.218 C 
HETATM    5  O1  UNL     1       9.396  30.207   4.613  1.00  0.00    -0.274 OA
HETATM    6  C9  UNL     1       7.442  31.251   5.295  1.00  0.00     0.105 C 
HETATM    7  C10 UNL     1       7.819  32.642   5.709  1.00  0.00     0.046 C 
HETATM    8  C11 UNL     1       8.531  32.731   7.038  1.00  0.00     0.155 C 
HETATM    9  O2  UNL     1       7.731  32.210   8.006  1.00  0.00    -0.310 OA
HETATM   10  C15 UNL     1       7.233  32.511   9.199  1.00  0.00     0.282 C 
HETATM   11  O3  UNL     1       6.018  32.885   9.390  1.00  0.00    -0.263 OA
HETATM   12  C16 UNL     1       8.047  32.435  10.420  1.00  0.00     0.184 C 
HETATM   13  N3  UNL     1       9.085  31.449  10.452  1.00  0.00    -0.345 N 
ATOM     14  H3  UNL     1      10.021  31.818  10.619  1.00  0.00     0.163 HD
HETATM   15  C23 UNL     1       9.021  30.048  10.289  1.00  0.00     0.241 C 
HETATM   16  O6  UNL     1      10.073  29.559   9.740  1.00  0.00    -0.271 OA
HETATM   17  C24 UNL     1       7.982  29.089  10.635  1.00  0.00     0.175 C 
HETATM   18  N4  UNL     1       7.052  28.672   9.641  1.00  0.00    -0.359 N 
ATOM     19  H4  UNL     1       6.241  28.202  10.044  1.00  0.00     0.162 HD
HETATM   20  C29 UNL     1       6.979  28.747   8.266  1.00  0.00     0.135 C 
ENDROOT
BRANCH  12  21
HETATM   21  C17 UNL     1       7.169  32.392  11.685  1.00  0.00     0.035 C 
BRANCH  21  22
HETATM   22  C18 UNL     1       7.885  33.083  12.800  1.00  0.00     0.002 C 
BRANCH  22  23
HETATM   23  C19 UNL     1       8.478  34.380  12.312  1.00  0.00     0.001 C 
BRANCH  23  24
HETATM   24  C20 UNL     1       9.885  34.611  12.732  1.00  0.00     0.010 C 
BRANCH  24  25
HETATM   25  C21 UNL     1      10.874  34.730  11.611  1.00  0.00     0.113 C 
BRANCH  25  26
HETATM   26  C22 UNL     1      11.652  33.534  11.308  1.00  0.00     0.172 C 
HETATM   27  O4  UNL     1      11.451  32.465  11.931  1.00  0.00    -0.648 OA
HETATM   28  O5  UNL     1      12.643  33.555  10.314  1.00  0.00    -0.648 OA
ENDBRANCH  25  26
ENDBRANCH  24  25
ENDBRANCH  23  24
ENDBRANCH  22  23
ENDBRANCH  21  22
ENDBRANCH  12  21
BRANCH   8  29
HETATM   29  C12 UNL     1       8.924  34.134   7.316  1.00  0.00     0.003 C 
HETATM   30  C13 UNL     1      10.143  34.374   7.757  1.00  0.00    -0.001 C 
BRANCH  30  31
HETATM   31  C14 UNL     1      10.648  35.738   8.072  1.00  0.00     0.256 C 
BRANCH  31  32
HETATM   32  N2  UNL     1      12.099  35.647   8.193  1.00  0.00    -0.076 N 
ATOM     33  H23 UNL     1      12.466  36.169   8.989  1.00  0.00     0.274 HD
ATOM     34  H22 UNL     1      12.419  34.723   8.483  1.00  0.00     0.274 HD
ATOM     35  H21 UNL     1      12.498  35.945   7.302  1.00  0.00     0.274 HD
ENDBRANCH  31  32
ENDBRANCH  30  31
ENDBRANCH   8  29
BRANCH  17  36
HETATM   36  C25 UNL     1       8.464  27.806  11.294  1.00  0.00     0.038 C 
BRANCH  36  37
HETATM   37  C26 UNL     1       8.933  27.896  12.681  1.00  0.00    -0.020 C 
HETATM   38  C27 UNL     1       8.288  26.702  13.429  1.00  0.00     0.009 C 
HETATM   39  C28 UNL     1      10.386  27.792  12.961  1.00  0.00     0.009 C 
ENDBRANCH  36  37
ENDBRANCH  17  36
BRANCH  20  40
HETATM   40  O7  UNL     1       5.880  29.320   7.848  1.00  0.00    -0.348 OA
ATOM     41  H7  UNL     1       5.274  29.493   8.559  1.00  0.00     0.219 HD
ENDBRANCH  20  40
BRANCH   1  42
HETATM   42  C6  UNL     1       7.013  27.616   6.069  1.00  0.00     0.033 C 
BRANCH  42  43
HETATM   43  C5  UNL     1       7.792  26.449   5.517  1.00  0.00     0.002 C 
BRANCH  43  44
HETATM   44  C4  UNL     1       6.789  25.341   5.250  1.00  0.00     0.000 C 
BRANCH  44  45
HETATM   45  C3  UNL     1       7.219  24.041   5.895  1.00  0.00    -0.000 C 
BRANCH  45  46
HETATM   46  C2  UNL     1       6.002  23.110   5.856  1.00  0.00    -0.005 C 
HETATM   47  C1  UNL     1       4.774  23.869   5.406  1.00  0.00     0.005 C 
ENDBRANCH  45  46
ENDBRANCH  44  45
ENDBRANCH  43  44
ENDBRANCH  42  43
ENDBRANCH   1  42
TORSDOF 17
ENDMDL
