MODEL 1
REMARK VINA RESULT: -7.587157761      0.000      0.000
REMARK  11 active torsions:
REMARK  status: ('A' for Active; 'I' for Inactive)
REMARK    1  A    between atoms: C2_2  and  C3_3 
REMARK    2  A    between atoms: C3_3  and  C4_4 
REMARK    3  A    between atoms: C4_4  and  C5_5 
REMARK    4  A    between atoms: C6_6  and  C7_7 
REMARK    5  A    between atoms: C7_7  and  C8_8 
REMARK    6  A    between atoms: C18_19  and  N2_20 
REMARK       I    between atoms: N2_20  and  C19_22 
REMARK    7  A    between atoms: C19_22  and  C20_24 
REMARK    8  A    between atoms: C20_24  and  N3_25 
REMARK    9  A    between atoms: C20_24  and  C21_29 
REMARK   10  A    between atoms: C21_29  and  C22_30 
REMARK   11  A    between atoms: C22_30  and  O2_31 
ROOT
HETATM    1  C8  UNL     1      -4.331  10.402 -14.091  1.00  0.00     0.018 C 
HETATM    2  C9  UNL     1      -4.501   9.480 -15.238  1.00  0.00     0.027 C 
HETATM    3  C10 UNL     1      -4.471   8.035 -15.040  1.00  0.00     0.278 C 
HETATM    4  N1  UNL     1      -3.844   7.481 -16.253  1.00  0.00     0.093 N 
HETATM    5  C11 UNL     1      -4.752   6.740 -17.070  1.00  0.00     0.310 C 
HETATM    6  C12 UNL     1      -3.173   8.546 -16.921  1.00  0.00     0.156 C 
HETATM    7  C13 UNL     1      -1.777   8.115 -17.259  1.00  0.00     0.049 C 
HETATM    8  C14 UNL     1      -3.900   8.954 -18.210  1.00  0.00     0.049 C 
HETATM    9  C15 UNL     1      -3.225   9.747 -16.011  1.00  0.00     0.035 C 
HETATM   10  C16 UNL     1      -2.175   9.736 -14.945  1.00  0.00     0.012 C 
HETATM   11  C17 UNL     1      -0.970  10.538 -15.347  1.00  0.00     0.012 C 
HETATM   12  C18 UNL     1      -2.890  10.328 -13.737  1.00  0.00     0.093 C 
ENDROOT
BRANCH  12  13
HETATM   13  N2  UNL     1      -2.545   9.661 -12.525  1.00  0.00    -0.354 N 
HETATM   14  C19 UNL     1      -2.107  10.339 -11.337  1.00  0.00     0.248 C 
HETATM   15  O1  UNL     1      -2.034  11.589 -11.401  1.00  0.00    -0.271 OA
ATOM     16  H2  UNL     1      -2.612   8.644 -12.500  1.00  0.00     0.162 HD
BRANCH  14  17
HETATM   17  C20 UNL     1      -1.753   9.660 -10.097  1.00  0.00     0.276 C 
BRANCH  17  18
HETATM   18  N3  UNL     1      -0.509   8.914 -10.195  1.00  0.00    -0.066 N 
ATOM     19  H33 UNL     1      -0.294   8.691 -11.167  1.00  0.00     0.275 HD
ATOM     20  H32 UNL     1       0.292   9.509  -9.981  1.00  0.00     0.275 HD
ATOM     21  H31 UNL     1      -0.503   8.074  -9.618  1.00  0.00     0.275 HD
ENDBRANCH  17  18
BRANCH  17  22
HETATM   22  C21 UNL     1      -1.625  10.597  -8.927  1.00  0.00     0.068 C 
BRANCH  22  23
HETATM   23  C22 UNL     1      -0.236  10.858  -8.462  1.00  0.00     0.166 C 
BRANCH  23  24
HETATM   24  O2  UNL     1       0.155  10.006  -7.425  1.00  0.00    -0.401 OA
ATOM     25  H2  UNL     1      -0.106  10.327  -6.569  1.00  0.00     0.209 HD
ENDBRANCH  23  24
ENDBRANCH  22  23
ENDBRANCH  17  22
ENDBRANCH  14  17
ENDBRANCH  12  13
BRANCH   1  26
HETATM   26  C7  UNL     1      -5.341  10.459 -13.040  1.00  0.00     0.034 C 
BRANCH  26  27
HETATM   27  C6  UNL     1      -6.754  10.561 -13.375  1.00  0.00    -0.030 C 
HETATM   28  C5  UNL     1      -7.660  11.259 -12.694  1.00  0.00    -0.031 C 
BRANCH  28  29
HETATM   29  C4  UNL     1      -7.427  12.057 -11.483  1.00  0.00     0.027 C 
BRANCH  29  30
HETATM   30  C3  UNL     1      -7.408  13.516 -11.869  1.00  0.00     0.003 C 
BRANCH  30  31
HETATM   31  C2  UNL     1      -8.394  14.338 -11.088  1.00  0.00    -0.004 C 
HETATM   32  C1  UNL     1      -7.888  15.692 -10.716  1.00  0.00     0.005 C 
ENDBRANCH  30  31
ENDBRANCH  29  30
ENDBRANCH  28  29
ENDBRANCH  26  27
ENDBRANCH   1  26
TORSDOF 11
ENDMDL
MODEL 2
REMARK VINA RESULT: -7.422113761      1.007      1.075
REMARK  11 active torsions:
REMARK  status: ('A' for Active; 'I' for Inactive)
REMARK    1  A    between atoms: C2_2  and  C3_3 
REMARK    2  A    between atoms: C3_3  and  C4_4 
REMARK    3  A    between atoms: C4_4  and  C5_5 
REMARK    4  A    between atoms: C6_6  and  C7_7 
REMARK    5  A    between atoms: C7_7  and  C8_8 
REMARK    6  A    between atoms: C18_19  and  N2_20 
REMARK       I    between atoms: N2_20  and  C19_22 
REMARK    7  A    between atoms: C19_22  and  C20_24 
REMARK    8  A    between atoms: C20_24  and  N3_25 
REMARK    9  A    between atoms: C20_24  and  C21_29 
REMARK   10  A    between atoms: C21_29  and  C22_30 
REMARK   11  A    between atoms: C22_30  and  O2_31 
ROOT
HETATM    1  C8  UNL     1      -3.751  10.899 -13.897  1.00  0.00     0.018 C 
HETATM    2  C9  UNL     1      -3.974   9.887 -14.955  1.00  0.00     0.027 C 
HETATM    3  C10 UNL     1      -4.369   8.526 -14.610  1.00  0.00     0.278 C 
HETATM    4  N1  UNL     1      -3.726   7.659 -15.613  1.00  0.00     0.093 N 
HETATM    5  C11 UNL     1      -4.654   7.052 -16.513  1.00  0.00     0.310 C 
HETATM    6  C12 UNL     1      -2.691   8.413 -16.240  1.00  0.00     0.156 C 
HETATM    7  C13 UNL     1      -1.429   7.605 -16.251  1.00  0.00     0.049 C 
HETATM    8  C14 UNL     1      -3.060   8.791 -17.681  1.00  0.00     0.049 C 
HETATM    9  C15 UNL     1      -2.565   9.712 -15.485  1.00  0.00     0.035 C 
HETATM   10  C16 UNL     1      -1.746   9.601 -14.237  1.00  0.00     0.012 C 
HETATM   11  C17 UNL     1      -0.320  10.011 -14.473  1.00  0.00     0.012 C 
HETATM   12  C18 UNL     1      -2.462  10.525 -13.260  1.00  0.00     0.093 C 
ENDROOT
BRANCH  12  13
HETATM   13  N2  UNL     1      -2.513   9.983 -11.943  1.00  0.00    -0.354 N 
HETATM   14  C19 UNL     1      -1.995  10.652 -10.783  1.00  0.00     0.248 C 
HETATM   15  O1  UNL     1      -1.474  11.777 -10.972  1.00  0.00    -0.271 OA
ATOM     16  H2  UNL     1      -2.941   9.066 -11.817  1.00  0.00     0.162 HD
BRANCH  14  17
HETATM   17  C20 UNL     1      -2.045  10.100  -9.434  1.00  0.00     0.276 C 
BRANCH  17  18
HETATM   18  N3  UNL     1      -1.286   8.867  -9.300  1.00  0.00    -0.066 N 
ATOM     19  H33 UNL     1      -0.455   9.011  -8.726  1.00  0.00     0.275 HD
ATOM     20  H32 UNL     1      -1.781   8.197  -8.710  1.00  0.00     0.275 HD
ATOM     21  H31 UNL     1      -1.042   8.451 -10.198  1.00  0.00     0.275 HD
ENDBRANCH  17  18
BRANCH  17  22
HETATM   22  C21 UNL     1      -1.543  11.055  -8.386  1.00  0.00     0.068 C 
BRANCH  22  23
HETATM   23  C22 UNL     1      -0.146  10.827  -7.926  1.00  0.00     0.166 C 
BRANCH  23  24
HETATM   24  O2  UNL     1       0.802  11.159  -8.898  1.00  0.00    -0.401 OA
ATOM     25  H2  UNL     1       1.058  10.414  -9.430  1.00  0.00     0.209 HD
ENDBRANCH  23  24
ENDBRANCH  22  23
ENDBRANCH  17  22
ENDBRANCH  14  17
ENDBRANCH  12  13
BRANCH   1  26
HETATM   26  C7  UNL     1      -4.866  11.361 -13.076  1.00  0.00     0.034 C 
BRANCH  26  27
HETATM   27  C6  UNL     1      -5.531  12.622 -13.372  1.00  0.00    -0.030 C 
HETATM   28  C5  UNL     1      -6.596  13.099 -12.735  1.00  0.00    -0.031 C 
BRANCH  28  29
HETATM   29  C4  UNL     1      -7.312  12.466 -11.620  1.00  0.00     0.027 C 
BRANCH  29  30
HETATM   30  C3  UNL     1      -8.362  13.428 -11.119  1.00  0.00     0.003 C 
BRANCH  30  31
HETATM   31  C2  UNL     1      -7.978  14.866 -11.320  1.00  0.00    -0.004 C 
HETATM   32  C1  UNL     1      -8.478  15.779 -10.250  1.00  0.00     0.005 C 
ENDBRANCH  30  31
ENDBRANCH  29  30
ENDBRANCH  28  29
ENDBRANCH  26  27
ENDBRANCH   1  26
TORSDOF 11
ENDMDL
MODEL 3
REMARK VINA RESULT: -7.312362419      1.583      1.864
REMARK  11 active torsions:
REMARK  status: ('A' for Active; 'I' for Inactive)
REMARK    1  A    between atoms: C2_2  and  C3_3 
REMARK    2  A    between atoms: C3_3  and  C4_4 
REMARK    3  A    between atoms: C4_4  and  C5_5 
REMARK    4  A    between atoms: C6_6  and  C7_7 
REMARK    5  A    between atoms: C7_7  and  C8_8 
REMARK    6  A    between atoms: C18_19  and  N2_20 
REMARK       I    between atoms: N2_20  and  C19_22 
REMARK    7  A    between atoms: C19_22  and  C20_24 
REMARK    8  A    between atoms: C20_24  and  N3_25 
REMARK    9  A    between atoms: C20_24  and  C21_29 
REMARK   10  A    between atoms: C21_29  and  C22_30 
REMARK   11  A    between atoms: C22_30  and  O2_31 
ROOT
HETATM    1  C8  UNL     1      -4.964   9.592 -15.013  1.00  0.00     0.018 C 
HETATM    2  C9  UNL     1      -5.054   8.600 -16.109  1.00  0.00     0.027 C 
HETATM    3  C10 UNL     1      -4.326   7.338 -16.030  1.00  0.00     0.278 C 
HETATM    4  N1  UNL     1      -3.930   7.020 -17.413  1.00  0.00     0.093 N 
HETATM    5  C11 UNL     1      -4.617   5.890 -17.952  1.00  0.00     0.310 C 
HETATM    6  C12 UNL     1      -4.046   8.214 -18.184  1.00  0.00     0.156 C 
HETATM    7  C13 UNL     1      -2.787   8.417 -18.971  1.00  0.00     0.049 C 
HETATM    8  C14 UNL     1      -5.239   8.151 -19.148  1.00  0.00     0.049 C 
HETATM    9  C15 UNL     1      -4.341   9.338 -17.224  1.00  0.00     0.035 C 
HETATM   10  C16 UNL     1      -3.122   9.880 -16.545  1.00  0.00     0.012 C 
HETATM   11  C17 UNL     1      -2.590  11.095 -17.249  1.00  0.00     0.012 C 
HETATM   12  C18 UNL     1      -3.610  10.192 -15.136  1.00  0.00     0.093 C 
ENDROOT
BRANCH  12  13
HETATM   13  N2  UNL     1      -2.647   9.848 -14.142  1.00  0.00    -0.354 N 
HETATM   14  C19 UNL     1      -2.437  10.603 -12.939  1.00  0.00     0.248 C 
HETATM   15  O1  UNL     1      -3.157  11.617 -12.782  1.00  0.00    -0.271 OA
ATOM     16  H2  UNL     1      -2.074   9.018 -14.295  1.00  0.00     0.162 HD
BRANCH  14  17
HETATM   17  C20 UNL     1      -1.453  10.254 -11.921  1.00  0.00     0.276 C 
BRANCH  17  18
HETATM   18  N3  UNL     1      -0.209  10.994 -12.061  1.00  0.00    -0.066 N 
ATOM     19  H33 UNL     1       0.177  10.885 -12.999  1.00  0.00     0.275 HD
ATOM     20  H32 UNL     1      -0.381  11.999 -12.067  1.00  0.00     0.275 HD
ATOM     21  H31 UNL     1       0.481  10.747 -11.352  1.00  0.00     0.275 HD
ENDBRANCH  17  18
BRANCH  17  22
HETATM   22  C21 UNL     1      -1.952  10.472 -10.519  1.00  0.00     0.068 C 
BRANCH  22  23
HETATM   23  C22 UNL     1      -1.467   9.496  -9.506  1.00  0.00     0.166 C 
BRANCH  23  24
HETATM   24  O2  UNL     1      -0.559   8.575 -10.037  1.00  0.00    -0.401 OA
ATOM     25  H2  UNL     1      -0.516   7.771  -9.533  1.00  0.00     0.209 HD
ENDBRANCH  23  24
ENDBRANCH  22  23
ENDBRANCH  17  22
ENDBRANCH  14  17
ENDBRANCH  12  13
BRANCH   1  26
HETATM   26  C7  UNL     1      -5.512   9.283 -13.697  1.00  0.00     0.034 C 
BRANCH  26  27
HETATM   27  C6  UNL     1      -6.937   9.426 -13.436  1.00  0.00    -0.030 C 
HETATM   28  C5  UNL     1      -7.488  10.349 -12.651  1.00  0.00    -0.031 C 
BRANCH  28  29
HETATM   29  C4  UNL     1      -6.787  11.397 -11.898  1.00  0.00     0.027 C 
BRANCH  29  30
HETATM   30  C3  UNL     1      -7.701  12.592 -11.780  1.00  0.00     0.003 C 
BRANCH  30  31
HETATM   31  C2  UNL     1      -7.053  13.868 -12.238  1.00  0.00    -0.004 C 
HETATM   32  C1  UNL     1      -5.994  13.669 -13.271  1.00  0.00     0.005 C 
ENDBRANCH  30  31
ENDBRANCH  29  30
ENDBRANCH  28  29
ENDBRANCH  26  27
ENDBRANCH   1  26
TORSDOF 11
ENDMDL
MODEL 4
REMARK VINA RESULT: -7.080466250      2.728      5.891
REMARK  11 active torsions:
REMARK  status: ('A' for Active; 'I' for Inactive)
REMARK    1  A    between atoms: C2_2  and  C3_3 
REMARK    2  A    between atoms: C3_3  and  C4_4 
REMARK    3  A    between atoms: C4_4  and  C5_5 
REMARK    4  A    between atoms: C6_6  and  C7_7 
REMARK    5  A    between atoms: C7_7  and  C8_8 
REMARK    6  A    between atoms: C18_19  and  N2_20 
REMARK       I    between atoms: N2_20  and  C19_22 
REMARK    7  A    between atoms: C19_22  and  C20_24 
REMARK    8  A    between atoms: C20_24  and  N3_25 
REMARK    9  A    between atoms: C20_24  and  C21_29 
REMARK   10  A    between atoms: C21_29  and  C22_30 
REMARK   11  A    between atoms: C22_30  and  O2_31 
ROOT
HETATM    1  C8  UNL     1      -2.869   9.710 -12.407  1.00  0.00     0.018 C 
HETATM    2  C9  UNL     1      -1.912   9.615 -13.534  1.00  0.00     0.027 C 
HETATM    3  C10 UNL     1      -1.648  10.771 -14.384  1.00  0.00     0.278 C 
HETATM    4  N1  UNL     1      -1.414  10.227 -15.733  1.00  0.00     0.093 N 
HETATM    5  C11 UNL     1      -0.061  10.360 -16.169  1.00  0.00     0.310 C 
HETATM    6  C12 UNL     1      -1.922   8.895 -15.759  1.00  0.00     0.156 C 
HETATM    7  C13 UNL     1      -2.790   8.721 -16.968  1.00  0.00     0.049 C 
HETATM    8  C14 UNL     1      -0.790   7.858 -15.798  1.00  0.00     0.049 C 
HETATM    9  C15 UNL     1      -2.652   8.670 -14.459  1.00  0.00     0.035 C 
HETATM   10  C16 UNL     1      -4.046   9.215 -14.454  1.00  0.00     0.012 C 
HETATM   11  C17 UNL     1      -5.055   8.156 -14.794  1.00  0.00     0.012 C 
HETATM   12  C18 UNL     1      -4.214   9.745 -13.036  1.00  0.00     0.093 C 
ENDROOT
BRANCH  12  13
HETATM   13  N2  UNL     1      -4.923  10.981 -13.002  1.00  0.00    -0.354 N 
HETATM   14  C19 UNL     1      -6.340  11.084 -12.793  1.00  0.00     0.248 C 
HETATM   15  O1  UNL     1      -6.962  10.007 -12.635  1.00  0.00    -0.271 OA
ATOM     16  H2  UNL     1      -4.394  11.843 -13.135  1.00  0.00     0.162 HD
BRANCH  14  17
HETATM   17  C20 UNL     1      -7.068  12.347 -12.758  1.00  0.00     0.276 C 
BRANCH  17  18
HETATM   18  N3  UNL     1      -7.763  12.564 -11.500  1.00  0.00    -0.066 N 
ATOM     19  H33 UNL     1      -7.125  12.917 -10.787  1.00  0.00     0.275 HD
ATOM     20  H32 UNL     1      -8.396  13.362 -11.565  1.00  0.00     0.275 HD
ATOM     21  H31 UNL     1      -8.256  11.734 -11.170  1.00  0.00     0.275 HD
ENDBRANCH  17  18
BRANCH  17  22
HETATM   22  C21 UNL     1      -6.188  13.542 -12.999  1.00  0.00     0.068 C 
BRANCH  22  23
HETATM   23  C22 UNL     1      -6.693  14.832 -12.456  1.00  0.00     0.166 C 
BRANCH  23  24
HETATM   24  O2  UNL     1      -6.426  15.914 -13.300  1.00  0.00    -0.401 OA
ATOM     25  H2  UNL     1      -6.145  15.643 -14.166  1.00  0.00     0.209 HD
ENDBRANCH  23  24
ENDBRANCH  22  23
ENDBRANCH  17  22
ENDBRANCH  14  17
ENDBRANCH  12  13
BRANCH   1  26
HETATM   26  C7  UNL     1      -2.573  10.566 -11.263  1.00  0.00     0.034 C 
BRANCH  26  27
HETATM   27  C6  UNL     1      -2.160   9.988  -9.993  1.00  0.00    -0.030 C 
HETATM   28  C5  UNL     1      -1.490  10.626  -9.036  1.00  0.00    -0.031 C 
BRANCH  28  29
HETATM   29  C4  UNL     1      -1.035  12.022  -9.063  1.00  0.00     0.027 C 
BRANCH  29  30
HETATM   30  C3  UNL     1       0.442  12.036  -9.374  1.00  0.00     0.003 C 
BRANCH  30  31
HETATM   31  C2  UNL     1       0.730  12.312 -10.823  1.00  0.00    -0.004 C 
HETATM   32  C1  UNL     1       1.144  11.103 -11.596  1.00  0.00     0.005 C 
ENDBRANCH  30  31
ENDBRANCH  29  30
ENDBRANCH  28  29
ENDBRANCH  26  27
ENDBRANCH   1  26
TORSDOF 11
ENDMDL
MODEL 5
REMARK VINA RESULT: -7.058331934      2.721      5.789
REMARK  11 active torsions:
REMARK  status: ('A' for Active; 'I' for Inactive)
REMARK    1  A    between atoms: C2_2  and  C3_3 
REMARK    2  A    between atoms: C3_3  and  C4_4 
REMARK    3  A    between atoms: C4_4  and  C5_5 
REMARK    4  A    between atoms: C6_6  and  C7_7 
REMARK    5  A    between atoms: C7_7  and  C8_8 
REMARK    6  A    between atoms: C18_19  and  N2_20 
REMARK       I    between atoms: N2_20  and  C19_22 
REMARK    7  A    between atoms: C19_22  and  C20_24 
REMARK    8  A    between atoms: C20_24  and  N3_25 
REMARK    9  A    between atoms: C20_24  and  C21_29 
REMARK   10  A    between atoms: C21_29  and  C22_30 
REMARK   11  A    between atoms: C22_30  and  O2_31 
ROOT
HETATM    1  C8  UNL     1      -2.891   9.747 -12.426  1.00  0.00     0.018 C 
HETATM    2  C9  UNL     1      -1.946   9.619 -13.559  1.00  0.00     0.027 C 
HETATM    3  C10 UNL     1      -1.683  10.754 -14.438  1.00  0.00     0.278 C 
HETATM    4  N1  UNL     1      -1.466  10.178 -15.776  1.00  0.00     0.093 N 
HETATM    5  C11 UNL     1      -0.116  10.292 -16.228  1.00  0.00     0.310 C 
HETATM    6  C12 UNL     1      -1.982   8.849 -15.767  1.00  0.00     0.156 C 
HETATM    7  C13 UNL     1      -2.863   8.653 -16.963  1.00  0.00     0.049 C 
HETATM    8  C14 UNL     1      -0.857   7.804 -15.793  1.00  0.00     0.049 C 
HETATM    9  C15 UNL     1      -2.701   8.659 -14.455  1.00  0.00     0.035 C 
HETATM   10  C16 UNL     1      -4.091   9.213 -14.450  1.00  0.00     0.012 C 
HETATM   11  C17 UNL     1      -5.111   8.153 -14.756  1.00  0.00     0.012 C 
HETATM   12  C18 UNL     1      -4.243   9.776 -13.042  1.00  0.00     0.093 C 
ENDROOT
BRANCH  12  13
HETATM   13  N2  UNL     1      -4.943  11.018 -13.030  1.00  0.00    -0.354 N 
HETATM   14  C19 UNL     1      -6.349  11.138 -12.763  1.00  0.00     0.248 C 
HETATM   15  O1  UNL     1      -6.968  10.073 -12.531  1.00  0.00    -0.271 OA
ATOM     16  H2  UNL     1      -4.416  11.869 -13.223  1.00  0.00     0.162 HD
BRANCH  14  17
HETATM   17  C20 UNL     1      -7.068  12.407 -12.750  1.00  0.00     0.276 C 
BRANCH  17  18
HETATM   18  N3  UNL     1      -7.760  12.651 -11.494  1.00  0.00    -0.066 N 
ATOM     19  H33 UNL     1      -7.327  12.130 -10.732  1.00  0.00     0.275 HD
ATOM     20  H32 UNL     1      -7.591  13.602 -11.164  1.00  0.00     0.275 HD
ATOM     21  H31 UNL     1      -8.760  12.456 -11.547  1.00  0.00     0.275 HD
ENDBRANCH  17  18
BRANCH  17  22
HETATM   22  C21 UNL     1      -6.180  13.592 -13.013  1.00  0.00     0.068 C 
BRANCH  22  23
HETATM   23  C22 UNL     1      -6.657  14.887 -12.459  1.00  0.00     0.166 C 
BRANCH  23  24
HETATM   24  O2  UNL     1      -6.636  15.918 -13.404  1.00  0.00    -0.401 OA
ATOM     25  H2  UNL     1      -7.450  16.406 -13.432  1.00  0.00     0.209 HD
ENDBRANCH  23  24
ENDBRANCH  22  23
ENDBRANCH  17  22
ENDBRANCH  14  17
ENDBRANCH  12  13
BRANCH   1  26
HETATM   26  C7  UNL     1      -2.579  10.626 -11.305  1.00  0.00     0.034 C 
BRANCH  26  27
HETATM   27  C6  UNL     1      -2.131  10.075 -10.033  1.00  0.00    -0.030 C 
HETATM   28  C5  UNL     1      -1.416  10.727  -9.120  1.00  0.00    -0.031 C 
BRANCH  28  29
HETATM   29  C4  UNL     1      -0.937  12.113  -9.202  1.00  0.00     0.027 C 
BRANCH  29  30
HETATM   30  C3  UNL     1      -0.258  12.461  -7.899  1.00  0.00     0.003 C 
BRANCH  30  31
HETATM   31  C2  UNL     1      -1.059  12.047  -6.697  1.00  0.00    -0.004 C 
HETATM   32  C1  UNL     1      -1.105  13.080  -5.620  1.00  0.00     0.005 C 
ENDBRANCH  30  31
ENDBRANCH  29  30
ENDBRANCH  28  29
ENDBRANCH  26  27
ENDBRANCH   1  26
TORSDOF 11
ENDMDL
