MODEL 1
REMARK VINA RESULT: -5.677128920      0.000      0.000
REMARK  6 active torsions:
REMARK  status: ('A' for Active; 'I' for Inactive)
REMARK    1  A    between atoms: C2_2  and  O1_3 
REMARK    2  A    between atoms: O1_3  and  N1_4 
REMARK    3  A    between atoms: N1_4  and  C3_5 
REMARK    4  A    between atoms: C3_5  and  C4_6 
REMARK    5  A    between atoms: C4_6  and  N2_7 
REMARK    6  A    between atoms: N2_7  and  C5_9 
ROOT
HETATM    1  C4  UNL     1      19.135  30.256  34.730  1.00  0.00     0.182 C 
ENDROOT
BRANCH   1   2
HETATM    2  C3  UNL     1      20.583  30.759  34.665  1.00  0.00     0.210 C 
BRANCH   2   3
HETATM    3  N1  UNL     1      21.390  30.160  33.798  1.00  0.00    -0.297 NA
BRANCH   3   4
HETATM    4  O1  UNL     1      22.131  29.610  33.000  1.00  0.00    -0.210 OA
BRANCH   4   5
HETATM    5  C2  UNL     1      23.469  29.990  32.878  1.00  0.00     0.213 C 
HETATM    6  C1  UNL     1      24.332  28.894  32.362  1.00  0.00     0.037 C 
ENDBRANCH   4   5
ENDBRANCH   3   4
ENDBRANCH   2   3
ENDBRANCH   1   2
BRANCH   1   7
HETATM    7  N2  UNL     1      18.694  30.176  36.114  1.00  0.00    -0.381 N 
ATOM      8  H2  UNL     1      19.302  29.739  36.806  1.00  0.00     0.160 HD
BRANCH   7   9
HETATM    9  C5  UNL     1      17.432  30.694  36.525  1.00  0.00     0.169 C 
HETATM   10  N3  UNL     1      17.142  30.886  37.758  1.00  0.00    -0.396 N 
ATOM     11  H32 UNL     1      17.850  30.655  38.456  1.00  0.00     0.156 HD
ATOM     12  H31 UNL     1      16.240  31.257  38.052  1.00  0.00     0.156 HD
ENDBRANCH   7   9
ENDBRANCH   1   7
TORSDOF 6
ENDMDL
MODEL 2
REMARK VINA RESULT: -5.588841461      3.101      6.529
REMARK  6 active torsions:
REMARK  status: ('A' for Active; 'I' for Inactive)
REMARK    1  A    between atoms: C2_2  and  O1_3 
REMARK    2  A    between atoms: O1_3  and  N1_4 
REMARK    3  A    between atoms: N1_4  and  C3_5 
REMARK    4  A    between atoms: C3_5  and  C4_6 
REMARK    5  A    between atoms: C4_6  and  N2_7 
REMARK    6  A    between atoms: N2_7  and  C5_9 
ROOT
HETATM    1  C4  UNL     1      24.782  29.248  32.519  1.00  0.00     0.182 C 
ENDROOT
BRANCH   1   2
HETATM    2  C3  UNL     1      23.372  29.738  32.163  1.00  0.00     0.210 C 
BRANCH   2   3
HETATM    3  N1  UNL     1      22.441  29.627  33.102  1.00  0.00    -0.297 NA
BRANCH   3   4
HETATM    4  O1  UNL     1      21.585  29.524  33.965  1.00  0.00    -0.210 OA
BRANCH   4   5
HETATM    5  C2  UNL     1      20.802  30.619  34.338  1.00  0.00     0.213 C 
HETATM    6  C1  UNL     1      19.410  30.233  34.696  1.00  0.00     0.037 C 
ENDBRANCH   4   5
ENDBRANCH   3   4
ENDBRANCH   2   3
ENDBRANCH   1   2
BRANCH   1   7
HETATM    7  N2  UNL     1      24.978  27.890  32.034  1.00  0.00    -0.381 N 
ATOM      8  H2  UNL     1      24.817  27.685  31.048  1.00  0.00     0.160 HD
BRANCH   7   9
HETATM    9  C5  UNL     1      25.391  26.840  32.904  1.00  0.00     0.169 C 
HETATM   10  N3  UNL     1      26.182  25.909  32.521  1.00  0.00    -0.396 N 
ATOM     11  H32 UNL     1      26.520  25.935  31.558  1.00  0.00     0.156 HD
ATOM     12  H31 UNL     1      26.478  25.157  33.144  1.00  0.00     0.156 HD
ENDBRANCH   7   9
ENDBRANCH   1   7
TORSDOF 6
ENDMDL
MODEL 3
REMARK VINA RESULT: -5.446623864      3.693      6.620
REMARK  6 active torsions:
REMARK  status: ('A' for Active; 'I' for Inactive)
REMARK    1  A    between atoms: C2_2  and  O1_3 
REMARK    2  A    between atoms: O1_3  and  N1_4 
REMARK    3  A    between atoms: N1_4  and  C3_5 
REMARK    4  A    between atoms: C3_5  and  C4_6 
REMARK    5  A    between atoms: C4_6  and  N2_7 
REMARK    6  A    between atoms: N2_7  and  C5_9 
ROOT
HETATM    1  C4  UNL     1      25.638  28.549  32.449  1.00  0.00     0.182 C 
ENDROOT
BRANCH   1   2
HETATM    2  C3  UNL     1      24.255  29.013  31.973  1.00  0.00     0.210 C 
BRANCH   2   3
HETATM    3  N1  UNL     1      23.423  29.471  32.900  1.00  0.00    -0.297 NA
BRANCH   3   4
HETATM    4  O1  UNL     1      22.658  29.893  33.752  1.00  0.00    -0.210 OA
BRANCH   4   5
HETATM    5  C2  UNL     1      21.279  29.909  33.538  1.00  0.00     0.213 C 
HETATM    6  C1  UNL     1      20.544  30.664  34.589  1.00  0.00     0.037 C 
ENDBRANCH   4   5
ENDBRANCH   3   4
ENDBRANCH   2   3
ENDBRANCH   1   2
BRANCH   1   7
HETATM    7  N2  UNL     1      25.749  27.102  32.334  1.00  0.00    -0.381 N 
ATOM      8  H2  UNL     1      26.207  26.701  31.515  1.00  0.00     0.160 HD
BRANCH   7   9
HETATM    9  C5  UNL     1      25.232  26.234  33.337  1.00  0.00     0.169 C 
HETATM   10  N3  UNL     1      25.274  24.959  33.223  1.00  0.00    -0.396 N 
ATOM     11  H32 UNL     1      25.694  24.568  32.379  1.00  0.00     0.156 HD
ATOM     12  H31 UNL     1      24.904  24.336  33.941  1.00  0.00     0.156 HD
ENDBRANCH   7   9
ENDBRANCH   1   7
TORSDOF 6
ENDMDL
MODEL 4
REMARK VINA RESULT: -5.306798401      1.094      1.151
REMARK  6 active torsions:
REMARK  status: ('A' for Active; 'I' for Inactive)
REMARK    1  A    between atoms: C2_2  and  O1_3 
REMARK    2  A    between atoms: O1_3  and  N1_4 
REMARK    3  A    between atoms: N1_4  and  C3_5 
REMARK    4  A    between atoms: C3_5  and  C4_6 
REMARK    5  A    between atoms: C4_6  and  N2_7 
REMARK    6  A    between atoms: N2_7  and  C5_9 
ROOT
HETATM    1  C4  UNL     1      18.456  30.622  35.110  1.00  0.00     0.182 C 
ENDROOT
BRANCH   1   2
HETATM    2  C3  UNL     1      19.795  29.886  35.247  1.00  0.00     0.210 C 
BRANCH   2   3
HETATM    3  N1  UNL     1      20.625  29.949  34.213  1.00  0.00    -0.297 NA
BRANCH   3   4
HETATM    4  O1  UNL     1      21.388  30.007  33.263  1.00  0.00    -0.210 OA
BRANCH   4   5
HETATM    5  C2  UNL     1      22.768  29.897  33.438  1.00  0.00     0.213 C 
HETATM    6  C1  UNL     1      23.494  29.678  32.158  1.00  0.00     0.037 C 
ENDBRANCH   4   5
ENDBRANCH   3   4
ENDBRANCH   2   3
ENDBRANCH   1   2
BRANCH   1   7
HETATM    7  N2  UNL     1      17.741  30.603  36.377  1.00  0.00    -0.381 N 
ATOM      8  H2  UNL     1      18.017  29.933  37.095  1.00  0.00     0.160 HD
BRANCH   7   9
HETATM    9  C5  UNL     1      16.665  31.499  36.638  1.00  0.00     0.169 C 
HETATM   10  N3  UNL     1      15.507  31.087  36.999  1.00  0.00    -0.396 N 
ATOM     11  H32 UNL     1      15.368  30.080  37.099  1.00  0.00     0.156 HD
ATOM     12  H31 UNL     1      14.736  31.727  37.187  1.00  0.00     0.156 HD
ENDBRANCH   7   9
ENDBRANCH   1   7
TORSDOF 6
ENDMDL
MODEL 5
REMARK VINA RESULT: -5.303424670      1.806      2.786
REMARK  6 active torsions:
REMARK  status: ('A' for Active; 'I' for Inactive)
REMARK    1  A    between atoms: C2_2  and  O1_3 
REMARK    2  A    between atoms: O1_3  and  N1_4 
REMARK    3  A    between atoms: N1_4  and  C3_5 
REMARK    4  A    between atoms: C3_5  and  C4_6 
REMARK    5  A    between atoms: C4_6  and  N2_7 
REMARK    6  A    between atoms: N2_7  and  C5_9 
ROOT
HETATM    1  C4  UNL     1      21.576  29.862  33.358  1.00  0.00     0.182 C 
ENDROOT
BRANCH   1   2
HETATM    2  C3  UNL     1      23.070  30.210  33.333  1.00  0.00     0.210 C 
BRANCH   2   3
HETATM    3  N1  UNL     1      23.834  29.521  32.495  1.00  0.00    -0.297 NA
BRANCH   3   4
HETATM    4  O1  UNL     1      24.537  28.887  31.724  1.00  0.00    -0.210 OA
BRANCH   4   5
HETATM    5  C2  UNL     1      25.698  28.249  32.165  1.00  0.00     0.213 C 
HETATM    6  C1  UNL     1      25.412  27.034  32.975  1.00  0.00     0.037 C 
ENDBRANCH   4   5
ENDBRANCH   3   4
ENDBRANCH   2   3
ENDBRANCH   1   2
BRANCH   1   7
HETATM    7  N2  UNL     1      20.906  30.607  34.413  1.00  0.00    -0.381 N 
ATOM      8  H2  UNL     1      21.420  31.331  34.915  1.00  0.00     0.160 HD
BRANCH   7   9
HETATM    9  C5  UNL     1      19.549  30.350  34.759  1.00  0.00     0.169 C 
HETATM   10  N3  UNL     1      19.204  29.976  35.935  1.00  0.00    -0.396 N 
ATOM     11  H32 UNL     1      19.939  29.864  36.635  1.00  0.00     0.156 HD
ATOM     12  H31 UNL     1      18.232  29.792  36.184  1.00  0.00     0.156 HD
ENDBRANCH   7   9
ENDBRANCH   1   7
TORSDOF 6
ENDMDL
