MODEL 1
REMARK VINA RESULT: -6.560522904      0.000      0.000
REMARK  7 active torsions:
REMARK  status: ('A' for Active; 'I' for Inactive)
REMARK    1  A    between atoms: C2_2  and  C3_3 
REMARK    2  A    between atoms: C3_3  and  C4_4 
REMARK    3  A    between atoms: C4_4  and  N1_5 
REMARK    4  A    between atoms: N1_5  and  N2_6 
REMARK    5  A    between atoms: N2_6  and  C5_7 
REMARK    6  A    between atoms: C5_7  and  N3_8 
REMARK    7  A    between atoms: N3_8  and  C6_10 
ROOT
HETATM    1  N2  UNL     1      19.743  30.099  35.406  1.00  0.00    -0.129 NA
ENDROOT
BRANCH   1   2
HETATM    2  N1  UNL     1      20.648  30.791  34.635  1.00  0.00    -0.147 NA
BRANCH   2   3
HETATM    3  C4  UNL     1      21.198  29.992  33.581  1.00  0.00     0.130 C 
BRANCH   3   4
HETATM    4  C3  UNL     1      22.702  30.015  33.581  1.00  0.00     0.017 C 
BRANCH   4   5
HETATM    5  C2  UNL     1      23.249  29.625  32.232  1.00  0.00    -0.003 C 
HETATM    6  C1  UNL     1      24.590  28.980  32.354  1.00  0.00     0.005 C 
ENDBRANCH   4   5
ENDBRANCH   3   4
ENDBRANCH   2   3
ENDBRANCH   1   2
BRANCH   1   7
HETATM    7  C5  UNL     1      18.431  30.622  35.273  1.00  0.00     0.253 C 
BRANCH   7   8
HETATM    8  N3  UNL     1      17.675  30.547  36.488  1.00  0.00    -0.354 N 
ATOM      9  H3  UNL     1      17.954  29.876  37.204  1.00  0.00     0.163 HD
BRANCH   8  10
HETATM   10  C6  UNL     1      16.560  31.371  36.722  1.00  0.00     0.349 C 
HETATM   11  O1  UNL     1      15.424  30.940  36.404  1.00  0.00    -0.284 OA
ENDBRANCH   8  10
ENDBRANCH   7   8
ENDBRANCH   1   7
TORSDOF 7
ENDMDL
MODEL 2
REMARK VINA RESULT: -6.549176643      5.090      7.158
REMARK  7 active torsions:
REMARK  status: ('A' for Active; 'I' for Inactive)
REMARK    1  A    between atoms: C2_2  and  C3_3 
REMARK    2  A    between atoms: C3_3  and  C4_4 
REMARK    3  A    between atoms: C4_4  and  N1_5 
REMARK    4  A    between atoms: N1_5  and  N2_6 
REMARK    5  A    between atoms: N2_6  and  C5_7 
REMARK    6  A    between atoms: C5_7  and  N3_8 
REMARK    7  A    between atoms: N3_8  and  C6_10 
ROOT
HETATM    1  N2  UNL     1      24.143  28.458  31.723  1.00  0.00    -0.129 NA
ENDROOT
BRANCH   1   2
HETATM    2  N1  UNL     1      23.638  29.725  31.910  1.00  0.00    -0.147 NA
BRANCH   2   3
HETATM    3  C4  UNL     1      23.098  29.913  33.223  1.00  0.00     0.130 C 
BRANCH   3   4
HETATM    4  C3  UNL     1      21.597  29.814  33.237  1.00  0.00     0.017 C 
BRANCH   4   5
HETATM    5  C2  UNL     1      21.012  30.615  34.370  1.00  0.00    -0.003 C 
HETATM    6  C1  UNL     1      19.612  30.191  34.672  1.00  0.00     0.005 C 
ENDBRANCH   4   5
ENDBRANCH   3   4
ENDBRANCH   2   3
ENDBRANCH   1   2
BRANCH   1   7
HETATM    7  C5  UNL     1      25.505  28.374  32.109  1.00  0.00     0.253 C 
BRANCH   7   8
HETATM    8  N3  UNL     1      25.918  27.034  32.408  1.00  0.00    -0.354 N 
ATOM      9  H3  UNL     1      26.784  26.681  32.000  1.00  0.00     0.163 HD
BRANCH   8  10
HETATM   10  C6  UNL     1      25.166  26.193  33.245  1.00  0.00     0.349 C 
HETATM   11  O1  UNL     1      25.705  25.758  34.293  1.00  0.00    -0.284 OA
ENDBRANCH   8  10
ENDBRANCH   7   8
ENDBRANCH   1   7
TORSDOF 7
ENDMDL
MODEL 3
REMARK VINA RESULT: -6.453332781      0.807      1.073
REMARK  7 active torsions:
REMARK  status: ('A' for Active; 'I' for Inactive)
REMARK    1  A    between atoms: C2_2  and  C3_3 
REMARK    2  A    between atoms: C3_3  and  C4_4 
REMARK    3  A    between atoms: C4_4  and  N1_5 
REMARK    4  A    between atoms: N1_5  and  N2_6 
REMARK    5  A    between atoms: N2_6  and  C5_7 
REMARK    6  A    between atoms: C5_7  and  N3_8 
REMARK    7  A    between atoms: N3_8  and  C6_10 
ROOT
HETATM    1  N2  UNL     1      20.321  30.677  34.739  1.00  0.00    -0.129 NA
ENDROOT
BRANCH   1   2
HETATM    2  N1  UNL     1      20.937  30.030  33.693  1.00  0.00    -0.147 NA
BRANCH   2   3
HETATM    3  C4  UNL     1      22.366  30.080  33.781  1.00  0.00     0.130 C 
BRANCH   3   4
HETATM    4  C3  UNL     1      23.027  29.664  32.496  1.00  0.00     0.017 C 
BRANCH   4   5
HETATM    5  C2  UNL     1      24.505  29.447  32.692  1.00  0.00    -0.003 C 
HETATM    6  C1  UNL     1      24.884  28.024  32.444  1.00  0.00     0.005 C 
ENDBRANCH   4   5
ENDBRANCH   3   4
ENDBRANCH   2   3
ENDBRANCH   1   2
BRANCH   1   7
HETATM    7  C5  UNL     1      18.948  30.335  34.832  1.00  0.00     0.253 C 
BRANCH   7   8
HETATM    8  N3  UNL     1      18.483  30.254  36.186  1.00  0.00    -0.354 N 
ATOM      9  H3  UNL     1      19.051  29.762  36.875  1.00  0.00     0.163 HD
BRANCH   8  10
HETATM   10  C6  UNL     1      17.268  30.834  36.591  1.00  0.00     0.349 C 
HETATM   11  O1  UNL     1      16.242  30.610  35.901  1.00  0.00    -0.284 OA
ENDBRANCH   8  10
ENDBRANCH   7   8
ENDBRANCH   1   7
TORSDOF 7
ENDMDL
MODEL 4
REMARK VINA RESULT: -6.000692091      1.412      2.130
REMARK  7 active torsions:
REMARK  status: ('A' for Active; 'I' for Inactive)
REMARK    1  A    between atoms: C2_2  and  C3_3 
REMARK    2  A    between atoms: C3_3  and  C4_4 
REMARK    3  A    between atoms: C4_4  and  N1_5 
REMARK    4  A    between atoms: N1_5  and  N2_6 
REMARK    5  A    between atoms: N2_6  and  C5_7 
REMARK    6  A    between atoms: C5_7  and  N3_8 
REMARK    7  A    between atoms: N3_8  and  C6_10 
ROOT
HETATM    1  N2  UNL     1      17.802  30.626  36.255  1.00  0.00    -0.129 NA
ENDROOT
BRANCH   1   2
HETATM    2  N1  UNL     1      18.671  31.006  35.258  1.00  0.00    -0.147 NA
BRANCH   2   3
HETATM    3  C4  UNL     1      19.694  30.032  35.020  1.00  0.00     0.130 C 
BRANCH   3   4
HETATM    4  C3  UNL     1      20.939  30.650  34.446  1.00  0.00     0.017 C 
BRANCH   4   5
HETATM    5  C2  UNL     1      21.473  29.830  33.301  1.00  0.00    -0.003 C 
HETATM    6  C1  UNL     1      22.965  29.863  33.255  1.00  0.00     0.005 C 
ENDBRANCH   4   5
ENDBRANCH   3   4
ENDBRANCH   2   3
ENDBRANCH   1   2
BRANCH   1   7
HETATM    7  C5  UNL     1      16.754  31.566  36.426  1.00  0.00     0.253 C 
BRANCH   7   8
HETATM    8  N3  UNL     1      15.563  30.981  36.967  1.00  0.00    -0.354 N 
ATOM      9  H3  UNL     1      15.152  31.384  37.809  1.00  0.00     0.163 HD
BRANCH   8  10
HETATM   10  C6  UNL     1      14.943  29.870  36.370  1.00  0.00     0.349 C 
HETATM   11  O1  UNL     1      13.688  29.851  36.304  1.00  0.00    -0.284 OA
ENDBRANCH   8  10
ENDBRANCH   7   8
ENDBRANCH   1   7
TORSDOF 7
ENDMDL
MODEL 5
REMARK VINA RESULT: -5.683743248      1.458      1.818
REMARK  7 active torsions:
REMARK  status: ('A' for Active; 'I' for Inactive)
REMARK    1  A    between atoms: C2_2  and  C3_3 
REMARK    2  A    between atoms: C3_3  and  C4_4 
REMARK    3  A    between atoms: C4_4  and  N1_5 
REMARK    4  A    between atoms: N1_5  and  N2_6 
REMARK    5  A    between atoms: N2_6  and  C5_7 
REMARK    6  A    between atoms: C5_7  and  N3_8 
REMARK    7  A    between atoms: N3_8  and  C6_10 
ROOT
HETATM    1  N2  UNL     1      17.746  30.609  35.260  1.00  0.00    -0.129 NA
ENDROOT
BRANCH   1   2
HETATM    2  N1  UNL     1      19.050  31.041  35.196  1.00  0.00    -0.147 NA
BRANCH   2   3
HETATM    3  C4  UNL     1      19.939  30.035  34.698  1.00  0.00     0.130 C 
BRANCH   3   4
HETATM    4  C3  UNL     1      21.230  30.620  34.194  1.00  0.00     0.017 C 
BRANCH   4   5
HETATM    5  C2  UNL     1      22.006  29.609  33.390  1.00  0.00    -0.003 C 
HETATM    6  C1  UNL     1      23.377  30.104  33.069  1.00  0.00     0.005 C 
ENDBRANCH   4   5
ENDBRANCH   3   4
ENDBRANCH   2   3
ENDBRANCH   1   2
BRANCH   1   7
HETATM    7  C5  UNL     1      17.280  30.542  36.598  1.00  0.00     0.253 C 
BRANCH   7   8
HETATM    8  N3  UNL     1      16.194  31.441  36.857  1.00  0.00    -0.354 N 
ATOM      9  H3  UNL     1      15.397  31.111  37.399  1.00  0.00     0.163 HD
BRANCH   8  10
HETATM   10  C6  UNL     1      16.196  32.765  36.384  1.00  0.00     0.349 C 
HETATM   11  O1  UNL     1      15.130  33.230  35.909  1.00  0.00    -0.284 OA
ENDBRANCH   8  10
ENDBRANCH   7   8
ENDBRANCH   1   7
TORSDOF 7
ENDMDL
