MODEL 1
REMARK VINA RESULT: -8.703621897      0.000      0.000
REMARK  11 active torsions:
REMARK  status: ('A' for Active; 'I' for Inactive)
REMARK    1  A    between atoms: N2_5  and  C4_6 
REMARK    2  A    between atoms: C4_6  and  C5_7 
REMARK    3  A    between atoms: C8_10  and  C9_11 
REMARK    4  A    between atoms: C9_11  and  N3_12 
REMARK    5  A    between atoms: N5_23  and  C17_24 
REMARK    6  A    between atoms: C17_24  and  C18_25 
REMARK    7  A    between atoms: C19_26  and  C20_27 
REMARK    8  A    between atoms: C20_27  and  C21_28 
REMARK    9  A    between atoms: C21_28  and  C22_29 
REMARK   10  A    between atoms: C22_29  and  N6_30 
REMARK   11  A    between atoms: C24_34  and  N8_35 
ROOT
HETATM    1  N3  UNL     1      26.449   2.455  21.378  1.00  0.00    -0.298 N 
HETATM    2  C10 UNL     1      25.895   2.761  22.558  1.00  0.00     0.113 A 
HETATM    3  C11 UNL     1      26.636   3.143  23.673  1.00  0.00     0.050 A 
HETATM    4  C12 UNL     1      28.022   3.217  23.579  1.00  0.00     0.063 A 
HETATM    5  C13 UNL     1      28.558   2.895  22.352  1.00  0.00     0.053 A 
HETATM    6  N4  UNL     1      27.757   2.527  21.300  1.00  0.00    -0.300 N 
ATOM      7  H4  UNL     1      28.201   2.299  20.410  1.00  0.00     0.187 HD
HETATM    8  C14 UNL     1      30.028   2.930  22.168  1.00  0.00     0.070 C 
HETATM    9  C15 UNL     1      30.771   3.795  23.118  1.00  0.00     0.109 C 
HETATM   10  C16 UNL     1      30.252   3.713  24.499  1.00  0.00     0.225 C 
HETATM   11  O1  UNL     1      31.027   3.715  25.458  1.00  0.00    -0.273 OA
HETATM   12  N5  UNL     1      28.830   3.633  24.692  1.00  0.00    -0.305 N 
ENDROOT
BRANCH  12  13
HETATM   13  C17 UNL     1      28.232   3.956  25.942  1.00  0.00     0.226 C 
BRANCH  13  14
HETATM   14  C18 UNL     1      28.117   2.826  26.855  1.00  0.00    -0.086 C 
HETATM   15  C19 UNL     1      28.001   1.890  27.606  1.00  0.00    -0.105 C 
BRANCH  15  16
HETATM   16  C20 UNL     1      27.835   0.749  28.510  1.00  0.00     0.095 C 
BRANCH  16  17
HETATM   17  C21 UNL     1      29.078   0.458  29.292  1.00  0.00     0.034 C 
BRANCH  17  18
HETATM   18  C22 UNL     1      29.976  -0.573  28.688  1.00  0.00     0.151 C 
BRANCH  18  19
HETATM   19  N6  UNL     1      30.774  -0.047  27.587  1.00  0.00    -0.273 N 
HETATM   20  C23 UNL     1      31.656   0.960  27.614  1.00  0.00     0.218 A 
HETATM   21  N7  UNL     1      32.167   1.113  26.365  1.00  0.00    -0.185 N 
HETATM   22  C24 UNL     1      31.598   0.197  25.566  1.00  0.00     0.691 A 
ATOM     23  H7  UNL     1      32.862   1.804  26.083  1.00  0.00     0.185 HD
HETATM   24  N9  UNL     1      30.750  -0.501  26.335  1.00  0.00    -0.129 N 
ATOM     25  H9  UNL     1      30.168  -1.271  26.007  1.00  0.00     0.206 HD
BRANCH  22  26
HETATM   26  N8  UNL     1      31.838   0.042  24.306  1.00  0.00    -0.233 N 
ATOM     27  H82 UNL     1      31.171  -0.159  23.562  1.00  0.00     0.174 HD
ATOM     28  H81 UNL     1      32.754   0.098  23.863  1.00  0.00     0.174 HD
ENDBRANCH  22  26
ENDBRANCH  18  19
ENDBRANCH  17  18
ENDBRANCH  16  17
ENDBRANCH  15  16
ENDBRANCH  13  14
ENDBRANCH  12  13
BRANCH   1  29
HETATM   29  C9  UNL     1      25.667   2.057  20.220  1.00  0.00     0.205 C 
BRANCH  29  30
HETATM   30  C8  UNL     1      25.113   3.262  19.517  1.00  0.00     0.029 A 
HETATM   31  C7  UNL     1      25.175   4.560  19.979  1.00  0.00     0.029 A 
HETATM   32  C6  UNL     1      24.566   5.404  19.077  1.00  0.00     0.028 A 
HETATM   33  C5  UNL     1      24.125   4.595  18.045  1.00  0.00     0.028 A 
HETATM   34  N10 UNL     1      24.473   3.323  18.350  1.00  0.00    -0.360 N 
ATOM     35  H10 UNL     1      24.272   2.515  17.761  1.00  0.00     0.165 HD
BRANCH  33  36
HETATM   36  C4  UNL     1      23.399   5.075  16.830  1.00  0.00     0.186 C 
BRANCH  36  37
HETATM   37  N2  UNL     1      24.134   6.093  16.138  1.00  0.00    -0.346 N 
HETATM   38  C3  UNL     1      24.279   7.400  16.405  1.00  0.00     0.109 A 
HETATM   39  C2  UNL     1      25.083   7.979  15.454  1.00  0.00     0.108 A 
HETATM   40  N1  UNL     1      25.433   7.003  14.590  1.00  0.00    -0.356 N 
HETATM   41  C1  UNL     1      26.280   7.157  13.421  1.00  0.00     0.156 C 
HETATM   42  C25 UNL     1      24.852   5.874  15.020  1.00  0.00     0.185 A 
ENDBRANCH  36  37
ENDBRANCH  33  36
ENDBRANCH  29  30
ENDBRANCH   1  29
TORSDOF 11
ENDMDL
MODEL 2
REMARK VINA RESULT: -8.265085010      3.314      6.044
REMARK  11 active torsions:
REMARK  status: ('A' for Active; 'I' for Inactive)
REMARK    1  A    between atoms: N2_5  and  C4_6 
REMARK    2  A    between atoms: C4_6  and  C5_7 
REMARK    3  A    between atoms: C8_10  and  C9_11 
REMARK    4  A    between atoms: C9_11  and  N3_12 
REMARK    5  A    between atoms: N5_23  and  C17_24 
REMARK    6  A    between atoms: C17_24  and  C18_25 
REMARK    7  A    between atoms: C19_26  and  C20_27 
REMARK    8  A    between atoms: C20_27  and  C21_28 
REMARK    9  A    between atoms: C21_28  and  C22_29 
REMARK   10  A    between atoms: C22_29  and  N6_30 
REMARK   11  A    between atoms: C24_34  and  N8_35 
ROOT
HETATM    1  N3  UNL     1      24.979   6.518  22.928  1.00  0.00    -0.298 N 
HETATM    2  C10 UNL     1      24.609   5.329  23.421  1.00  0.00     0.113 A 
HETATM    3  C11 UNL     1      25.475   4.245  23.530  1.00  0.00     0.050 A 
HETATM    4  C12 UNL     1      26.795   4.381  23.112  1.00  0.00     0.063 A 
HETATM    5  C13 UNL     1      27.141   5.615  22.610  1.00  0.00     0.053 A 
HETATM    6  N4  UNL     1      26.226   6.636  22.536  1.00  0.00    -0.300 N 
ATOM      7  H4  UNL     1      26.531   7.533  22.157  1.00  0.00     0.187 HD
HETATM    8  C14 UNL     1      28.523   5.843  22.126  1.00  0.00     0.070 C 
HETATM    9  C15 UNL     1      29.555   4.934  22.684  1.00  0.00     0.109 C 
HETATM   10  C16 UNL     1      29.088   3.537  22.804  1.00  0.00     0.225 C 
HETATM   11  O1  UNL     1      29.848   2.601  22.543  1.00  0.00    -0.273 OA
HETATM   12  N5  UNL     1      27.736   3.301  23.229  1.00  0.00    -0.305 N 
ENDROOT
BRANCH  12  13
HETATM   13  C17 UNL     1      27.333   2.041  23.754  1.00  0.00     0.226 C 
BRANCH  13  14
HETATM   14  C18 UNL     1      26.527   1.246  22.836  1.00  0.00    -0.086 C 
HETATM   15  C19 UNL     1      25.845   0.587  22.093  1.00  0.00    -0.105 C 
BRANCH  15  16
HETATM   16  C20 UNL     1      24.996  -0.214  21.207  1.00  0.00     0.095 C 
BRANCH  16  17
HETATM   17  C21 UNL     1      23.841   0.570  20.666  1.00  0.00     0.034 C 
BRANCH  17  18
HETATM   18  C22 UNL     1      23.895   2.040  20.936  1.00  0.00     0.151 C 
BRANCH  18  19
HETATM   19  N6  UNL     1      24.268   2.813  19.758  1.00  0.00    -0.273 N 
HETATM   20  C23 UNL     1      25.152   3.815  19.675  1.00  0.00     0.218 A 
HETATM   21  N7  UNL     1      25.185   4.249  18.388  1.00  0.00    -0.185 N 
HETATM   22  C24 UNL     1      24.318   3.512  17.677  1.00  0.00     0.691 A 
ATOM     23  H7  UNL     1      25.767   5.004  18.026  1.00  0.00     0.185 HD
HETATM   24  N9  UNL     1      23.769   2.641  18.535  1.00  0.00    -0.129 N 
ATOM     25  H9  UNL     1      23.068   1.943  18.286  1.00  0.00     0.206 HD
BRANCH  22  26
HETATM   26  N8  UNL     1      24.078   3.639  16.414  1.00  0.00    -0.233 N 
ATOM     27  H82 UNL     1      24.750   3.645  15.647  1.00  0.00     0.174 HD
ATOM     28  H81 UNL     1      23.158   3.756  15.991  1.00  0.00     0.174 HD
ENDBRANCH  22  26
ENDBRANCH  18  19
ENDBRANCH  17  18
ENDBRANCH  16  17
ENDBRANCH  15  16
ENDBRANCH  13  14
ENDBRANCH  12  13
BRANCH   1  29
HETATM   29  C9  UNL     1      24.068   7.644  22.817  1.00  0.00     0.205 C 
BRANCH  29  30
HETATM   30  C8  UNL     1      23.265   7.552  21.552  1.00  0.00     0.029 A 
HETATM   31  C7  UNL     1      22.006   8.079  21.359  1.00  0.00     0.029 A 
HETATM   32  C6  UNL     1      21.577   7.804  20.080  1.00  0.00     0.028 A 
HETATM   33  C5  UNL     1      22.604   7.093  19.485  1.00  0.00     0.028 A 
HETATM   34  N10 UNL     1      23.592   6.965  20.401  1.00  0.00    -0.360 N 
ATOM     35  H10 UNL     1      24.474   6.482  20.232  1.00  0.00     0.165 HD
BRANCH  33  36
HETATM   36  C4  UNL     1      22.588   6.576  18.084  1.00  0.00     0.186 C 
BRANCH  36  37
HETATM   37  N2  UNL     1      23.497   7.294  17.240  1.00  0.00    -0.346 N 
HETATM   38  C3  UNL     1      24.070   8.498  17.397  1.00  0.00     0.109 A 
HETATM   39  C2  UNL     1      24.875   8.771  16.319  1.00  0.00     0.108 A 
HETATM   40  N1  UNL     1      24.790   7.710  15.489  1.00  0.00    -0.356 N 
HETATM   41  C1  UNL     1      25.477   7.560  14.219  1.00  0.00     0.156 C 
HETATM   42  C25 UNL     1      23.956   6.831  16.061  1.00  0.00     0.185 A 
ENDBRANCH  36  37
ENDBRANCH  33  36
ENDBRANCH  29  30
ENDBRANCH   1  29
TORSDOF 11
ENDMDL
MODEL 3
REMARK VINA RESULT: -8.214591737      2.346     11.321
REMARK  11 active torsions:
REMARK  status: ('A' for Active; 'I' for Inactive)
REMARK    1  A    between atoms: N2_5  and  C4_6 
REMARK    2  A    between atoms: C4_6  and  C5_7 
REMARK    3  A    between atoms: C8_10  and  C9_11 
REMARK    4  A    between atoms: C9_11  and  N3_12 
REMARK    5  A    between atoms: N5_23  and  C17_24 
REMARK    6  A    between atoms: C17_24  and  C18_25 
REMARK    7  A    between atoms: C19_26  and  C20_27 
REMARK    8  A    between atoms: C20_27  and  C21_28 
REMARK    9  A    between atoms: C21_28  and  C22_29 
REMARK   10  A    between atoms: C22_29  and  N6_30 
REMARK   11  A    between atoms: C24_34  and  N8_35 
ROOT
HETATM    1  N3  UNL     1      29.416   1.954  22.807  1.00  0.00    -0.298 N 
HETATM    2  C10 UNL     1      28.896   3.169  22.592  1.00  0.00     0.113 A 
HETATM    3  C11 UNL     1      27.619   3.372  22.076  1.00  0.00     0.050 A 
HETATM    4  C12 UNL     1      26.827   2.273  21.761  1.00  0.00     0.063 A 
HETATM    5  C13 UNL     1      27.392   1.039  21.993  1.00  0.00     0.053 A 
HETATM    6  N4  UNL     1      28.661   0.923  22.506  1.00  0.00    -0.300 N 
ATOM      7  H4  UNL     1      29.036  -0.013  22.662  1.00  0.00     0.187 HD
HETATM    8  C14 UNL     1      26.626  -0.186  21.670  1.00  0.00     0.070 C 
HETATM    9  C15 UNL     1      25.151  -0.024  21.622  1.00  0.00     0.109 C 
HETATM   10  C16 UNL     1      24.730   1.240  20.984  1.00  0.00     0.225 C 
HETATM   11  O1  UNL     1      23.747   1.266  20.240  1.00  0.00    -0.273 OA
HETATM   12  N5  UNL     1      25.492   2.429  21.252  1.00  0.00    -0.305 N 
ENDROOT
BRANCH  12  13
HETATM   13  C17 UNL     1      24.948   3.724  21.027  1.00  0.00     0.226 C 
BRANCH  13  14
HETATM   14  C18 UNL     1      24.746   4.047  19.620  1.00  0.00    -0.086 C 
HETATM   15  C19 UNL     1      24.559   4.322  18.462  1.00  0.00    -0.105 C 
BRANCH  15  16
HETATM   16  C20 UNL     1      24.309   4.667  17.060  1.00  0.00     0.095 C 
BRANCH  16  17
HETATM   17  C21 UNL     1      23.087   5.516  16.893  1.00  0.00     0.034 C 
BRANCH  17  18
HETATM   18  C22 UNL     1      23.276   6.963  17.218  1.00  0.00     0.151 C 
BRANCH  18  19
HETATM   19  N6  UNL     1      24.171   7.636  16.286  1.00  0.00    -0.273 N 
HETATM   20  C23 UNL     1      24.860   8.769  16.474  1.00  0.00     0.218 A 
HETATM   21  N7  UNL     1      25.564   9.032  15.343  1.00  0.00    -0.185 N 
HETATM   22  C24 UNL     1      25.309   8.059  14.456  1.00  0.00     0.691 A 
ATOM     23  H7  UNL     1      26.181   9.831  15.194  1.00  0.00     0.185 HD
HETATM   24  N9  UNL     1      24.456   7.216  15.054  1.00  0.00    -0.129 N 
ATOM     25  H9  UNL     1      24.076   6.372  14.626  1.00  0.00     0.206 HD
BRANCH  22  26
HETATM   26  N8  UNL     1      25.803   7.974  13.265  1.00  0.00    -0.233 N 
ATOM     27  H82 UNL     1      26.417   8.638  12.794  1.00  0.00     0.174 HD
ATOM     28  H81 UNL     1      25.646   7.211  12.607  1.00  0.00     0.174 HD
ENDBRANCH  22  26
ENDBRANCH  18  19
ENDBRANCH  17  18
ENDBRANCH  16  17
ENDBRANCH  15  16
ENDBRANCH  13  14
ENDBRANCH  12  13
BRANCH   1  29
HETATM   29  C9  UNL     1      30.750   1.751  23.345  1.00  0.00     0.205 C 
BRANCH  29  30
HETATM   30  C8  UNL     1      30.768   2.011  24.824  1.00  0.00     0.029 A 
HETATM   31  C7  UNL     1      31.122   3.200  25.425  1.00  0.00     0.029 A 
HETATM   32  C6  UNL     1      31.021   3.077  26.794  1.00  0.00     0.028 A 
HETATM   33  C5  UNL     1      30.595   1.781  27.023  1.00  0.00     0.028 A 
HETATM   34  N10 UNL     1      30.457   1.181  25.818  1.00  0.00    -0.360 N 
ATOM     35  H10 UNL     1      30.153   0.215  25.688  1.00  0.00     0.165 HD
BRANCH  33  36
HETATM   36  C4  UNL     1      30.345   1.187  28.371  1.00  0.00     0.186 C 
BRANCH  36  37
HETATM   37  N2  UNL     1      28.945   1.138  28.680  1.00  0.00    -0.346 N 
HETATM   38  C3  UNL     1      27.944   1.960  28.328  1.00  0.00     0.109 A 
HETATM   39  C2  UNL     1      26.764   1.504  28.865  1.00  0.00     0.108 A 
HETATM   40  N1  UNL     1      27.055   0.382  29.556  1.00  0.00    -0.356 N 
HETATM   41  C1  UNL     1      26.111  -0.440  30.291  1.00  0.00     0.156 C 
HETATM   42  C25 UNL     1      28.375   0.178  29.433  1.00  0.00     0.185 A 
ENDBRANCH  36  37
ENDBRANCH  33  36
ENDBRANCH  29  30
ENDBRANCH   1  29
TORSDOF 11
ENDMDL
MODEL 4
REMARK VINA RESULT: -8.207601487      1.625      2.419
REMARK  11 active torsions:
REMARK  status: ('A' for Active; 'I' for Inactive)
REMARK    1  A    between atoms: N2_5  and  C4_6 
REMARK    2  A    between atoms: C4_6  and  C5_7 
REMARK    3  A    between atoms: C8_10  and  C9_11 
REMARK    4  A    between atoms: C9_11  and  N3_12 
REMARK    5  A    between atoms: N5_23  and  C17_24 
REMARK    6  A    between atoms: C17_24  and  C18_25 
REMARK    7  A    between atoms: C19_26  and  C20_27 
REMARK    8  A    between atoms: C20_27  and  C21_28 
REMARK    9  A    between atoms: C21_28  and  C22_29 
REMARK   10  A    between atoms: C22_29  and  N6_30 
REMARK   11  A    between atoms: C24_34  and  N8_35 
ROOT
HETATM    1  N3  UNL     1      26.546   3.292  21.488  1.00  0.00    -0.298 N 
HETATM    2  C10 UNL     1      26.289   2.678  22.650  1.00  0.00     0.113 A 
HETATM    3  C11 UNL     1      26.780   3.124  23.874  1.00  0.00     0.050 A 
HETATM    4  C12 UNL     1      27.578   4.263  23.916  1.00  0.00     0.063 A 
HETATM    5  C13 UNL     1      27.823   4.869  22.704  1.00  0.00     0.053 A 
HETATM    6  N4  UNL     1      27.301   4.365  21.538  1.00  0.00    -0.300 N 
ATOM      7  H4  UNL     1      27.509   4.851  20.665  1.00  0.00     0.187 HD
HETATM    8  C14 UNL     1      28.677   6.078  22.653  1.00  0.00     0.070 C 
HETATM    9  C15 UNL     1      28.774   6.846  23.920  1.00  0.00     0.109 C 
HETATM   10  C16 UNL     1      28.875   5.980  25.113  1.00  0.00     0.225 C 
HETATM   11  O1  UNL     1      29.621   6.287  26.045  1.00  0.00    -0.273 OA
HETATM   12  N5  UNL     1      28.085   4.780  25.157  1.00  0.00    -0.305 N 
ENDROOT
BRANCH  12  13
HETATM   13  C17 UNL     1      27.807   4.120  26.386  1.00  0.00     0.226 C 
BRANCH  13  14
HETATM   14  C18 UNL     1      28.812   3.137  26.773  1.00  0.00    -0.086 C 
HETATM   15  C19 UNL     1      29.628   2.309  27.088  1.00  0.00    -0.105 C 
BRANCH  15  16
HETATM   16  C20 UNL     1      30.604   1.282  27.462  1.00  0.00     0.095 C 
BRANCH  16  17
HETATM   17  C21 UNL     1      31.722   1.173  26.472  1.00  0.00     0.034 C 
BRANCH  17  18
HETATM   18  C22 UNL     1      31.390   0.414  25.227  1.00  0.00     0.151 C 
BRANCH  18  19
HETATM   19  N6  UNL     1      31.127   1.287  24.090  1.00  0.00    -0.273 N 
HETATM   20  C23 UNL     1      30.040   1.322  23.309  1.00  0.00     0.218 A 
HETATM   21  N7  UNL     1      30.220   2.287  22.371  1.00  0.00    -0.185 N 
HETATM   22  C24 UNL     1      31.422   2.848  22.573  1.00  0.00     0.691 A 
ATOM     23  H7  UNL     1      29.557   2.541  21.639  1.00  0.00     0.185 HD
HETATM   24  N9  UNL     1      31.958   2.222  23.630  1.00  0.00    -0.129 N 
ATOM     25  H9  UNL     1      32.875   2.431  24.026  1.00  0.00     0.206 HD
BRANCH  22  26
HETATM   26  N8  UNL     1      31.936   3.804  21.872  1.00  0.00    -0.233 N 
ATOM     27  H82 UNL     1      32.467   4.608  22.205  1.00  0.00     0.174 HD
ATOM     28  H81 UNL     1      31.883   3.894  20.858  1.00  0.00     0.174 HD
ENDBRANCH  22  26
ENDBRANCH  18  19
ENDBRANCH  17  18
ENDBRANCH  16  17
ENDBRANCH  15  16
ENDBRANCH  13  14
ENDBRANCH  12  13
BRANCH   1  29
HETATM   29  C9  UNL     1      26.031   2.819  20.215  1.00  0.00     0.205 C 
BRANCH  29  30
HETATM   30  C8  UNL     1      25.172   3.869  19.570  1.00  0.00     0.029 A 
HETATM   31  C7  UNL     1      24.664   4.987  20.197  1.00  0.00     0.029 A 
HETATM   32  C6  UNL     1      23.923   5.726  19.301  1.00  0.00     0.028 A 
HETATM   33  C5  UNL     1      23.987   5.036  18.103  1.00  0.00     0.028 A 
HETATM   34  N10 UNL     1      24.743   3.934  18.310  1.00  0.00    -0.360 N 
ATOM     35  H10 UNL     1      24.958   3.240  17.593  1.00  0.00     0.165 HD
BRANCH  33  36
HETATM   36  C4  UNL     1      23.327   5.463  16.833  1.00  0.00     0.186 C 
BRANCH  36  37
HETATM   37  N2  UNL     1      24.120   6.416  16.114  1.00  0.00    -0.346 N 
HETATM   38  C3  UNL     1      24.361   7.714  16.358  1.00  0.00     0.109 A 
HETATM   39  C2  UNL     1      25.189   8.220  15.386  1.00  0.00     0.108 A 
HETATM   40  N1  UNL     1      25.457   7.209  14.534  1.00  0.00    -0.356 N 
HETATM   41  C1  UNL     1      26.295   7.285  13.351  1.00  0.00     0.156 C 
HETATM   42  C25 UNL     1      24.804   6.130  14.990  1.00  0.00     0.185 A 
ENDBRANCH  36  37
ENDBRANCH  33  36
ENDBRANCH  29  30
ENDBRANCH   1  29
TORSDOF 11
ENDMDL
MODEL 5
REMARK VINA RESULT: -8.162282423      2.452      5.239
REMARK  11 active torsions:
REMARK  status: ('A' for Active; 'I' for Inactive)
REMARK    1  A    between atoms: N2_5  and  C4_6 
REMARK    2  A    between atoms: C4_6  and  C5_7 
REMARK    3  A    between atoms: C8_10  and  C9_11 
REMARK    4  A    between atoms: C9_11  and  N3_12 
REMARK    5  A    between atoms: N5_23  and  C17_24 
REMARK    6  A    between atoms: C17_24  and  C18_25 
REMARK    7  A    between atoms: C19_26  and  C20_27 
REMARK    8  A    between atoms: C20_27  and  C21_28 
REMARK    9  A    between atoms: C21_28  and  C22_29 
REMARK   10  A    between atoms: C22_29  and  N6_30 
REMARK   11  A    between atoms: C24_34  and  N8_35 
ROOT
HETATM    1  N3  UNL     1      26.505   2.437  21.360  1.00  0.00    -0.298 N 
HETATM    2  C10 UNL     1      26.047   2.742  22.581  1.00  0.00     0.113 A 
HETATM    3  C11 UNL     1      26.871   3.148  23.627  1.00  0.00     0.050 A 
HETATM    4  C12 UNL     1      28.243   3.248  23.415  1.00  0.00     0.063 A 
HETATM    5  C13 UNL     1      28.680   2.926  22.150  1.00  0.00     0.053 A 
HETATM    6  N4  UNL     1      27.800   2.535  21.171  1.00  0.00    -0.300 N 
ATOM      7  H4  UNL     1      28.173   2.307  20.249  1.00  0.00     0.187 HD
HETATM    8  C14 UNL     1      30.128   2.988  21.842  1.00  0.00     0.070 C 
HETATM    9  C15 UNL     1      30.931   3.875  22.720  1.00  0.00     0.109 C 
HETATM   10  C16 UNL     1      30.532   3.795  24.140  1.00  0.00     0.225 C 
HETATM   11  O1  UNL     1      31.385   3.819  25.030  1.00  0.00    -0.273 OA
HETATM   12  N5  UNL     1      29.133   3.688  24.454  1.00  0.00    -0.305 N 
ENDROOT
BRANCH  12  13
HETATM   13  C17 UNL     1      28.637   4.009  25.747  1.00  0.00     0.226 C 
BRANCH  13  14
HETATM   14  C18 UNL     1      28.220   5.398  25.896  1.00  0.00    -0.086 C 
HETATM   15  C19 UNL     1      27.866   6.545  26.000  1.00  0.00    -0.105 C 
BRANCH  15  16
HETATM   16  C20 UNL     1      27.422   7.938  26.103  1.00  0.00     0.095 C 
BRANCH  16  17
HETATM   17  C21 UNL     1      26.238   8.222  25.232  1.00  0.00     0.034 C 
BRANCH  17  18
HETATM   18  C22 UNL     1      26.362   7.738  23.823  1.00  0.00     0.151 C 
BRANCH  18  19
HETATM   19  N6  UNL     1      25.121   7.166  23.315  1.00  0.00    -0.273 N 
HETATM   20  C23 UNL     1      24.541   6.010  23.663  1.00  0.00     0.218 A 
HETATM   21  N7  UNL     1      23.402   5.870  22.938  1.00  0.00    -0.185 N 
HETATM   22  C24 UNL     1      23.279   6.942  22.140  1.00  0.00     0.691 A 
ATOM     23  H7  UNL     1      22.751   5.086  22.991  1.00  0.00     0.185 HD
HETATM   24  N9  UNL     1      24.342   7.720  22.387  1.00  0.00    -0.129 N 
ATOM     25  H9  UNL     1      24.528   8.613  21.930  1.00  0.00     0.206 HD
BRANCH  22  26
HETATM   26  N8  UNL     1      22.316   7.155  21.306  1.00  0.00    -0.233 N 
ATOM     27  H82 UNL     1      21.363   6.797  21.346  1.00  0.00     0.174 HD
ATOM     28  H81 UNL     1      22.373   7.728  20.464  1.00  0.00     0.174 HD
ENDBRANCH  22  26
ENDBRANCH  18  19
ENDBRANCH  17  18
ENDBRANCH  16  17
ENDBRANCH  15  16
ENDBRANCH  13  14
ENDBRANCH  12  13
BRANCH   1  29
HETATM   29  C9  UNL     1      25.637   2.015  20.274  1.00  0.00     0.205 C 
BRANCH  29  30
HETATM   30  C8  UNL     1      25.092   3.206  19.540  1.00  0.00     0.029 A 
HETATM   31  C7  UNL     1      25.186   4.517  19.955  1.00  0.00     0.029 A 
HETATM   32  C6  UNL     1      24.576   5.341  19.035  1.00  0.00     0.028 A 
HETATM   33  C5  UNL     1      24.103   4.505  18.039  1.00  0.00     0.028 A 
HETATM   34  N10 UNL     1      24.434   3.238  18.382  1.00  0.00    -0.360 N 
ATOM     35  H10 UNL     1      24.208   2.414  17.825  1.00  0.00     0.165 HD
BRANCH  33  36
HETATM   36  C4  UNL     1      23.365   4.956  16.821  1.00  0.00     0.186 C 
BRANCH  36  37
HETATM   37  N2  UNL     1      24.090   5.961  16.100  1.00  0.00    -0.346 N 
HETATM   38  C3  UNL     1      24.104   7.296  16.239  1.00  0.00     0.109 A 
HETATM   39  C2  UNL     1      24.959   7.846  15.316  1.00  0.00     0.108 A 
HETATM   40  N1  UNL     1      25.476   6.825  14.603  1.00  0.00    -0.356 N 
HETATM   41  C1  UNL     1      26.431   6.936  13.515  1.00  0.00     0.156 C 
HETATM   42  C25 UNL     1      24.940   5.697  15.090  1.00  0.00     0.185 A 
ENDBRANCH  36  37
ENDBRANCH  33  36
ENDBRANCH  29  30
ENDBRANCH   1  29
TORSDOF 11
ENDMDL
