MODEL 1
REMARK VINA RESULT: -7.197561092      0.000      0.000
REMARK  11 active torsions:
REMARK  status: ('A' for Active; 'I' for Inactive)
REMARK    1  A    between atoms: C2_2  and  N1_3 
REMARK    2  A    between atoms: C5_6  and  C6_7 
REMARK    3  A    between atoms: C6_7  and  C7_8 
REMARK    4  A    between atoms: C7_8  and  C8_9 
REMARK    5  A    between atoms: C8_9  and  C9_10 
REMARK    6  A    between atoms: C9_10  and  N2_11 
REMARK    7  A    between atoms: N2_11  and  C11_13 
REMARK    8  A    between atoms: C11_13  and  C12_14 
REMARK    9  A    between atoms: C17_20  and  C18_21 
REMARK       I    between atoms: C18_21  and  N4_23 
REMARK   10  A    between atoms: N4_23  and  C19_25 
REMARK       I    between atoms: N5_27  and  C21_29 
REMARK   11  A    between atoms: C24_39  and  O3_40 
ROOT
HETATM    1  C18 UNL     1      24.908   6.344  23.449  1.00  0.00     0.286 C 
HETATM    2  O1  UNL     1      23.811   6.090  24.068  1.00  0.00    -0.264 OA
HETATM    3  N4  UNL     1      24.979   6.310  22.049  1.00  0.00    -0.340 N 
ATOM      4  H4  UNL     1      25.875   6.511  21.606  1.00  0.00     0.163 HD
ENDROOT
BRANCH   1   5
HETATM    5  C17 UNL     1      26.023   6.648  24.306  1.00  0.00     0.178 A 
HETATM    6  N1  UNL     1      26.329   7.900  24.627  1.00  0.00    -0.339 N 
HETATM    7  C3  UNL     1      27.458   8.114  25.378  1.00  0.00     0.094 A 
HETATM    8  C4  UNL     1      28.227   7.075  25.778  1.00  0.00     0.042 A 
HETATM    9  C5  UNL     1      27.899   5.758  25.439  1.00  0.00     0.014 A 
HETATM   10  N3  UNL     1      26.802   5.580  24.709  1.00  0.00    -0.337 N 
HETATM   11  C16 UNL     1      26.360   4.239  24.297  1.00  0.00     0.158 C 
BRANCH   6  12
HETATM   12  C2  UNL     1      25.540   9.083  24.331  1.00  0.00     0.125 C 
HETATM   13  C1  UNL     1      26.194  10.230  25.141  1.00  0.00     0.027 C 
ENDBRANCH   6  12
BRANCH   9  14
HETATM   14  C6  UNL     1      28.755   4.643  25.917  1.00  0.00     0.057 C 
BRANCH  14  15
HETATM   15  C7  UNL     1      30.118   5.093  26.311  1.00  0.00     0.008 C 
BRANCH  15  16
HETATM   16  C8  UNL     1      31.118   4.001  26.078  1.00  0.00     0.020 C 
BRANCH  16  17
HETATM   17  C9  UNL     1      30.448   2.681  25.879  1.00  0.00     0.121 C 
BRANCH  17  18
HETATM   18  N2  UNL     1      30.836   2.056  24.620  1.00  0.00    -0.397 N 
HETATM   19  C10 UNL     1      31.352   0.763  24.718  1.00  0.00     0.148 C 
BRANCH  18  20
HETATM   20  C11 UNL     1      31.327   2.980  23.710  1.00  0.00     0.066 C 
BRANCH  20  21
HETATM   21  C12 UNL     1      30.508   3.231  22.482  1.00  0.00    -0.019 C 
HETATM   22  C13 UNL     1      29.261   2.320  22.562  1.00  0.00     0.020 C 
HETATM   23  C14 UNL     1      31.313   2.959  21.261  1.00  0.00     0.020 C 
HETATM   24  C15 UNL     1      29.918   4.637  22.514  1.00  0.00     0.020 C 
ENDBRANCH  20  21
ENDBRANCH  18  20
ENDBRANCH  17  18
ENDBRANCH  16  17
ENDBRANCH  15  16
ENDBRANCH  14  15
ENDBRANCH   9  14
ENDBRANCH   1   5
BRANCH   3  25
HETATM   25  C19 UNL     1      23.839   6.003  21.195  1.00  0.00     0.179 C 
HETATM   26  C20 UNL     1      24.265   5.020  20.167  1.00  0.00     0.025 C 
HETATM   27  N5  UNL     1      24.016   3.769  20.347  1.00  0.00    -0.336 N 
HETATM   28  C22 UNL     1      24.970   5.440  18.937  1.00  0.00     0.157 C 
HETATM   29  C21 UNL     1      24.428   2.843  19.359  1.00  0.00     0.186 C 
ATOM     30  H5  UNL     1      23.530   3.452  21.185  1.00  0.00     0.168 HD
HETATM   31  N6  UNL     1      25.632   2.378  19.473  1.00  0.00    -0.374 N 
HETATM   32  N7  UNL     1      23.638   2.395  18.277  1.00  0.00    -0.064 NA
ATOM     33  H62 UNL     1      26.202   2.702  20.254  1.00  0.00     0.158 HD
ATOM     34  H61 UNL     1      25.929   1.711  18.761  1.00  0.00     0.158 HD
HETATM   35  C23 UNL     1      24.277   6.630  18.392  1.00  0.00     0.225 C 
HETATM   36  O2  UNL     1      24.214   6.791  17.132  1.00  0.00    -0.273 OA
HETATM   37  N8  UNL     1      23.708   7.550  19.298  1.00  0.00    -0.332 N 
HETATM   38  C24 UNL     1      23.195   7.226  20.604  1.00  0.00     0.248 C 
ATOM     39  H8  UNL     1      23.655   8.525  19.003  1.00  0.00     0.165 HD
BRANCH  38  40
HETATM   40  O3  UNL     1      21.803   7.055  20.460  1.00  0.00    -0.374 OA
ATOM     41  H3  UNL     1      21.600   6.447  19.759  1.00  0.00     0.212 HD
ENDBRANCH  38  40
ENDBRANCH   3  25
TORSDOF 11
ENDMDL
MODEL 2
REMARK VINA RESULT: -6.854846206      0.795      1.031
REMARK  11 active torsions:
REMARK  status: ('A' for Active; 'I' for Inactive)
REMARK    1  A    between atoms: C2_2  and  N1_3 
REMARK    2  A    between atoms: C5_6  and  C6_7 
REMARK    3  A    between atoms: C6_7  and  C7_8 
REMARK    4  A    between atoms: C7_8  and  C8_9 
REMARK    5  A    between atoms: C8_9  and  C9_10 
REMARK    6  A    between atoms: C9_10  and  N2_11 
REMARK    7  A    between atoms: N2_11  and  C11_13 
REMARK    8  A    between atoms: C11_13  and  C12_14 
REMARK    9  A    between atoms: C17_20  and  C18_21 
REMARK       I    between atoms: C18_21  and  N4_23 
REMARK   10  A    between atoms: N4_23  and  C19_25 
REMARK       I    between atoms: N5_27  and  C21_29 
REMARK   11  A    between atoms: C24_39  and  O3_40 
ROOT
HETATM    1  C18 UNL     1      25.101   6.438  23.283  1.00  0.00     0.286 C 
HETATM    2  O1  UNL     1      24.090   6.069  23.986  1.00  0.00    -0.264 OA
HETATM    3  N4  UNL     1      25.042   6.470  21.884  1.00  0.00    -0.340 N 
ATOM      4  H4  UNL     1      25.874   6.762  21.371  1.00  0.00     0.163 HD
ENDROOT
BRANCH   1   5
HETATM    5  C17 UNL     1      26.265   6.796  24.051  1.00  0.00     0.178 A 
HETATM    6  N1  UNL     1      26.411   8.013  24.560  1.00  0.00    -0.339 N 
HETATM    7  C3  UNL     1      27.588   8.303  25.206  1.00  0.00     0.094 A 
HETATM    8  C4  UNL     1      28.561   7.369  25.318  1.00  0.00     0.042 A 
HETATM    9  C5  UNL     1      28.400   6.088  24.781  1.00  0.00     0.014 A 
HETATM   10  N3  UNL     1      27.252   5.835  24.159  1.00  0.00    -0.337 N 
HETATM   11  C16 UNL     1      26.974   4.521  23.560  1.00  0.00     0.158 C 
BRANCH   6  12
HETATM   12  C2  UNL     1      25.411   9.066  24.579  1.00  0.00     0.125 C 
HETATM   13  C1  UNL     1      26.134  10.313  25.146  1.00  0.00     0.027 C 
ENDBRANCH   6  12
BRANCH   9  14
HETATM   14  C6  UNL     1      29.481   5.083  24.945  1.00  0.00     0.057 C 
BRANCH  14  15
HETATM   15  C7  UNL     1      30.316   5.330  26.152  1.00  0.00     0.008 C 
BRANCH  15  16
HETATM   16  C8  UNL     1      31.149   4.124  26.470  1.00  0.00     0.020 C 
BRANCH  16  17
HETATM   17  C9  UNL     1      30.297   2.918  26.695  1.00  0.00     0.121 C 
BRANCH  17  18
HETATM   18  N2  UNL     1      30.768   1.767  25.933  1.00  0.00    -0.397 N 
HETATM   19  C10 UNL     1      31.117   0.644  26.683  1.00  0.00     0.148 C 
BRANCH  18  20
HETATM   20  C11 UNL     1      31.471   2.146  24.799  1.00  0.00     0.066 C 
BRANCH  20  21
HETATM   21  C12 UNL     1      30.976   1.629  23.484  1.00  0.00    -0.019 C 
HETATM   22  C13 UNL     1      29.436   1.761  23.483  1.00  0.00     0.020 C 
HETATM   23  C14 UNL     1      31.409   0.219  23.290  1.00  0.00     0.020 C 
HETATM   24  C15 UNL     1      31.409   2.554  22.351  1.00  0.00     0.020 C 
ENDBRANCH  20  21
ENDBRANCH  18  20
ENDBRANCH  17  18
ENDBRANCH  16  17
ENDBRANCH  15  16
ENDBRANCH  14  15
ENDBRANCH   9  14
ENDBRANCH   1   5
BRANCH   3  25
HETATM   25  C19 UNL     1      23.854   6.107  21.122  1.00  0.00     0.179 C 
HETATM   26  C20 UNL     1      24.233   5.101  20.099  1.00  0.00     0.025 C 
HETATM   27  N5  UNL     1      24.029   3.851  20.336  1.00  0.00    -0.336 N 
HETATM   28  C22 UNL     1      24.841   5.494  18.809  1.00  0.00     0.157 C 
HETATM   29  C21 UNL     1      24.396   2.901  19.352  1.00  0.00     0.186 C 
ATOM     30  H5  UNL     1      23.611   3.551  21.216  1.00  0.00     0.168 HD
HETATM   31  N6  UNL     1      25.616   2.469  19.396  1.00  0.00    -0.374 N 
HETATM   32  N7  UNL     1      23.545   2.398  18.342  1.00  0.00    -0.064 NA
ATOM     33  H62 UNL     1      26.231   2.832  20.125  1.00  0.00     0.158 HD
ATOM     34  H61 UNL     1      25.881   1.785  18.687  1.00  0.00     0.158 HD
HETATM   35  C23 UNL     1      24.082   6.648  18.276  1.00  0.00     0.225 C 
HETATM   36  O2  UNL     1      23.927   6.765  17.019  1.00  0.00    -0.273 OA
HETATM   37  N8  UNL     1      23.552   7.586  19.189  1.00  0.00    -0.332 N 
HETATM   38  C24 UNL     1      23.140   7.294  20.538  1.00  0.00     0.248 C 
ATOM     39  H8  UNL     1      23.454   8.548  18.867  1.00  0.00     0.165 HD
BRANCH  38  40
HETATM   40  O3  UNL     1      21.746   7.086  20.497  1.00  0.00    -0.374 OA
ATOM     41  H3  UNL     1      21.514   6.417  19.863  1.00  0.00     0.212 HD
ENDBRANCH  38  40
ENDBRANCH   3  25
TORSDOF 11
ENDMDL
MODEL 3
REMARK VINA RESULT: -6.539224327      1.510      2.784
REMARK  11 active torsions:
REMARK  status: ('A' for Active; 'I' for Inactive)
REMARK    1  A    between atoms: C2_2  and  N1_3 
REMARK    2  A    between atoms: C5_6  and  C6_7 
REMARK    3  A    between atoms: C6_7  and  C7_8 
REMARK    4  A    between atoms: C7_8  and  C8_9 
REMARK    5  A    between atoms: C8_9  and  C9_10 
REMARK    6  A    between atoms: C9_10  and  N2_11 
REMARK    7  A    between atoms: N2_11  and  C11_13 
REMARK    8  A    between atoms: C11_13  and  C12_14 
REMARK    9  A    between atoms: C17_20  and  C18_21 
REMARK       I    between atoms: C18_21  and  N4_23 
REMARK   10  A    between atoms: N4_23  and  C19_25 
REMARK       I    between atoms: N5_27  and  C21_29 
REMARK   11  A    between atoms: C24_39  and  O3_40 
ROOT
HETATM    1  C18 UNL     1      25.967   5.065  23.036  1.00  0.00     0.286 C 
HETATM    2  O1  UNL     1      25.323   4.014  23.400  1.00  0.00    -0.264 OA
HETATM    3  N4  UNL     1      25.446   5.941  22.074  1.00  0.00    -0.340 N 
ATOM      4  H4  UNL     1      25.999   6.757  21.813  1.00  0.00     0.163 HD
ENDROOT
BRANCH   1   5
HETATM    5  C17 UNL     1      27.237   5.245  23.687  1.00  0.00     0.178 A 
HETATM    6  N1  UNL     1      27.399   6.138  24.657  1.00  0.00    -0.339 N 
HETATM    7  C3  UNL     1      28.662   6.310  25.168  1.00  0.00     0.094 A 
HETATM    8  C4  UNL     1      29.702   5.584  24.695  1.00  0.00     0.042 A 
HETATM    9  C5  UNL     1      29.525   4.644  23.676  1.00  0.00     0.014 A 
HETATM   10  N3  UNL     1      28.293   4.499  23.197  1.00  0.00    -0.337 N 
HETATM   11  C16 UNL     1      27.991   3.538  22.127  1.00  0.00     0.158 C 
BRANCH   6  12
HETATM   12  C2  UNL     1      26.351   6.909  25.302  1.00  0.00     0.125 C 
HETATM   13  C1  UNL     1      26.519   8.356  24.774  1.00  0.00     0.027 C 
ENDBRANCH   6  12
BRANCH   9  14
HETATM   14  C6  UNL     1      30.687   3.850  23.200  1.00  0.00     0.057 C 
BRANCH  14  15
HETATM   15  C7  UNL     1      31.344   3.083  24.293  1.00  0.00     0.008 C 
BRANCH  15  16
HETATM   16  C8  UNL     1      30.688   1.746  24.464  1.00  0.00     0.020 C 
BRANCH  16  17
HETATM   17  C9  UNL     1      31.363   0.940  25.525  1.00  0.00     0.121 C 
BRANCH  17  18
HETATM   18  N2  UNL     1      31.282   1.581  26.832  1.00  0.00    -0.397 N 
HETATM   19  C10 UNL     1      32.459   1.585  27.581  1.00  0.00     0.148 C 
BRANCH  18  20
HETATM   20  C11 UNL     1      30.035   1.416  27.417  1.00  0.00     0.066 C 
BRANCH  20  21
HETATM   21  C12 UNL     1      29.278   2.658  27.774  1.00  0.00    -0.019 C 
HETATM   22  C13 UNL     1      28.144   2.826  26.737  1.00  0.00     0.020 C 
HETATM   23  C14 UNL     1      30.192   3.831  27.786  1.00  0.00     0.020 C 
HETATM   24  C15 UNL     1      28.528   2.465  29.088  1.00  0.00     0.020 C 
ENDBRANCH  20  21
ENDBRANCH  18  20
ENDBRANCH  17  18
ENDBRANCH  16  17
ENDBRANCH  15  16
ENDBRANCH  14  15
ENDBRANCH   9  14
ENDBRANCH   1   5
BRANCH   3  25
HETATM   25  C19 UNL     1      24.155   5.747  21.427  1.00  0.00     0.179 C 
HETATM   26  C20 UNL     1      24.330   4.814  20.286  1.00  0.00     0.025 C 
HETATM   27  N5  UNL     1      24.043   3.567  20.438  1.00  0.00    -0.336 N 
HETATM   28  C22 UNL     1      24.828   5.277  18.972  1.00  0.00     0.157 C 
HETATM   29  C21 UNL     1      24.216   2.688  19.342  1.00  0.00     0.186 C 
ATOM     30  H5  UNL     1      23.698   3.220  21.332  1.00  0.00     0.168 HD
HETATM   31  N6  UNL     1      25.390   2.158  19.208  1.00  0.00    -0.374 N 
HETATM   32  N7  UNL     1      23.219   2.350  18.399  1.00  0.00    -0.064 NA
ATOM     33  H62 UNL     1      26.109   2.402  19.890  1.00  0.00     0.158 HD
ATOM     34  H61 UNL     1      25.515   1.525  18.419  1.00  0.00     0.158 HD
HETATM   35  C23 UNL     1      24.122   6.532  18.629  1.00  0.00     0.225 C 
HETATM   36  O2  UNL     1      23.843   6.778  17.413  1.00  0.00    -0.273 OA
HETATM   37  N8  UNL     1      23.779   7.419  19.673  1.00  0.00    -0.332 N 
HETATM   38  C24 UNL     1      23.491   7.036  21.031  1.00  0.00     0.248 C 
ATOM     39  H8  UNL     1      23.733   8.412  19.447  1.00  0.00     0.165 HD
BRANCH  38  40
HETATM   40  O3  UNL     1      22.087   6.943  21.134  1.00  0.00    -0.374 OA
ATOM     41  H3  UNL     1      21.676   6.953  20.277  1.00  0.00     0.212 HD
ENDBRANCH  38  40
ENDBRANCH   3  25
TORSDOF 11
ENDMDL
MODEL 4
REMARK VINA RESULT: -6.510699514      3.433      5.794
REMARK  11 active torsions:
REMARK  status: ('A' for Active; 'I' for Inactive)
REMARK    1  A    between atoms: C2_2  and  N1_3 
REMARK    2  A    between atoms: C5_6  and  C6_7 
REMARK    3  A    between atoms: C6_7  and  C7_8 
REMARK    4  A    between atoms: C7_8  and  C8_9 
REMARK    5  A    between atoms: C8_9  and  C9_10 
REMARK    6  A    between atoms: C9_10  and  N2_11 
REMARK    7  A    between atoms: N2_11  and  C11_13 
REMARK    8  A    between atoms: C11_13  and  C12_14 
REMARK    9  A    between atoms: C17_20  and  C18_21 
REMARK       I    between atoms: C18_21  and  N4_23 
REMARK   10  A    between atoms: N4_23  and  C19_25 
REMARK       I    between atoms: N5_27  and  C21_29 
REMARK   11  A    between atoms: C24_39  and  O3_40 
ROOT
HETATM    1  C18 UNL     1      23.296   7.008  21.702  1.00  0.00     0.286 C 
HETATM    2  O1  UNL     1      23.962   8.076  21.960  1.00  0.00    -0.264 OA
HETATM    3  N4  UNL     1      22.062   6.753  22.316  1.00  0.00    -0.340 N 
ATOM      4  H4  UNL     1      21.577   5.887  22.084  1.00  0.00     0.163 HD
ENDROOT
BRANCH   1   5
HETATM    5  C17 UNL     1      23.927   6.123  20.759  1.00  0.00     0.178 A 
HETATM    6  N1  UNL     1      23.606   6.141  19.470  1.00  0.00    -0.339 N 
HETATM    7  C3  UNL     1      24.189   5.208  18.649  1.00  0.00     0.094 A 
HETATM    8  C4  UNL     1      25.064   4.303  19.146  1.00  0.00     0.042 A 
HETATM    9  C5  UNL     1      25.399   4.290  20.503  1.00  0.00     0.014 A 
HETATM   10  N3  UNL     1      24.819   5.203  21.276  1.00  0.00    -0.337 N 
HETATM   11  C16 UNL     1      25.100   5.283  22.717  1.00  0.00     0.158 C 
BRANCH   6  12
HETATM   12  C2  UNL     1      22.751   7.111  18.809  1.00  0.00     0.125 C 
HETATM   13  C1  UNL     1      23.302   7.231  17.366  1.00  0.00     0.027 C 
ENDBRANCH   6  12
BRANCH   9  14
HETATM   14  C6  UNL     1      26.383   3.297  21.006  1.00  0.00     0.057 C 
BRANCH  14  15
HETATM   15  C7  UNL     1      25.738   2.046  21.493  1.00  0.00     0.008 C 
BRANCH  15  16
HETATM   16  C8  UNL     1      26.439   1.536  22.715  1.00  0.00     0.020 C 
BRANCH  16  17
HETATM   17  C9  UNL     1      27.916   1.464  22.506  1.00  0.00     0.121 C 
BRANCH  17  18
HETATM   18  N2  UNL     1      28.638   2.361  23.401  1.00  0.00    -0.397 N 
HETATM   19  C10 UNL     1      27.906   2.864  24.478  1.00  0.00     0.148 C 
BRANCH  18  20
HETATM   20  C11 UNL     1      29.578   3.126  22.726  1.00  0.00     0.066 C 
BRANCH  20  21
HETATM   21  C12 UNL     1      31.020   2.848  23.015  1.00  0.00    -0.019 C 
HETATM   22  C13 UNL     1      31.858   3.564  21.931  1.00  0.00     0.020 C 
HETATM   23  C14 UNL     1      31.269   1.382  23.025  1.00  0.00     0.020 C 
HETATM   24  C15 UNL     1      31.447   3.541  24.304  1.00  0.00     0.020 C 
ENDBRANCH  20  21
ENDBRANCH  18  20
ENDBRANCH  17  18
ENDBRANCH  16  17
ENDBRANCH  15  16
ENDBRANCH  14  15
ENDBRANCH   9  14
ENDBRANCH   1   5
BRANCH   3  25
HETATM   25  C19 UNL     1      21.436   7.662  23.266  1.00  0.00     0.179 C 
HETATM   26  C20 UNL     1      20.404   6.916  24.030  1.00  0.00     0.025 C 
HETATM   27  N5  UNL     1      20.691   6.457  25.199  1.00  0.00    -0.336 N 
HETATM   28  C22 UNL     1      19.050   6.685  23.483  1.00  0.00     0.157 C 
HETATM   29  C21 UNL     1      19.698   5.747  25.915  1.00  0.00     0.186 C 
ATOM     30  H5  UNL     1      21.617   6.602  25.600  1.00  0.00     0.168 HD
HETATM   31  N6  UNL     1      19.627   4.473  25.691  1.00  0.00    -0.374 N 
HETATM   32  N7  UNL     1      18.794   6.314  26.841  1.00  0.00    -0.064 NA
ATOM     33  H62 UNL     1      20.279   4.064  25.022  1.00  0.00     0.158 HD
ATOM     34  H61 UNL     1      18.911   3.961  26.207  1.00  0.00     0.158 HD
HETATM   35  C23 UNL     1      18.570   7.954  22.890  1.00  0.00     0.225 C 
HETATM   36  O2  UNL     1      17.332   8.243  22.954  1.00  0.00    -0.273 OA
HETATM   37  N8  UNL     1      19.509   8.804  22.268  1.00  0.00    -0.332 N 
HETATM   38  C24 UNL     1      20.900   8.912  22.626  1.00  0.00     0.248 C 
ATOM     39  H8  UNL     1      19.176   9.390  21.503  1.00  0.00     0.165 HD
BRANCH  38  40
HETATM   40  O3  UNL     1      21.008  10.020  23.493  1.00  0.00    -0.374 OA
ATOM     41  H3  UNL     1      21.708  10.603  23.222  1.00  0.00     0.212 HD
ENDBRANCH  38  40
ENDBRANCH   3  25
TORSDOF 11
ENDMDL
MODEL 5
REMARK VINA RESULT: -6.487400132      2.805      5.955
REMARK  11 active torsions:
REMARK  status: ('A' for Active; 'I' for Inactive)
REMARK    1  A    between atoms: C2_2  and  N1_3 
REMARK    2  A    between atoms: C5_6  and  C6_7 
REMARK    3  A    between atoms: C6_7  and  C7_8 
REMARK    4  A    between atoms: C7_8  and  C8_9 
REMARK    5  A    between atoms: C8_9  and  C9_10 
REMARK    6  A    between atoms: C9_10  and  N2_11 
REMARK    7  A    between atoms: N2_11  and  C11_13 
REMARK    8  A    between atoms: C11_13  and  C12_14 
REMARK    9  A    between atoms: C17_20  and  C18_21 
REMARK       I    between atoms: C18_21  and  N4_23 
REMARK   10  A    between atoms: N4_23  and  C19_25 
REMARK       I    between atoms: N5_27  and  C21_29 
REMARK   11  A    between atoms: C24_39  and  O3_40 
ROOT
HETATM    1  C18 UNL     1      23.187   7.054  21.314  1.00  0.00     0.286 C 
HETATM    2  O1  UNL     1      23.866   8.127  21.513  1.00  0.00    -0.264 OA
HETATM    3  N4  UNL     1      21.929   6.869  21.903  1.00  0.00    -0.340 N 
ATOM      4  H4  UNL     1      21.434   5.996  21.721  1.00  0.00     0.163 HD
ENDROOT
BRANCH   1   5
HETATM    5  C17 UNL     1      23.829   6.090  20.461  1.00  0.00     0.178 A 
HETATM    6  N1  UNL     1      23.520   5.990  19.173  1.00  0.00    -0.339 N 
HETATM    7  C3  UNL     1      24.113   4.989  18.445  1.00  0.00     0.094 A 
HETATM    8  C4  UNL     1      24.987   4.136  19.030  1.00  0.00     0.042 A 
HETATM    9  C5  UNL     1      25.309   4.247  20.386  1.00  0.00     0.014 A 
HETATM   10  N3  UNL     1      24.719   5.225  21.067  1.00  0.00    -0.337 N 
HETATM   11  C16 UNL     1      24.986   5.436  22.498  1.00  0.00     0.158 C 
BRANCH   6  12
HETATM   12  C2  UNL     1      22.669   6.893  18.418  1.00  0.00     0.125 C 
HETATM   13  C1  UNL     1      23.537   7.387  17.234  1.00  0.00     0.027 C 
ENDBRANCH   6  12
BRANCH   9  14
HETATM   14  C6  UNL     1      26.291   3.307  20.986  1.00  0.00     0.057 C 
BRANCH  14  15
HETATM   15  C7  UNL     1      25.645   2.106  21.581  1.00  0.00     0.008 C 
BRANCH  15  16
HETATM   16  C8  UNL     1      26.437   1.611  22.753  1.00  0.00     0.020 C 
BRANCH  16  17
HETATM   17  C9  UNL     1      27.902   1.611  22.460  1.00  0.00     0.121 C 
BRANCH  17  18
HETATM   18  N2  UNL     1      28.647   2.441  23.399  1.00  0.00    -0.397 N 
HETATM   19  C10 UNL     1      27.952   2.837  24.543  1.00  0.00     0.148 C 
BRANCH  18  20
HETATM   20  C11 UNL     1      29.547   3.278  22.756  1.00  0.00     0.066 C 
BRANCH  20  21
HETATM   21  C12 UNL     1      31.002   2.971  22.920  1.00  0.00    -0.019 C 
HETATM   22  C13 UNL     1      31.441   3.521  24.297  1.00  0.00     0.020 C 
HETATM   23  C14 UNL     1      31.785   3.575  21.810  1.00  0.00     0.020 C 
HETATM   24  C15 UNL     1      31.216   1.467  23.059  1.00  0.00     0.020 C 
ENDBRANCH  20  21
ENDBRANCH  18  20
ENDBRANCH  17  18
ENDBRANCH  16  17
ENDBRANCH  15  16
ENDBRANCH  14  15
ENDBRANCH   9  14
ENDBRANCH   1   5
BRANCH   3  25
HETATM   25  C19 UNL     1      21.292   7.858  22.762  1.00  0.00     0.179 C 
HETATM   26  C20 UNL     1      21.877   7.756  24.122  1.00  0.00     0.025 C 
HETATM   27  N5  UNL     1      22.810   8.573  24.472  1.00  0.00    -0.336 N 
HETATM   28  C22 UNL     1      21.419   6.737  25.091  1.00  0.00     0.157 C 
HETATM   29  C21 UNL     1      23.361   8.464  25.771  1.00  0.00     0.186 C 
ATOM     30  H5  UNL     1      23.145   9.286  23.825  1.00  0.00     0.168 HD
HETATM   31  N6  UNL     1      24.353   7.643  25.909  1.00  0.00    -0.374 N 
HETATM   32  N7  UNL     1      22.917   9.172  26.911  1.00  0.00    -0.064 NA
ATOM     33  H62 UNL     1      24.674   7.132  25.086  1.00  0.00     0.158 HD
ATOM     34  H61 UNL     1      24.750   7.565  26.845  1.00  0.00     0.158 HD
HETATM   35  C23 UNL     1      19.939   6.708  25.063  1.00  0.00     0.225 C 
HETATM   36  O2  UNL     1      19.299   6.473  26.137  1.00  0.00    -0.273 OA
HETATM   37  N8  UNL     1      19.285   6.943  23.834  1.00  0.00    -0.332 N 
HETATM   38  C24 UNL     1      19.791   7.762  22.764  1.00  0.00     0.248 C 
ATOM     39  H8  UNL     1      18.379   6.495  23.693  1.00  0.00     0.165 HD
BRANCH  38  40
HETATM   40  O3  UNL     1      19.196   9.032  22.912  1.00  0.00    -0.374 OA
ATOM     41  H3  UNL     1      18.266   8.959  23.093  1.00  0.00     0.212 HD
ENDBRANCH  38  40
ENDBRANCH   3  25
TORSDOF 11
ENDMDL
