MODEL 1
REMARK VINA RESULT: -5.998842882      0.000      0.000
REMARK  12 active torsions:
REMARK  status: ('A' for Active; 'I' for Inactive)
REMARK    1  A    between atoms: C2_2  and  N1_3 
REMARK    2  A    between atoms: N1_3  and  C3_4 
REMARK    3  A    between atoms: N1_3  and  C5_6 
REMARK    4  A    between atoms: C5_6  and  C6_7 
REMARK    5  A    between atoms: C6_7  and  C7_8 
REMARK    6  A    between atoms: C7_8  and  O1_9 
REMARK    7  A    between atoms: O1_9  and  N2_10 
REMARK    8  A    between atoms: C8_12  and  C9_13 
REMARK    9  A    between atoms: C9_13  and  C11_16 
REMARK   10  A    between atoms: C20_25  and  O2_26 
REMARK   11  A    between atoms: C22_29  and  O3_30 
REMARK   12  A    between atoms: C26_35  and  O4_36 
ROOT
HETATM    1  C9  UNL     1      20.500 -17.977 -17.035  1.00  0.00     0.138 C 
HETATM    2  C10 UNL     1      20.715 -16.999 -18.101  1.00  0.00     0.069 C 
HETATM    3  N3  UNL     1      20.869 -16.210 -18.935  1.00  0.00    -0.197 NA
ENDROOT
BRANCH   1   4
HETATM    4  C8  UNL     1      20.344 -17.243 -15.722  1.00  0.00     0.106 C 
HETATM    5  N2  UNL     1      20.607 -16.015 -15.582  1.00  0.00    -0.281 N 
ATOM      6  H2  UNL     1      20.943 -15.466 -16.373  1.00  0.00     0.193 HD
BRANCH   5   7
HETATM    7  O1  UNL     1      20.437 -15.430 -14.354  1.00  0.00    -0.281 OA
BRANCH   7   8
HETATM    8  C7  UNL     1      21.494 -14.672 -13.825  1.00  0.00     0.203 C 
BRANCH   8   9
HETATM    9  C6  UNL     1      22.205 -15.404 -12.700  1.00  0.00     0.059 C 
BRANCH   9  10
HETATM   10  C5  UNL     1      21.538 -15.190 -11.378  1.00  0.00     0.274 C 
BRANCH  10  11
HETATM   11  N1  UNL     1      21.118 -16.434 -10.825  1.00  0.00     0.087 N 
BRANCH  11  12
HETATM   12  C2  UNL     1      21.454 -16.564  -9.417  1.00  0.00     0.268 C 
HETATM   13  C1  UNL     1      21.863 -15.200  -8.910  1.00  0.00     0.037 C 
ENDBRANCH  11  12
BRANCH  11  14
HETATM   14  C3  UNL     1      21.414 -17.603 -11.577  1.00  0.00     0.268 C 
HETATM   15  C4  UNL     1      21.769 -18.801 -10.738  1.00  0.00     0.037 C 
ENDBRANCH  11  14
ENDBRANCH  10  11
ENDBRANCH   9  10
ENDBRANCH   8   9
ENDBRANCH   7   8
ENDBRANCH   5   7
ENDBRANCH   1   4
BRANCH   1  16
HETATM   16  C11 UNL     1      21.659 -18.876 -16.899  1.00  0.00     0.017 C 
HETATM   17  C12 UNL     1      21.359 -19.810 -15.712  1.00  0.00     0.007 C 
HETATM   18  C13 UNL     1      21.773 -21.214 -16.187  1.00  0.00     0.006 C 
HETATM   19  C14 UNL     1      22.775 -20.848 -17.198  1.00  0.00    -0.001 C 
HETATM   20  C15 UNL     1      23.424 -21.885 -17.994  1.00  0.00    -0.002 C 
HETATM   21  C28 UNL     1      21.977 -19.809 -18.003  1.00  0.00    -0.033 C 
HETATM   22  C16 UNL     1      24.169 -22.824 -17.118  1.00  0.00     0.006 C 
HETATM   23  C25 UNL     1      24.447 -21.169 -18.897  1.00  0.00     0.030 C 
HETATM   24  C17 UNL     1      24.703 -23.939 -17.950  1.00  0.00     0.006 C 
HETATM   25  C18 UNL     1      25.273 -23.524 -19.273  1.00  0.00    -0.001 C 
HETATM   26  C19 UNL     1      24.560 -24.158 -20.411  1.00  0.00     0.037 C 
HETATM   27  C23 UNL     1      25.523 -22.039 -19.379  1.00  0.00    -0.008 C 
HETATM   28  C20 UNL     1      24.693 -23.617 -21.761  1.00  0.00     0.121 C 
HETATM   29  C21 UNL     1      25.316 -22.274 -21.903  1.00  0.00     0.064 C 
HETATM   30  C22 UNL     1      26.081 -21.785 -20.737  1.00  0.00     0.129 C 
HETATM   31  C24 UNL     1      26.742 -21.800 -18.444  1.00  0.00     0.019 C 
HETATM   32  C26 UNL     1      23.606 -20.399 -19.840  1.00  0.00     0.124 C 
HETATM   33  C27 UNL     1      22.899 -19.279 -19.042  1.00  0.00     0.042 C 
HETATM   34  C29 UNL     1      20.763 -20.503 -18.528  1.00  0.00     0.016 C 
BRANCH  28  35
HETATM   35  O2  UNL     1      25.312 -24.559 -22.628  1.00  0.00    -0.395 OA
ATOM     36  H2  UNL     1      26.167 -24.253 -22.907  1.00  0.00     0.210 HD
ENDBRANCH  28  35
BRANCH  30  37
HETATM   37  O3  UNL     1      26.498 -20.469 -20.943  1.00  0.00    -0.395 OA
ATOM     38  H3  UNL     1      27.261 -20.274 -20.411  1.00  0.00     0.210 HD
ENDBRANCH  30  37
BRANCH  32  39
HETATM   39  O4  UNL     1      22.496 -21.095 -20.350  1.00  0.00    -0.395 OA
ATOM     40  H4  UNL     1      21.741 -20.554 -20.552  1.00  0.00     0.210 HD
ENDBRANCH  32  39
ENDBRANCH   1  16
TORSDOF 12
ENDMDL
MODEL 2
REMARK VINA RESULT: -5.960489590      2.010      3.267
REMARK  12 active torsions:
REMARK  status: ('A' for Active; 'I' for Inactive)
REMARK    1  A    between atoms: C2_2  and  N1_3 
REMARK    2  A    between atoms: N1_3  and  C3_4 
REMARK    3  A    between atoms: N1_3  and  C5_6 
REMARK    4  A    between atoms: C5_6  and  C6_7 
REMARK    5  A    between atoms: C6_7  and  C7_8 
REMARK    6  A    between atoms: C7_8  and  O1_9 
REMARK    7  A    between atoms: O1_9  and  N2_10 
REMARK    8  A    between atoms: C8_12  and  C9_13 
REMARK    9  A    between atoms: C9_13  and  C11_16 
REMARK   10  A    between atoms: C20_25  and  O2_26 
REMARK   11  A    between atoms: C22_29  and  O3_30 
REMARK   12  A    between atoms: C26_35  and  O4_36 
ROOT
HETATM    1  C9  UNL     1      21.502 -19.137 -19.780  1.00  0.00     0.138 C 
HETATM    2  C10 UNL     1      22.087 -18.497 -20.957  1.00  0.00     0.069 C 
HETATM    3  N3  UNL     1      22.530 -17.975 -21.893  1.00  0.00    -0.197 NA
ENDROOT
BRANCH   1   4
HETATM    4  C8  UNL     1      20.809 -18.084 -18.944  1.00  0.00     0.106 C 
HETATM    5  N2  UNL     1      20.830 -16.853 -19.228  1.00  0.00    -0.281 N 
ATOM      6  H2  UNL     1      21.330 -16.522 -20.053  1.00  0.00     0.193 HD
BRANCH   5   7
HETATM    7  O1  UNL     1      20.173 -15.967 -18.414  1.00  0.00    -0.281 OA
BRANCH   7   8
HETATM    8  C7  UNL     1      20.692 -14.668 -18.288  1.00  0.00     0.203 C 
BRANCH   8   9
HETATM    9  C6  UNL     1      21.394 -14.467 -16.956  1.00  0.00     0.059 C 
BRANCH   9  10
HETATM   10  C5  UNL     1      20.478 -14.696 -15.795  1.00  0.00     0.274 C 
BRANCH  10  11
HETATM   11  N1  UNL     1      21.176 -15.333 -14.729  1.00  0.00     0.087 N 
BRANCH  11  12
HETATM   12  C2  UNL     1      20.465 -16.486 -14.203  1.00  0.00     0.268 C 
HETATM   13  C1  UNL     1      20.590 -17.606 -15.210  1.00  0.00     0.037 C 
ENDBRANCH  11  12
BRANCH  11  14
HETATM   14  C3  UNL     1      21.701 -14.491 -13.711  1.00  0.00     0.268 C 
HETATM   15  C4  UNL     1      22.066 -15.214 -12.443  1.00  0.00     0.037 C 
ENDBRANCH  11  14
ENDBRANCH  10  11
ENDBRANCH   9  10
ENDBRANCH   8   9
ENDBRANCH   7   8
ENDBRANCH   5   7
ENDBRANCH   1   4
BRANCH   1  16
HETATM   16  C11 UNL     1      22.544 -19.748 -18.937  1.00  0.00     0.017 C 
HETATM   17  C12 UNL     1      21.894 -20.041 -17.572  1.00  0.00     0.007 C 
HETATM   18  C13 UNL     1      22.367 -21.455 -17.192  1.00  0.00     0.006 C 
HETATM   19  C14 UNL     1      23.621 -21.511 -17.958  1.00  0.00    -0.001 C 
HETATM   20  C15 UNL     1      24.422 -22.730 -17.963  1.00  0.00    -0.002 C 
HETATM   21  C28 UNL     1      23.114 -21.054 -19.336  1.00  0.00    -0.033 C 
HETATM   22  C16 UNL     1      24.862 -23.071 -16.587  1.00  0.00     0.006 C 
HETATM   23  C25 UNL     1      25.680 -22.425 -18.799  1.00  0.00     0.030 C 
HETATM   24  C17 UNL     1      25.559 -24.387 -16.615  1.00  0.00     0.006 C 
HETATM   25  C18 UNL     1      26.485 -24.587 -17.777  1.00  0.00    -0.001 C 
HETATM   26  C19 UNL     1      26.087 -25.748 -18.613  1.00  0.00     0.037 C 
HETATM   27  C23 UNL     1      26.812 -23.309 -18.510  1.00  0.00    -0.008 C 
HETATM   28  C20 UNL     1      26.605 -25.893 -19.972  1.00  0.00     0.121 C 
HETATM   29  C21 UNL     1      27.294 -24.720 -20.571  1.00  0.00     0.064 C 
HETATM   30  C22 UNL     1      27.730 -23.669 -19.628  1.00  0.00     0.129 C 
HETATM   31  C24 UNL     1      27.737 -22.541 -17.524  1.00  0.00     0.019 C 
HETATM   32  C26 UNL     1      25.160 -22.274 -20.176  1.00  0.00     0.124 C 
HETATM   33  C27 UNL     1      24.305 -20.986 -20.224  1.00  0.00     0.042 C 
HETATM   34  C29 UNL     1      22.064 -22.028 -19.759  1.00  0.00     0.016 C 
BRANCH  28  35
HETATM   35  O2  UNL     1      27.399 -27.066 -20.090  1.00  0.00    -0.395 OA
ATOM     36  H2  UNL     1      28.320 -26.866 -19.966  1.00  0.00     0.210 HD
ENDBRANCH  28  35
BRANCH  30  37
HETATM   37  O3  UNL     1      28.238 -22.570 -20.322  1.00  0.00    -0.395 OA
ATOM     38  H3  UNL     1      28.657 -21.962 -19.723  1.00  0.00     0.210 HD
ENDBRANCH  30  37
BRANCH  32  39
HETATM   39  O4  UNL     1      24.205 -23.233 -20.559  1.00  0.00    -0.395 OA
ATOM     40  H4  UNL     1      23.820 -23.724 -19.843  1.00  0.00     0.210 HD
ENDBRANCH  32  39
ENDBRANCH   1  16
TORSDOF 12
ENDMDL
MODEL 3
REMARK VINA RESULT: -5.949928277      0.273      1.140
REMARK  12 active torsions:
REMARK  status: ('A' for Active; 'I' for Inactive)
REMARK    1  A    between atoms: C2_2  and  N1_3 
REMARK    2  A    between atoms: N1_3  and  C3_4 
REMARK    3  A    between atoms: N1_3  and  C5_6 
REMARK    4  A    between atoms: C5_6  and  C6_7 
REMARK    5  A    between atoms: C6_7  and  C7_8 
REMARK    6  A    between atoms: C7_8  and  O1_9 
REMARK    7  A    between atoms: O1_9  and  N2_10 
REMARK    8  A    between atoms: C8_12  and  C9_13 
REMARK    9  A    between atoms: C9_13  and  C11_16 
REMARK   10  A    between atoms: C20_25  and  O2_26 
REMARK   11  A    between atoms: C22_29  and  O3_30 
REMARK   12  A    between atoms: C26_35  and  O4_36 
ROOT
HETATM    1  C9  UNL     1      20.505 -18.042 -16.960  1.00  0.00     0.138 C 
HETATM    2  C10 UNL     1      20.706 -17.051 -18.016  1.00  0.00     0.069 C 
HETATM    3  N3  UNL     1      20.848 -16.251 -18.843  1.00  0.00    -0.197 NA
ENDROOT
BRANCH   1   4
HETATM    4  C8  UNL     1      20.339 -17.322 -15.640  1.00  0.00     0.106 C 
HETATM    5  N2  UNL     1      20.661 -16.113 -15.468  1.00  0.00    -0.281 N 
ATOM      6  H2  UNL     1      21.055 -15.569 -16.235  1.00  0.00     0.193 HD
BRANCH   5   7
HETATM    7  O1  UNL     1      20.475 -15.539 -14.236  1.00  0.00    -0.281 OA
BRANCH   7   8
HETATM    8  C7  UNL     1      21.412 -14.591 -13.795  1.00  0.00     0.203 C 
BRANCH   8   9
HETATM    9  C6  UNL     1      22.118 -15.041 -12.528  1.00  0.00     0.059 C 
BRANCH   9  10
HETATM   10  C5  UNL     1      21.201 -15.055 -11.346  1.00  0.00     0.274 C 
BRANCH  10  11
HETATM   11  N1  UNL     1      21.372 -16.257 -10.599  1.00  0.00     0.087 N 
BRANCH  11  12
HETATM   12  C2  UNL     1      20.761 -17.408 -11.243  1.00  0.00     0.268 C 
HETATM   13  C1  UNL     1      21.746 -18.553 -11.173  1.00  0.00     0.037 C 
ENDBRANCH  11  12
BRANCH  11  14
HETATM   14  C3  UNL     1      21.101 -16.191  -9.206  1.00  0.00     0.268 C 
HETATM   15  C4  UNL     1      22.122 -15.416  -8.416  1.00  0.00     0.037 C 
ENDBRANCH  11  14
ENDBRANCH  10  11
ENDBRANCH   9  10
ENDBRANCH   8   9
ENDBRANCH   7   8
ENDBRANCH   5   7
ENDBRANCH   1   4
BRANCH   1  16
HETATM   16  C11 UNL     1      21.678 -18.924 -16.832  1.00  0.00     0.017 C 
HETATM   17  C12 UNL     1      21.371 -19.904 -15.685  1.00  0.00     0.007 C 
HETATM   18  C13 UNL     1      21.819 -21.284 -16.199  1.00  0.00     0.006 C 
HETATM   19  C14 UNL     1      22.835 -20.866 -17.177  1.00  0.00    -0.001 C 
HETATM   20  C15 UNL     1      23.517 -21.862 -17.995  1.00  0.00    -0.002 C 
HETATM   21  C28 UNL     1      22.033 -19.813 -17.961  1.00  0.00    -0.033 C 
HETATM   22  C16 UNL     1      24.262 -22.819 -17.138  1.00  0.00     0.006 C 
HETATM   23  C25 UNL     1      24.544 -21.098 -18.853  1.00  0.00     0.030 C 
HETATM   24  C17 UNL     1      24.832 -23.894 -17.998  1.00  0.00     0.006 C 
HETATM   25  C18 UNL     1      25.419 -23.423 -19.294  1.00  0.00    -0.001 C 
HETATM   26  C19 UNL     1      24.740 -24.030 -20.467  1.00  0.00     0.037 C 
HETATM   27  C23 UNL     1      25.644 -21.932 -19.343  1.00  0.00    -0.008 C 
HETATM   28  C20 UNL     1      24.889 -23.439 -21.795  1.00  0.00     0.121 C 
HETATM   29  C21 UNL     1      25.490 -22.082 -21.877  1.00  0.00     0.064 C 
HETATM   30  C22 UNL     1      26.224 -21.621 -20.680  1.00  0.00     0.129 C 
HETATM   31  C24 UNL     1      26.841 -21.704 -18.376  1.00  0.00     0.019 C 
HETATM   32  C26 UNL     1      23.708 -20.310 -19.785  1.00  0.00     0.124 C 
HETATM   33  C27 UNL     1      22.965 -19.230 -18.963  1.00  0.00     0.042 C 
HETATM   34  C29 UNL     1      20.842 -20.508 -18.533  1.00  0.00     0.016 C 
BRANCH  28  35
HETATM   35  O2  UNL     1      25.541 -24.339 -22.681  1.00  0.00    -0.395 OA
ATOM     36  H2  UNL     1      26.422 -24.532 -22.382  1.00  0.00     0.210 HD
ENDBRANCH  28  35
BRANCH  30  37
HETATM   37  O3  UNL     1      26.622 -20.291 -20.832  1.00  0.00    -0.395 OA
ATOM     38  H3  UNL     1      27.522 -20.178 -20.549  1.00  0.00     0.210 HD
ENDBRANCH  30  37
BRANCH  32  39
HETATM   39  O4  UNL     1      22.620 -21.006 -20.341  1.00  0.00    -0.395 OA
ATOM     40  H4  UNL     1      22.339 -21.769 -19.851  1.00  0.00     0.210 HD
ENDBRANCH  32  39
ENDBRANCH   1  16
TORSDOF 12
ENDMDL
MODEL 4
REMARK VINA RESULT: -5.920346595      1.968      2.923
REMARK  12 active torsions:
REMARK  status: ('A' for Active; 'I' for Inactive)
REMARK    1  A    between atoms: C2_2  and  N1_3 
REMARK    2  A    between atoms: N1_3  and  C3_4 
REMARK    3  A    between atoms: N1_3  and  C5_6 
REMARK    4  A    between atoms: C5_6  and  C6_7 
REMARK    5  A    between atoms: C6_7  and  C7_8 
REMARK    6  A    between atoms: C7_8  and  O1_9 
REMARK    7  A    between atoms: O1_9  and  N2_10 
REMARK    8  A    between atoms: C8_12  and  C9_13 
REMARK    9  A    between atoms: C9_13  and  C11_16 
REMARK   10  A    between atoms: C20_25  and  O2_26 
REMARK   11  A    between atoms: C22_29  and  O3_30 
REMARK   12  A    between atoms: C26_35  and  O4_36 
ROOT
HETATM    1  C9  UNL     1      21.489 -18.986 -19.505  1.00  0.00     0.138 C 
HETATM    2  C10 UNL     1      22.027 -18.432 -20.746  1.00  0.00     0.069 C 
HETATM    3  N3  UNL     1      22.435 -17.978 -21.732  1.00  0.00    -0.197 NA
ENDROOT
BRANCH   1   4
HETATM    4  C8  UNL     1      20.933 -17.857 -18.667  1.00  0.00     0.106 C 
HETATM    5  N2  UNL     1      20.777 -16.683 -19.106  1.00  0.00    -0.281 N 
ATOM      6  H2  UNL     1      21.029 -16.453 -20.067  1.00  0.00     0.193 HD
BRANCH   5   7
HETATM    7  O1  UNL     1      20.265 -15.719 -18.275  1.00  0.00    -0.281 OA
BRANCH   7   8
HETATM    8  C7  UNL     1      21.117 -14.688 -17.848  1.00  0.00     0.203 C 
BRANCH   8   9
HETATM    9  C6  UNL     1      21.223 -14.636 -16.334  1.00  0.00     0.059 C 
BRANCH   9  10
HETATM   10  C5  UNL     1      20.276 -15.583 -15.667  1.00  0.00     0.274 C 
BRANCH  10  11
HETATM   11  N1  UNL     1      20.502 -15.605 -14.261  1.00  0.00     0.087 N 
BRANCH  11  12
HETATM   12  C2  UNL     1      21.570 -14.708 -13.850  1.00  0.00     0.268 C 
HETATM   13  C1  UNL     1      22.263 -15.330 -12.659  1.00  0.00     0.037 C 
ENDBRANCH  11  12
BRANCH  11  14
HETATM   14  C3  UNL     1      20.580 -16.882 -13.642  1.00  0.00     0.268 C 
HETATM   15  C4  UNL     1      20.402 -18.037 -14.591  1.00  0.00     0.037 C 
ENDBRANCH  11  14
ENDBRANCH  10  11
ENDBRANCH   9  10
ENDBRANCH   8   9
ENDBRANCH   7   8
ENDBRANCH   5   7
ENDBRANCH   1   4
BRANCH   1  16
HETATM   16  C11 UNL     1      22.546 -19.639 -18.714  1.00  0.00     0.017 C 
HETATM   17  C12 UNL     1      21.935 -19.961 -17.338  1.00  0.00     0.007 C 
HETATM   18  C13 UNL     1      22.395 -21.393 -17.015  1.00  0.00     0.006 C 
HETATM   19  C14 UNL     1      23.624 -21.446 -17.821  1.00  0.00    -0.001 C 
HETATM   20  C15 UNL     1      24.404 -22.677 -17.887  1.00  0.00    -0.002 C 
HETATM   21  C28 UNL     1      23.082 -20.941 -19.168  1.00  0.00    -0.033 C 
HETATM   22  C16 UNL     1      24.880 -23.066 -16.535  1.00  0.00     0.006 C 
HETATM   23  C25 UNL     1      25.640 -22.368 -18.753  1.00  0.00     0.030 C 
HETATM   24  C17 UNL     1      25.554 -24.391 -16.624  1.00  0.00     0.006 C 
HETATM   25  C18 UNL     1      26.440 -24.572 -17.820  1.00  0.00    -0.001 C 
HETATM   26  C19 UNL     1      25.995 -25.701 -18.677  1.00  0.00     0.037 C 
HETATM   27  C23 UNL     1      26.765 -23.279 -18.526  1.00  0.00    -0.008 C 
HETATM   28  C20 UNL     1      26.468 -25.814 -20.055  1.00  0.00     0.121 C 
HETATM   29  C21 UNL     1      27.158 -24.636 -20.641  1.00  0.00     0.064 C 
HETATM   30  C22 UNL     1      27.641 -23.620 -19.683  1.00  0.00     0.129 C 
HETATM   31  C24 UNL     1      27.733 -22.555 -17.548  1.00  0.00     0.019 C 
HETATM   32  C26 UNL     1      25.079 -22.169 -20.108  1.00  0.00     0.124 C 
HETATM   33  C27 UNL     1      24.245 -20.866 -20.092  1.00  0.00     0.042 C 
HETATM   34  C29 UNL     1      22.003 -21.885 -19.586  1.00  0.00     0.016 C 
BRANCH  28  35
HETATM   35  O2  UNL     1      27.239 -26.996 -20.232  1.00  0.00    -0.395 OA
ATOM     36  H2  UNL     1      28.097 -26.904 -19.834  1.00  0.00     0.210 HD
ENDBRANCH  28  35
BRANCH  30  37
HETATM   37  O3  UNL     1      28.146 -22.509 -20.360  1.00  0.00    -0.395 OA
ATOM     38  H3  UNL     1      27.516 -21.798 -20.351  1.00  0.00     0.210 HD
ENDBRANCH  30  37
BRANCH  32  39
HETATM   39  O4  UNL     1      24.097 -23.100 -20.488  1.00  0.00    -0.395 OA
ATOM     40  H4  UNL     1      23.210 -22.762 -20.509  1.00  0.00     0.210 HD
ENDBRANCH  32  39
ENDBRANCH   1  16
TORSDOF 12
ENDMDL
MODEL 5
REMARK VINA RESULT: -5.853987961      1.412      1.688
REMARK  12 active torsions:
REMARK  status: ('A' for Active; 'I' for Inactive)
REMARK    1  A    between atoms: C2_2  and  N1_3 
REMARK    2  A    between atoms: N1_3  and  C3_4 
REMARK    3  A    between atoms: N1_3  and  C5_6 
REMARK    4  A    between atoms: C5_6  and  C6_7 
REMARK    5  A    between atoms: C6_7  and  C7_8 
REMARK    6  A    between atoms: C7_8  and  O1_9 
REMARK    7  A    between atoms: O1_9  and  N2_10 
REMARK    8  A    between atoms: C8_12  and  C9_13 
REMARK    9  A    between atoms: C9_13  and  C11_16 
REMARK   10  A    between atoms: C20_25  and  O2_26 
REMARK   11  A    between atoms: C22_29  and  O3_30 
REMARK   12  A    between atoms: C26_35  and  O4_36 
ROOT
HETATM    1  C9  UNL     1      21.034 -19.026 -17.374  1.00  0.00     0.138 C 
HETATM    2  C10 UNL     1      21.468 -18.262 -18.543  1.00  0.00     0.069 C 
HETATM    3  N3  UNL     1      21.795 -17.640 -19.465  1.00  0.00    -0.197 NA
ENDROOT
BRANCH   1   4
HETATM    4  C8  UNL     1      20.701 -18.062 -16.257  1.00  0.00     0.106 C 
HETATM    5  N2  UNL     1      20.901 -16.817 -16.336  1.00  0.00    -0.281 N 
ATOM      6  H2  UNL     1      21.305 -16.412 -17.180  1.00  0.00     0.193 HD
BRANCH   5   7
HETATM    7  O1  UNL     1      20.569 -16.017 -15.274  1.00  0.00    -0.281 OA
BRANCH   7   8
HETATM    8  C7  UNL     1      21.314 -14.845 -15.065  1.00  0.00     0.203 C 
BRANCH   8   9
HETATM    9  C6  UNL     1      21.371 -14.467 -13.595  1.00  0.00     0.059 C 
BRANCH   9  10
HETATM   10  C5  UNL     1      22.170 -15.443 -12.791  1.00  0.00     0.274 C 
BRANCH  10  11
HETATM   11  N1  UNL     1      21.371 -16.007 -11.756  1.00  0.00     0.087 N 
BRANCH  11  12
HETATM   12  C2  UNL     1      21.455 -15.260 -10.511  1.00  0.00     0.268 C 
HETATM   13  C1  UNL     1      21.357 -16.248  -9.371  1.00  0.00     0.037 C 
ENDBRANCH  11  12
BRANCH  11  14
HETATM   14  C3  UNL     1      21.462 -17.413 -11.567  1.00  0.00     0.268 C 
HETATM   15  C4  UNL     1      20.704 -18.221 -12.585  1.00  0.00     0.037 C 
ENDBRANCH  11  14
ENDBRANCH  10  11
ENDBRANCH   9  10
ENDBRANCH   8   9
ENDBRANCH   7   8
ENDBRANCH   5   7
ENDBRANCH   1   4
BRANCH   1  16
HETATM   16  C11 UNL     1      22.110 -19.906 -16.887  1.00  0.00     0.017 C 
HETATM   17  C12 UNL     1      21.522 -20.719 -15.719  1.00  0.00     0.007 C 
HETATM   18  C13 UNL     1      22.003 -22.163 -15.948  1.00  0.00     0.006 C 
HETATM   19  C14 UNL     1      23.220 -21.898 -16.729  1.00  0.00    -0.001 C 
HETATM   20  C15 UNL     1      24.013 -23.007 -17.248  1.00  0.00    -0.002 C 
HETATM   21  C28 UNL     1      22.653 -20.943 -17.792  1.00  0.00    -0.033 C 
HETATM   22  C16 UNL     1      24.513 -23.856 -16.138  1.00  0.00     0.006 C 
HETATM   23  C25 UNL     1      25.232 -22.383 -17.953  1.00  0.00     0.030 C 
HETATM   24  C17 UNL     1      25.200 -25.046 -16.712  1.00  0.00     0.006 C 
HETATM   25  C18 UNL     1      26.070 -24.763 -17.900  1.00  0.00    -0.001 C 
HETATM   26  C19 UNL     1      25.626 -25.506 -19.106  1.00  0.00     0.037 C 
HETATM   27  C23 UNL     1      26.370 -23.296 -18.086  1.00  0.00    -0.008 C 
HETATM   28  C20 UNL     1      26.079 -25.100 -20.435  1.00  0.00     0.121 C 
HETATM   29  C21 UNL     1      26.748 -23.778 -20.555  1.00  0.00     0.064 C 
HETATM   30  C22 UNL     1      27.233 -23.176 -19.296  1.00  0.00     0.129 C 
HETATM   31  C24 UNL     1      27.345 -22.965 -16.921  1.00  0.00     0.019 C 
HETATM   32  C26 UNL     1      24.650 -21.710 -19.136  1.00  0.00     0.124 C 
HETATM   33  C27 UNL     1      23.802 -20.517 -18.635  1.00  0.00     0.042 C 
HETATM   34  C29 UNL     1      21.579 -21.685 -18.516  1.00  0.00     0.016 C 
BRANCH  28  35
HETATM   35  O2  UNL     1      26.861 -26.122 -21.039  1.00  0.00    -0.395 OA
ATOM     36  H2  UNL     1      26.311 -26.734 -21.515  1.00  0.00     0.210 HD
ENDBRANCH  28  35
BRANCH  30  37
HETATM   37  O3  UNL     1      27.716 -21.886 -19.524  1.00  0.00    -0.395 OA
ATOM     38  H3  UNL     1      27.318 -21.270 -18.921  1.00  0.00     0.210 HD
ENDBRANCH  30  37
BRANCH  32  39
HETATM   39  O4  UNL     1      23.672 -22.453 -19.821  1.00  0.00    -0.395 OA
ATOM     40  H4  UNL     1      23.056 -22.914 -19.265  1.00  0.00     0.210 HD
ENDBRANCH  32  39
ENDBRANCH   1  16
TORSDOF 12
ENDMDL
