MODEL 1
REMARK VINA RESULT: -6.678272163      0.000      0.000
REMARK  8 active torsions:
REMARK  status: ('A' for Active; 'I' for Inactive)
REMARK    1  A    between atoms: N2_5  and  C4_6 
REMARK    2  A    between atoms: C4_6  and  C5_7 
REMARK    3  A    between atoms: C5_7  and  N3_8 
REMARK    4  A    between atoms: N3_8  and  C6_11 
REMARK    5  A    between atoms: C6_11  and  C7_12 
REMARK    6  A    between atoms: C7_12  and  C8_13 
REMARK    7  A    between atoms: C8_13  and  N4_14 
REMARK       I    between atoms: N4_14  and  C9_16 
REMARK       I    between atoms: C9_16  and  N5_18 
REMARK    8  A    between atoms: N5_18  and  C10_20 
ROOT
HETATM    1  N3  UNL     1      -2.237  25.378  57.464  1.00  0.00    -0.073 N 
ATOM      2  H31 UNL     1      -2.983  24.900  57.969  1.00  0.00     0.277 HD
ATOM      3  H32 UNL     1      -1.588  25.532  58.236  1.00  0.00     0.277 HD
ENDROOT
BRANCH   1   4
HETATM    4  C5  UNL     1      -2.692  26.611  56.929  1.00  0.00     0.262 C 
BRANCH   4   5
HETATM    5  C4  UNL     1      -3.729  27.242  57.808  1.00  0.00     0.303 C 
BRANCH   5   6
HETATM    6  N2  UNL     1      -4.280  28.396  57.112  1.00  0.00     0.127 N 
HETATM    7  C3  UNL     1      -5.188  29.114  57.967  1.00  0.00     0.306 C 
HETATM    8  C2  UNL     1      -6.510  28.431  57.987  1.00  0.00     0.302 C 
HETATM    9  N1  UNL     1      -7.155  28.404  56.688  1.00  0.00     0.090 N 
HETATM   10  C1  UNL     1      -7.814  27.133  56.455  1.00  0.00     0.310 C 
HETATM   11  C15 UNL     1      -6.221  28.727  55.628  1.00  0.00     0.341 C 
HETATM   12  C14 UNL     1      -4.886  28.043  55.843  1.00  0.00     0.432 C 
HETATM   13  F1  UNL     1      -3.988  28.374  54.852  1.00  0.00    -0.214 F 
ENDBRANCH   5   6
ENDBRANCH   4   5
ENDBRANCH   1   4
BRANCH   1  14
HETATM   14  C6  UNL     1      -1.664  24.529  56.475  1.00  0.00     0.234 C 
BRANCH  14  15
HETATM   15  C7  UNL     1      -0.870  25.305  55.457  1.00  0.00     0.047 C 
BRANCH  15  16
HETATM   16  C8  UNL     1      -1.256  24.920  54.053  1.00  0.00     0.126 C 
BRANCH  16  17
HETATM   17  N4  UNL     1      -2.397  25.675  53.634  1.00  0.00    -0.343 N 
HETATM   18  C9  UNL     1      -3.675  25.095  53.428  1.00  0.00     0.316 C 
HETATM   19  O1  UNL     1      -3.885  23.861  53.604  1.00  0.00    -0.247 OA
HETATM   20  N5  UNL     1      -4.781  25.869  53.016  1.00  0.00    -0.335 N 
ATOM     21  H5  UNL     1      -4.636  26.868  52.866  1.00  0.00     0.165 HD
ATOM     22  H4  UNL     1      -2.286  26.677  53.476  1.00  0.00     0.164 HD
BRANCH  20  23
HETATM   23  C10 UNL     1      -6.093  25.340  52.794  1.00  0.00     0.023 C 
HETATM   24  C11 UNL     1      -6.713  24.767  54.049  1.00  0.00     0.037 C 
HETATM   25  C12 UNL     1      -6.041  24.289  51.706  1.00  0.00     0.037 C 
HETATM   26  C13 UNL     1      -6.973  26.505  52.355  1.00  0.00     0.037 C 
ENDBRANCH  20  23
ENDBRANCH  16  17
ENDBRANCH  15  16
ENDBRANCH  14  15
ENDBRANCH   1  14
TORSDOF 8
ENDMDL
MODEL 2
REMARK VINA RESULT: -6.436821205      2.078      5.031
REMARK  8 active torsions:
REMARK  status: ('A' for Active; 'I' for Inactive)
REMARK    1  A    between atoms: N2_5  and  C4_6 
REMARK    2  A    between atoms: C4_6  and  C5_7 
REMARK    3  A    between atoms: C5_7  and  N3_8 
REMARK    4  A    between atoms: N3_8  and  C6_11 
REMARK    5  A    between atoms: C6_11  and  C7_12 
REMARK    6  A    between atoms: C7_12  and  C8_13 
REMARK    7  A    between atoms: C8_13  and  N4_14 
REMARK       I    between atoms: N4_14  and  C9_16 
REMARK       I    between atoms: C9_16  and  N5_18 
REMARK    8  A    between atoms: N5_18  and  C10_20 
ROOT
HETATM    1  N3  UNL     1      -3.574  27.298  57.718  1.00  0.00    -0.073 N 
ATOM      2  H31 UNL     1      -2.720  27.407  58.265  1.00  0.00     0.277 HD
ATOM      3  H32 UNL     1      -4.009  26.539  58.242  1.00  0.00     0.277 HD
ENDROOT
BRANCH   1   4
HETATM    4  C5  UNL     1      -3.280  26.896  56.389  1.00  0.00     0.262 C 
BRANCH   4   5
HETATM    5  C4  UNL     1      -2.057  26.032  56.335  1.00  0.00     0.303 C 
BRANCH   5   6
HETATM    6  N2  UNL     1      -2.277  24.987  55.345  1.00  0.00     0.127 N 
HETATM    7  C3  UNL     1      -1.061  24.710  54.626  1.00  0.00     0.306 C 
HETATM    8  C2  UNL     1      -0.852  25.736  53.571  1.00  0.00     0.302 C 
HETATM    9  N1  UNL     1      -1.894  25.736  52.563  1.00  0.00     0.090 N 
HETATM   10  C1  UNL     1      -2.242  27.087  52.165  1.00  0.00     0.310 C 
HETATM   11  C15 UNL     1      -3.055  24.990  53.005  1.00  0.00     0.341 C 
HETATM   12  C14 UNL     1      -3.381  25.288  54.455  1.00  0.00     0.432 C 
HETATM   13  F1  UNL     1      -4.466  24.556  54.885  1.00  0.00    -0.214 F 
ENDBRANCH   5   6
ENDBRANCH   4   5
ENDBRANCH   1   4
BRANCH   1  14
HETATM   14  C6  UNL     1      -4.370  28.478  57.771  1.00  0.00     0.234 C 
BRANCH  14  15
HETATM   15  C7  UNL     1      -5.446  28.386  58.821  1.00  0.00     0.047 C 
BRANCH  15  16
HETATM   16  C8  UNL     1      -6.810  28.258  58.195  1.00  0.00     0.126 C 
BRANCH  16  17
HETATM   17  N4  UNL     1      -6.844  27.124  57.323  1.00  0.00    -0.343 N 
HETATM   18  C9  UNL     1      -7.152  27.221  55.941  1.00  0.00     0.316 C 
HETATM   19  O1  UNL     1      -7.418  28.328  55.392  1.00  0.00    -0.247 OA
HETATM   20  N5  UNL     1      -7.176  26.084  55.106  1.00  0.00    -0.335 N 
ATOM     21  H5  UNL     1      -6.966  25.178  55.527  1.00  0.00     0.165 HD
ATOM     22  H4  UNL     1      -6.638  26.204  57.712  1.00  0.00     0.164 HD
BRANCH  20  23
HETATM   23  C10 UNL     1      -7.477  26.120  53.707  1.00  0.00     0.023 C 
HETATM   24  C11 UNL     1      -6.375  26.753  52.888  1.00  0.00     0.037 C 
HETATM   25  C12 UNL     1      -8.783  26.852  53.486  1.00  0.00     0.037 C 
HETATM   26  C13 UNL     1      -7.602  24.674  53.242  1.00  0.00     0.037 C 
ENDBRANCH  20  23
ENDBRANCH  16  17
ENDBRANCH  15  16
ENDBRANCH  14  15
ENDBRANCH   1  14
TORSDOF 8
ENDMDL
MODEL 3
REMARK VINA RESULT: -6.364145942      1.670      4.651
REMARK  8 active torsions:
REMARK  status: ('A' for Active; 'I' for Inactive)
REMARK    1  A    between atoms: N2_5  and  C4_6 
REMARK    2  A    between atoms: C4_6  and  C5_7 
REMARK    3  A    between atoms: C5_7  and  N3_8 
REMARK    4  A    between atoms: N3_8  and  C6_11 
REMARK    5  A    between atoms: C6_11  and  C7_12 
REMARK    6  A    between atoms: C7_12  and  C8_13 
REMARK    7  A    between atoms: C8_13  and  N4_14 
REMARK       I    between atoms: N4_14  and  C9_16 
REMARK       I    between atoms: C9_16  and  N5_18 
REMARK    8  A    between atoms: N5_18  and  C10_20 
ROOT
HETATM    1  N3  UNL     1      -1.975  26.151  53.905  1.00  0.00    -0.073 N 
ATOM      2  H31 UNL     1      -2.702  26.494  54.533  1.00  0.00     0.277 HD
ATOM      3  H32 UNL     1      -1.416  27.000  53.820  1.00  0.00     0.277 HD
ENDROOT
BRANCH   1   4
HETATM    4  C5  UNL     1      -2.522  25.774  52.651  1.00  0.00     0.262 C 
BRANCH   4   5
HETATM    5  C4  UNL     1      -3.843  25.085  52.813  1.00  0.00     0.303 C 
BRANCH   5   6
HETATM    6  N2  UNL     1      -4.723  25.956  53.580  1.00  0.00     0.127 N 
HETATM    7  C3  UNL     1      -5.355  25.222  54.645  1.00  0.00     0.306 C 
HETATM    8  C2  UNL     1      -6.506  24.446  54.110  1.00  0.00     0.302 C 
HETATM    9  N1  UNL     1      -7.551  25.287  53.558  1.00  0.00     0.090 N 
HETATM   10  C1  UNL     1      -8.107  24.710  52.349  1.00  0.00     0.310 C 
HETATM   11  C15 UNL     1      -7.080  26.639  53.340  1.00  0.00     0.341 C 
HETATM   12  C14 UNL     1      -5.686  26.648  52.746  1.00  0.00     0.432 C 
HETATM   13  F1  UNL     1      -5.225  27.934  52.567  1.00  0.00    -0.214 F 
ENDBRANCH   5   6
ENDBRANCH   4   5
ENDBRANCH   1   4
BRANCH   1  14
HETATM   14  C6  UNL     1      -1.226  25.103  54.514  1.00  0.00     0.234 C 
BRANCH  14  15
HETATM   15  C7  UNL     1      -1.724  24.786  55.900  1.00  0.00     0.047 C 
BRANCH  15  16
HETATM   16  C8  UNL     1      -1.418  25.906  56.860  1.00  0.00     0.126 C 
BRANCH  16  17
HETATM   17  N4  UNL     1      -2.564  26.183  57.670  1.00  0.00    -0.343 N 
HETATM   18  C9  UNL     1      -3.564  27.120  57.300  1.00  0.00     0.316 C 
HETATM   19  O1  UNL     1      -3.501  27.774  56.221  1.00  0.00    -0.247 OA
HETATM   20  N5  UNL     1      -4.684  27.370  58.122  1.00  0.00    -0.335 N 
ATOM     21  H5  UNL     1      -4.757  26.855  59.000  1.00  0.00     0.165 HD
ATOM     22  H4  UNL     1      -2.667  25.685  58.554  1.00  0.00     0.164 HD
BRANCH  20  23
HETATM   23  C10 UNL     1      -5.724  28.300  57.801  1.00  0.00     0.023 C 
HETATM   24  C11 UNL     1      -5.856  28.541  56.314  1.00  0.00     0.037 C 
HETATM   25  C12 UNL     1      -5.479  29.606  58.525  1.00  0.00     0.037 C 
HETATM   26  C13 UNL     1      -7.035  27.680  58.269  1.00  0.00     0.037 C 
ENDBRANCH  20  23
ENDBRANCH  16  17
ENDBRANCH  15  16
ENDBRANCH  14  15
ENDBRANCH   1  14
TORSDOF 8
ENDMDL
MODEL 4
REMARK VINA RESULT: -6.340329219      1.849      4.577
REMARK  8 active torsions:
REMARK  status: ('A' for Active; 'I' for Inactive)
REMARK    1  A    between atoms: N2_5  and  C4_6 
REMARK    2  A    between atoms: C4_6  and  C5_7 
REMARK    3  A    between atoms: C5_7  and  N3_8 
REMARK    4  A    between atoms: N3_8  and  C6_11 
REMARK    5  A    between atoms: C6_11  and  C7_12 
REMARK    6  A    between atoms: C7_12  and  C8_13 
REMARK    7  A    between atoms: C8_13  and  N4_14 
REMARK       I    between atoms: N4_14  and  C9_16 
REMARK       I    between atoms: C9_16  and  N5_18 
REMARK    8  A    between atoms: N5_18  and  C10_20 
ROOT
HETATM    1  N3  UNL     1      -8.081  26.880  54.126  1.00  0.00    -0.073 N 
ATOM      2  H31 UNL     1      -7.522  27.554  53.603  1.00  0.00     0.277 HD
ATOM      3  H32 UNL     1      -8.822  26.718  53.445  1.00  0.00     0.277 HD
ENDROOT
BRANCH   1   4
HETATM    4  C5  UNL     1      -8.597  27.461  55.313  1.00  0.00     0.262 C 
BRANCH   4   5
HETATM    5  C4  UNL     1      -7.726  27.160  56.495  1.00  0.00     0.303 C 
BRANCH   5   6
HETATM    6  N2  UNL     1      -7.222  28.420  57.025  1.00  0.00     0.127 N 
HETATM    7  C3  UNL     1      -6.354  29.056  56.069  1.00  0.00     0.306 C 
HETATM    8  C2  UNL     1      -5.003  28.436  56.122  1.00  0.00     0.302 C 
HETATM    9  N1  UNL     1      -4.347  28.610  57.403  1.00  0.00     0.090 N 
HETATM   10  C1  UNL     1      -3.629  27.411  57.794  1.00  0.00     0.310 C 
HETATM   11  C15 UNL     1      -5.286  29.030  58.423  1.00  0.00     0.341 C 
HETATM   12  C14 UNL     1      -6.590  28.266  58.320  1.00  0.00     0.432 C 
HETATM   13  F1  UNL     1      -7.494  28.687  59.271  1.00  0.00    -0.214 F 
ENDBRANCH   5   6
ENDBRANCH   4   5
ENDBRANCH   1   4
BRANCH   1  14
HETATM   14  C6  UNL     1      -7.343  25.687  54.375  1.00  0.00     0.234 C 
BRANCH  14  15
HETATM   15  C7  UNL     1      -7.536  24.668  53.282  1.00  0.00     0.047 C 
BRANCH  15  16
HETATM   16  C8  UNL     1      -6.532  24.856  52.176  1.00  0.00     0.126 C 
BRANCH  16  17
HETATM   17  N4  UNL     1      -5.264  24.321  52.568  1.00  0.00    -0.343 N 
HETATM   18  C9  UNL     1      -4.156  25.135  52.918  1.00  0.00     0.316 C 
HETATM   19  O1  UNL     1      -4.223  26.397  52.904  1.00  0.00    -0.247 OA
HETATM   20  N5  UNL     1      -2.919  24.576  53.302  1.00  0.00    -0.335 N 
ATOM     21  H5  UNL     1      -2.839  23.559  53.320  1.00  0.00     0.165 HD
ATOM     22  H4  UNL     1      -5.152  23.307  52.597  1.00  0.00     0.164 HD
BRANCH  20  23
HETATM   23  C10 UNL     1      -1.768  25.345  53.667  1.00  0.00     0.023 C 
HETATM   24  C11 UNL     1      -0.504  24.516  53.724  1.00  0.00     0.037 C 
HETATM   25  C12 UNL     1      -2.011  26.024  54.997  1.00  0.00     0.037 C 
HETATM   26  C13 UNL     1      -1.566  26.389  52.575  1.00  0.00     0.037 C 
ENDBRANCH  20  23
ENDBRANCH  16  17
ENDBRANCH  15  16
ENDBRANCH  14  15
ENDBRANCH   1  14
TORSDOF 8
ENDMDL
MODEL 5
REMARK VINA RESULT: -6.252479349      2.897      4.396
REMARK  8 active torsions:
REMARK  status: ('A' for Active; 'I' for Inactive)
REMARK    1  A    between atoms: N2_5  and  C4_6 
REMARK    2  A    between atoms: C4_6  and  C5_7 
REMARK    3  A    between atoms: C5_7  and  N3_8 
REMARK    4  A    between atoms: N3_8  and  C6_11 
REMARK    5  A    between atoms: C6_11  and  C7_12 
REMARK    6  A    between atoms: C7_12  and  C8_13 
REMARK    7  A    between atoms: C8_13  and  N4_14 
REMARK       I    between atoms: N4_14  and  C9_16 
REMARK       I    between atoms: C9_16  and  N5_18 
REMARK    8  A    between atoms: N5_18  and  C10_20 
ROOT
HETATM    1  N3  UNL     1      -2.308  25.585  57.659  1.00  0.00    -0.073 N 
ATOM      2  H31 UNL     1      -3.037  24.945  57.973  1.00  0.00     0.277 HD
ATOM      3  H32 UNL     1      -1.905  25.832  58.562  1.00  0.00     0.277 HD
ENDROOT
BRANCH   1   4
HETATM    4  C5  UNL     1      -2.868  26.723  57.022  1.00  0.00     0.262 C 
BRANCH   4   5
HETATM    5  C4  UNL     1      -3.906  27.378  57.883  1.00  0.00     0.303 C 
BRANCH   5   6
HETATM    6  N2  UNL     1      -4.466  28.504  57.148  1.00  0.00     0.127 N 
HETATM    7  C3  UNL     1      -5.489  29.153  57.926  1.00  0.00     0.306 C 
HETATM    8  C2  UNL     1      -6.761  28.389  57.825  1.00  0.00     0.302 C 
HETATM    9  N1  UNL     1      -7.288  28.338  56.475  1.00  0.00     0.090 N 
HETATM   10  C1  UNL     1      -7.843  27.032  56.176  1.00  0.00     0.310 C 
HETATM   11  C15 UNL     1      -6.288  28.732  55.503  1.00  0.00     0.341 C 
HETATM   12  C14 UNL     1      -4.936  28.130  55.829  1.00  0.00     0.432 C 
HETATM   13  F1  UNL     1      -3.978  28.529  54.923  1.00  0.00    -0.214 F 
ENDBRANCH   5   6
ENDBRANCH   4   5
ENDBRANCH   1   4
BRANCH   1  14
HETATM   14  C6  UNL     1      -1.355  24.913  56.840  1.00  0.00     0.234 C 
BRANCH  14  15
HETATM   15  C7  UNL     1      -1.472  25.314  55.393  1.00  0.00     0.047 C 
BRANCH  15  16
HETATM   16  C8  UNL     1      -0.371  24.705  54.566  1.00  0.00     0.126 C 
BRANCH  16  17
HETATM   17  N4  UNL     1      -0.326  25.324  53.277  1.00  0.00    -0.343 N 
HETATM   18  C9  UNL     1       0.717  25.091  52.344  1.00  0.00     0.316 C 
HETATM   19  O1  UNL     1       1.682  24.315  52.599  1.00  0.00    -0.247 OA
HETATM   20  N5  UNL     1       0.732  25.716  51.079  1.00  0.00    -0.335 N 
ATOM     21  H5  UNL     1      -0.036  26.348  50.850  1.00  0.00     0.165 HD
ATOM     22  H4  UNL     1      -1.078  25.961  53.017  1.00  0.00     0.164 HD
BRANCH  20  23
HETATM   23  C10 UNL     1       1.755  25.519  50.097  1.00  0.00     0.023 C 
HETATM   24  C11 UNL     1       2.034  24.057  49.828  1.00  0.00     0.037 C 
HETATM   25  C12 UNL     1       3.021  26.225  50.532  1.00  0.00     0.037 C 
HETATM   26  C13 UNL     1       1.242  26.121  48.794  1.00  0.00     0.037 C 
ENDBRANCH  20  23
ENDBRANCH  16  17
ENDBRANCH  15  16
ENDBRANCH  14  15
ENDBRANCH   1  14
TORSDOF 8
ENDMDL
