MODEL 1
REMARK VINA RESULT: -5.078601779      0.000      0.000
REMARK  5 active torsions:
REMARK  status: ('A' for Active; 'I' for Inactive)
REMARK    1  A    between atoms: N2_7  and  O2_8 
REMARK    2  A    between atoms: C6_14  and  O4_15 
REMARK    3  A    between atoms: C6_14  and  N4_17 
REMARK    4  A    between atoms: N4_17  and  C7_19 
REMARK    5  A    between atoms: C12_24  and  N5_25 
ROOT
HETATM    1  C1  UNL     1       1.869 -14.568  -9.493  1.00  0.00     0.165 C 
HETATM    2  N1  UNL     1       0.972 -13.448  -9.664  1.00  0.00    -0.266 N 
HETATM    3  C2  UNL     1       0.668 -12.883 -10.843  1.00  0.00     0.289 A 
HETATM    4  O1  UNL     1       1.187 -13.350 -11.880  1.00  0.00    -0.265 OA
HETATM    5  C3  UNL     1      -0.201 -11.799 -10.957  1.00  0.00     0.190 A 
HETATM    6  C4  UNL     1      -0.772 -11.285  -9.834  1.00  0.00     0.178 A 
HETATM    7  N2  UNL     1      -0.456 -11.864  -8.642  1.00  0.00    -0.152 N 
HETATM    8  C5  UNL     1       0.390 -12.912  -8.568  1.00  0.00     0.357 A 
HETATM    9  O3  UNL     1       0.635 -13.393  -7.427  1.00  0.00    -0.244 OA
HETATM   10  N3  UNL     1      -1.676 -10.190  -9.902  1.00  0.00    -0.317 N 
ATOM     11  H3  UNL     1      -2.093  -9.851  -9.036  1.00  0.00     0.166 HD
HETATM   12  C6  UNL     1      -2.030  -9.538 -11.130  1.00  0.00     0.266 A 
HETATM   13  C11 UNL     1      -1.343 -10.172 -12.310  1.00  0.00     0.152 A 
HETATM   14  C12 UNL     1      -1.582  -9.666 -13.497  1.00  0.00     0.207 C 
HETATM   15  O7  UNL     1      -0.484 -11.250 -12.176  1.00  0.00    -0.297 OA
ENDROOT
BRANCH  12  16
HETATM   16  O4  UNL     1      -1.399  -8.264 -11.086  1.00  0.00    -0.349 OA
ATOM     17  H4  UNL     1      -0.487  -8.421 -11.301  1.00  0.00     0.215 HD
ENDBRANCH  12  16
BRANCH  12  18
HETATM   18  N4  UNL     1      -3.389  -9.457 -11.441  1.00  0.00    -0.361 N 
ATOM     19  H4  UNL     1      -3.683  -9.554 -12.413  1.00  0.00     0.159 HD
BRANCH  18  20
HETATM   20  C7  UNL     1      -4.353  -9.249 -10.456  1.00  0.00     0.019 C 
HETATM   21  C8  UNL     1      -5.523  -8.506 -11.143  1.00  0.00     0.037 C 
HETATM   22  C9  UNL     1      -4.007  -8.379  -9.290  1.00  0.00     0.037 C 
HETATM   23  C10 UNL     1      -5.019 -10.525  -9.926  1.00  0.00     0.037 C 
ENDBRANCH  18  20
ENDBRANCH  12  18
BRANCH  14  24
HETATM   24  N5  UNL     1      -0.979 -10.199 -14.660  1.00  0.00    -0.125 N 
HETATM   25  O5  UNL     1      -1.489 -11.136 -15.267  1.00  0.00    -0.532 OA
HETATM   26  O6  UNL     1       0.208  -9.688 -15.171  1.00  0.00    -0.532 OA
ENDBRANCH  14  24
BRANCH   7  27
HETATM   27  O2  UNL     1      -1.003 -11.381  -7.485  1.00  0.00    -0.277 OA
ATOM     28  H2  UNL     1      -0.510 -10.772  -6.949  1.00  0.00     0.245 HD
ENDBRANCH   7  27
TORSDOF 5
ENDMDL
MODEL 2
REMARK VINA RESULT: -5.056024527      2.670      4.836
REMARK  5 active torsions:
REMARK  status: ('A' for Active; 'I' for Inactive)
REMARK    1  A    between atoms: N2_7  and  O2_8 
REMARK    2  A    between atoms: C6_14  and  O4_15 
REMARK    3  A    between atoms: C6_14  and  N4_17 
REMARK    4  A    between atoms: N4_17  and  C7_19 
REMARK    5  A    between atoms: C12_24  and  N5_25 
ROOT
HETATM    1  C1  UNL     1       1.542 -12.318  -9.362  1.00  0.00     0.165 C 
HETATM    2  N1  UNL     1       0.221 -11.772  -9.575  1.00  0.00    -0.266 N 
HETATM    3  C2  UNL     1      -0.907 -12.265  -9.040  1.00  0.00     0.289 A 
HETATM    4  O1  UNL     1      -0.827 -13.268  -8.298  1.00  0.00    -0.265 OA
HETATM    5  C3  UNL     1      -2.162 -11.706  -9.279  1.00  0.00     0.190 A 
HETATM    6  C4  UNL     1      -2.258 -10.614 -10.084  1.00  0.00     0.178 A 
HETATM    7  N2  UNL     1      -1.108 -10.121 -10.624  1.00  0.00    -0.152 N 
HETATM    8  C5  UNL     1       0.090 -10.688 -10.372  1.00  0.00     0.357 A 
HETATM    9  O3  UNL     1       1.110 -10.175 -10.910  1.00  0.00    -0.244 OA
HETATM   10  N3  UNL     1      -3.514  -9.999 -10.344  1.00  0.00    -0.317 N 
ATOM     11  H3  UNL     1      -3.534  -9.171 -10.939  1.00  0.00     0.166 HD
HETATM   12  C6  UNL     1      -4.753 -10.487  -9.811  1.00  0.00     0.266 A 
HETATM   13  C11 UNL     1      -4.542 -11.698  -8.943  1.00  0.00     0.152 A 
HETATM   14  C12 UNL     1      -5.601 -12.244  -8.394  1.00  0.00     0.207 C 
HETATM   15  O7  UNL     1      -3.288 -12.238  -8.717  1.00  0.00    -0.297 OA
ENDROOT
BRANCH  12  16
HETATM   16  O4  UNL     1      -5.453 -11.048 -10.915  1.00  0.00    -0.349 OA
ATOM     17  H4  UNL     1      -5.618 -11.954 -10.682  1.00  0.00     0.215 HD
ENDBRANCH  12  16
BRANCH  12  18
HETATM   18  N4  UNL     1      -5.531  -9.587  -9.079  1.00  0.00    -0.361 N 
ATOM     19  H4  UNL     1      -5.915  -9.879  -8.180  1.00  0.00     0.159 HD
BRANCH  18  20
HETATM   20  C7  UNL     1      -5.794  -8.301  -9.546  1.00  0.00     0.019 C 
HETATM   21  C8  UNL     1      -6.735  -7.645  -8.506  1.00  0.00     0.037 C 
HETATM   22  C9  UNL     1      -6.523  -8.145 -10.842  1.00  0.00     0.037 C 
HETATM   23  C10 UNL     1      -4.583  -7.359  -9.556  1.00  0.00     0.037 C 
ENDBRANCH  18  20
ENDBRANCH  12  18
BRANCH  14  24
HETATM   24  N5  UNL     1      -5.496 -13.385  -7.564  1.00  0.00    -0.125 N 
HETATM   25  O5  UNL     1      -5.624 -13.299  -6.346  1.00  0.00    -0.532 OA
HETATM   26  O6  UNL     1      -5.248 -14.649  -8.083  1.00  0.00    -0.532 OA
ENDBRANCH  14  24
BRANCH   7  27
HETATM   27  O2  UNL     1      -1.156  -9.026 -11.442  1.00  0.00    -0.277 OA
ATOM     28  H2  UNL     1      -0.804  -9.079 -12.322  1.00  0.00     0.245 HD
ENDBRANCH   7  27
TORSDOF 5
ENDMDL
MODEL 3
REMARK VINA RESULT: -4.701166012      2.457      5.377
REMARK  5 active torsions:
REMARK  status: ('A' for Active; 'I' for Inactive)
REMARK    1  A    between atoms: N2_7  and  O2_8 
REMARK    2  A    between atoms: C6_14  and  O4_15 
REMARK    3  A    between atoms: C6_14  and  N4_17 
REMARK    4  A    between atoms: N4_17  and  C7_19 
REMARK    5  A    between atoms: C12_24  and  N5_25 
ROOT
HETATM    1  C1  UNL     1      -5.080 -11.663  -8.511  1.00  0.00     0.165 C 
HETATM    2  N1  UNL     1      -3.827 -11.357  -9.162  1.00  0.00    -0.266 N 
HETATM    3  C2  UNL     1      -2.840 -12.241  -9.375  1.00  0.00     0.289 A 
HETATM    4  O1  UNL     1      -3.001 -13.421  -8.995  1.00  0.00    -0.265 OA
HETATM    5  C3  UNL     1      -1.643 -11.897 -10.004  1.00  0.00     0.190 A 
HETATM    6  C4  UNL     1      -1.459 -10.616 -10.424  1.00  0.00     0.178 A 
HETATM    7  N2  UNL     1      -2.466  -9.726 -10.201  1.00  0.00    -0.152 N 
HETATM    8  C5  UNL     1      -3.611 -10.093  -9.588  1.00  0.00     0.357 A 
HETATM    9  O3  UNL     1      -4.497  -9.211  -9.416  1.00  0.00    -0.244 OA
HETATM   10  N3  UNL     1      -0.263 -10.222 -11.084  1.00  0.00    -0.317 N 
ATOM     11  H3  UNL     1      -0.178  -9.255 -11.397  1.00  0.00     0.166 HD
HETATM   12  C6  UNL     1       0.831 -11.118 -11.330  1.00  0.00     0.266 A 
HETATM   13  C11 UNL     1       0.534 -12.504 -10.824  1.00  0.00     0.152 A 
HETATM   14  C12 UNL     1       1.459 -13.421 -10.986  1.00  0.00     0.207 C 
HETATM   15  O7  UNL     1      -0.661 -12.826 -10.203  1.00  0.00    -0.297 OA
ENDROOT
BRANCH  12  16
HETATM   16  O4  UNL     1       1.869 -10.710 -10.448  1.00  0.00    -0.349 OA
ATOM     17  H4  UNL     1       2.382 -11.490 -10.275  1.00  0.00     0.215 HD
ENDBRANCH  12  16
BRANCH  12  18
HETATM   18  N4  UNL     1       1.264 -11.248 -12.651  1.00  0.00    -0.361 N 
ATOM     19  H4  UNL     1       1.663 -12.134 -12.959  1.00  0.00     0.159 HD
BRANCH  18  20
HETATM   20  C7  UNL     1       1.163 -10.195 -13.560  1.00  0.00     0.019 C 
HETATM   21  C8  UNL     1       1.869 -10.668 -14.853  1.00  0.00     0.037 C 
HETATM   22  C9  UNL     1       1.836  -8.901 -13.233  1.00  0.00     0.037 C 
HETATM   23  C10 UNL     1      -0.263  -9.892 -14.038  1.00  0.00     0.037 C 
ENDBRANCH  18  20
ENDBRANCH  12  18
BRANCH  14  24
HETATM   24  N5  UNL     1       1.265 -14.749 -10.540  1.00  0.00    -0.125 N 
HETATM   25  O5  UNL     1       0.926 -15.637 -11.317  1.00  0.00    -0.532 OA
HETATM   26  O6  UNL     1       1.451 -15.112  -9.212  1.00  0.00    -0.532 OA
ENDBRANCH  14  24
BRANCH   7  27
HETATM   27  O2  UNL     1      -2.326  -8.426 -10.603  1.00  0.00    -0.277 OA
ATOM     28  H2  UNL     1      -3.061  -7.829 -10.533  1.00  0.00     0.245 HD
ENDBRANCH   7  27
TORSDOF 5
ENDMDL
MODEL 4
REMARK VINA RESULT: -4.527644375      1.983      4.475
REMARK  5 active torsions:
REMARK  status: ('A' for Active; 'I' for Inactive)
REMARK    1  A    between atoms: N2_7  and  O2_8 
REMARK    2  A    between atoms: C6_14  and  O4_15 
REMARK    3  A    between atoms: C6_14  and  N4_17 
REMARK    4  A    between atoms: N4_17  and  C7_19 
REMARK    5  A    between atoms: C12_24  and  N5_25 
ROOT
HETATM    1  C1  UNL     1      -0.381 -13.034  -7.386  1.00  0.00     0.165 C 
HETATM    2  N1  UNL     1      -0.505 -12.444  -8.699  1.00  0.00    -0.266 N 
HETATM    3  C2  UNL     1      -1.359 -11.459  -9.018  1.00  0.00     0.289 A 
HETATM    4  O1  UNL     1      -2.107 -11.004  -8.126  1.00  0.00    -0.265 OA
HETATM    5  C3  UNL     1      -1.446 -10.923 -10.303  1.00  0.00     0.190 A 
HETATM    6  C4  UNL     1      -0.634 -11.410 -11.280  1.00  0.00     0.178 A 
HETATM    7  N2  UNL     1       0.228 -12.411 -10.947  1.00  0.00    -0.152 N 
HETATM    8  C5  UNL     1       0.285 -12.907  -9.694  1.00  0.00     0.357 A 
HETATM    9  O3  UNL     1       1.109 -13.834  -9.463  1.00  0.00    -0.244 OA
HETATM   10  N3  UNL     1      -0.676 -10.885 -12.601  1.00  0.00    -0.317 N 
ATOM     11  H3  UNL     1      -0.035 -11.269 -13.296  1.00  0.00     0.166 HD
HETATM   12  C6  UNL     1      -1.574  -9.842 -13.005  1.00  0.00     0.266 A 
HETATM   13  C11 UNL     1      -2.431  -9.378 -11.858  1.00  0.00     0.152 A 
HETATM   14  C12 UNL     1      -3.301  -8.424 -12.097  1.00  0.00     0.207 C 
HETATM   15  O7  UNL     1      -2.330  -9.921 -10.589  1.00  0.00    -0.297 OA
ENDROOT
BRANCH  12  16
HETATM   16  O4  UNL     1      -2.537 -10.466 -13.845  1.00  0.00    -0.349 OA
ATOM     17  H4  UNL     1      -3.178  -9.794 -14.046  1.00  0.00     0.215 HD
ENDBRANCH  12  16
BRANCH  12  18
HETATM   18  N4  UNL     1      -1.010  -8.702 -13.583  1.00  0.00    -0.361 N 
ATOM     19  H4  UNL     1      -1.286  -7.782 -13.239  1.00  0.00     0.159 HD
BRANCH  18  20
HETATM   20  C7  UNL     1      -0.081  -8.792 -14.617  1.00  0.00     0.019 C 
HETATM   21  C8  UNL     1      -0.210  -7.483 -15.433  1.00  0.00     0.037 C 
HETATM   22  C9  UNL     1      -0.247  -9.872 -15.638  1.00  0.00     0.037 C 
HETATM   23  C10 UNL     1       1.387  -8.774 -14.168  1.00  0.00     0.037 C 
ENDBRANCH  18  20
ENDBRANCH  12  18
BRANCH  14  24
HETATM   24  N5  UNL     1      -4.148  -7.928 -11.078  1.00  0.00    -0.125 N 
HETATM   25  O5  UNL     1      -3.848  -6.926 -10.435  1.00  0.00    -0.532 OA
HETATM   26  O6  UNL     1      -5.353  -8.542 -10.762  1.00  0.00    -0.532 OA
ENDBRANCH  14  24
BRANCH   7  27
HETATM   27  O2  UNL     1       1.062 -12.934 -11.897  1.00  0.00    -0.277 OA
ATOM     28  H2  UNL     1       1.704 -12.376 -12.320  1.00  0.00     0.245 HD
ENDBRANCH   7  27
TORSDOF 5
ENDMDL
MODEL 5
REMARK VINA RESULT: -4.383635289      2.659      6.647
REMARK  5 active torsions:
REMARK  status: ('A' for Active; 'I' for Inactive)
REMARK    1  A    between atoms: N2_7  and  O2_8 
REMARK    2  A    between atoms: C6_14  and  O4_15 
REMARK    3  A    between atoms: C6_14  and  N4_17 
REMARK    4  A    between atoms: N4_17  and  C7_19 
REMARK    5  A    between atoms: C12_24  and  N5_25 
ROOT
HETATM    1  C1  UNL     1      -5.732  -6.990 -11.898  1.00  0.00     0.165 C 
HETATM    2  N1  UNL     1      -4.672  -7.801 -11.346  1.00  0.00    -0.266 N 
HETATM    3  C2  UNL     1      -4.853  -8.971 -10.712  1.00  0.00     0.289 A 
HETATM    4  O1  UNL     1      -6.018  -9.408 -10.586  1.00  0.00    -0.265 OA
HETATM    5  C3  UNL     1      -3.797  -9.718 -10.191  1.00  0.00     0.190 A 
HETATM    6  C4  UNL     1      -2.526  -9.251 -10.325  1.00  0.00     0.178 A 
HETATM    7  N2  UNL     1      -2.352  -8.062 -10.967  1.00  0.00    -0.152 N 
HETATM    8  C5  UNL     1      -3.398  -7.365 -11.459  1.00  0.00     0.357 A 
HETATM    9  O3  UNL     1      -3.156  -6.272 -12.040  1.00  0.00    -0.244 OA
HETATM   10  N3  UNL     1      -1.416  -9.984  -9.823  1.00  0.00    -0.317 N 
ATOM     11  H3  UNL     1      -0.480  -9.604  -9.963  1.00  0.00     0.166 HD
HETATM   12  C6  UNL     1      -1.548 -11.233  -9.128  1.00  0.00     0.266 A 
HETATM   13  C11 UNL     1      -2.988 -11.658  -9.026  1.00  0.00     0.152 A 
HETATM   14  C12 UNL     1      -3.245 -12.787  -8.408  1.00  0.00     0.207 C 
HETATM   15  O7  UNL     1      -4.023 -10.904  -9.551  1.00  0.00    -0.297 OA
ENDROOT
BRANCH  12  16
HETATM   16  O4  UNL     1      -1.237 -10.953  -7.769  1.00  0.00    -0.349 OA
ATOM     17  H4  UNL     1      -0.776 -10.122  -7.776  1.00  0.00     0.215 HD
ENDBRANCH  12  16
BRANCH  12  18
HETATM   18  N4  UNL     1      -0.833 -12.322  -9.632  1.00  0.00    -0.361 N 
ATOM     19  H4  UNL     1      -1.277 -12.933 -10.317  1.00  0.00     0.159 HD
BRANCH  18  20
HETATM   20  C7  UNL     1       0.471 -12.593  -9.222  1.00  0.00     0.019 C 
HETATM   21  C8  UNL     1       1.108 -13.454 -10.339  1.00  0.00     0.037 C 
HETATM   22  C9  UNL     1       0.678 -13.400  -7.981  1.00  0.00     0.037 C 
HETATM   23  C10 UNL     1       1.395 -11.369  -9.163  1.00  0.00     0.037 C 
ENDBRANCH  18  20
ENDBRANCH  12  18
BRANCH  14  24
HETATM   24  N5  UNL     1      -4.570 -13.263  -8.265  1.00  0.00    -0.125 N 
HETATM   25  O5  UNL     1      -5.226 -13.021  -7.256  1.00  0.00    -0.532 OA
HETATM   26  O6  UNL     1      -5.188 -14.018  -9.253  1.00  0.00    -0.532 OA
ENDBRANCH  14  24
BRANCH   7  27
HETATM   27  O2  UNL     1      -1.093  -7.552 -11.123  1.00  0.00    -0.277 OA
ATOM     28  H2  UNL     1      -0.387  -7.861 -10.569  1.00  0.00     0.245 HD
ENDBRANCH   7  27
TORSDOF 5
ENDMDL
