MODEL 1
REMARK VINA RESULT: -7.518451418      0.000      0.000
REMARK  14 active torsions:
REMARK  status: ('A' for Active; 'I' for Inactive)
REMARK    1  A    between atoms: C2_4  and  C3_5 
REMARK    2  A    between atoms: C3_5  and  C4_6 
REMARK    3  A    between atoms: C4_6  and  C5_7 
REMARK    4  A    between atoms: C5_7  and  C6_8 
REMARK    5  A    between atoms: C6_8  and  C7_9 
REMARK    6  A    between atoms: C7_9  and  C8_10 
REMARK    7  A    between atoms: C8_10  and  C9_11 
REMARK    8  A    between atoms: C9_11  and  C10_12 
REMARK    9  A    between atoms: C10_12  and  C11_13 
REMARK   10  A    between atoms: C11_13  and  C12_14 
REMARK   11  A    between atoms: C12_14  and  C13_15 
REMARK   12  A    between atoms: C13_15  and  C14_16 
REMARK   13  A    between atoms: C14_16  and  N2_17 
REMARK   14  A    between atoms: N2_17  and  C15_20 
ROOT
HETATM    1  C9  UNL     1      22.643  -7.660  11.008  1.00  0.00     0.000 C 
ENDROOT
BRANCH   1   2
HETATM    2  C8  UNL     1      22.879  -7.736  12.514  1.00  0.00     0.000 C 
BRANCH   2   3
HETATM    3  C7  UNL     1      21.986  -8.769  13.154  1.00  0.00     0.000 C 
BRANCH   3   4
HETATM    4  C6  UNL     1      22.861  -9.737  13.934  1.00  0.00     0.000 C 
BRANCH   4   5
HETATM    5  C5  UNL     1      23.189  -9.267  15.315  1.00  0.00     0.000 C 
BRANCH   5   6
HETATM    6  C4  UNL     1      23.922 -10.407  16.022  1.00  0.00     0.006 C 
BRANCH   6   7
HETATM    7  C3  UNL     1      25.120 -10.842  15.197  1.00  0.00     0.058 C 
BRANCH   7   8
HETATM    8  C2  UNL     1      25.240 -12.328  15.379  1.00  0.00     0.025 A 
HETATM    9  N1  UNL     1      26.279 -13.040  15.841  1.00  0.00    -0.355 N 
HETATM   10  C1  UNL     1      25.958 -14.359  15.842  1.00  0.00     0.180 A 
ATOM     11  H1  UNL     1      27.172 -12.650  16.143  1.00  0.00     0.166 HD
HETATM   12  N3  UNL     1      24.709 -14.490  15.382  1.00  0.00    -0.360 N 
HETATM   13  C20 UNL     1      24.248 -13.267  15.091  1.00  0.00     0.113 A 
ATOM     14  H3  UNL     1      24.198 -15.367  15.272  1.00  0.00     0.166 HD
ENDBRANCH   7   8
ENDBRANCH   6   7
ENDBRANCH   5   6
ENDBRANCH   4   5
ENDBRANCH   3   4
ENDBRANCH   2   3
ENDBRANCH   1   2
BRANCH   1  15
HETATM   15  C10 UNL     1      21.673  -8.707  10.590  1.00  0.00     0.000 C 
BRANCH  15  16
HETATM   16  C11 UNL     1      20.455  -8.333   9.855  1.00  0.00     0.000 C 
BRANCH  16  17
HETATM   17  C12 UNL     1      19.931  -6.961   9.851  1.00  0.00     0.002 C 
BRANCH  17  18
HETATM   18  C13 UNL     1      20.224  -6.023   8.753  1.00  0.00     0.027 C 
BRANCH  18  19
HETATM   19  C14 UNL     1      20.695  -4.662   9.292  1.00  0.00     0.232 C 
BRANCH  19  20
HETATM   20  N2  UNL     1      20.309  -4.424  10.640  1.00  0.00    -0.071 N 
ATOM     21  H22 UNL     1      19.330  -4.141  10.698  1.00  0.00     0.277 HD
ATOM     22  H21 UNL     1      20.257  -5.297  11.167  1.00  0.00     0.277 HD
BRANCH  20  23
HETATM   23  C15 UNL     1      21.168  -3.467  11.301  1.00  0.00     0.185 C 
HETATM   24  C16 UNL     1      22.619  -3.824  11.171  1.00  0.00     0.033 C 
HETATM   25  C17 UNL     1      23.327  -2.525  11.444  1.00  0.00     0.002 C 
HETATM   26  C18 UNL     1      22.321  -1.425  11.194  1.00  0.00     0.002 C 
HETATM   27  C19 UNL     1      21.111  -2.111  10.603  1.00  0.00     0.033 C 
ENDBRANCH  20  23
ENDBRANCH  19  20
ENDBRANCH  18  19
ENDBRANCH  17  18
ENDBRANCH  16  17
ENDBRANCH  15  16
ENDBRANCH   1  15
TORSDOF 14
ENDMDL
MODEL 2
REMARK VINA RESULT: -7.455021135      0.948      1.584
REMARK  14 active torsions:
REMARK  status: ('A' for Active; 'I' for Inactive)
REMARK    1  A    between atoms: C2_4  and  C3_5 
REMARK    2  A    between atoms: C3_5  and  C4_6 
REMARK    3  A    between atoms: C4_6  and  C5_7 
REMARK    4  A    between atoms: C5_7  and  C6_8 
REMARK    5  A    between atoms: C6_8  and  C7_9 
REMARK    6  A    between atoms: C7_9  and  C8_10 
REMARK    7  A    between atoms: C8_10  and  C9_11 
REMARK    8  A    between atoms: C9_11  and  C10_12 
REMARK    9  A    between atoms: C10_12  and  C11_13 
REMARK   10  A    between atoms: C11_13  and  C12_14 
REMARK   11  A    between atoms: C12_14  and  C13_15 
REMARK   12  A    between atoms: C13_15  and  C14_16 
REMARK   13  A    between atoms: C14_16  and  N2_17 
REMARK   14  A    between atoms: N2_17  and  C15_20 
ROOT
HETATM    1  C9  UNL     1      21.741  -8.790  10.821  1.00  0.00     0.000 C 
ENDROOT
BRANCH   1   2
HETATM    2  C8  UNL     1      22.734  -7.642  10.987  1.00  0.00     0.000 C 
BRANCH   2   3
HETATM    3  C7  UNL     1      23.072  -7.419  12.440  1.00  0.00     0.000 C 
BRANCH   3   4
HETATM    4  C6  UNL     1      22.649  -8.652  13.221  1.00  0.00     0.000 C 
BRANCH   4   5
HETATM    5  C5  UNL     1      23.450  -8.878  14.463  1.00  0.00     0.000 C 
BRANCH   5   6
HETATM    6  C4  UNL     1      23.577 -10.388  14.656  1.00  0.00     0.006 C 
BRANCH   6   7
HETATM    7  C3  UNL     1      24.926 -10.720  15.267  1.00  0.00     0.058 C 
BRANCH   7   8
HETATM    8  C2  UNL     1      25.002 -12.219  15.332  1.00  0.00     0.025 A 
HETATM    9  N1  UNL     1      24.082 -13.126  14.973  1.00  0.00    -0.355 N 
HETATM   10  C1  UNL     1      24.567 -14.375  15.197  1.00  0.00     0.180 A 
ATOM     11  H1  UNL     1      23.160 -12.912  14.591  1.00  0.00     0.166 HD
HETATM   12  N3  UNL     1      25.802 -14.264  15.698  1.00  0.00    -0.360 N 
HETATM   13  C20 UNL     1      26.092 -12.961  15.792  1.00  0.00     0.113 A 
ATOM     14  H3  UNL     1      26.414 -15.037  15.962  1.00  0.00     0.166 HD
ENDBRANCH   7   8
ENDBRANCH   6   7
ENDBRANCH   5   6
ENDBRANCH   4   5
ENDBRANCH   3   4
ENDBRANCH   2   3
ENDBRANCH   1   2
BRANCH   1  15
HETATM   15  C10 UNL     1      20.495  -8.297  10.176  1.00  0.00     0.000 C 
BRANCH  15  16
HETATM   16  C11 UNL     1      20.033  -6.921  10.420  1.00  0.00     0.000 C 
BRANCH  16  17
HETATM   17  C12 UNL     1      19.913  -5.932   9.341  1.00  0.00     0.002 C 
BRANCH  17  18
HETATM   18  C13 UNL     1      20.927  -5.819   8.278  1.00  0.00     0.027 C 
BRANCH  18  19
HETATM   19  C14 UNL     1      21.625  -4.449   8.316  1.00  0.00     0.232 C 
BRANCH  19  20
HETATM   20  N2  UNL     1      20.955  -3.496   9.130  1.00  0.00    -0.071 N 
ATOM     21  H22 UNL     1      20.286  -2.951   8.584  1.00  0.00     0.277 HD
ATOM     22  H21 UNL     1      20.308  -3.952   9.773  1.00  0.00     0.277 HD
BRANCH  20  23
HETATM   23  C15 UNL     1      21.872  -2.632   9.840  1.00  0.00     0.185 C 
HETATM   24  C16 UNL     1      21.160  -1.548  10.595  1.00  0.00     0.033 C 
HETATM   25  C17 UNL     1      22.170  -1.111  11.620  1.00  0.00     0.002 C 
HETATM   26  C18 UNL     1      23.152  -2.251  11.771  1.00  0.00     0.002 C 
HETATM   27  C19 UNL     1      22.575  -3.390  10.963  1.00  0.00     0.033 C 
ENDBRANCH  20  23
ENDBRANCH  19  20
ENDBRANCH  18  19
ENDBRANCH  17  18
ENDBRANCH  16  17
ENDBRANCH  15  16
ENDBRANCH   1  15
TORSDOF 14
ENDMDL
MODEL 3
REMARK VINA RESULT: -7.290370134      1.139      2.005
REMARK  14 active torsions:
REMARK  status: ('A' for Active; 'I' for Inactive)
REMARK    1  A    between atoms: C2_4  and  C3_5 
REMARK    2  A    between atoms: C3_5  and  C4_6 
REMARK    3  A    between atoms: C4_6  and  C5_7 
REMARK    4  A    between atoms: C5_7  and  C6_8 
REMARK    5  A    between atoms: C6_8  and  C7_9 
REMARK    6  A    between atoms: C7_9  and  C8_10 
REMARK    7  A    between atoms: C8_10  and  C9_11 
REMARK    8  A    between atoms: C9_11  and  C10_12 
REMARK    9  A    between atoms: C10_12  and  C11_13 
REMARK   10  A    between atoms: C11_13  and  C12_14 
REMARK   11  A    between atoms: C12_14  and  C13_15 
REMARK   12  A    between atoms: C13_15  and  C14_16 
REMARK   13  A    between atoms: C14_16  and  N2_17 
REMARK   14  A    between atoms: N2_17  and  C15_20 
ROOT
HETATM    1  C9  UNL     1      22.744  -7.660  13.101  1.00  0.00     0.000 C 
ENDROOT
BRANCH   1   2
HETATM    2  C8  UNL     1      22.919  -9.168  13.262  1.00  0.00     0.000 C 
BRANCH   2   3
HETATM    3  C7  UNL     1      22.797  -9.580  14.708  1.00  0.00     0.000 C 
BRANCH   3   4
HETATM    4  C6  UNL     1      24.182  -9.542  15.332  1.00  0.00     0.000 C 
BRANCH   4   5
HETATM    5  C5  UNL     1      25.000 -10.761  15.047  1.00  0.00     0.000 C 
BRANCH   5   6
HETATM    6  C4  UNL     1      24.401 -11.911  15.857  1.00  0.00     0.006 C 
BRANCH   6   7
HETATM    7  C3  UNL     1      24.512 -13.207  15.075  1.00  0.00     0.058 C 
BRANCH   7   8
HETATM    8  C2  UNL     1      25.661 -13.965  15.675  1.00  0.00     0.025 A 
HETATM    9  N1  UNL     1      26.978 -13.782  15.495  1.00  0.00    -0.355 N 
HETATM   10  C1  UNL     1      27.665 -14.691  16.233  1.00  0.00     0.180 A 
ATOM     11  H1  UNL     1      27.397 -13.071  14.896  1.00  0.00     0.166 HD
HETATM   12  N3  UNL     1      26.785 -15.455  16.888  1.00  0.00    -0.360 N 
HETATM   13  C20 UNL     1      25.556 -15.036  16.566  1.00  0.00     0.113 A 
ATOM     14  H3  UNL     1      27.011 -16.223  17.522  1.00  0.00     0.166 HD
ENDBRANCH   7   8
ENDBRANCH   6   7
ENDBRANCH   5   6
ENDBRANCH   4   5
ENDBRANCH   3   4
ENDBRANCH   2   3
ENDBRANCH   1   2
BRANCH   1  15
HETATM   15  C10 UNL     1      23.122  -7.247  11.724  1.00  0.00     0.000 C 
BRANCH  15  16
HETATM   16  C11 UNL     1      22.336  -7.715  10.571  1.00  0.00     0.000 C 
BRANCH  16  17
HETATM   17  C12 UNL     1      20.879  -7.884  10.633  1.00  0.00     0.002 C 
BRANCH  17  18
HETATM   18  C13 UNL     1      20.027  -7.697   9.445  1.00  0.00     0.027 C 
BRANCH  18  19
HETATM   19  C14 UNL     1      19.457  -6.270   9.387  1.00  0.00     0.232 C 
BRANCH  19  20
HETATM   20  N2  UNL     1      19.699  -5.516  10.568  1.00  0.00    -0.071 N 
ATOM     21  H22 UNL     1      18.842  -5.392  11.107  1.00  0.00     0.277 HD
ATOM     22  H21 UNL     1      20.241  -6.055  11.243  1.00  0.00     0.277 HD
BRANCH  20  23
HETATM   23  C15 UNL     1      20.329  -4.243  10.293  1.00  0.00     0.185 C 
HETATM   24  C16 UNL     1      21.490  -3.977  11.205  1.00  0.00     0.033 C 
HETATM   25  C17 UNL     1      22.283  -2.931  10.470  1.00  0.00     0.002 C 
HETATM   26  C18 UNL     1      21.879  -3.027   9.016  1.00  0.00     0.002 C 
HETATM   27  C19 UNL     1      21.000  -4.252   8.921  1.00  0.00     0.033 C 
ENDBRANCH  20  23
ENDBRANCH  19  20
ENDBRANCH  18  19
ENDBRANCH  17  18
ENDBRANCH  16  17
ENDBRANCH  15  16
ENDBRANCH   1  15
TORSDOF 14
ENDMDL
MODEL 4
REMARK VINA RESULT: -7.279781218      0.825      1.151
REMARK  14 active torsions:
REMARK  status: ('A' for Active; 'I' for Inactive)
REMARK    1  A    between atoms: C2_4  and  C3_5 
REMARK    2  A    between atoms: C3_5  and  C4_6 
REMARK    3  A    between atoms: C4_6  and  C5_7 
REMARK    4  A    between atoms: C5_7  and  C6_8 
REMARK    5  A    between atoms: C6_8  and  C7_9 
REMARK    6  A    between atoms: C7_9  and  C8_10 
REMARK    7  A    between atoms: C8_10  and  C9_11 
REMARK    8  A    between atoms: C9_11  and  C10_12 
REMARK    9  A    between atoms: C10_12  and  C11_13 
REMARK   10  A    between atoms: C11_13  and  C12_14 
REMARK   11  A    between atoms: C12_14  and  C13_15 
REMARK   12  A    between atoms: C13_15  and  C14_16 
REMARK   13  A    between atoms: C14_16  and  N2_17 
REMARK   14  A    between atoms: N2_17  and  C15_20 
ROOT
HETATM    1  C9  UNL     1      22.064  -7.559  11.503  1.00  0.00     0.000 C 
ENDROOT
BRANCH   1   2
HETATM    2  C8  UNL     1      22.686  -8.155  12.764  1.00  0.00     0.000 C 
BRANCH   2   3
HETATM    3  C7  UNL     1      22.016  -9.453  13.140  1.00  0.00     0.000 C 
BRANCH   3   4
HETATM    4  C6  UNL     1      22.803 -10.081  14.279  1.00  0.00     0.000 C 
BRANCH   4   5
HETATM    5  C5  UNL     1      23.843  -9.176  14.857  1.00  0.00     0.000 C 
BRANCH   5   6
HETATM    6  C4  UNL     1      24.936 -10.061  15.456  1.00  0.00     0.006 C 
BRANCH   6   7
HETATM    7  C3  UNL     1      24.666 -11.516  15.117  1.00  0.00     0.058 C 
BRANCH   7   8
HETATM    8  C2  UNL     1      25.759 -12.311  15.772  1.00  0.00     0.025 A 
HETATM    9  N1  UNL     1      26.391 -13.405  15.322  1.00  0.00    -0.355 N 
HETATM   10  C1  UNL     1      27.317 -13.799  16.233  1.00  0.00     0.180 A 
ATOM     11  H1  UNL     1      26.205 -13.870  14.433  1.00  0.00     0.166 HD
HETATM   12  N3  UNL     1      27.278 -12.953  17.268  1.00  0.00    -0.360 N 
HETATM   13  C20 UNL     1      26.336 -12.036  17.013  1.00  0.00     0.113 A 
ATOM     14  H3  UNL     1      27.862 -12.998  18.104  1.00  0.00     0.166 HD
ENDBRANCH   7   8
ENDBRANCH   6   7
ENDBRANCH   5   6
ENDBRANCH   4   5
ENDBRANCH   3   4
ENDBRANCH   2   3
ENDBRANCH   1   2
BRANCH   1  15
HETATM   15  C10 UNL     1      21.182  -8.560  10.847  1.00  0.00     0.000 C 
BRANCH  15  16
HETATM   16  C11 UNL     1      20.319  -8.159   9.725  1.00  0.00     0.000 C 
BRANCH  16  17
HETATM   17  C12 UNL     1      19.887  -6.770   9.524  1.00  0.00     0.002 C 
BRANCH  17  18
HETATM   18  C13 UNL     1      20.551  -5.886   8.551  1.00  0.00     0.027 C 
BRANCH  18  19
HETATM   19  C14 UNL     1      20.832  -4.500   9.155  1.00  0.00     0.232 C 
BRANCH  19  20
HETATM   20  N2  UNL     1      20.400  -4.374  10.504  1.00  0.00    -0.071 N 
ATOM     21  H22 UNL     1      19.406  -4.153  10.553  1.00  0.00     0.277 HD
ATOM     22  H21 UNL     1      20.389  -5.281  10.972  1.00  0.00     0.277 HD
BRANCH  20  23
HETATM   23  C15 UNL     1      21.185  -3.414  11.249  1.00  0.00     0.185 C 
HETATM   24  C16 UNL     1      22.655  -3.705  11.177  1.00  0.00     0.033 C 
HETATM   25  C17 UNL     1      23.292  -2.393  11.542  1.00  0.00     0.002 C 
HETATM   26  C18 UNL     1      22.253  -1.324  11.289  1.00  0.00     0.002 C 
HETATM   27  C19 UNL     1      21.104  -2.031  10.609  1.00  0.00     0.033 C 
ENDBRANCH  20  23
ENDBRANCH  19  20
ENDBRANCH  18  19
ENDBRANCH  17  18
ENDBRANCH  16  17
ENDBRANCH  15  16
ENDBRANCH   1  15
TORSDOF 14
ENDMDL
MODEL 5
REMARK VINA RESULT: -7.206502184      1.101      1.322
REMARK  14 active torsions:
REMARK  status: ('A' for Active; 'I' for Inactive)
REMARK    1  A    between atoms: C2_4  and  C3_5 
REMARK    2  A    between atoms: C3_5  and  C4_6 
REMARK    3  A    between atoms: C4_6  and  C5_7 
REMARK    4  A    between atoms: C5_7  and  C6_8 
REMARK    5  A    between atoms: C6_8  and  C7_9 
REMARK    6  A    between atoms: C7_9  and  C8_10 
REMARK    7  A    between atoms: C8_10  and  C9_11 
REMARK    8  A    between atoms: C9_11  and  C10_12 
REMARK    9  A    between atoms: C10_12  and  C11_13 
REMARK   10  A    between atoms: C11_13  and  C12_14 
REMARK   11  A    between atoms: C12_14  and  C13_15 
REMARK   12  A    between atoms: C13_15  and  C14_16 
REMARK   13  A    between atoms: C14_16  and  N2_17 
REMARK   14  A    between atoms: N2_17  and  C15_20 
ROOT
HETATM    1  C9  UNL     1      23.111  -7.963  11.979  1.00  0.00     0.000 C 
ENDROOT
BRANCH   1   2
HETATM    2  C8  UNL     1      21.846  -8.807  12.115  1.00  0.00     0.000 C 
BRANCH   2   3
HETATM    3  C7  UNL     1      21.988  -9.830  13.213  1.00  0.00     0.000 C 
BRANCH   3   4
HETATM    4  C6  UNL     1      23.226  -9.487  14.025  1.00  0.00     0.000 C 
BRANCH   4   5
HETATM    5  C5  UNL     1      22.985  -9.460  15.501  1.00  0.00     0.000 C 
BRANCH   5   6
HETATM    6  C4  UNL     1      24.001 -10.403  16.145  1.00  0.00     0.006 C 
BRANCH   6   7
HETATM    7  C3  UNL     1      24.970 -10.915  15.096  1.00  0.00     0.058 C 
BRANCH   7   8
HETATM    8  C2  UNL     1      25.178 -12.374  15.390  1.00  0.00     0.025 A 
HETATM    9  N1  UNL     1      26.176 -12.964  16.064  1.00  0.00    -0.355 N 
HETATM   10  C1  UNL     1      25.968 -14.306  16.096  1.00  0.00     0.180 A 
ATOM     11  H1  UNL     1      26.968 -12.481  16.487  1.00  0.00     0.166 HD
HETATM   12  N3  UNL     1      24.833 -14.572  15.441  1.00  0.00    -0.360 N 
HETATM   13  C20 UNL     1      24.330 -13.413  14.999  1.00  0.00     0.113 A 
ATOM     14  H3  UNL     1      24.422 -15.496  15.303  1.00  0.00     0.166 HD
ENDBRANCH   7   8
ENDBRANCH   6   7
ENDBRANCH   5   6
ENDBRANCH   4   5
ENDBRANCH   3   4
ENDBRANCH   2   3
ENDBRANCH   1   2
BRANCH   1  15
HETATM   15  C10 UNL     1      22.752  -6.532  11.798  1.00  0.00     0.000 C 
BRANCH  15  16
HETATM   16  C11 UNL     1      21.459  -6.165  11.199  1.00  0.00     0.000 C 
BRANCH  16  17
HETATM   17  C12 UNL     1      21.240  -6.162   9.747  1.00  0.00     0.002 C 
BRANCH  17  18
HETATM   18  C13 UNL     1      20.571  -5.040   9.067  1.00  0.00     0.027 C 
BRANCH  18  19
HETATM   19  C14 UNL     1      21.591  -4.011   8.551  1.00  0.00     0.232 C 
BRANCH  19  20
HETATM   20  N2  UNL     1      21.274  -2.672   8.909  1.00  0.00    -0.071 N 
ATOM     21  H22 UNL     1      21.815  -2.006   8.356  1.00  0.00     0.277 HD
ATOM     22  H21 UNL     1      20.336  -2.421   8.596  1.00  0.00     0.277 HD
BRANCH  20  23
HETATM   23  C15 UNL     1      21.435  -2.424  10.324  1.00  0.00     0.185 C 
HETATM   24  C16 UNL     1      22.860  -2.578  10.768  1.00  0.00     0.033 C 
HETATM   25  C17 UNL     1      22.909  -1.817  12.064  1.00  0.00     0.002 C 
HETATM   26  C18 UNL     1      21.741  -0.857  12.045  1.00  0.00     0.002 C 
HETATM   27  C19 UNL     1      21.156  -0.960  10.656  1.00  0.00     0.033 C 
ENDBRANCH  20  23
ENDBRANCH  19  20
ENDBRANCH  18  19
ENDBRANCH  17  18
ENDBRANCH  16  17
ENDBRANCH  15  16
ENDBRANCH   1  15
TORSDOF 14
ENDMDL
