MODEL 1
REMARK VINA RESULT: -6.865413367      0.000      0.000
REMARK  4 active torsions:
REMARK  status: ('A' for Active; 'I' for Inactive)
REMARK    1  A    between atoms: N1_5  and  C5_6 
REMARK    2  A    between atoms: C5_6  and  S1_11 
REMARK    3  A    between atoms: S1_11  and  C7_12 
REMARK    4  A    between atoms: C7_12  and  C8_13 
ROOT
HETATM    1  C5  UNL     1      30.595  16.776   0.280  1.00  0.00     0.151 C 
HETATM    2  N2  UNL     1      31.155  17.931   0.612  1.00  0.00    -0.274 N 
ATOM      3  H2  UNL     1      31.816  18.358  -0.037  1.00  0.00     0.180 HD
HETATM    4  C6  UNL     1      30.882  18.577   1.797  1.00  0.00     0.183 C 
HETATM    5  N3  UNL     1      30.658  19.107   2.803  1.00  0.00    -0.172 NA
ENDROOT
BRANCH   1   6
HETATM    6  N1  UNL     1      31.029  16.302  -0.984  1.00  0.00    -0.357 N 
HETATM    7  C4  UNL     1      29.988  16.096  -1.970  1.00  0.00     0.126 C 
HETATM    8  C3  UNL     1      30.437  15.379  -3.197  1.00  0.00     0.024 C 
HETATM    9  C2  UNL     1      31.510  14.383  -2.732  1.00  0.00    -0.015 C 
HETATM   10  C1  UNL     1      31.758  13.321  -3.776  1.00  0.00     0.010 C 
HETATM   11  C15 UNL     1      32.723  15.194  -2.412  1.00  0.00     0.029 C 
HETATM   12  C13 UNL     1      32.419  16.045  -1.201  1.00  0.00     0.082 C 
HETATM   13  C14 UNL     1      33.086  15.382  -0.012  1.00  0.00     0.032 C 
ENDBRANCH   1   6
BRANCH   1  14
HETATM   14  S1  UNL     1      29.475  16.071   1.399  1.00  0.00    -0.091 SA
BRANCH  14  15
HETATM   15  C7  UNL     1      27.861  15.625   0.854  1.00  0.00     0.116 C 
BRANCH  15  16
HETATM   16  C8  UNL     1      26.910  15.206   1.905  1.00  0.00     0.158 C 
HETATM   17  C9  UNL     1      27.605  14.978   3.261  1.00  0.00     0.204 C 
HETATM   18  O1  UNL     1      26.565  14.332   3.939  1.00  0.00    -0.353 OA
HETATM   19  C10 UNL     1      25.857  13.602   3.003  1.00  0.00     0.157 C 
HETATM   20  C11 UNL     1      26.006  12.141   3.330  1.00  0.00     0.078 C 
HETATM   21  C12 UNL     1      24.383  13.937   2.996  1.00  0.00     0.078 C 
HETATM   22  O2  UNL     1      26.356  13.945   1.743  1.00  0.00    -0.348 OA
ENDBRANCH  15  16
ENDBRANCH  14  15
ENDBRANCH   1  14
TORSDOF 4
ENDMDL
MODEL 2
REMARK VINA RESULT: -6.572833269      0.831      1.739
REMARK  4 active torsions:
REMARK  status: ('A' for Active; 'I' for Inactive)
REMARK    1  A    between atoms: N1_5  and  C5_6 
REMARK    2  A    between atoms: C5_6  and  S1_11 
REMARK    3  A    between atoms: S1_11  and  C7_12 
REMARK    4  A    between atoms: C7_12  and  C8_13 
ROOT
HETATM    1  C5  UNL     1      30.346  16.296   0.019  1.00  0.00     0.151 C 
HETATM    2  N2  UNL     1      31.009  17.437   0.147  1.00  0.00    -0.274 N 
ATOM      3  H2  UNL     1      31.678  17.697  -0.578  1.00  0.00     0.180 HD
HETATM    4  C6  UNL     1      30.832  18.285   1.218  1.00  0.00     0.183 C 
HETATM    5  N3  UNL     1      30.688  18.985   2.130  1.00  0.00    -0.172 NA
ENDROOT
BRANCH   1   6
HETATM    6  N1  UNL     1      30.693  15.592  -1.162  1.00  0.00    -0.357 N 
HETATM    7  C4  UNL     1      32.090  15.234  -1.294  1.00  0.00     0.126 C 
HETATM    8  C3  UNL     1      32.466  14.712  -2.638  1.00  0.00     0.024 C 
HETATM    9  C2  UNL     1      31.584  15.468  -3.643  1.00  0.00    -0.015 C 
HETATM   10  C1  UNL     1      32.129  15.347  -5.047  1.00  0.00     0.010 C 
HETATM   11  C15 UNL     1      30.206  14.910  -3.492  1.00  0.00     0.029 C 
HETATM   12  C13 UNL     1      29.682  15.301  -2.131  1.00  0.00     0.082 C 
HETATM   13  C14 UNL     1      28.719  16.453  -2.339  1.00  0.00     0.032 C 
ENDBRANCH   1   6
BRANCH   1  14
HETATM   14  S1  UNL     1      29.214  15.876   1.263  1.00  0.00    -0.091 SA
BRANCH  14  15
HETATM   15  C7  UNL     1      27.543  15.519   0.838  1.00  0.00     0.116 C 
BRANCH  15  16
HETATM   16  C8  UNL     1      26.667  15.083   1.946  1.00  0.00     0.158 C 
HETATM   17  C9  UNL     1      27.447  14.878   3.258  1.00  0.00     0.204 C 
HETATM   18  O1  UNL     1      26.465  14.211   4.000  1.00  0.00    -0.353 OA
HETATM   19  C10 UNL     1      25.720  13.460   3.111  1.00  0.00     0.157 C 
HETATM   20  C11 UNL     1      25.923  12.004   3.433  1.00  0.00     0.078 C 
HETATM   21  C12 UNL     1      24.241  13.760   3.191  1.00  0.00     0.078 C 
HETATM   22  O2  UNL     1      26.134  13.809   1.821  1.00  0.00    -0.348 OA
ENDBRANCH  15  16
ENDBRANCH  14  15
ENDBRANCH   1  14
TORSDOF 4
ENDMDL
MODEL 3
REMARK VINA RESULT: -6.571253788      3.085      4.969
REMARK  4 active torsions:
REMARK  status: ('A' for Active; 'I' for Inactive)
REMARK    1  A    between atoms: N1_5  and  C5_6 
REMARK    2  A    between atoms: C5_6  and  S1_11 
REMARK    3  A    between atoms: S1_11  and  C7_12 
REMARK    4  A    between atoms: C7_12  and  C8_13 
ROOT
HETATM    1  C5  UNL     1      30.110  16.302  -0.294  1.00  0.00     0.151 C 
HETATM    2  N2  UNL     1      29.098  15.446  -0.345  1.00  0.00    -0.274 N 
ATOM      3  H2  UNL     1      29.110  14.717  -1.058  1.00  0.00     0.180 HD
HETATM    4  C6  UNL     1      28.032  15.501   0.525  1.00  0.00     0.183 C 
HETATM    5  N3  UNL     1      27.131  15.565   1.252  1.00  0.00    -0.172 NA
ENDROOT
BRANCH   1   6
HETATM    6  N1  UNL     1      31.089  16.049  -1.288  1.00  0.00    -0.357 N 
HETATM    7  C4  UNL     1      30.591  15.909  -2.641  1.00  0.00     0.126 C 
HETATM    8  C3  UNL     1      31.601  15.412  -3.619  1.00  0.00     0.024 C 
HETATM    9  C2  UNL     1      32.501  14.444  -2.836  1.00  0.00    -0.015 C 
HETATM   10  C1  UNL     1      33.299  13.565  -3.770  1.00  0.00     0.010 C 
HETATM   11  C15 UNL     1      33.352  15.290  -1.947  1.00  0.00     0.029 C 
HETATM   12  C13 UNL     1      32.463  15.933  -0.909  1.00  0.00     0.082 C 
HETATM   13  C14 UNL     1      32.653  15.158   0.380  1.00  0.00     0.032 C 
ENDBRANCH   1   6
BRANCH   1  14
HETATM   14  S1  UNL     1      30.067  17.531   0.926  1.00  0.00    -0.091 SA
BRANCH  14  15
HETATM   15  C7  UNL     1      31.396  18.678   1.057  1.00  0.00     0.116 C 
BRANCH  15  16
HETATM   16  C8  UNL     1      31.504  19.410   2.337  1.00  0.00     0.158 C 
HETATM   17  C9  UNL     1      32.923  19.334   2.932  1.00  0.00     0.204 C 
HETATM   18  O1  UNL     1      32.655  19.827   4.214  1.00  0.00    -0.353 OA
HETATM   19  C10 UNL     1      31.372  19.435   4.544  1.00  0.00     0.157 C 
HETATM   20  C11 UNL     1      31.451  18.490   5.713  1.00  0.00     0.078 C 
HETATM   21  C12 UNL     1      30.488  20.597   4.934  1.00  0.00     0.078 C 
HETATM   22  O2  UNL     1      30.804  18.861   3.401  1.00  0.00    -0.348 OA
ENDBRANCH  15  16
ENDBRANCH  14  15
ENDBRANCH   1  14
TORSDOF 4
ENDMDL
MODEL 4
REMARK VINA RESULT: -6.490670389      1.871      3.505
REMARK  4 active torsions:
REMARK  status: ('A' for Active; 'I' for Inactive)
REMARK    1  A    between atoms: N1_5  and  C5_6 
REMARK    2  A    between atoms: C5_6  and  S1_11 
REMARK    3  A    between atoms: S1_11  and  C7_12 
REMARK    4  A    between atoms: C7_12  and  C8_13 
ROOT
HETATM    1  C5  UNL     1      28.948  15.924  -0.849  1.00  0.00     0.151 C 
HETATM    2  N2  UNL     1      28.945  16.583  -1.999  1.00  0.00    -0.274 N 
ATOM      3  H2  UNL     1      29.698  17.244  -2.186  1.00  0.00     0.180 HD
HETATM    4  C6  UNL     1      27.964  16.412  -2.951  1.00  0.00     0.183 C 
HETATM    5  N3  UNL     1      27.127  16.274  -3.741  1.00  0.00    -0.172 NA
ENDROOT
BRANCH   1   6
HETATM    6  N1  UNL     1      30.054  16.264  -0.029  1.00  0.00    -0.357 N 
HETATM    7  C4  UNL     1      29.966  17.539   0.652  1.00  0.00     0.126 C 
HETATM    8  C3  UNL     1      31.231  17.974   1.309  1.00  0.00     0.024 C 
HETATM    9  C2  UNL     1      32.367  17.455   0.416  1.00  0.00    -0.015 C 
HETATM   10  C1  UNL     1      33.669  18.155   0.726  1.00  0.00     0.010 C 
HETATM   11  C15 UNL     1      32.425  15.977   0.629  1.00  0.00     0.029 C 
HETATM   12  C13 UNL     1      31.164  15.366   0.063  1.00  0.00     0.082 C 
HETATM   13  C14 UNL     1      31.530  14.747  -1.272  1.00  0.00     0.032 C 
ENDBRANCH   1   6
BRANCH   1  14
HETATM   14  S1  UNL     1      27.657  14.806  -0.554  1.00  0.00    -0.091 SA
BRANCH  14  15
HETATM   15  C7  UNL     1      26.116  15.395   0.059  1.00  0.00     0.116 C 
BRANCH  15  16
HETATM   16  C8  UNL     1      25.774  15.011   1.445  1.00  0.00     0.158 C 
HETATM   17  C9  UNL     1      26.994  15.078   2.384  1.00  0.00     0.204 C 
HETATM   18  O1  UNL     1      26.462  14.405   3.490  1.00  0.00    -0.353 OA
HETATM   19  C10 UNL     1      25.578  13.459   3.007  1.00  0.00     0.157 C 
HETATM   20  C11 UNL     1      26.111  12.094   3.348  1.00  0.00     0.078 C 
HETATM   21  C12 UNL     1      24.198  13.590   3.608  1.00  0.00     0.078 C 
HETATM   22  O2  UNL     1      25.442  13.678   1.633  1.00  0.00    -0.348 OA
ENDBRANCH  15  16
ENDBRANCH  14  15
ENDBRANCH   1  14
TORSDOF 4
ENDMDL
MODEL 5
REMARK VINA RESULT: -6.394797820      1.780      3.771
REMARK  4 active torsions:
REMARK  status: ('A' for Active; 'I' for Inactive)
REMARK    1  A    between atoms: N1_5  and  C5_6 
REMARK    2  A    between atoms: C5_6  and  S1_11 
REMARK    3  A    between atoms: S1_11  and  C7_12 
REMARK    4  A    between atoms: C7_12  and  C8_13 
ROOT
HETATM    1  C5  UNL     1      29.994  15.781  -1.322  1.00  0.00     0.151 C 
HETATM    2  N2  UNL     1      30.378  16.222  -2.512  1.00  0.00    -0.274 N 
ATOM      3  H2  UNL     1      31.174  16.858  -2.565  1.00  0.00     0.180 HD
HETATM    4  C6  UNL     1      29.746  15.857  -3.681  1.00  0.00     0.183 C 
HETATM    5  N3  UNL     1      29.198  15.558  -4.658  1.00  0.00    -0.172 NA
ENDROOT
BRANCH   1   6
HETATM    6  N1  UNL     1      30.793  16.291  -0.268  1.00  0.00    -0.357 N 
HETATM    7  C4  UNL     1      30.263  17.450   0.420  1.00  0.00     0.126 C 
HETATM    8  C3  UNL     1      31.224  18.102   1.355  1.00  0.00     0.024 C 
HETATM    9  C2  UNL     1      32.610  17.932   0.717  1.00  0.00    -0.015 C 
HETATM   10  C1  UNL     1      33.613  18.881   1.330  1.00  0.00     0.010 C 
HETATM   11  C15 UNL     1      32.976  16.494   0.886  1.00  0.00     0.029 C 
HETATM   12  C13 UNL     1      32.043  15.664   0.035  1.00  0.00     0.082 C 
HETATM   13  C14 UNL     1      32.813  15.261  -1.207  1.00  0.00     0.032 C 
ENDBRANCH   1   6
BRANCH   1  14
HETATM   14  S1  UNL     1      28.641  14.701  -1.260  1.00  0.00    -0.091 SA
BRANCH  14  15
HETATM   15  C7  UNL     1      27.005  15.353  -1.233  1.00  0.00     0.116 C 
BRANCH  15  16
HETATM   16  C8  UNL     1      26.311  15.323   0.072  1.00  0.00     0.158 C 
HETATM   17  C9  UNL     1      27.294  15.406   1.255  1.00  0.00     0.204 C 
HETATM   18  O1  UNL     1      26.422  15.066   2.296  1.00  0.00    -0.353 OA
HETATM   19  C10 UNL     1      25.495  14.181   1.780  1.00  0.00     0.157 C 
HETATM   20  C11 UNL     1      25.673  12.854   2.468  1.00  0.00     0.078 C 
HETATM   21  C12 UNL     1      24.070  14.637   1.994  1.00  0.00     0.078 C 
HETATM   22  O2  UNL     1      25.698  14.123   0.397  1.00  0.00    -0.348 OA
ENDBRANCH  15  16
ENDBRANCH  14  15
ENDBRANCH   1  14
TORSDOF 4
ENDMDL
