MODEL 1
REMARK VINA RESULT: -7.495046774      0.000      0.000
REMARK  12 active torsions:
REMARK  status: ('A' for Active; 'I' for Inactive)
REMARK    1  A    between atoms: O1_2  and  C2_3 
REMARK       I    between atoms: C2_3  and  N1_5 
REMARK    2  A    between atoms: N1_5  and  C3_7 
REMARK    3  A    between atoms: C3_7  and  C4_8 
REMARK    4  A    between atoms: C3_7  and  C6_11 
REMARK    5  A    between atoms: C6_11  and  O4_12 
REMARK    6  A    between atoms: C6_11  and  C7_14 
REMARK    7  A    between atoms: C7_14  and  O5_15 
REMARK    8  A    between atoms: C7_14  and  C8_17 
REMARK    9  A    between atoms: C8_17  and  C11_20 
REMARK   10  A    between atoms: C13_23  and  O7_24 
REMARK   11  A    between atoms: C13_23  and  C14_26 
REMARK   12  A    between atoms: C14_26  and  O8_27 
ROOT
HETATM    1  C7  UNL     1     -13.101  -8.411  15.465  1.00  0.00     0.161 C 
ENDROOT
BRANCH   1   2
HETATM    2  C6  UNL     1     -12.036  -7.432  15.452  1.00  0.00     0.177 C 
BRANCH   2   3
HETATM    3  C3  UNL     1     -10.825  -7.530  14.614  1.00  0.00     0.187 C 
BRANCH   3   4
HETATM    4  N1  UNL     1     -11.346  -7.024  13.315  1.00  0.00    -0.323 N 
HETATM    5  C2  UNL     1     -10.676  -6.089  12.518  1.00  0.00     0.360 C 
HETATM    6  O2  UNL     1      -9.554  -5.653  12.945  1.00  0.00    -0.239 OA
ATOM      7  H1  UNL     1     -12.243  -7.380  12.987  1.00  0.00     0.165 HD
BRANCH   5   8
HETATM    8  O1  UNL     1     -11.114  -5.598  11.324  1.00  0.00    -0.309 OA
HETATM    9  C1  UNL     1     -11.102  -6.348  10.103  1.00  0.00     0.215 C 
ENDBRANCH   5   8
ENDBRANCH   3   4
BRANCH   3  10
HETATM   10  C4  UNL     1     -10.244  -8.819  14.298  1.00  0.00     0.148 C 
HETATM   11  C5  UNL     1     -10.226  -9.525  12.997  1.00  0.00     0.093 C 
HETATM   12  O3  UNL     1      -9.676  -9.482  15.165  1.00  0.00    -0.296 OA
ENDBRANCH   3  10
ENDBRANCH   2   3
BRANCH   2  13
HETATM   13  O4  UNL     1     -11.533  -7.371  16.788  1.00  0.00    -0.390 OA
ATOM     14  H4  UNL     1     -12.302  -7.494  17.333  1.00  0.00     0.210 HD
ENDBRANCH   2  13
ENDBRANCH   1   2
BRANCH   1  15
HETATM   15  O5  UNL     1     -12.835  -9.647  16.041  1.00  0.00    -0.392 OA
ATOM     16  H5  UNL     1     -13.558 -10.109  16.449  1.00  0.00     0.210 HD
ENDBRANCH   1  15
BRANCH   1  17
HETATM   17  C8  UNL     1     -14.517  -7.950  15.720  1.00  0.00     0.031 C 
HETATM   18  C9  UNL     1     -15.087  -7.120  14.579  1.00  0.00     0.022 C 
HETATM   19  C10 UNL     1     -14.718  -7.146  16.959  1.00  0.00     0.022 C 
BRANCH  17  20
HETATM   20  C11 UNL     1     -15.350  -9.213  15.799  1.00  0.00     0.279 C 
HETATM   21  O6  UNL     1     -16.031  -9.354  17.000  1.00  0.00    -0.356 OA
HETATM   22  C12 UNL     1     -16.392 -10.679  17.187  1.00  0.00     0.221 C 
HETATM   23  C13 UNL     1     -17.137 -11.255  16.008  1.00  0.00     0.188 C 
HETATM   24  C15 UNL     1     -17.274 -10.278  14.899  1.00  0.00     0.300 C 
HETATM   25  O9  UNL     1     -18.263 -10.371  14.132  1.00  0.00    -0.262 OA
HETATM   26  O10 UNL     1     -16.297  -9.300  14.759  1.00  0.00    -0.286 OA
BRANCH  23  27
HETATM   27  O7  UNL     1     -18.410 -11.681  16.452  1.00  0.00    -0.376 OA
ATOM     28  H7  UNL     1     -19.030 -10.978  16.298  1.00  0.00     0.211 HD
ENDBRANCH  23  27
BRANCH  23  29
HETATM   29  C14 UNL     1     -16.409 -12.506  15.502  1.00  0.00     0.215 C 
BRANCH  29  30
HETATM   30  O8  UNL     1     -16.008 -12.359  14.193  1.00  0.00    -0.397 OA
ATOM     31  H8  UNL     1     -16.609 -11.808  13.705  1.00  0.00     0.209 HD
ENDBRANCH  29  30
ENDBRANCH  23  29
ENDBRANCH  17  20
ENDBRANCH   1  17
TORSDOF 12
ENDMDL
MODEL 2
REMARK VINA RESULT: -7.493346311      2.410      7.003
REMARK  12 active torsions:
REMARK  status: ('A' for Active; 'I' for Inactive)
REMARK    1  A    between atoms: O1_2  and  C2_3 
REMARK       I    between atoms: C2_3  and  N1_5 
REMARK    2  A    between atoms: N1_5  and  C3_7 
REMARK    3  A    between atoms: C3_7  and  C4_8 
REMARK    4  A    between atoms: C3_7  and  C6_11 
REMARK    5  A    between atoms: C6_11  and  O4_12 
REMARK    6  A    between atoms: C6_11  and  C7_14 
REMARK    7  A    between atoms: C7_14  and  O5_15 
REMARK    8  A    between atoms: C7_14  and  C8_17 
REMARK    9  A    between atoms: C8_17  and  C11_20 
REMARK   10  A    between atoms: C13_23  and  O7_24 
REMARK   11  A    between atoms: C13_23  and  C14_26 
REMARK   12  A    between atoms: C14_26  and  O8_27 
ROOT
HETATM    1  C7  UNL     1     -14.455  -8.986  16.459  1.00  0.00     0.161 C 
ENDROOT
BRANCH   1   2
HETATM    2  C6  UNL     1     -15.095 -10.130  15.847  1.00  0.00     0.177 C 
BRANCH   2   3
HETATM    3  C3  UNL     1     -16.430 -10.637  16.220  1.00  0.00     0.187 C 
BRANCH   3   4
HETATM    4  N1  UNL     1     -16.408 -10.417  17.692  1.00  0.00    -0.323 N 
HETATM    5  C2  UNL     1     -17.242  -9.511  18.357  1.00  0.00     0.360 C 
HETATM    6  O2  UNL     1     -18.063  -8.841  17.646  1.00  0.00    -0.239 OA
ATOM      7  H1  UNL     1     -15.746 -10.959  18.248  1.00  0.00     0.165 HD
BRANCH   5   8
HETATM    8  O1  UNL     1     -17.256  -9.277  19.700  1.00  0.00    -0.309 OA
HETATM    9  C1  UNL     1     -18.455  -9.219  20.483  1.00  0.00     0.215 C 
ENDBRANCH   5   8
ENDBRANCH   3   4
BRANCH   3  10
HETATM   10  C4  UNL     1     -16.761 -12.039  16.065  1.00  0.00     0.148 C 
HETATM   11  C5  UNL     1     -17.620 -12.882  16.926  1.00  0.00     0.093 C 
HETATM   12  O3  UNL     1     -16.309 -12.690  15.124  1.00  0.00    -0.296 OA
ENDBRANCH   3  10
ENDBRANCH   2   3
BRANCH   2  13
HETATM   13  O4  UNL     1     -14.224 -11.242  16.069  1.00  0.00    -0.390 OA
ATOM     14  H4  UNL     1     -14.812 -11.971  16.228  1.00  0.00     0.210 HD
ENDBRANCH   2  13
ENDBRANCH   1   2
BRANCH   1  15
HETATM   15  O5  UNL     1     -13.425  -9.229  17.360  1.00  0.00    -0.392 OA
ATOM     16  H5  UNL     1     -12.534  -9.095  17.058  1.00  0.00     0.210 HD
ENDBRANCH   1  15
BRANCH   1  17
HETATM   17  C8  UNL     1     -14.212  -7.749  15.627  1.00  0.00     0.031 C 
HETATM   18  C9  UNL     1     -13.970  -6.504  16.468  1.00  0.00     0.022 C 
HETATM   19  C10 UNL     1     -15.297  -7.398  14.667  1.00  0.00     0.022 C 
BRANCH  17  20
HETATM   20  C11 UNL     1     -12.931  -8.015  14.863  1.00  0.00     0.279 C 
HETATM   21  O6  UNL     1     -11.825  -7.367  15.392  1.00  0.00    -0.356 OA
HETATM   22  C12 UNL     1     -10.824  -7.282  14.437  1.00  0.00     0.221 C 
HETATM   23  C13 UNL     1     -10.492  -8.617  13.816  1.00  0.00     0.188 C 
HETATM   24  C15 UNL     1     -11.348  -9.709  14.344  1.00  0.00     0.300 C 
HETATM   25  O9  UNL     1     -10.887 -10.877  14.371  1.00  0.00    -0.262 OA
HETATM   26  O10 UNL     1     -12.625  -9.389  14.788  1.00  0.00    -0.286 OA
BRANCH  23  27
HETATM   27  O7  UNL     1      -9.128  -8.894  14.063  1.00  0.00    -0.376 OA
ATOM     28  H7  UNL     1      -8.605  -8.397  13.444  1.00  0.00     0.211 HD
ENDBRANCH  23  27
BRANCH  23  29
HETATM   29  C14 UNL     1     -10.654  -8.531  12.294  1.00  0.00     0.215 C 
BRANCH  29  30
HETATM   30  O8  UNL     1     -10.658  -9.781  11.716  1.00  0.00    -0.397 OA
ATOM     31  H8  UNL     1      -9.804 -10.193  11.775  1.00  0.00     0.209 HD
ENDBRANCH  29  30
ENDBRANCH  23  29
ENDBRANCH  17  20
ENDBRANCH   1  17
TORSDOF 12
ENDMDL
MODEL 3
REMARK VINA RESULT: -7.392580990      2.375      6.579
REMARK  12 active torsions:
REMARK  status: ('A' for Active; 'I' for Inactive)
REMARK    1  A    between atoms: O1_2  and  C2_3 
REMARK       I    between atoms: C2_3  and  N1_5 
REMARK    2  A    between atoms: N1_5  and  C3_7 
REMARK    3  A    between atoms: C3_7  and  C4_8 
REMARK    4  A    between atoms: C3_7  and  C6_11 
REMARK    5  A    between atoms: C6_11  and  O4_12 
REMARK    6  A    between atoms: C6_11  and  C7_14 
REMARK    7  A    between atoms: C7_14  and  O5_15 
REMARK    8  A    between atoms: C7_14  and  C8_17 
REMARK    9  A    between atoms: C8_17  and  C11_20 
REMARK   10  A    between atoms: C13_23  and  O7_24 
REMARK   11  A    between atoms: C13_23  and  C14_26 
REMARK   12  A    between atoms: C14_26  and  O8_27 
ROOT
HETATM    1  C7  UNL     1     -14.504  -6.826  15.646  1.00  0.00     0.161 C 
ENDROOT
BRANCH   1   2
HETATM    2  C6  UNL     1     -15.868  -6.848  16.127  1.00  0.00     0.177 C 
BRANCH   2   3
HETATM    3  C3  UNL     1     -17.045  -7.130  15.283  1.00  0.00     0.187 C 
BRANCH   3   4
HETATM    4  N1  UNL     1     -16.618  -8.396  14.627  1.00  0.00    -0.323 N 
HETATM    5  C2  UNL     1     -17.069  -9.663  15.011  1.00  0.00     0.360 C 
HETATM    6  O2  UNL     1     -17.894  -9.720  15.984  1.00  0.00    -0.239 OA
ATOM      7  H1  UNL     1     -15.957  -8.335  13.852  1.00  0.00     0.165 HD
BRANCH   5   8
HETATM    8  O1  UNL     1     -16.706 -10.847  14.441  1.00  0.00    -0.309 OA
HETATM    9  C1  UNL     1     -15.795 -11.774  15.046  1.00  0.00     0.215 C 
ENDBRANCH   5   8
ENDBRANCH   3   4
BRANCH   3  10
HETATM   10  C4  UNL     1     -17.399  -6.252  14.187  1.00  0.00     0.148 C 
HETATM   11  C5  UNL     1     -18.694  -6.142  13.477  1.00  0.00     0.093 C 
HETATM   12  O3  UNL     1     -16.576  -5.464  13.721  1.00  0.00    -0.296 OA
ENDBRANCH   3  10
ENDBRANCH   2   3
BRANCH   2  13
HETATM   13  O4  UNL     1     -16.124  -5.547  16.661  1.00  0.00    -0.390 OA
ATOM     14  H4  UNL     1     -15.289  -5.099  16.594  1.00  0.00     0.210 HD
ENDBRANCH   2  13
ENDBRANCH   1   2
BRANCH   1  15
HETATM   15  O5  UNL     1     -14.000  -5.614  15.188  1.00  0.00    -0.392 OA
ATOM     16  H5  UNL     1     -13.483  -5.624  14.391  1.00  0.00     0.210 HD
ENDBRANCH   1  15
BRANCH   1  17
HETATM   17  C8  UNL     1     -13.459  -7.650  16.362  1.00  0.00     0.031 C 
HETATM   18  C9  UNL     1     -13.998  -8.978  16.874  1.00  0.00     0.022 C 
HETATM   19  C10 UNL     1     -12.810  -6.988  17.529  1.00  0.00     0.022 C 
BRANCH  17  20
HETATM   20  C11 UNL     1     -12.410  -7.976  15.320  1.00  0.00     0.279 C 
HETATM   21  O6  UNL     1     -11.182  -7.378  15.563  1.00  0.00    -0.356 OA
HETATM   22  C12 UNL     1     -10.434  -7.342  14.397  1.00  0.00     0.221 C 
HETATM   23  C13 UNL     1     -10.318  -8.692  13.733  1.00  0.00     0.188 C 
HETATM   24  C15 UNL     1     -11.071  -9.743  14.463  1.00  0.00     0.300 C 
HETATM   25  O9  UNL     1     -10.670 -10.930  14.395  1.00  0.00    -0.262 OA
HETATM   26  O10 UNL     1     -12.191  -9.363  15.193  1.00  0.00    -0.286 OA
BRANCH  23  27
HETATM   27  O7  UNL     1      -8.948  -9.031  13.652  1.00  0.00    -0.376 OA
ATOM     28  H7  UNL     1      -8.880  -9.966  13.494  1.00  0.00     0.211 HD
ENDBRANCH  23  27
BRANCH  23  29
HETATM   29  C14 UNL     1     -10.833  -8.602  12.291  1.00  0.00     0.215 C 
BRANCH  29  30
HETATM   30  O8  UNL     1     -10.649  -9.788  11.616  1.00  0.00    -0.397 OA
ATOM     31  H8  UNL     1     -10.768  -9.677  10.680  1.00  0.00     0.209 HD
ENDBRANCH  29  30
ENDBRANCH  23  29
ENDBRANCH  17  20
ENDBRANCH   1  17
TORSDOF 12
ENDMDL
MODEL 4
REMARK VINA RESULT: -7.275087364      2.408      7.197
REMARK  12 active torsions:
REMARK  status: ('A' for Active; 'I' for Inactive)
REMARK    1  A    between atoms: O1_2  and  C2_3 
REMARK       I    between atoms: C2_3  and  N1_5 
REMARK    2  A    between atoms: N1_5  and  C3_7 
REMARK    3  A    between atoms: C3_7  and  C4_8 
REMARK    4  A    between atoms: C3_7  and  C6_11 
REMARK    5  A    between atoms: C6_11  and  O4_12 
REMARK    6  A    between atoms: C6_11  and  C7_14 
REMARK    7  A    between atoms: C7_14  and  O5_15 
REMARK    8  A    between atoms: C7_14  and  C8_17 
REMARK    9  A    between atoms: C8_17  and  C11_20 
REMARK   10  A    between atoms: C13_23  and  O7_24 
REMARK   11  A    between atoms: C13_23  and  C14_26 
REMARK   12  A    between atoms: C14_26  and  O8_27 
ROOT
HETATM    1  C7  UNL     1     -14.501  -9.036  16.459  1.00  0.00     0.161 C 
ENDROOT
BRANCH   1   2
HETATM    2  C6  UNL     1     -15.190 -10.154  15.854  1.00  0.00     0.177 C 
BRANCH   2   3
HETATM    3  C3  UNL     1     -16.496 -10.673  16.305  1.00  0.00     0.187 C 
BRANCH   3   4
HETATM    4  N1  UNL     1     -16.507 -12.006  15.645  1.00  0.00    -0.323 N 
HETATM    5  C2  UNL     1     -17.181 -13.122  16.154  1.00  0.00     0.360 C 
HETATM    6  O2  UNL     1     -17.817 -12.971  17.250  1.00  0.00    -0.239 OA
ATOM      7  H1  UNL     1     -15.994 -12.113  14.770  1.00  0.00     0.165 HD
BRANCH   5   8
HETATM    8  O1  UNL     1     -17.219 -14.361  15.586  1.00  0.00    -0.309 OA
HETATM    9  C1  UNL     1     -17.574 -15.552  16.299  1.00  0.00     0.215 C 
ENDBRANCH   5   8
ENDBRANCH   3   4
BRANCH   3  10
HETATM   10  C4  UNL     1     -17.730 -10.044  15.879  1.00  0.00     0.148 C 
HETATM   11  C5  UNL     1     -18.197  -9.774  14.501  1.00  0.00     0.093 C 
HETATM   12  O3  UNL     1     -18.552  -9.649  16.706  1.00  0.00    -0.296 OA
ENDBRANCH   3  10
ENDBRANCH   2   3
BRANCH   2  13
HETATM   13  O4  UNL     1     -14.310 -11.275  15.968  1.00  0.00    -0.390 OA
ATOM     14  H4  UNL     1     -13.705 -11.171  15.243  1.00  0.00     0.210 HD
ENDBRANCH   2  13
ENDBRANCH   1   2
BRANCH   1  15
HETATM   15  O5  UNL     1     -13.446  -9.317  17.320  1.00  0.00    -0.392 OA
ATOM     16  H5  UNL     1     -13.142  -8.618  17.887  1.00  0.00     0.210 HD
ENDBRANCH   1  15
BRANCH   1  17
HETATM   17  C8  UNL     1     -14.258  -7.791  15.638  1.00  0.00     0.031 C 
HETATM   18  C9  UNL     1     -14.015  -6.555  16.490  1.00  0.00     0.022 C 
HETATM   19  C10 UNL     1     -15.344  -7.431  14.683  1.00  0.00     0.022 C 
BRANCH  17  20
HETATM   20  C11 UNL     1     -12.979  -8.052  14.870  1.00  0.00     0.279 C 
HETATM   21  O6  UNL     1     -11.874  -7.397  15.394  1.00  0.00    -0.356 OA
HETATM   22  C12 UNL     1     -10.877  -7.308  14.435  1.00  0.00     0.221 C 
HETATM   23  C13 UNL     1     -10.540  -8.642  13.815  1.00  0.00     0.188 C 
HETATM   24  C15 UNL     1     -11.388  -9.739  14.348  1.00  0.00     0.300 C 
HETATM   25  O9  UNL     1     -10.922 -10.903  14.374  1.00  0.00    -0.262 OA
HETATM   26  O10 UNL     1     -12.666  -9.424  14.795  1.00  0.00    -0.286 OA
BRANCH  23  27
HETATM   27  O7  UNL     1      -9.174  -8.912  14.057  1.00  0.00    -0.376 OA
ATOM     28  H7  UNL     1      -8.843  -9.443  13.342  1.00  0.00     0.211 HD
ENDBRANCH  23  27
BRANCH  23  29
HETATM   29  C14 UNL     1     -10.707  -8.559  12.293  1.00  0.00     0.215 C 
BRANCH  29  30
HETATM   30  O8  UNL     1     -10.613  -9.801  11.708  1.00  0.00    -0.397 OA
ATOM     31  H8  UNL     1      -9.908  -9.832  11.071  1.00  0.00     0.209 HD
ENDBRANCH  29  30
ENDBRANCH  23  29
ENDBRANCH  17  20
ENDBRANCH   1  17
TORSDOF 12
ENDMDL
MODEL 5
REMARK VINA RESULT: -7.259430545      2.333      6.802
REMARK  12 active torsions:
REMARK  status: ('A' for Active; 'I' for Inactive)
REMARK    1  A    between atoms: O1_2  and  C2_3 
REMARK       I    between atoms: C2_3  and  N1_5 
REMARK    2  A    between atoms: N1_5  and  C3_7 
REMARK    3  A    between atoms: C3_7  and  C4_8 
REMARK    4  A    between atoms: C3_7  and  C6_11 
REMARK    5  A    between atoms: C6_11  and  O4_12 
REMARK    6  A    between atoms: C6_11  and  C7_14 
REMARK    7  A    between atoms: C7_14  and  O5_15 
REMARK    8  A    between atoms: C7_14  and  C8_17 
REMARK    9  A    between atoms: C8_17  and  C11_20 
REMARK   10  A    between atoms: C13_23  and  O7_24 
REMARK   11  A    between atoms: C13_23  and  C14_26 
REMARK   12  A    between atoms: C14_26  and  O8_27 
ROOT
HETATM    1  C7  UNL     1     -14.475  -8.961  16.492  1.00  0.00     0.161 C 
ENDROOT
BRANCH   1   2
HETATM    2  C6  UNL     1     -15.196 -10.082  15.928  1.00  0.00     0.177 C 
BRANCH   2   3
HETATM    3  C3  UNL     1     -16.490 -10.580  16.434  1.00  0.00     0.187 C 
BRANCH   3   4
HETATM    4  N1  UNL     1     -17.238 -10.750  15.159  1.00  0.00    -0.323 N 
HETATM    5  C2  UNL     1     -17.357 -11.969  14.482  1.00  0.00     0.360 C 
HETATM    6  O2  UNL     1     -16.783 -12.984  15.001  1.00  0.00    -0.239 OA
ATOM      7  H1  UNL     1     -17.691  -9.930  14.756  1.00  0.00     0.165 HD
BRANCH   5   8
HETATM    8  O1  UNL     1     -18.031 -12.172  13.315  1.00  0.00    -0.309 OA
HETATM    9  C1  UNL     1     -19.459 -12.146  13.207  1.00  0.00     0.215 C 
ENDBRANCH   5   8
ENDBRANCH   3   4
BRANCH   3  10
HETATM   10  C4  UNL     1     -17.341  -9.737  17.249  1.00  0.00     0.148 C 
HETATM   11  C5  UNL     1     -18.175  -8.590  16.825  1.00  0.00     0.093 C 
HETATM   12  O3  UNL     1     -17.440  -9.927  18.460  1.00  0.00    -0.296 OA
ENDBRANCH   3  10
ENDBRANCH   2   3
BRANCH   2  13
HETATM   13  O4  UNL     1     -14.323 -11.210  16.027  1.00  0.00    -0.390 OA
ATOM     14  H4  UNL     1     -13.568 -10.879  16.499  1.00  0.00     0.210 HD
ENDBRANCH   2  13
ENDBRANCH   1   2
BRANCH   1  15
HETATM   15  O5  UNL     1     -13.399  -9.241  17.326  1.00  0.00    -0.392 OA
ATOM     16  H5  UNL     1     -13.526  -9.131  18.262  1.00  0.00     0.210 HD
ENDBRANCH   1  15
BRANCH   1  17
HETATM   17  C8  UNL     1     -14.239  -7.737  15.639  1.00  0.00     0.031 C 
HETATM   18  C9  UNL     1     -13.989  -6.480  16.460  1.00  0.00     0.022 C 
HETATM   19  C10 UNL     1     -15.333  -7.399  14.685  1.00  0.00     0.022 C 
BRANCH  17  20
HETATM   20  C11 UNL     1     -12.966  -8.015  14.867  1.00  0.00     0.279 C 
HETATM   21  O6  UNL     1     -11.852  -7.368  15.383  1.00  0.00    -0.356 OA
HETATM   22  C12 UNL     1     -10.858  -7.295  14.420  1.00  0.00     0.221 C 
HETATM   23  C13 UNL     1     -10.537  -8.636  13.806  1.00  0.00     0.188 C 
HETATM   24  C15 UNL     1     -11.395  -9.721  14.348  1.00  0.00     0.300 C 
HETATM   25  O9  UNL     1     -10.940 -10.890  14.379  1.00  0.00    -0.262 OA
HETATM   26  O10 UNL     1     -12.667  -9.391  14.799  1.00  0.00    -0.286 OA
BRANCH  23  27
HETATM   27  O7  UNL     1      -9.173  -8.919  14.044  1.00  0.00    -0.376 OA
ATOM     28  H7  UNL     1      -8.899  -9.598  13.439  1.00  0.00     0.211 HD
ENDBRANCH  23  27
BRANCH  23  29
HETATM   29  C14 UNL     1     -10.710  -8.559  12.284  1.00  0.00     0.215 C 
BRANCH  29  30
HETATM   30  O8  UNL     1     -10.612  -9.804  11.704  1.00  0.00    -0.397 OA
ATOM     31  H8  UNL     1     -11.217 -10.421  12.100  1.00  0.00     0.209 HD
ENDBRANCH  29  30
ENDBRANCH  23  29
ENDBRANCH  17  20
ENDBRANCH   1  17
TORSDOF 12
ENDMDL
