MODEL 1
REMARK VINA RESULT: -7.342168786      0.000      0.000
REMARK  5 active torsions:
REMARK  status: ('A' for Active; 'I' for Inactive)
REMARK    1  A    between atoms: N1_7  and  C7_8 
REMARK    2  A    between atoms: C7_8  and  C8_9 
REMARK    3  A    between atoms: C8_9  and  C9_10 
REMARK    4  A    between atoms: C9_10  and  N2_11 
REMARK    5  A    between atoms: C10_16  and  N5_17 
ROOT
HETATM    1  N2  UNL     1      46.338  35.328  17.210  1.00  0.00    -0.205 N 
HETATM    2  N3  UNL     1      47.610  35.646  17.400  1.00  0.00    -0.211 N 
ATOM      3  H3  UNL     1      47.957  36.167  18.205  1.00  0.00     0.210 HD
HETATM    4  N4  UNL     1      48.364  35.210  16.430  1.00  0.00    -0.115 N 
ATOM      5  H4  UNL     1      49.374  35.329  16.349  1.00  0.00     0.207 HD
HETATM    6  C10 UNL     1      47.558  34.573  15.550  1.00  0.00     0.707 A 
HETATM    7  N6  UNL     1      46.319  34.666  16.064  1.00  0.00    -0.113 N 
ATOM      8  H6  UNL     1      45.481  34.280  15.631  1.00  0.00     0.207 HD
ENDROOT
BRANCH   1   9
HETATM    9  C9  UNL     1      45.216  35.628  18.049  1.00  0.00     0.173 C 
BRANCH   9  10
HETATM   10  C8  UNL     1      45.431  35.153  19.492  1.00  0.00     0.044 C 
BRANCH  10  11
HETATM   11  C7  UNL     1      44.962  33.727  19.545  1.00  0.00     0.130 C 
BRANCH  11  12
HETATM   12  N1  UNL     1      45.978  32.762  19.791  1.00  0.00    -0.360 N 
HETATM   13  C2  UNL     1      46.021  32.125  20.967  1.00  0.00     0.007 A 
HETATM   14  C1  UNL     1      45.020  32.381  22.045  1.00  0.00     0.068 C 
HETATM   15  C3  UNL     1      46.995  31.189  21.243  1.00  0.00     0.025 A 
HETATM   16  C4  UNL     1      47.942  30.907  20.282  1.00  0.00     0.003 A 
HETATM   17  C5  UNL     1      47.910  31.545  19.085  1.00  0.00     0.017 A 
HETATM   18  C6  UNL     1      46.904  32.477  18.868  1.00  0.00     0.091 A 
ENDBRANCH  11  12
ENDBRANCH  10  11
ENDBRANCH   9  10
ENDBRANCH   1   9
BRANCH   6  19
HETATM   19  N5  UNL     1      47.916  34.001  14.454  1.00  0.00    -0.232 N 
ATOM     20  H52 UNL     1      48.722  34.221  13.869  1.00  0.00     0.174 HD
ATOM     21  H51 UNL     1      47.445  33.225  13.989  1.00  0.00     0.174 HD
ENDBRANCH   6  19
TORSDOF 5
ENDMDL
MODEL 2
REMARK VINA RESULT: -7.188355590      4.534      6.443
REMARK  5 active torsions:
REMARK  status: ('A' for Active; 'I' for Inactive)
REMARK    1  A    between atoms: N1_7  and  C7_8 
REMARK    2  A    between atoms: C7_8  and  C8_9 
REMARK    3  A    between atoms: C8_9  and  C9_10 
REMARK    4  A    between atoms: C9_10  and  N2_11 
REMARK    5  A    between atoms: C10_16  and  N5_17 
ROOT
HETATM    1  N2  UNL     1      48.552  38.455  22.232  1.00  0.00    -0.205 N 
HETATM    2  N3  UNL     1      48.893  39.330  23.167  1.00  0.00    -0.211 N 
ATOM      3  H3  UNL     1      49.811  39.769  23.235  1.00  0.00     0.210 HD
HETATM    4  N4  UNL     1      47.909  39.559  23.991  1.00  0.00    -0.115 N 
ATOM      5  H4  UNL     1      47.925  40.192  24.790  1.00  0.00     0.207 HD
HETATM    6  C10 UNL     1      46.863  38.802  23.588  1.00  0.00     0.707 A 
HETATM    7  N6  UNL     1      47.297  38.136  22.503  1.00  0.00    -0.113 N 
ATOM      8  H6  UNL     1      46.736  37.478  21.964  1.00  0.00     0.207 HD
ENDROOT
BRANCH   1   9
HETATM    9  C9  UNL     1      49.354  37.952  21.156  1.00  0.00     0.173 C 
BRANCH   9  10
HETATM   10  C8  UNL     1      49.174  36.442  20.958  1.00  0.00     0.044 C 
BRANCH  10  11
HETATM   11  C7  UNL     1      48.738  36.248  19.533  1.00  0.00     0.130 C 
BRANCH  11  12
HETATM   12  N1  UNL     1      47.390  35.825  19.363  1.00  0.00    -0.360 N 
HETATM   13  C2  UNL     1      46.903  35.637  18.132  1.00  0.00     0.007 A 
HETATM   14  C1  UNL     1      47.733  35.845  16.908  1.00  0.00     0.068 C 
HETATM   15  C3  UNL     1      45.600  35.233  17.927  1.00  0.00     0.025 A 
HETATM   16  C4  UNL     1      44.788  35.019  19.020  1.00  0.00     0.003 A 
HETATM   17  C5  UNL     1      45.270  35.205  20.275  1.00  0.00     0.017 A 
HETATM   18  C6  UNL     1      46.590  35.613  20.415  1.00  0.00     0.091 A 
ENDBRANCH  11  12
ENDBRANCH  10  11
ENDBRANCH   9  10
ENDBRANCH   1   9
BRANCH   6  19
HETATM   19  N5  UNL     1      45.701  38.741  24.139  1.00  0.00    -0.232 N 
ATOM     20  H52 UNL     1      45.439  38.253  24.995  1.00  0.00     0.174 HD
ATOM     21  H51 UNL     1      44.844  39.180  23.802  1.00  0.00     0.174 HD
ENDBRANCH   6  19
TORSDOF 5
ENDMDL
MODEL 3
REMARK VINA RESULT: -7.170097757      4.377      6.109
REMARK  5 active torsions:
REMARK  status: ('A' for Active; 'I' for Inactive)
REMARK    1  A    between atoms: N1_7  and  C7_8 
REMARK    2  A    between atoms: C7_8  and  C8_9 
REMARK    3  A    between atoms: C8_9  and  C9_10 
REMARK    4  A    between atoms: C9_10  and  N2_11 
REMARK    5  A    between atoms: C10_16  and  N5_17 
ROOT
HETATM    1  N2  UNL     1      49.884  38.893  20.339  1.00  0.00    -0.205 N 
HETATM    2  N3  UNL     1      49.868  39.525  19.175  1.00  0.00    -0.211 N 
ATOM      3  H3  UNL     1      49.889  39.059  18.268  1.00  0.00     0.210 HD
HETATM    4  N4  UNL     1      49.821  40.819  19.331  1.00  0.00    -0.115 N 
ATOM      5  H4  UNL     1      49.799  41.517  18.588  1.00  0.00     0.207 HD
HETATM    6  C10 UNL     1      49.806  41.061  20.662  1.00  0.00     0.707 A 
HETATM    7  N6  UNL     1      49.847  39.853  21.250  1.00  0.00    -0.113 N 
ATOM      8  H6  UNL     1      49.848  39.697  22.257  1.00  0.00     0.207 HD
ENDROOT
BRANCH   1   9
HETATM    9  C9  UNL     1      49.933  37.481  20.579  1.00  0.00     0.173 C 
BRANCH   9  10
HETATM   10  C8  UNL     1      48.579  36.927  21.039  1.00  0.00     0.044 C 
BRANCH  10  11
HETATM   11  C7  UNL     1      48.317  35.700  20.212  1.00  0.00     0.130 C 
BRANCH  11  12
HETATM   12  N1  UNL     1      47.002  35.597  19.679  1.00  0.00    -0.360 N 
HETATM   13  C2  UNL     1      46.815  35.649  18.356  1.00  0.00     0.007 A 
HETATM   14  C1  UNL     1      47.950  35.800  17.398  1.00  0.00     0.068 C 
HETATM   15  C3  UNL     1      45.554  35.558  17.803  1.00  0.00     0.025 A 
HETATM   16  C4  UNL     1      44.468  35.411  18.638  1.00  0.00     0.003 A 
HETATM   17  C5  UNL     1      44.644  35.357  19.983  1.00  0.00     0.017 A 
HETATM   18  C6  UNL     1      45.937  35.453  20.477  1.00  0.00     0.091 A 
ENDBRANCH  11  12
ENDBRANCH  10  11
ENDBRANCH   9  10
ENDBRANCH   1   9
BRANCH   6  19
HETATM   19  N5  UNL     1      49.764  42.215  21.232  1.00  0.00    -0.232 N 
ATOM     20  H52 UNL     1      50.412  42.596  21.921  1.00  0.00     0.174 HD
ATOM     21  H51 UNL     1      49.065  42.942  21.083  1.00  0.00     0.174 HD
ENDBRANCH   6  19
TORSDOF 5
ENDMDL
MODEL 4
REMARK VINA RESULT: -7.131123293      2.272      4.427
REMARK  5 active torsions:
REMARK  status: ('A' for Active; 'I' for Inactive)
REMARK    1  A    between atoms: N1_7  and  C7_8 
REMARK    2  A    between atoms: C7_8  and  C8_9 
REMARK    3  A    between atoms: C8_9  and  C9_10 
REMARK    4  A    between atoms: C9_10  and  N2_11 
REMARK    5  A    between atoms: C10_16  and  N5_17 
ROOT
HETATM    1  N2  UNL     1      44.658  34.697  20.012  1.00  0.00    -0.205 N 
HETATM    2  N3  UNL     1      44.155  33.620  19.426  1.00  0.00    -0.211 N 
ATOM      3  H3  UNL     1      44.384  32.663  19.692  1.00  0.00     0.210 HD
HETATM    4  N4  UNL     1      43.331  33.936  18.467  1.00  0.00    -0.115 N 
ATOM      5  H4  UNL     1      42.819  33.285  17.871  1.00  0.00     0.207 HD
HETATM    6  C10 UNL     1      43.281  35.287  18.408  1.00  0.00     0.707 A 
HETATM    7  N6  UNL     1      44.111  35.720  19.374  1.00  0.00    -0.113 N 
ATOM      8  H6  UNL     1      44.293  36.700  19.586  1.00  0.00     0.207 HD
ENDROOT
BRANCH   1   9
HETATM    9  C9  UNL     1      45.590  34.760  21.098  1.00  0.00     0.173 C 
BRANCH   9  10
HETATM   10  C8  UNL     1      46.916  35.409  20.684  1.00  0.00     0.044 C 
BRANCH  10  11
HETATM   11  C7  UNL     1      47.695  34.355  19.948  1.00  0.00     0.130 C 
BRANCH  11  12
HETATM   12  N1  UNL     1      47.680  34.469  18.530  1.00  0.00    -0.360 N 
HETATM   13  C2  UNL     1      47.735  33.366  17.774  1.00  0.00     0.007 A 
HETATM   14  C1  UNL     1      47.800  31.998  18.369  1.00  0.00     0.068 C 
HETATM   15  C3  UNL     1      47.729  33.437  16.397  1.00  0.00     0.025 A 
HETATM   16  C4  UNL     1      47.664  34.674  15.792  1.00  0.00     0.003 A 
HETATM   17  C5  UNL     1      47.607  35.800  16.547  1.00  0.00     0.017 A 
HETATM   18  C6  UNL     1      47.616  35.662  17.929  1.00  0.00     0.091 A 
ENDBRANCH  11  12
ENDBRANCH  10  11
ENDBRANCH   9  10
ENDBRANCH   1   9
BRANCH   6  19
HETATM   19  N5  UNL     1      42.582  35.995  17.593  1.00  0.00    -0.232 N 
ATOM     20  H52 UNL     1      41.647  36.377  17.739  1.00  0.00     0.174 HD
ATOM     21  H51 UNL     1      42.855  36.293  16.657  1.00  0.00     0.174 HD
ENDBRANCH   6  19
TORSDOF 5
ENDMDL
MODEL 5
REMARK VINA RESULT: -7.099856057      2.161      4.257
REMARK  5 active torsions:
REMARK  status: ('A' for Active; 'I' for Inactive)
REMARK    1  A    between atoms: N1_7  and  C7_8 
REMARK    2  A    between atoms: C7_8  and  C8_9 
REMARK    3  A    between atoms: C8_9  and  C9_10 
REMARK    4  A    between atoms: C9_10  and  N2_11 
REMARK    5  A    between atoms: C10_16  and  N5_17 
ROOT
HETATM    1  N2  UNL     1      46.483  32.285  19.785  1.00  0.00    -0.205 N 
HETATM    2  N3  UNL     1      47.435  31.586  20.387  1.00  0.00    -0.211 N 
ATOM      3  H3  UNL     1      47.426  31.339  21.377  1.00  0.00     0.210 HD
HETATM    4  N4  UNL     1      48.384  31.254  19.558  1.00  0.00    -0.115 N 
ATOM      5  H4  UNL     1      49.222  30.717  19.782  1.00  0.00     0.207 HD
HETATM    6  C10 UNL     1      48.052  31.754  18.346  1.00  0.00     0.707 A 
HETATM    7  N6  UNL     1      46.876  32.382  18.525  1.00  0.00    -0.113 N 
ATOM      8  H6  UNL     1      46.359  32.866  17.792  1.00  0.00     0.207 HD
ENDROOT
BRANCH   1   9
HETATM    9  C9  UNL     1      45.285  32.824  20.357  1.00  0.00     0.173 C 
BRANCH   9  10
HETATM   10  C8  UNL     1      45.565  34.052  21.232  1.00  0.00     0.044 C 
BRANCH  10  11
HETATM   11  C7  UNL     1      45.215  35.255  20.404  1.00  0.00     0.130 C 
BRANCH  11  12
HETATM   12  N1  UNL     1      46.067  35.494  19.289  1.00  0.00    -0.360 N 
HETATM   13  C2  UNL     1      45.557  35.508  18.053  1.00  0.00     0.007 A 
HETATM   14  C1  UNL     1      44.102  35.293  17.791  1.00  0.00     0.068 C 
HETATM   15  C3  UNL     1      46.352  35.730  16.949  1.00  0.00     0.025 A 
HETATM   16  C4  UNL     1      47.702  35.941  17.129  1.00  0.00     0.003 A 
HETATM   17  C5  UNL     1      48.233  35.930  18.379  1.00  0.00     0.017 A 
HETATM   18  C6  UNL     1      47.379  35.701  19.449  1.00  0.00     0.091 A 
ENDBRANCH  11  12
ENDBRANCH  10  11
ENDBRANCH   9  10
ENDBRANCH   1   9
BRANCH   6  19
HETATM   19  N5  UNL     1      48.730  31.645  17.257  1.00  0.00    -0.232 N 
ATOM     20  H52 UNL     1      48.964  30.792  16.750  1.00  0.00     0.174 HD
ATOM     21  H51 UNL     1      49.146  32.405  16.720  1.00  0.00     0.174 HD
ENDBRANCH   6  19
TORSDOF 5
ENDMDL
