MODEL 1
REMARK VINA RESULT: -3.838436470      0.000      0.000
REMARK  0 active torsions:
REMARK  status: ('A' for Active; 'I' for Inactive)
ROOT
HETATM    1  C1  UNL     1      15.677  -1.953  11.568  1.00  0.00     0.044 C 
HETATM    2  C2  UNL     1      14.408  -2.634  11.170  1.00  0.00     0.141 C 
HETATM    3  C3  UNL     1      13.220  -1.762  11.455  1.00  0.00     0.003 C 
HETATM    4  C4  UNL     1      12.213  -2.591  11.753  1.00  0.00     0.003 C 
HETATM    5  C5  UNL     1      12.775  -3.949  11.651  1.00  0.00     0.141 C 
HETATM    6  C6  UNL     1      12.092  -4.974  12.475  1.00  0.00     0.044 C 
HETATM    7  O1  UNL     1      14.111  -3.747  11.977  1.00  0.00    -0.374 OA
ENDROOT
TORSDOF 0
ENDMDL
MODEL 2
REMARK VINA RESULT: -3.744696470      0.486      2.929
REMARK  0 active torsions:
REMARK  status: ('A' for Active; 'I' for Inactive)
ROOT
HETATM    1  C1  UNL     1      12.141  -5.031  12.232  1.00  0.00     0.044 C 
HETATM    2  C2  UNL     1      12.852  -3.741  12.487  1.00  0.00     0.141 C 
HETATM    3  C3  UNL     1      12.240  -2.626  11.690  1.00  0.00     0.003 C 
HETATM    4  C4  UNL     1      13.239  -1.783  11.404  1.00  0.00     0.003 C 
HETATM    5  C5  UNL     1      14.442  -2.373  12.017  1.00  0.00     0.141 C 
HETATM    6  C6  UNL     1      15.722  -1.992  11.375  1.00  0.00     0.044 C 
HETATM    7  O1  UNL     1      14.163  -3.734  11.978  1.00  0.00    -0.374 OA
ENDROOT
TORSDOF 0
ENDMDL
MODEL 3
REMARK VINA RESULT: -3.733988215      6.731      7.730
REMARK  0 active torsions:
REMARK  status: ('A' for Active; 'I' for Inactive)
ROOT
HETATM    1  C1  UNL     1       9.214  -2.497  16.752  1.00  0.00     0.044 C 
HETATM    2  C2  UNL     1       9.986  -1.255  17.060  1.00  0.00     0.141 C 
HETATM    3  C3  UNL     1       9.461  -0.592  18.300  1.00  0.00     0.003 C 
HETATM    4  C4  UNL     1       9.650   0.722  18.128  1.00  0.00     0.003 C 
HETATM    5  C5  UNL     1      10.281   0.860  16.804  1.00  0.00     0.141 C 
HETATM    6  C6  UNL     1      10.054   2.163  16.135  1.00  0.00     0.044 C 
HETATM    7  O1  UNL     1       9.775  -0.235  16.114  1.00  0.00    -0.374 OA
ENDROOT
TORSDOF 0
ENDMDL
MODEL 4
REMARK VINA RESULT: -3.687537471      1.837      2.731
REMARK  0 active torsions:
REMARK  status: ('A' for Active; 'I' for Inactive)
ROOT
HETATM    1  C1  UNL     1      11.896  -2.005  10.724  1.00  0.00     0.044 C 
HETATM    2  C2  UNL     1      12.567  -2.789  11.805  1.00  0.00     0.141 C 
HETATM    3  C3  UNL     1      12.316  -4.258  11.636  1.00  0.00     0.003 C 
HETATM    4  C4  UNL     1      12.294  -4.776  12.870  1.00  0.00     0.003 C 
HETATM    5  C5  UNL     1      12.528  -3.641  13.779  1.00  0.00     0.141 C 
HETATM    6  C6  UNL     1      11.977  -3.808  15.145  1.00  0.00     0.044 C 
HETATM    7  O1  UNL     1      11.992  -2.572  13.071  1.00  0.00    -0.374 OA
ENDROOT
TORSDOF 0
ENDMDL
MODEL 5
REMARK VINA RESULT: -3.664369980      1.994      3.043
REMARK  0 active torsions:
REMARK  status: ('A' for Active; 'I' for Inactive)
ROOT
HETATM    1  C1  UNL     1      11.468  -3.528  15.381  1.00  0.00     0.044 C 
HETATM    2  C2  UNL     1      12.323  -3.284  14.179  1.00  0.00     0.141 C 
HETATM    3  C3  UNL     1      11.972  -1.978  13.529  1.00  0.00     0.003 C 
HETATM    4  C4  UNL     1      12.197  -2.142  12.220  1.00  0.00     0.003 C 
HETATM    5  C5  UNL     1      12.678  -3.527  12.072  1.00  0.00     0.141 C 
HETATM    6  C6  UNL     1      12.433  -4.137  10.744  1.00  0.00     0.044 C 
HETATM    7  O1  UNL     1      12.050  -4.178  13.128  1.00  0.00    -0.374 OA
ENDROOT
TORSDOF 0
ENDMDL
