MODEL 1
REMARK VINA RESULT: -4.060087818      0.000      0.000
REMARK  0 active torsions:
REMARK  status: ('A' for Active; 'I' for Inactive)
ROOT
HETATM    1  C1  UNL     1      13.632  -4.718  14.219  1.00  0.00     0.044 C 
HETATM    2  C2  UNL     1      12.385  -4.347  13.412  1.00  0.00     0.146 A 
HETATM    3  C3  UNL     1      12.218  -2.877  13.470  1.00  0.00     0.005 A 
HETATM    4  C4  UNL     1      12.178  -2.162  12.359  1.00  0.00     0.000 A 
HETATM    5  C5  UNL     1      12.289  -2.760  11.050  1.00  0.00     0.024 A 
HETATM    6  C6  UNL     1      12.441  -4.087  10.958  1.00  0.00     0.135 A 
HETATM    7  O1  UNL     1      12.485  -4.834  12.102  1.00  0.00    -0.354 OA
ENDROOT
TORSDOF 0
ENDMDL
MODEL 2
REMARK VINA RESULT: -3.827994790      1.207      2.774
REMARK  0 active torsions:
REMARK  status: ('A' for Active; 'I' for Inactive)
ROOT
HETATM    1  C1  UNL     1      13.440  -1.211  12.112  1.00  0.00     0.044 C 
HETATM    2  C2  UNL     1      12.226  -2.144  12.155  1.00  0.00     0.146 A 
HETATM    3  C3  UNL     1      12.238  -2.972  10.927  1.00  0.00     0.005 A 
HETATM    4  C4  UNL     1      12.255  -4.291  11.008  1.00  0.00     0.000 A 
HETATM    5  C5  UNL     1      12.263  -4.989  12.273  1.00  0.00     0.024 A 
HETATM    6  C6  UNL     1      12.253  -4.273  13.404  1.00  0.00     0.135 A 
HETATM    7  O1  UNL     1      12.235  -2.909  13.329  1.00  0.00    -0.354 OA
ENDROOT
TORSDOF 0
ENDMDL
MODEL 3
REMARK VINA RESULT: -3.785913917      0.834      2.537
REMARK  0 active torsions:
REMARK  status: ('A' for Active; 'I' for Inactive)
ROOT
HETATM    1  C1  UNL     1      12.199  -4.252  10.310  1.00  0.00     0.044 C 
HETATM    2  C2  UNL     1      13.049  -3.481  11.324  1.00  0.00     0.146 A 
HETATM    3  C3  UNL     1      12.390  -2.181  11.586  1.00  0.00     0.005 A 
HETATM    4  C4  UNL     1      12.042  -1.841  12.815  1.00  0.00     0.000 A 
HETATM    5  C5  UNL     1      12.281  -2.698  13.952  1.00  0.00     0.024 A 
HETATM    6  C6  UNL     1      12.875  -3.881  13.754  1.00  0.00     0.135 A 
HETATM    7  O1  UNL     1      13.238  -4.241  12.486  1.00  0.00    -0.354 OA
ENDROOT
TORSDOF 0
ENDMDL
MODEL 4
REMARK VINA RESULT: -3.783071270      1.166      1.612
REMARK  0 active torsions:
REMARK  status: ('A' for Active; 'I' for Inactive)
ROOT
HETATM    1  C1  UNL     1      13.417  -2.371  14.363  1.00  0.00     0.044 C 
HETATM    2  C2  UNL     1      12.220  -2.823  13.523  1.00  0.00     0.146 A 
HETATM    3  C3  UNL     1      12.253  -2.086  12.239  1.00  0.00     0.005 A 
HETATM    4  C4  UNL     1      12.293  -2.741  11.091  1.00  0.00     0.000 A 
HETATM    5  C5  UNL     1      12.304  -4.183  11.023  1.00  0.00     0.024 A 
HETATM    6  C6  UNL     1      12.274  -4.883  12.163  1.00  0.00     0.135 A 
HETATM    7  O1  UNL     1      12.234  -4.214  13.355  1.00  0.00    -0.354 OA
ENDROOT
TORSDOF 0
ENDMDL
MODEL 5
REMARK VINA RESULT: -3.757852872      1.722      2.265
REMARK  0 active torsions:
REMARK  status: ('A' for Active; 'I' for Inactive)
ROOT
HETATM    1  C1  UNL     1      12.226  -4.722  12.577  1.00  0.00     0.044 C 
HETATM    2  C2  UNL     1      12.956  -3.955  11.472  1.00  0.00     0.146 A 
HETATM    3  C3  UNL     1      12.218  -2.696  11.220  1.00  0.00     0.005 A 
HETATM    4  C4  UNL     1      12.827  -1.528  11.335  1.00  0.00     0.000 A 
HETATM    5  C5  UNL     1      14.218  -1.413  11.704  1.00  0.00     0.024 A 
HETATM    6  C6  UNL     1      14.917  -2.530  11.939  1.00  0.00     0.135 A 
HETATM    7  O1  UNL     1      14.296  -3.742  11.823  1.00  0.00    -0.354 OA
ENDROOT
TORSDOF 0
ENDMDL
