MODEL 1
REMARK VINA RESULT: -5.371388979      0.000      0.000
REMARK  2 active torsions:
REMARK  status: ('A' for Active; 'I' for Inactive)
REMARK    1  A    between atoms: N3_8  and  C4_10 
REMARK    2  A    between atoms: C4_10  and  N4_12 
ROOT
HETATM    1  C1  UNL     1      23.283  36.804  42.155  1.00  0.00     0.099 C 
HETATM    2  C2  UNL     1      21.976  36.468  41.503  1.00  0.00     0.138 A 
HETATM    3  N1  UNL     1      21.667  36.781  40.219  1.00  0.00    -0.280 N 
ATOM      4  H1  UNL     1      22.257  37.268  39.546  1.00  0.00     0.189 HD
HETATM    5  N2  UNL     1      20.432  36.319  40.020  1.00  0.00    -0.263 N 
ATOM      6  H2  UNL     1      19.908  36.398  39.148  1.00  0.00     0.190 HD
HETATM    7  C3  UNL     1      19.982  35.734  41.145  1.00  0.00     0.247 A 
HETATM    8  N3  UNL     1      18.817  35.193  41.259  1.00  0.00    -0.297 N 
ATOM      9  H3  UNL     1      18.198  35.208  40.449  1.00  0.00     0.172 HD
HETATM   10  O1  UNL     1      20.958  35.853  42.012  1.00  0.00    -0.264 OA
ENDROOT
BRANCH   8  11
HETATM   11  C4  UNL     1      18.350  34.581  42.444  1.00  0.00     0.176 C 
HETATM   12  S1  UNL     1      18.888  33.120  42.947  1.00  0.00    -0.041 SA
BRANCH  11  13
HETATM   13  N4  UNL     1      17.381  35.246  43.231  1.00  0.00    -0.367 N 
HETATM   14  C5  UNL     1      17.531  36.656  43.561  1.00  0.00     0.151 C 
HETATM   15  C6  UNL     1      16.235  34.489  43.700  1.00  0.00     0.151 C 
ENDBRANCH  11  13
ENDBRANCH   8  11
TORSDOF 2
ENDMDL
MODEL 2
REMARK VINA RESULT: -5.364698889      1.887      2.338
REMARK  2 active torsions:
REMARK  status: ('A' for Active; 'I' for Inactive)
REMARK    1  A    between atoms: N3_8  and  C4_10 
REMARK    2  A    between atoms: C4_10  and  N4_12 
ROOT
HETATM    1  C1  UNL     1      23.953  37.531  41.088  1.00  0.00     0.099 C 
HETATM    2  C2  UNL     1      22.461  37.409  40.989  1.00  0.00     0.138 A 
HETATM    3  N1  UNL     1      21.721  37.947  39.987  1.00  0.00    -0.280 N 
ATOM      4  H1  UNL     1      22.062  38.488  39.193  1.00  0.00     0.189 HD
HETATM    5  N2  UNL     1      20.456  37.622  40.256  1.00  0.00    -0.263 N 
ATOM      6  H2  UNL     1      19.649  37.881  39.687  1.00  0.00     0.190 HD
HETATM    7  C3  UNL     1      20.406  36.901  41.390  1.00  0.00     0.247 A 
HETATM    8  N3  UNL     1      19.316  36.443  41.905  1.00  0.00    -0.297 N 
ATOM      9  H3  UNL     1      18.438  36.636  41.424  1.00  0.00     0.172 HD
HETATM   10  O1  UNL     1      21.650  36.802  41.793  1.00  0.00    -0.264 OA
ENDROOT
BRANCH   8  11
HETATM   11  C4  UNL     1      19.271  35.687  43.098  1.00  0.00     0.176 C 
HETATM   12  S1  UNL     1      19.033  36.374  44.563  1.00  0.00    -0.041 SA
BRANCH  11  13
HETATM   13  N4  UNL     1      19.437  34.283  43.034  1.00  0.00    -0.367 N 
HETATM   14  C5  UNL     1      18.353  33.426  42.574  1.00  0.00     0.151 C 
HETATM   15  C6  UNL     1      20.712  33.720  43.437  1.00  0.00     0.151 C 
ENDBRANCH  11  13
ENDBRANCH   8  11
TORSDOF 2
ENDMDL
MODEL 3
REMARK VINA RESULT: -5.356987303      1.946      2.285
REMARK  2 active torsions:
REMARK  status: ('A' for Active; 'I' for Inactive)
REMARK    1  A    between atoms: N3_8  and  C4_10 
REMARK    2  A    between atoms: C4_10  and  N4_12 
ROOT
HETATM    1  C1  UNL     1      23.843  37.743  40.884  1.00  0.00     0.099 C 
HETATM    2  C2  UNL     1      23.131  36.434  41.056  1.00  0.00     0.138 A 
HETATM    3  N1  UNL     1      23.393  35.326  40.319  1.00  0.00    -0.280 N 
ATOM      4  H1  UNL     1      24.083  35.232  39.574  1.00  0.00     0.189 HD
HETATM    5  N2  UNL     1      22.562  34.386  40.770  1.00  0.00    -0.263 N 
ATOM      6  H2  UNL     1      22.509  33.429  40.417  1.00  0.00     0.190 HD
HETATM    7  C3  UNL     1      21.804  34.889  41.760  1.00  0.00     0.247 A 
HETATM    8  N3  UNL     1      20.905  34.216  42.393  1.00  0.00    -0.297 N 
ATOM      9  H3  UNL     1      20.759  33.241  42.129  1.00  0.00     0.172 HD
HETATM   10  O1  UNL     1      22.190  36.135  41.892  1.00  0.00    -0.264 OA
ENDROOT
BRANCH   8  11
HETATM   11  C4  UNL     1      20.112  34.752  43.432  1.00  0.00     0.176 C 
HETATM   12  S1  UNL     1      20.503  34.582  45.012  1.00  0.00    -0.041 SA
BRANCH  11  13
HETATM   13  N4  UNL     1      18.933  35.462  43.106  1.00  0.00    -0.367 N 
HETATM   14  C5  UNL     1      18.004  34.945  42.112  1.00  0.00     0.151 C 
HETATM   15  C6  UNL     1      18.673  36.717  43.787  1.00  0.00     0.151 C 
ENDBRANCH  11  13
ENDBRANCH   8  11
TORSDOF 2
ENDMDL
MODEL 4
REMARK VINA RESULT: -5.353054679      2.701      5.574
REMARK  2 active torsions:
REMARK  status: ('A' for Active; 'I' for Inactive)
REMARK    1  A    between atoms: N3_8  and  C4_10 
REMARK    2  A    between atoms: C4_10  and  N4_12 
ROOT
HETATM    1  C1  UNL     1      19.294  36.750  42.744  1.00  0.00     0.099 C 
HETATM    2  C2  UNL     1      20.313  36.321  41.730  1.00  0.00     0.138 A 
HETATM    3  N1  UNL     1      20.012  35.971  40.454  1.00  0.00    -0.280 N 
ATOM      4  H1  UNL     1      19.088  35.951  40.024  1.00  0.00     0.189 HD
HETATM    5  N2  UNL     1      21.174  35.658  39.880  1.00  0.00    -0.263 N 
ATOM      6  H2  UNL     1      21.288  35.351  38.913  1.00  0.00     0.190 HD
HETATM    7  C3  UNL     1      22.172  35.809  40.768  1.00  0.00     0.247 A 
HETATM    8  N3  UNL     1      23.413  35.581  40.504  1.00  0.00    -0.297 N 
ATOM      9  H3  UNL     1      23.655  35.267  39.564  1.00  0.00     0.172 HD
HETATM   10  O1  UNL     1      21.594  36.212  41.874  1.00  0.00    -0.264 OA
ENDROOT
BRANCH   8  11
HETATM   11  C4  UNL     1      24.457  35.741  41.443  1.00  0.00     0.176 C 
HETATM   12  S1  UNL     1      24.805  34.606  42.569  1.00  0.00    -0.041 SA
BRANCH  11  13
HETATM   13  N4  UNL     1      25.236  36.921  41.417  1.00  0.00    -0.367 N 
HETATM   14  C5  UNL     1      25.918  37.388  42.615  1.00  0.00     0.151 C 
HETATM   15  C6  UNL     1      25.337  37.653  40.169  1.00  0.00     0.151 C 
ENDBRANCH  11  13
ENDBRANCH   8  11
TORSDOF 2
ENDMDL
MODEL 5
REMARK VINA RESULT: -5.348110458      1.296      1.681
REMARK  2 active torsions:
REMARK  status: ('A' for Active; 'I' for Inactive)
REMARK    1  A    between atoms: N3_8  and  C4_10 
REMARK    2  A    between atoms: C4_10  and  N4_12 
ROOT
HETATM    1  C1  UNL     1      23.246  36.844  42.173  1.00  0.00     0.099 C 
HETATM    2  C2  UNL     1      21.948  36.463  41.527  1.00  0.00     0.138 A 
HETATM    3  N1  UNL     1      21.738  36.467  40.187  1.00  0.00    -0.280 N 
ATOM      4  H1  UNL     1      22.407  36.720  39.460  1.00  0.00     0.189 HD
HETATM    5  N2  UNL     1      20.476  36.071  40.015  1.00  0.00    -0.263 N 
ATOM      6  H2  UNL     1      20.009  35.971  39.113  1.00  0.00     0.190 HD
HETATM    7  C3  UNL     1      19.913  35.826  41.211  1.00  0.00     0.247 A 
HETATM    8  N3  UNL     1      18.697  35.427  41.367  1.00  0.00    -0.297 N 
ATOM      9  H3  UNL     1      18.126  35.289  40.534  1.00  0.00     0.172 HD
HETATM   10  O1  UNL     1      20.849  36.079  42.093  1.00  0.00    -0.264 OA
ENDROOT
BRANCH   8  11
HETATM   11  C4  UNL     1      18.112  35.172  42.628  1.00  0.00     0.176 C 
HETATM   12  S1  UNL     1      17.701  36.370  43.663  1.00  0.00    -0.041 SA
BRANCH  11  13
HETATM   13  N4  UNL     1      17.867  33.834  43.019  1.00  0.00    -0.367 N 
HETATM   14  C5  UNL     1      18.855  32.794  42.769  1.00  0.00     0.151 C 
HETATM   15  C6  UNL     1      16.611  33.526  43.675  1.00  0.00     0.151 C 
ENDBRANCH  11  13
ENDBRANCH   8  11
TORSDOF 2
ENDMDL
