MODEL 1
REMARK VINA RESULT: -6.801127268      0.000      0.000
REMARK  9 active torsions:
REMARK  status: ('A' for Active; 'I' for Inactive)
REMARK    1  A    between atoms: C2_2  and  C3_3 
REMARK    2  A    between atoms: C3_3  and  C4_4 
REMARK    3  A    between atoms: C4_4  and  C5_5 
REMARK    4  A    between atoms: C5_5  and  C6_6 
REMARK    5  A    between atoms: C6_6  and  C7_7 
REMARK    6  A    between atoms: C7_7  and  C8_8 
REMARK    7  A    between atoms: C8_8  and  C9_9 
REMARK    8  A    between atoms: C9_9  and  N1_10 
REMARK    9  A    between atoms: N1_10  and  C10_12 
ROOT
HETATM    1  C8  UNL     1      -2.255  11.288  18.582  1.00  0.00     0.020 C 
ENDROOT
BRANCH   1   2
HETATM    2  C7  UNL     1      -3.501  11.917  17.954  1.00  0.00     0.002 C 
BRANCH   2   3
HETATM    3  C6  UNL     1      -3.243  13.364  17.763  1.00  0.00     0.000 C 
BRANCH   3   4
HETATM    4  C5  UNL     1      -1.904  13.835  18.268  1.00  0.00     0.000 C 
BRANCH   4   5
HETATM    5  C4  UNL     1      -1.733  15.308  18.243  1.00  0.00     0.004 C 
BRANCH   5   6
HETATM    6  C3  UNL     1      -2.424  15.903  17.056  1.00  0.00     0.026 C 
BRANCH   6   7
HETATM    7  C2  UNL     1      -3.312  17.033  17.399  1.00  0.00    -0.037 C 
HETATM    8  C1  UNL     1      -4.317  17.485  16.708  1.00  0.00     0.007 C 
ENDBRANCH   6   7
ENDBRANCH   5   6
ENDBRANCH   4   5
ENDBRANCH   3   4
ENDBRANCH   2   3
ENDBRANCH   1   2
BRANCH   1   9
HETATM    9  C9  UNL     1      -2.686  10.327  19.645  1.00  0.00     0.119 C 
BRANCH   9  10
HETATM   10  N1  UNL     1      -3.988  10.618  20.155  1.00  0.00    -0.390 N 
ATOM     11  H1  UNL     1      -4.676  11.030  19.525  1.00  0.00     0.159 HD
BRANCH  10  12
HETATM   12  C10 UNL     1      -4.371  10.360  21.509  1.00  0.00     0.027 A 
HETATM   13  C11 UNL     1      -4.980   9.398  22.180  1.00  0.00     0.029 A 
HETATM   14  C12 UNL     1      -4.854  10.120  23.436  1.00  0.00     0.004 A 
HETATM   15  C13 UNL     1      -4.246  11.089  22.785  1.00  0.00     0.029 A 
ENDBRANCH  10  12
ENDBRANCH   9  10
ENDBRANCH   1   9
TORSDOF 9
ENDMDL
MODEL 2
REMARK VINA RESULT: -6.481762403      1.761      3.015
REMARK  9 active torsions:
REMARK  status: ('A' for Active; 'I' for Inactive)
REMARK    1  A    between atoms: C2_2  and  C3_3 
REMARK    2  A    between atoms: C3_3  and  C4_4 
REMARK    3  A    between atoms: C4_4  and  C5_5 
REMARK    4  A    between atoms: C5_5  and  C6_6 
REMARK    5  A    between atoms: C6_6  and  C7_7 
REMARK    6  A    between atoms: C7_7  and  C8_8 
REMARK    7  A    between atoms: C8_8  and  C9_9 
REMARK    8  A    between atoms: C9_9  and  N1_10 
REMARK    9  A    between atoms: N1_10  and  C10_12 
ROOT
HETATM    1  C8  UNL     1      -2.191  11.460  20.071  1.00  0.00     0.020 C 
ENDROOT
BRANCH   1   2
HETATM    2  C7  UNL     1      -1.844  12.127  18.738  1.00  0.00     0.002 C 
BRANCH   2   3
HETATM    3  C6  UNL     1      -3.109  12.482  18.054  1.00  0.00     0.000 C 
BRANCH   3   4
HETATM    4  C5  UNL     1      -3.201  13.919  17.610  1.00  0.00     0.000 C 
BRANCH   4   5
HETATM    5  C4  UNL     1      -2.004  14.731  17.942  1.00  0.00     0.004 C 
BRANCH   5   6
HETATM    6  C3  UNL     1      -2.329  16.191  17.915  1.00  0.00     0.026 C 
BRANCH   6   7
HETATM    7  C2  UNL     1      -3.590  16.498  17.207  1.00  0.00    -0.037 C 
HETATM    8  C1  UNL     1      -3.943  17.634  16.682  1.00  0.00     0.007 C 
ENDBRANCH   6   7
ENDBRANCH   5   6
ENDBRANCH   4   5
ENDBRANCH   3   4
ENDBRANCH   2   3
ENDBRANCH   1   2
BRANCH   1   9
HETATM    9  C9  UNL     1      -3.496  10.741  19.923  1.00  0.00     0.119 C 
BRANCH   9  10
HETATM   10  N1  UNL     1      -3.384   9.341  20.182  1.00  0.00    -0.390 N 
ATOM     11  H1  UNL     1      -3.913   8.947  20.961  1.00  0.00     0.159 HD
BRANCH  10  12
HETATM   12  C10 UNL     1      -2.567   8.465  19.400  1.00  0.00     0.027 A 
HETATM   13  C11 UNL     1      -1.742   7.456  19.616  1.00  0.00     0.029 A 
HETATM   14  C12 UNL     1      -1.467   7.306  18.195  1.00  0.00     0.004 A 
HETATM   15  C13 UNL     1      -2.286   8.310  17.961  1.00  0.00     0.029 A 
ENDBRANCH  10  12
ENDBRANCH   9  10
ENDBRANCH   1   9
TORSDOF 9
ENDMDL
MODEL 3
REMARK VINA RESULT: -6.397602005      1.813      2.995
REMARK  9 active torsions:
REMARK  status: ('A' for Active; 'I' for Inactive)
REMARK    1  A    between atoms: C2_2  and  C3_3 
REMARK    2  A    between atoms: C3_3  and  C4_4 
REMARK    3  A    between atoms: C4_4  and  C5_5 
REMARK    4  A    between atoms: C5_5  and  C6_6 
REMARK    5  A    between atoms: C6_6  and  C7_7 
REMARK    6  A    between atoms: C7_7  and  C8_8 
REMARK    7  A    between atoms: C8_8  and  C9_9 
REMARK    8  A    between atoms: C9_9  and  N1_10 
REMARK    9  A    between atoms: N1_10  and  C10_12 
ROOT
HETATM    1  C8  UNL     1      -4.243  11.161  18.712  1.00  0.00     0.020 C 
ENDROOT
BRANCH   1   2
HETATM    2  C7  UNL     1      -3.500  12.211  17.882  1.00  0.00     0.002 C 
BRANCH   2   3
HETATM    3  C6  UNL     1      -2.194  12.474  18.531  1.00  0.00     0.000 C 
BRANCH   3   4
HETATM    4  C5  UNL     1      -1.668  13.873  18.338  1.00  0.00     0.000 C 
BRANCH   4   5
HETATM    5  C4  UNL     1      -2.633  14.797  17.695  1.00  0.00     0.004 C 
BRANCH   5   6
HETATM    6  C3  UNL     1      -2.235  16.222  17.921  1.00  0.00     0.026 C 
BRANCH   6   7
HETATM    7  C2  UNL     1      -3.271  17.193  17.511  1.00  0.00    -0.037 C 
HETATM    8  C1  UNL     1      -4.341  16.956  16.811  1.00  0.00     0.007 C 
ENDBRANCH   6   7
ENDBRANCH   5   6
ENDBRANCH   4   5
ENDBRANCH   3   4
ENDBRANCH   2   3
ENDBRANCH   1   2
BRANCH   1   9
HETATM    9  C9  UNL     1      -3.391  10.781  19.882  1.00  0.00     0.119 C 
BRANCH   9  10
HETATM   10  N1  UNL     1      -3.387   9.374  20.126  1.00  0.00    -0.390 N 
ATOM     11  H1  UNL     1      -4.002   9.004  20.851  1.00  0.00     0.159 HD
BRANCH  10  12
HETATM   12  C10 UNL     1      -2.562   8.458  19.400  1.00  0.00     0.027 A 
HETATM   13  C11 UNL     1      -1.730   7.470  19.678  1.00  0.00     0.029 A 
HETATM   14  C12 UNL     1      -1.450   7.236  18.271  1.00  0.00     0.004 A 
HETATM   15  C13 UNL     1      -2.275   8.219  17.973  1.00  0.00     0.029 A 
ENDBRANCH  10  12
ENDBRANCH   9  10
ENDBRANCH   1   9
TORSDOF 9
ENDMDL
MODEL 4
REMARK VINA RESULT: -6.328565820      2.355      3.127
REMARK  9 active torsions:
REMARK  status: ('A' for Active; 'I' for Inactive)
REMARK    1  A    between atoms: C2_2  and  C3_3 
REMARK    2  A    between atoms: C3_3  and  C4_4 
REMARK    3  A    between atoms: C4_4  and  C5_5 
REMARK    4  A    between atoms: C5_5  and  C6_6 
REMARK    5  A    between atoms: C6_6  and  C7_7 
REMARK    6  A    between atoms: C7_7  and  C8_8 
REMARK    7  A    between atoms: C8_8  and  C9_9 
REMARK    8  A    between atoms: C9_9  and  N1_10 
REMARK    9  A    between atoms: N1_10  and  C10_12 
ROOT
HETATM    1  C8  UNL     1      -1.755  12.361  19.015  1.00  0.00     0.020 C 
ENDROOT
BRANCH   1   2
HETATM    2  C7  UNL     1      -3.080  12.399  18.249  1.00  0.00     0.002 C 
BRANCH   2   3
HETATM    3  C6  UNL     1      -3.224  13.742  17.640  1.00  0.00     0.000 C 
BRANCH   3   4
HETATM    4  C5  UNL     1      -2.165  14.733  18.046  1.00  0.00     0.000 C 
BRANCH   4   5
HETATM    5  C4  UNL     1      -2.500  16.142  17.723  1.00  0.00     0.004 C 
BRANCH   5   6
HETATM    6  C3  UNL     1      -3.879  16.241  17.151  1.00  0.00     0.026 C 
BRANCH   6   7
HETATM    7  C2  UNL     1      -4.277  17.624  16.816  1.00  0.00    -0.037 C 
HETATM    8  C1  UNL     1      -3.670  18.447  16.013  1.00  0.00     0.007 C 
ENDBRANCH   6   7
ENDBRANCH   5   6
ENDBRANCH   4   5
ENDBRANCH   3   4
ENDBRANCH   2   3
ENDBRANCH   1   2
BRANCH   1   9
HETATM    9  C9  UNL     1      -1.713  11.115  19.843  1.00  0.00     0.119 C 
BRANCH   9  10
HETATM   10  N1  UNL     1      -2.615  10.112  19.372  1.00  0.00    -0.390 N 
ATOM     11  H1  UNL     1      -3.612  10.324  19.354  1.00  0.00     0.159 HD
BRANCH  10  12
HETATM   12  C10 UNL     1      -2.184   8.823  18.925  1.00  0.00     0.027 A 
HETATM   13  C11 UNL     1      -1.878   7.659  19.468  1.00  0.00     0.029 A 
HETATM   14  C12 UNL     1      -1.584   7.069  18.172  1.00  0.00     0.004 A 
HETATM   15  C13 UNL     1      -1.884   8.222  17.612  1.00  0.00     0.029 A 
ENDBRANCH  10  12
ENDBRANCH   9  10
ENDBRANCH   1   9
TORSDOF 9
ENDMDL
MODEL 5
REMARK VINA RESULT: -6.305936776      2.482      3.395
REMARK  9 active torsions:
REMARK  status: ('A' for Active; 'I' for Inactive)
REMARK    1  A    between atoms: C2_2  and  C3_3 
REMARK    2  A    between atoms: C3_3  and  C4_4 
REMARK    3  A    between atoms: C4_4  and  C5_5 
REMARK    4  A    between atoms: C5_5  and  C6_6 
REMARK    5  A    between atoms: C6_6  and  C7_7 
REMARK    6  A    between atoms: C7_7  and  C8_8 
REMARK    7  A    between atoms: C8_8  and  C9_9 
REMARK    8  A    between atoms: C9_9  and  N1_10 
REMARK    9  A    between atoms: N1_10  and  C10_12 
ROOT
HETATM    1  C8  UNL     1      -1.883  12.753  18.947  1.00  0.00     0.020 C 
ENDROOT
BRANCH   1   2
HETATM    2  C7  UNL     1      -2.278  13.803  17.905  1.00  0.00     0.002 C 
BRANCH   2   3
HETATM    3  C6  UNL     1      -1.656  15.092  18.289  1.00  0.00     0.000 C 
BRANCH   3   4
HETATM    4  C5  UNL     1      -2.424  16.314  17.853  1.00  0.00     0.000 C 
BRANCH   4   5
HETATM    5  C4  UNL     1      -3.732  16.011  17.223  1.00  0.00     0.004 C 
BRANCH   5   6
HETATM    6  C3  UNL     1      -4.439  17.272  16.835  1.00  0.00     0.026 C 
BRANCH   6   7
HETATM    7  C2  UNL     1      -3.539  18.297  16.268  1.00  0.00    -0.037 C 
HETATM    8  C1  UNL     1      -3.735  19.017  15.202  1.00  0.00     0.007 C 
ENDBRANCH   6   7
ENDBRANCH   5   6
ENDBRANCH   4   5
ENDBRANCH   3   4
ENDBRANCH   2   3
ENDBRANCH   1   2
BRANCH   1   9
HETATM    9  C9  UNL     1      -2.799  11.577  18.815  1.00  0.00     0.119 C 
BRANCH   9  10
HETATM   10  N1  UNL     1      -2.352  10.446  19.563  1.00  0.00    -0.390 N 
ATOM     11  H1  UNL     1      -2.210  10.552  20.568  1.00  0.00     0.159 HD
BRANCH  10  12
HETATM   12  C10 UNL     1      -2.096   9.169  18.970  1.00  0.00     0.027 A 
HETATM   13  C11 UNL     1      -1.942   7.922  19.378  1.00  0.00     0.029 A 
HETATM   14  C12 UNL     1      -1.734   7.446  18.019  1.00  0.00     0.004 A 
HETATM   15  C13 UNL     1      -1.884   8.683  17.594  1.00  0.00     0.029 A 
ENDBRANCH  10  12
ENDBRANCH   9  10
ENDBRANCH   1   9
TORSDOF 9
ENDMDL
