MODEL 1
REMARK VINA RESULT: -7.791941819      0.000      0.000
REMARK  3 active torsions:
REMARK  status: ('A' for Active; 'I' for Inactive)
REMARK    1  A    between atoms: S1_2  and  N1_5 
REMARK    2  A    between atoms: N1_5  and  C2_7 
REMARK       I    between atoms: N2_10  and  C5_11 
REMARK       I    between atoms: C5_11  and  N3_13 
REMARK    3  A    between atoms: N3_13  and  C6_15 
ROOT
HETATM    1  C2  UNL     1      11.200   6.199  41.337  1.00  0.00     0.131 C 
HETATM    2  C3  UNL     1      12.296   5.809  42.329  1.00  0.00     0.049 C 
HETATM    3  C4  UNL     1      11.527   5.830  43.620  1.00  0.00     0.131 C 
HETATM    4  N2  UNL     1      10.556   6.896  43.467  1.00  0.00    -0.315 N 
HETATM    5  C5  UNL     1       9.833   7.509  44.514  1.00  0.00     0.319 C 
HETATM    6  O3  UNL     1      10.026   7.119  45.690  1.00  0.00    -0.247 OA
HETATM    7  N3  UNL     1       8.909   8.544  44.239  1.00  0.00    -0.338 N 
ATOM      8  H3  UNL     1       8.775   8.839  43.271  1.00  0.00     0.164 HD
HETATM    9  C13 UNL     1      10.427   7.253  42.068  1.00  0.00     0.219 C 
HETATM   10  C14 UNL     1      11.006   8.581  41.815  1.00  0.00     0.087 C 
HETATM   11  N4  UNL     1      11.458   9.622  41.601  1.00  0.00    -0.195 NA
ENDROOT
BRANCH   1  12
HETATM   12  N1  UNL     1      10.353   5.061  41.127  1.00  0.00    -0.312 N 
ATOM     13  H1  UNL     1      10.290   4.273  41.772  1.00  0.00     0.172 HD
BRANCH  12  14
HETATM   14  S1  UNL     1       9.452   5.174  39.658  1.00  0.00     0.223 S 
HETATM   15  C1  UNL     1       7.831   5.796  39.983  1.00  0.00     0.185 C 
HETATM   16  O1  UNL     1       9.307   3.766  39.110  1.00  0.00    -0.206 OA
HETATM   17  O2  UNL     1      10.170   6.046  38.695  1.00  0.00    -0.206 OA
ENDBRANCH  12  14
ENDBRANCH   1  12
BRANCH   7  18
HETATM   18  C6  UNL     1       8.146   9.201  45.274  1.00  0.00     0.086 C 
HETATM   19  C7  UNL     1       6.701   8.846  45.140  1.00  0.00     0.025 C 
HETATM   20  C8  UNL     1       5.953   9.654  44.128  1.00  0.00     0.002 C 
HETATM   21  C9  UNL     1       5.643  11.055  44.608  1.00  0.00     0.000 C 
HETATM   22  C10 UNL     1       6.677  12.036  44.118  1.00  0.00     0.000 C 
HETATM   23  C11 UNL     1       8.055  11.399  44.059  1.00  0.00     0.002 C 
HETATM   24  C12 UNL     1       8.414  10.680  45.310  1.00  0.00     0.025 C 
ENDBRANCH   7  18
TORSDOF 3
ENDMDL
MODEL 2
REMARK VINA RESULT: -7.216275635      1.082      1.129
REMARK  3 active torsions:
REMARK  status: ('A' for Active; 'I' for Inactive)
REMARK    1  A    between atoms: S1_2  and  N1_5 
REMARK    2  A    between atoms: N1_5  and  C2_7 
REMARK       I    between atoms: N2_10  and  C5_11 
REMARK       I    between atoms: C5_11  and  N3_13 
REMARK    3  A    between atoms: N3_13  and  C6_15 
ROOT
HETATM    1  C2  UNL     1      10.060   6.684  40.464  1.00  0.00     0.131 C 
HETATM    2  C3  UNL     1      10.988   5.799  41.296  1.00  0.00     0.049 C 
HETATM    3  C4  UNL     1      10.239   5.756  42.599  1.00  0.00     0.131 C 
HETATM    4  N2  UNL     1       9.613   7.058  42.721  1.00  0.00    -0.315 N 
HETATM    5  C5  UNL     1       9.079   7.607  43.907  1.00  0.00     0.319 C 
HETATM    6  O3  UNL     1       9.138   6.935  44.964  1.00  0.00    -0.247 OA
HETATM    7  N3  UNL     1       8.490   8.894  43.901  1.00  0.00    -0.338 N 
ATOM      8  H3  UNL     1       8.458   9.415  43.025  1.00  0.00     0.164 HD
HETATM    9  C13 UNL     1       9.609   7.728  41.437  1.00  0.00     0.219 C 
HETATM   10  C14 UNL     1      10.543   8.864  41.440  1.00  0.00     0.087 C 
HETATM   11  N4  UNL     1      11.274   9.758  41.428  1.00  0.00    -0.195 NA
ENDROOT
BRANCH   1  12
HETATM   12  N1  UNL     1       8.929   5.901  40.060  1.00  0.00    -0.312 N 
ATOM     13  H1  UNL     1       8.098   5.766  40.636  1.00  0.00     0.172 HD
BRANCH  12  14
HETATM   14  S1  UNL     1       9.132   5.212  38.489  1.00  0.00     0.223 S 
HETATM   15  C1  UNL     1       7.670   5.444  37.527  1.00  0.00     0.185 C 
HETATM   16  O1  UNL     1       9.332   3.719  38.676  1.00  0.00    -0.206 OA
HETATM   17  O2  UNL     1      10.308   5.825  37.822  1.00  0.00    -0.206 OA
ENDBRANCH  12  14
ENDBRANCH   1  12
BRANCH   7  18
HETATM   18  C6  UNL     1       7.931   9.499  45.087  1.00  0.00     0.086 C 
HETATM   19  C7  UNL     1       6.483   9.148  45.200  1.00  0.00     0.025 C 
HETATM   20  C8  UNL     1       5.571  10.003  44.378  1.00  0.00     0.002 C 
HETATM   21  C9  UNL     1       5.362  11.378  44.973  1.00  0.00     0.000 C 
HETATM   22  C10 UNL     1       6.297  12.383  44.352  1.00  0.00     0.000 C 
HETATM   23  C11 UNL     1       7.637  11.752  44.016  1.00  0.00     0.002 C 
HETATM   24  C12 UNL     1       8.211  10.975  45.145  1.00  0.00     0.025 C 
ENDBRANCH   7  18
TORSDOF 3
ENDMDL
MODEL 3
REMARK VINA RESULT: -7.029171670      2.723      4.255
REMARK  3 active torsions:
REMARK  status: ('A' for Active; 'I' for Inactive)
REMARK    1  A    between atoms: S1_2  and  N1_5 
REMARK    2  A    between atoms: N1_5  and  C2_7 
REMARK       I    between atoms: N2_10  and  C5_11 
REMARK       I    between atoms: C5_11  and  N3_13 
REMARK    3  A    between atoms: N3_13  and  C6_15 
ROOT
HETATM    1  C2  UNL     1       8.670   6.329  42.806  1.00  0.00     0.131 C 
HETATM    2  C3  UNL     1       7.722   6.152  41.619  1.00  0.00     0.049 C 
HETATM    3  C4  UNL     1       7.629   7.567  41.121  1.00  0.00     0.131 C 
HETATM    4  N2  UNL     1       7.710   8.395  42.309  1.00  0.00    -0.315 N 
HETATM    5  C5  UNL     1       7.347   9.756  42.391  1.00  0.00     0.319 C 
HETATM    6  O3  UNL     1       6.914  10.329  41.363  1.00  0.00    -0.247 OA
HETATM    7  N3  UNL     1       7.471  10.462  43.612  1.00  0.00    -0.338 N 
ATOM      8  H3  UNL     1       7.827   9.967  44.430  1.00  0.00     0.164 HD
HETATM    9  C13 UNL     1       8.223   7.619  43.421  1.00  0.00     0.219 C 
HETATM   10  C14 UNL     1       7.168   7.373  44.415  1.00  0.00     0.087 C 
HETATM   11  N4  UNL     1       6.348   7.171  45.203  1.00  0.00    -0.195 NA
ENDROOT
BRANCH   1  12
HETATM   12  N1  UNL     1      10.003   6.490  42.301  1.00  0.00    -0.312 N 
ATOM     13  H1  UNL     1      10.221   6.665  41.320  1.00  0.00     0.172 HD
BRANCH  12  14
HETATM   14  S1  UNL     1      11.197   6.354  43.541  1.00  0.00     0.223 S 
HETATM   15  C1  UNL     1      12.526   5.325  42.999  1.00  0.00     0.185 C 
HETATM   16  O1  UNL     1      10.538   5.673  44.727  1.00  0.00    -0.206 OA
HETATM   17  O2  UNL     1      11.691   7.704  43.912  1.00  0.00    -0.206 OA
ENDBRANCH  12  14
ENDBRANCH   1  12
BRANCH   7  18
HETATM   18  C6  UNL     1       7.114  11.854  43.746  1.00  0.00     0.086 C 
HETATM   19  C7  UNL     1       7.658  12.395  45.028  1.00  0.00     0.025 C 
HETATM   20  C8  UNL     1       6.820  12.102  46.232  1.00  0.00     0.002 C 
HETATM   21  C9  UNL     1       5.579  12.963  46.307  1.00  0.00     0.000 C 
HETATM   22  C10 UNL     1       4.386  12.245  45.731  1.00  0.00     0.000 C 
HETATM   23  C11 UNL     1       4.789  11.362  44.562  1.00  0.00     0.002 C 
HETATM   24  C12 UNL     1       5.636  12.069  43.567  1.00  0.00     0.025 C 
ENDBRANCH   7  18
TORSDOF 3
ENDMDL
MODEL 4
REMARK VINA RESULT: -6.999328159      1.622      1.769
REMARK  3 active torsions:
REMARK  status: ('A' for Active; 'I' for Inactive)
REMARK    1  A    between atoms: S1_2  and  N1_5 
REMARK    2  A    between atoms: N1_5  and  C2_7 
REMARK       I    between atoms: N2_10  and  C5_11 
REMARK       I    between atoms: C5_11  and  N3_13 
REMARK    3  A    between atoms: N3_13  and  C6_15 
ROOT
HETATM    1  C2  UNL     1       9.990   6.645  40.245  1.00  0.00     0.131 C 
HETATM    2  C3  UNL     1      10.548   5.424  40.977  1.00  0.00     0.049 C 
HETATM    3  C4  UNL     1       9.548   5.286  42.092  1.00  0.00     0.131 C 
HETATM    4  N2  UNL     1       9.156   6.642  42.423  1.00  0.00    -0.315 N 
HETATM    5  C5  UNL     1       8.496   7.044  43.603  1.00  0.00     0.319 C 
HETATM    6  O3  UNL     1       8.210   6.175  44.461  1.00  0.00    -0.247 OA
HETATM    7  N3  UNL     1       8.163   8.403  43.814  1.00  0.00    -0.338 N 
ATOM      8  H3  UNL     1       8.411   9.086  43.097  1.00  0.00     0.164 HD
HETATM    9  C13 UNL     1       9.542   7.544  41.356  1.00  0.00     0.219 C 
HETATM   10  C14 UNL     1      10.645   8.416  41.786  1.00  0.00     0.087 C 
HETATM   11  N4  UNL     1      11.513   9.106  42.109  1.00  0.00    -0.195 NA
ENDROOT
BRANCH   1  12
HETATM   12  N1  UNL     1       8.845   6.234  39.486  1.00  0.00    -0.312 N 
ATOM     13  H1  UNL     1       8.007   5.826  39.899  1.00  0.00     0.172 HD
BRANCH  12  14
HETATM   14  S1  UNL     1       9.046   6.508  37.793  1.00  0.00     0.223 S 
HETATM   15  C1  UNL     1       7.737   5.740  36.890  1.00  0.00     0.185 C 
HETATM   16  O1  UNL     1      10.346   5.841  37.380  1.00  0.00    -0.206 OA
HETATM   17  O2  UNL     1       9.090   7.967  37.522  1.00  0.00    -0.206 OA
ENDBRANCH  12  14
ENDBRANCH   1  12
BRANCH   7  18
HETATM   18  C6  UNL     1       7.488   8.864  45.005  1.00  0.00     0.086 C 
HETATM   19  C7  UNL     1       6.032   9.043  44.723  1.00  0.00     0.025 C 
HETATM   20  C8  UNL     1       5.680  10.340  44.066  1.00  0.00     0.002 C 
HETATM   21  C9  UNL     1       5.717  11.510  45.023  1.00  0.00     0.000 C 
HETATM   22  C10 UNL     1       7.039  12.229  44.949  1.00  0.00     0.000 C 
HETATM   23  C11 UNL     1       8.178  11.259  44.684  1.00  0.00     0.002 C 
HETATM   24  C12 UNL     1       8.155  10.079  45.588  1.00  0.00     0.025 C 
ENDBRANCH   7  18
TORSDOF 3
ENDMDL
MODEL 5
REMARK VINA RESULT: -6.959949653      1.257      1.441
REMARK  3 active torsions:
REMARK  status: ('A' for Active; 'I' for Inactive)
REMARK    1  A    between atoms: S1_2  and  N1_5 
REMARK    2  A    between atoms: N1_5  and  C2_7 
REMARK       I    between atoms: N2_10  and  C5_11 
REMARK       I    between atoms: C5_11  and  N3_13 
REMARK    3  A    between atoms: N3_13  and  C6_15 
ROOT
HETATM    1  C2  UNL     1      10.277   6.436  42.268  1.00  0.00     0.131 C 
HETATM    2  C3  UNL     1      11.271   6.104  43.381  1.00  0.00     0.049 C 
HETATM    3  C4  UNL     1      10.435   6.389  44.597  1.00  0.00     0.131 C 
HETATM    4  N2  UNL     1       9.585   7.503  44.223  1.00  0.00    -0.315 N 
HETATM    5  C5  UNL     1       8.868   8.329  45.114  1.00  0.00     0.319 C 
HETATM    6  O3  UNL     1       8.953   8.105  46.346  1.00  0.00    -0.247 OA
HETATM    7  N3  UNL     1       8.068   9.389  44.627  1.00  0.00    -0.338 N 
ATOM      8  H3  UNL     1       8.020   9.545  43.619  1.00  0.00     0.164 HD
HETATM    9  C13 UNL     1       9.572   7.653  42.781  1.00  0.00     0.219 C 
HETATM   10  C14 UNL     1      10.293   8.870  42.379  1.00  0.00     0.087 C 
HETATM   11  N4  UNL     1      10.858   9.822  42.049  1.00  0.00    -0.195 NA
ENDROOT
BRANCH   1  12
HETATM   12  N1  UNL     1       9.335   5.360  42.165  1.00  0.00    -0.312 N 
ATOM     13  H1  UNL     1       9.083   4.750  42.943  1.00  0.00     0.172 HD
BRANCH  12  14
HETATM   14  S1  UNL     1       8.675   5.213  40.576  1.00  0.00     0.223 S 
HETATM   15  C1  UNL     1       8.542   6.803  39.820  1.00  0.00     0.185 C 
HETATM   16  O1  UNL     1       7.273   4.649  40.722  1.00  0.00    -0.206 OA
HETATM   17  O2  UNL     1       9.526   4.310  39.761  1.00  0.00    -0.206 OA
ENDBRANCH  12  14
ENDBRANCH   1  12
BRANCH   7  18
HETATM   18  C6  UNL     1       7.316  10.261  45.498  1.00  0.00     0.086 C 
HETATM   19  C7  UNL     1       5.870   9.889  45.462  1.00  0.00     0.025 C 
HETATM   20  C8  UNL     1       5.112  10.454  44.303  1.00  0.00     0.002 C 
HETATM   21  C9  UNL     1       4.807  11.926  44.464  1.00  0.00     0.000 C 
HETATM   22  C10 UNL     1       5.835  12.772  43.758  1.00  0.00     0.000 C 
HETATM   23  C11 UNL     1       7.212  12.135  43.828  1.00  0.00     0.002 C 
HETATM   24  C12 UNL     1       7.585  11.711  45.202  1.00  0.00     0.025 C 
ENDBRANCH   7  18
TORSDOF 3
ENDMDL
