MODEL 1
REMARK VINA RESULT: -4.083967238      0.000      0.000
REMARK  10 active torsions:
REMARK  status: ('A' for Active; 'I' for Inactive)
REMARK    1  A    between atoms: C2_2  and  C3_3 
REMARK    2  A    between atoms: C3_3  and  C4_4 
REMARK    3  A    between atoms: C4_4  and  C5_5 
REMARK    4  A    between atoms: C4_4  and  C9_13 
REMARK    5  A    between atoms: C5_5  and  C6_6 
REMARK    6  A    between atoms: C6_6  and  C7_7 
REMARK    7  A    between atoms: C7_7  and  C8_8 
REMARK    8  A    between atoms: C8_8  and  N1_9 
REMARK    9  A    between atoms: C9_13  and  C10_14 
REMARK   10  A    between atoms: C10_14  and  C11_15 
ROOT
HETATM    1  C4  UNL     1     -30.684 -23.932 -38.986  1.00  0.00    -0.014 C 
ENDROOT
BRANCH   1   2
HETATM    2  C3  UNL     1     -30.976 -23.598 -37.598  1.00  0.00     0.004 C 
BRANCH   2   3
HETATM    3  C2  UNL     1     -32.290 -23.053 -37.194  1.00  0.00    -0.004 C 
HETATM    4  C1  UNL     1     -32.565 -23.666 -35.784  1.00  0.00     0.005 C 
ENDBRANCH   2   3
ENDBRANCH   1   2
BRANCH   1   5
HETATM    5  C5  UNL     1     -31.623 -23.765 -40.088  1.00  0.00     0.005 C 
BRANCH   5   6
HETATM    6  C6  UNL     1     -31.325 -22.777 -41.177  1.00  0.00     0.002 C 
BRANCH   6   7
HETATM    7  C7  UNL     1     -30.977 -23.547 -42.470  1.00  0.00     0.027 C 
BRANCH   7   8
HETATM    8  C8  UNL     1     -29.535 -23.960 -42.465  1.00  0.00     0.229 C 
BRANCH   8   9
HETATM    9  N1  UNL     1     -28.915 -23.519 -43.700  1.00  0.00    -0.079 N 
ATOM     10  H13 UNL     1     -29.479 -22.825 -44.191  1.00  0.00     0.274 HD
ATOM     11  H12 UNL     1     -28.089 -22.942 -43.536  1.00  0.00     0.274 HD
ATOM     12  H11 UNL     1     -28.712 -24.334 -44.278  1.00  0.00     0.274 HD
ENDBRANCH   8   9
ENDBRANCH   7   8
ENDBRANCH   6   7
ENDBRANCH   5   6
ENDBRANCH   1   5
BRANCH   1  13
HETATM   13  C9  UNL     1     -30.180 -25.377 -39.002  1.00  0.00     0.005 C 
BRANCH  13  14
HETATM   14  C10 UNL     1     -30.231 -26.045 -37.670  1.00  0.00     0.005 C 
BRANCH  14  15
HETATM   15  C11 UNL     1     -31.247 -27.187 -37.824  1.00  0.00    -0.014 A 
HETATM   16  C12 UNL     1     -32.159 -27.301 -36.618  1.00  0.00     0.005 A 
HETATM   17  C13 UNL     1     -32.673 -26.909 -37.969  1.00  0.00     0.005 A 
ENDBRANCH  14  15
ENDBRANCH  13  14
ENDBRANCH   1  13
TORSDOF 10
ENDMDL
MODEL 2
REMARK VINA RESULT: -4.013285601      2.381      3.509
REMARK  10 active torsions:
REMARK  status: ('A' for Active; 'I' for Inactive)
REMARK    1  A    between atoms: C2_2  and  C3_3 
REMARK    2  A    between atoms: C3_3  and  C4_4 
REMARK    3  A    between atoms: C4_4  and  C5_5 
REMARK    4  A    between atoms: C4_4  and  C9_13 
REMARK    5  A    between atoms: C5_5  and  C6_6 
REMARK    6  A    between atoms: C6_6  and  C7_7 
REMARK    7  A    between atoms: C7_7  and  C8_8 
REMARK    8  A    between atoms: C8_8  and  N1_9 
REMARK    9  A    between atoms: C9_13  and  C10_14 
REMARK   10  A    between atoms: C10_14  and  C11_15 
ROOT
HETATM    1  C4  UNL     1     -32.036 -23.771 -37.345  1.00  0.00    -0.014 C 
ENDROOT
BRANCH   1   2
HETATM    2  C3  UNL     1     -33.322 -24.196 -37.884  1.00  0.00     0.004 C 
BRANCH   2   3
HETATM    3  C2  UNL     1     -33.428 -24.842 -39.211  1.00  0.00    -0.004 C 
HETATM    4  C1  UNL     1     -34.013 -26.262 -38.922  1.00  0.00     0.005 C 
ENDBRANCH   2   3
ENDBRANCH   1   2
BRANCH   1   5
HETATM    5  C5  UNL     1     -30.749 -24.055 -37.967  1.00  0.00     0.005 C 
BRANCH   5   6
HETATM    6  C6  UNL     1     -29.967 -25.262 -37.539  1.00  0.00     0.002 C 
BRANCH   6   7
HETATM    7  C7  UNL     1     -29.939 -26.278 -38.701  1.00  0.00     0.027 C 
BRANCH   7   8
HETATM    8  C8  UNL     1     -29.104 -25.762 -39.834  1.00  0.00     0.229 C 
BRANCH   8   9
HETATM    9  N1  UNL     1     -27.859 -26.505 -39.879  1.00  0.00    -0.079 N 
ATOM     10  H13 UNL     1     -27.044 -25.907 -39.751  1.00  0.00     0.274 HD
ATOM     11  H12 UNL     1     -27.731 -27.099 -39.060  1.00  0.00     0.274 HD
ATOM     12  H11 UNL     1     -27.820 -27.033 -40.751  1.00  0.00     0.274 HD
ENDBRANCH   8   9
ENDBRANCH   7   8
ENDBRANCH   6   7
ENDBRANCH   5   6
ENDBRANCH   1   5
BRANCH   1  13
HETATM   13  C9  UNL     1     -31.981 -24.248 -35.892  1.00  0.00     0.005 C 
BRANCH  13  14
HETATM   14  C10 UNL     1     -33.219 -24.948 -35.443  1.00  0.00     0.005 C 
BRANCH  14  15
HETATM   15  C11 UNL     1     -32.749 -26.319 -34.929  1.00  0.00    -0.014 A 
HETATM   16  C12 UNL     1     -33.802 -27.391 -35.130  1.00  0.00     0.005 A 
HETATM   17  C13 UNL     1     -32.491 -27.420 -35.853  1.00  0.00     0.005 A 
ENDBRANCH  14  15
ENDBRANCH  13  14
ENDBRANCH   1  13
TORSDOF 10
ENDMDL
MODEL 3
REMARK VINA RESULT: -4.011827707      2.026      3.552
REMARK  10 active torsions:
REMARK  status: ('A' for Active; 'I' for Inactive)
REMARK    1  A    between atoms: C2_2  and  C3_3 
REMARK    2  A    between atoms: C3_3  and  C4_4 
REMARK    3  A    between atoms: C4_4  and  C5_5 
REMARK    4  A    between atoms: C4_4  and  C9_13 
REMARK    5  A    between atoms: C5_5  and  C6_6 
REMARK    6  A    between atoms: C6_6  and  C7_7 
REMARK    7  A    between atoms: C7_7  and  C8_8 
REMARK    8  A    between atoms: C8_8  and  N1_9 
REMARK    9  A    between atoms: C9_13  and  C10_14 
REMARK   10  A    between atoms: C10_14  and  C11_15 
ROOT
HETATM    1  C4  UNL     1     -30.693 -24.939 -37.798  1.00  0.00    -0.014 C 
ENDROOT
BRANCH   1   2
HETATM    2  C3  UNL     1     -29.483 -25.615 -38.250  1.00  0.00     0.004 C 
BRANCH   2   3
HETATM    3  C2  UNL     1     -29.175 -25.769 -39.688  1.00  0.00    -0.004 C 
HETATM    4  C1  UNL     1     -27.647 -26.089 -39.741  1.00  0.00     0.005 C 
ENDBRANCH   2   3
ENDBRANCH   1   2
BRANCH   1   5
HETATM    5  C5  UNL     1     -30.710 -23.659 -37.104  1.00  0.00     0.005 C 
BRANCH   5   6
HETATM    6  C6  UNL     1     -30.991 -22.400 -37.870  1.00  0.00     0.002 C 
BRANCH   6   7
HETATM    7  C7  UNL     1     -31.815 -22.752 -39.127  1.00  0.00     0.027 C 
BRANCH   7   8
HETATM    8  C8  UNL     1     -31.136 -22.244 -40.364  1.00  0.00     0.229 C 
BRANCH   8   9
HETATM    9  N1  UNL     1     -30.762 -20.857 -40.159  1.00  0.00    -0.079 N 
ATOM     10  H13 UNL     1     -30.953 -20.540 -39.209  1.00  0.00     0.274 HD
ATOM     11  H12 UNL     1     -29.750 -20.724 -40.154  1.00  0.00     0.274 HD
ATOM     12  H11 UNL     1     -31.226 -20.282 -40.862  1.00  0.00     0.274 HD
ENDBRANCH   8   9
ENDBRANCH   7   8
ENDBRANCH   6   7
ENDBRANCH   5   6
ENDBRANCH   1   5
BRANCH   1  13
HETATM   13  C9  UNL     1     -31.482 -25.948 -36.960  1.00  0.00     0.005 C 
BRANCH  13  14
HETATM   14  C10 UNL     1     -32.216 -26.960 -37.772  1.00  0.00     0.005 C 
BRANCH  14  15
HETATM   15  C11 UNL     1     -33.192 -26.154 -38.643  1.00  0.00    -0.014 A 
HETATM   16  C12 UNL     1     -34.468 -26.923 -38.925  1.00  0.00     0.005 A 
HETATM   17  C13 UNL     1     -34.459 -25.672 -38.102  1.00  0.00     0.005 A 
ENDBRANCH  14  15
ENDBRANCH  13  14
ENDBRANCH   1  13
TORSDOF 10
ENDMDL
MODEL 4
REMARK VINA RESULT: -4.005511801      1.388      2.677
REMARK  10 active torsions:
REMARK  status: ('A' for Active; 'I' for Inactive)
REMARK    1  A    between atoms: C2_2  and  C3_3 
REMARK    2  A    between atoms: C3_3  and  C4_4 
REMARK    3  A    between atoms: C4_4  and  C5_5 
REMARK    4  A    between atoms: C4_4  and  C9_13 
REMARK    5  A    between atoms: C5_5  and  C6_6 
REMARK    6  A    between atoms: C6_6  and  C7_7 
REMARK    7  A    between atoms: C7_7  and  C8_8 
REMARK    8  A    between atoms: C8_8  and  N1_9 
REMARK    9  A    between atoms: C9_13  and  C10_14 
REMARK   10  A    between atoms: C10_14  and  C11_15 
ROOT
HETATM    1  C4  UNL     1     -31.214 -24.763 -38.736  1.00  0.00    -0.014 C 
ENDROOT
BRANCH   1   2
HETATM    2  C3  UNL     1     -30.321 -25.535 -37.879  1.00  0.00     0.004 C 
BRANCH   2   3
HETATM    3  C2  UNL     1     -28.890 -25.705 -38.209  1.00  0.00    -0.004 C 
HETATM    4  C1  UNL     1     -28.864 -26.011 -39.741  1.00  0.00     0.005 C 
ENDBRANCH   2   3
ENDBRANCH   1   2
BRANCH   1   5
HETATM    5  C5  UNL     1     -31.323 -23.310 -38.713  1.00  0.00     0.005 C 
BRANCH   5   6
HETATM    6  C6  UNL     1     -31.579 -22.563 -39.990  1.00  0.00     0.002 C 
BRANCH   6   7
HETATM    7  C7  UNL     1     -30.864 -23.292 -41.148  1.00  0.00     0.027 C 
BRANCH   7   8
HETATM    8  C8  UNL     1     -31.671 -23.197 -42.408  1.00  0.00     0.229 C 
BRANCH   8   9
HETATM    9  N1  UNL     1     -30.797 -23.418 -43.545  1.00  0.00    -0.079 N 
ATOM     10  H13 UNL     1     -30.525 -24.396 -43.642  1.00  0.00     0.274 HD
ATOM     11  H12 UNL     1     -31.284 -23.316 -44.436  1.00  0.00     0.274 HD
ATOM     12  H11 UNL     1     -29.991 -22.796 -43.469  1.00  0.00     0.274 HD
ENDBRANCH   8   9
ENDBRANCH   7   8
ENDBRANCH   6   7
ENDBRANCH   5   6
ENDBRANCH   1   5
BRANCH   1  13
HETATM   13  C9  UNL     1     -32.616 -25.352 -38.565  1.00  0.00     0.005 C 
BRANCH  13  14
HETATM   14  C10 UNL     1     -32.620 -26.775 -38.123  1.00  0.00     0.005 C 
BRANCH  14  15
HETATM   15  C11 UNL     1     -33.514 -26.813 -36.873  1.00  0.00    -0.014 A 
HETATM   16  C12 UNL     1     -32.846 -27.535 -35.720  1.00  0.00     0.005 A 
HETATM   17  C13 UNL     1     -33.155 -26.070 -35.669  1.00  0.00     0.005 A 
ENDBRANCH  14  15
ENDBRANCH  13  14
ENDBRANCH   1  13
TORSDOF 10
ENDMDL
MODEL 5
REMARK VINA RESULT: -3.965642682      1.829      2.190
REMARK  10 active torsions:
REMARK  status: ('A' for Active; 'I' for Inactive)
REMARK    1  A    between atoms: C2_2  and  C3_3 
REMARK    2  A    between atoms: C3_3  and  C4_4 
REMARK    3  A    between atoms: C4_4  and  C5_5 
REMARK    4  A    between atoms: C4_4  and  C9_13 
REMARK    5  A    between atoms: C5_5  and  C6_6 
REMARK    6  A    between atoms: C6_6  and  C7_7 
REMARK    7  A    between atoms: C7_7  and  C8_8 
REMARK    8  A    between atoms: C8_8  and  N1_9 
REMARK    9  A    between atoms: C9_13  and  C10_14 
REMARK   10  A    between atoms: C10_14  and  C11_15 
ROOT
HETATM    1  C4  UNL     1     -30.729 -23.955 -38.740  1.00  0.00    -0.014 C 
ENDROOT
BRANCH   1   2
HETATM    2  C3  UNL     1     -30.761 -23.733 -37.300  1.00  0.00     0.004 C 
BRANCH   2   3
HETATM    3  C2  UNL     1     -31.721 -22.791 -36.685  1.00  0.00    -0.004 C 
HETATM    4  C1  UNL     1     -32.766 -23.698 -35.959  1.00  0.00     0.005 C 
ENDBRANCH   2   3
ENDBRANCH   1   2
BRANCH   1   5
HETATM    5  C5  UNL     1     -31.835 -23.662 -39.643  1.00  0.00     0.005 C 
BRANCH   5   6
HETATM    6  C6  UNL     1     -31.659 -22.642 -40.729  1.00  0.00     0.002 C 
BRANCH   6   7
HETATM    7  C7  UNL     1     -31.086 -21.347 -40.112  1.00  0.00     0.027 C 
BRANCH   7   8
HETATM    8  C8  UNL     1     -31.866 -20.153 -40.575  1.00  0.00     0.229 C 
BRANCH   8   9
HETATM    9  N1  UNL     1     -30.941 -19.082 -40.895  1.00  0.00    -0.079 N 
ATOM     10  H13 UNL     1     -30.541 -19.180 -41.828  1.00  0.00     0.274 HD
ATOM     11  H12 UNL     1     -31.414 -18.189 -41.035  1.00  0.00     0.274 HD
ATOM     12  H11 UNL     1     -30.226 -19.034 -40.169  1.00  0.00     0.274 HD
ENDBRANCH   8   9
ENDBRANCH   7   8
ENDBRANCH   6   7
ENDBRANCH   5   6
ENDBRANCH   1   5
BRANCH   1  13
HETATM   13  C9  UNL     1     -30.306 -25.410 -38.959  1.00  0.00     0.005 C 
BRANCH  13  14
HETATM   14  C10 UNL     1     -30.241 -26.211 -37.703  1.00  0.00     0.005 C 
BRANCH  14  15
HETATM   15  C11 UNL     1     -31.345 -27.272 -37.837  1.00  0.00    -0.014 A 
HETATM   16  C12 UNL     1     -32.205 -27.356 -36.591  1.00  0.00     0.005 A 
HETATM   17  C13 UNL     1     -32.752 -26.888 -37.905  1.00  0.00     0.005 A 
ENDBRANCH  14  15
ENDBRANCH  13  14
ENDBRANCH   1  13
TORSDOF 10
ENDMDL
