MODEL 1
REMARK VINA RESULT: -6.974432076      0.000      0.000
REMARK  4 active torsions:
REMARK  status: ('A' for Active; 'I' for Inactive)
REMARK       I    between atoms: C1_4  and  N3_6 
REMARK    1  A    between atoms: N3_6  and  N4_8 
REMARK    2  A    between atoms: C2_10  and  C3_11 
REMARK    3  A    between atoms: C3_11  and  C4_12 
REMARK    4  A    between atoms: N5_15  and  O2_16 
ROOT
HETATM    1  N4  UNL     1      18.975  14.689  18.827  1.00  0.00    -0.313 N 
ATOM      2  H4  UNL     1      19.670  14.839  19.558  1.00  0.00     0.185 HD
HETATM    3  C2  UNL     1      18.089  13.797  19.030  1.00  0.00     0.085 C 
ENDROOT
BRANCH   1   4
HETATM    4  N3  UNL     1      19.064  15.474  17.680  1.00  0.00    -0.275 N 
HETATM    5  C1  UNL     1      20.196  16.325  17.552  1.00  0.00     0.200 C 
HETATM    6  N1  UNL     1      20.023  17.596  17.477  1.00  0.00    -0.372 N 
HETATM    7  N2  UNL     1      21.478  15.717  17.516  1.00  0.00    -0.062 NA
ATOM      8  H12 UNL     1      20.835  18.206  17.386  1.00  0.00     0.158 HD
ATOM      9  H11 UNL     1      19.102  18.033  17.504  1.00  0.00     0.158 HD
ATOM     10  H3  UNL     1      18.344  15.439  16.958  1.00  0.00     0.189 HD
ENDBRANCH   1   4
BRANCH   3  11
HETATM   11  C3  UNL     1      17.038  13.525  17.998  1.00  0.00     0.088 C 
BRANCH  11  12
HETATM   12  C4  UNL     1      16.149  12.431  18.485  1.00  0.00    -0.009 A 
HETATM   13  C5  UNL     1      14.913  12.080  17.992  1.00  0.00     0.179 A 
HETATM   14  O1  UNL     1      14.493  11.068  18.715  1.00  0.00    -0.222 OA
HETATM   15  N5  UNL     1      15.365  10.756  19.623  1.00  0.00    -0.133 N 
HETATM   16  C6  UNL     1      16.417  11.570  19.529  1.00  0.00     0.160 A 
BRANCH  15  17
HETATM   17  O2  UNL     1      15.231   9.738  20.548  1.00  0.00    -0.263 OA
ATOM     18  H2  UNL     1      14.413   9.449  20.934  1.00  0.00     0.247 HD
ENDBRANCH  15  17
ENDBRANCH  11  12
ENDBRANCH   3  11
TORSDOF 4
ENDMDL
MODEL 2
REMARK VINA RESULT: -6.884574005      1.651      2.159
REMARK  4 active torsions:
REMARK  status: ('A' for Active; 'I' for Inactive)
REMARK       I    between atoms: C1_4  and  N3_6 
REMARK    1  A    between atoms: N3_6  and  N4_8 
REMARK    2  A    between atoms: C2_10  and  C3_11 
REMARK    3  A    between atoms: C3_11  and  C4_12 
REMARK    4  A    between atoms: N5_15  and  O2_16 
ROOT
HETATM    1  N4  UNL     1      18.935  13.742  17.680  1.00  0.00    -0.313 N 
ATOM      2  H4  UNL     1      19.820  13.436  17.277  1.00  0.00     0.185 HD
HETATM    3  C2  UNL     1      17.869  13.194  17.251  1.00  0.00     0.085 C 
ENDROOT
BRANCH   1   4
HETATM    4  N3  UNL     1      18.980  14.730  18.662  1.00  0.00    -0.275 N 
HETATM    5  C1  UNL     1      18.833  14.319  20.015  1.00  0.00     0.200 C 
HETATM    6  N1  UNL     1      17.844  14.761  20.704  1.00  0.00    -0.372 N 
HETATM    7  N2  UNL     1      19.803  13.426  20.542  1.00  0.00    -0.062 NA
ATOM      8  H12 UNL     1      17.739  14.466  21.675  1.00  0.00     0.158 HD
ATOM      9  H11 UNL     1      17.147  15.402  20.326  1.00  0.00     0.158 HD
ATOM     10  H3  UNL     1      19.113  15.712  18.418  1.00  0.00     0.189 HD
ENDBRANCH   1   4
BRANCH   3  11
HETATM   11  C3  UNL     1      16.535  13.596  17.801  1.00  0.00     0.088 C 
BRANCH  11  12
HETATM   12  C4  UNL     1      15.899  12.413  18.450  1.00  0.00    -0.009 A 
HETATM   13  C5  UNL     1      14.688  11.842  18.135  1.00  0.00     0.179 A 
HETATM   14  O1  UNL     1      14.525  10.829  18.955  1.00  0.00    -0.222 OA
HETATM   15  N5  UNL     1      15.537  10.719  19.758  1.00  0.00    -0.133 N 
HETATM   16  C6  UNL     1      16.425  11.677  19.491  1.00  0.00     0.160 A 
BRANCH  15  17
HETATM   17  O2  UNL     1      15.679   9.757  20.741  1.00  0.00    -0.263 OA
ATOM     18  H2  UNL     1      16.395   9.137  20.805  1.00  0.00     0.247 HD
ENDBRANCH  15  17
ENDBRANCH  11  12
ENDBRANCH   3  11
TORSDOF 4
ENDMDL
MODEL 3
REMARK VINA RESULT: -6.587970874      0.830      1.290
REMARK  4 active torsions:
REMARK  status: ('A' for Active; 'I' for Inactive)
REMARK       I    between atoms: C1_4  and  N3_6 
REMARK    1  A    between atoms: N3_6  and  N4_8 
REMARK    2  A    between atoms: C2_10  and  C3_11 
REMARK    3  A    between atoms: C3_11  and  C4_12 
REMARK    4  A    between atoms: N5_15  and  O2_16 
ROOT
HETATM    1  N4  UNL     1      18.826  14.289  17.267  1.00  0.00    -0.313 N 
ATOM      2  H4  UNL     1      19.014  14.552  16.300  1.00  0.00     0.185 HD
HETATM    3  C2  UNL     1      17.995  13.346  17.472  1.00  0.00     0.085 C 
ENDROOT
BRANCH   1   4
HETATM    4  N3  UNL     1      19.497  14.987  18.269  1.00  0.00    -0.275 N 
HETATM    5  C1  UNL     1      20.463  15.949  17.864  1.00  0.00     0.200 C 
HETATM    6  N1  UNL     1      21.689  15.796  18.216  1.00  0.00    -0.372 N 
HETATM    7  N2  UNL     1      20.016  17.044  17.079  1.00  0.00    -0.062 NA
ATOM      8  H12 UNL     1      22.382  16.486  17.926  1.00  0.00     0.158 HD
ATOM      9  H11 UNL     1      22.011  15.010  18.780  1.00  0.00     0.158 HD
ATOM     10  H3  UNL     1      19.302  14.815  19.255  1.00  0.00     0.189 HD
ENDBRANCH   1   4
BRANCH   3  11
HETATM   11  C3  UNL     1      17.673  12.909  18.868  1.00  0.00     0.088 C 
BRANCH  11  12
HETATM   12  C4  UNL     1      16.392  12.146  18.856  1.00  0.00    -0.009 A 
HETATM   13  C5  UNL     1      15.314  12.341  18.024  1.00  0.00     0.179 A 
HETATM   14  O1  UNL     1      14.411  11.451  18.362  1.00  0.00    -0.222 OA
HETATM   15  N5  UNL     1      14.835  10.712  19.339  1.00  0.00    -0.133 N 
HETATM   16  C6  UNL     1      16.062  11.098  19.690  1.00  0.00     0.160 A 
BRANCH  15  17
HETATM   17  O2  UNL     1      14.129   9.682  19.931  1.00  0.00    -0.263 OA
ATOM     18  H2  UNL     1      14.341   8.758  19.864  1.00  0.00     0.247 HD
ENDBRANCH  15  17
ENDBRANCH  11  12
ENDBRANCH   3  11
TORSDOF 4
ENDMDL
MODEL 4
REMARK VINA RESULT: -6.167679175      4.456      6.866
REMARK  4 active torsions:
REMARK  status: ('A' for Active; 'I' for Inactive)
REMARK       I    between atoms: C1_4  and  N3_6 
REMARK    1  A    between atoms: N3_6  and  N4_8 
REMARK    2  A    between atoms: C2_10  and  C3_11 
REMARK    3  A    between atoms: C3_11  and  C4_12 
REMARK    4  A    between atoms: N5_15  and  O2_16 
ROOT
HETATM    1  N4  UNL     1      17.852  13.640  16.763  1.00  0.00    -0.313 N 
ATOM      2  H4  UNL     1      17.712  12.992  15.989  1.00  0.00     0.185 HD
HETATM    3  C2  UNL     1      18.974  14.236  16.840  1.00  0.00     0.085 C 
ENDROOT
BRANCH   1   4
HETATM    4  N3  UNL     1      16.800  13.810  17.661  1.00  0.00    -0.275 N 
HETATM    5  C1  UNL     1      16.410  12.684  18.436  1.00  0.00     0.200 C 
HETATM    6  N1  UNL     1      15.217  12.220  18.317  1.00  0.00    -0.372 N 
HETATM    7  N2  UNL     1      17.373  12.120  19.314  1.00  0.00    -0.062 NA
ATOM      8  H12 UNL     1      14.937  11.413  18.873  1.00  0.00     0.158 HD
ATOM      9  H11 UNL     1      14.525  12.625  17.687  1.00  0.00     0.158 HD
ATOM     10  H3  UNL     1      16.328  14.709  17.758  1.00  0.00     0.189 HD
ENDBRANCH   1   4
BRANCH   3  11
HETATM   11  C3  UNL     1      19.246  15.202  17.951  1.00  0.00     0.088 C 
BRANCH  11  12
HETATM   12  C4  UNL     1      20.244  16.209  17.489  1.00  0.00    -0.009 A 
HETATM   13  C5  UNL     1      19.997  17.496  17.070  1.00  0.00     0.179 A 
HETATM   14  O1  UNL     1      21.159  18.020  16.757  1.00  0.00    -0.222 OA
HETATM   15  N5  UNL     1      22.116  17.166  16.945  1.00  0.00    -0.133 N 
HETATM   16  C6  UNL     1      21.608  16.020  17.400  1.00  0.00     0.160 A 
BRANCH  15  17
HETATM   17  O2  UNL     1      23.458  17.401  16.712  1.00  0.00    -0.263 OA
ATOM     18  H2  UNL     1      24.163  16.792  16.893  1.00  0.00     0.247 HD
ENDBRANCH  15  17
ENDBRANCH  11  12
ENDBRANCH   3  11
TORSDOF 4
ENDMDL
MODEL 5
REMARK VINA RESULT: -6.143498229      1.707      2.223
REMARK  4 active torsions:
REMARK  status: ('A' for Active; 'I' for Inactive)
REMARK       I    between atoms: C1_4  and  N3_6 
REMARK    1  A    between atoms: N3_6  and  N4_8 
REMARK    2  A    between atoms: C2_10  and  C3_11 
REMARK    3  A    between atoms: C3_11  and  C4_12 
REMARK    4  A    between atoms: N5_15  and  O2_16 
ROOT
HETATM    1  N4  UNL     1      18.845  14.156  17.743  1.00  0.00    -0.313 N 
ATOM      2  H4  UNL     1      19.851  14.067  17.883  1.00  0.00     0.185 HD
HETATM    3  C2  UNL     1      18.215  13.135  17.318  1.00  0.00     0.085 C 
ENDROOT
BRANCH   1   4
HETATM    4  N3  UNL     1      18.259  15.387  18.031  1.00  0.00    -0.275 N 
HETATM    5  C1  UNL     1      17.243  15.415  19.025  1.00  0.00     0.200 C 
HETATM    6  N1  UNL     1      16.059  15.795  18.705  1.00  0.00    -0.372 N 
HETATM    7  N2  UNL     1      17.595  15.013  20.341  1.00  0.00    -0.062 NA
ATOM      8  H12 UNL     1      15.330  15.814  19.418  1.00  0.00     0.158 HD
ATOM      9  H11 UNL     1      15.805  16.083  17.760  1.00  0.00     0.158 HD
ATOM     10  H3  UNL     1      18.549  16.237  17.547  1.00  0.00     0.189 HD
ENDBRANCH   1   4
BRANCH   3  11
HETATM   11  C3  UNL     1      16.736  13.196  17.091  1.00  0.00     0.088 C 
BRANCH  11  12
HETATM   12  C4  UNL     1      16.051  12.350  18.111  1.00  0.00    -0.009 A 
HETATM   13  C5  UNL     1      14.706  12.072  18.195  1.00  0.00     0.179 A 
HETATM   14  O1  UNL     1      14.547  11.293  19.239  1.00  0.00    -0.222 OA
HETATM   15  N5  UNL     1      15.684  11.059  19.817  1.00  0.00    -0.133 N 
HETATM   16  C6  UNL     1      16.657  11.691  19.160  1.00  0.00     0.160 A 
BRANCH  15  17
HETATM   17  O2  UNL     1      15.866  10.276  20.942  1.00  0.00    -0.263 OA
ATOM     18  H2  UNL     1      15.487  10.442  21.796  1.00  0.00     0.247 HD
ENDBRANCH  15  17
ENDBRANCH  11  12
ENDBRANCH   3  11
TORSDOF 4
ENDMDL
