MODEL 1
REMARK VINA RESULT: -7.481575332      0.000      0.000
REMARK  4 active torsions:
REMARK  status: ('A' for Active; 'I' for Inactive)
REMARK    1  A    between atoms: C2_2  and  C4_4 
REMARK    2  A    between atoms: C4_4  and  C5_5 
REMARK    3  A    between atoms: C5_5  and  N1_6 
REMARK       I    between atoms: N1_6  and  C6_8 
REMARK       I    between atoms: C6_8  and  N2_10 
REMARK    4  A    between atoms: N2_10  and  C7_12 
ROOT
HETATM    1  C7  UNL     1       2.453  16.900  43.228  1.00  0.00     0.037 C 
HETATM    2  C8  UNL     1       1.250  17.201  42.410  1.00  0.00     0.035 C 
HETATM    3  C9  UNL     1       0.512  15.914  42.100  1.00  0.00    -0.010 C 
HETATM    4  C10 UNL     1       1.458  15.008  41.341  1.00  0.00     0.009 C 
HETATM    5  C11 UNL     1       2.619  14.646  42.236  1.00  0.00    -0.010 C 
HETATM    6  C12 UNL     1       2.181  14.020  43.535  1.00  0.00     0.030 C 
HETATM    7  C13 UNL     1       1.227  14.965  44.233  1.00  0.00     0.040 C 
HETATM    8 CL1  UNL     1       0.746  14.217  45.756  1.00  0.00    -0.119 Cl
HETATM    9  C14 UNL     1       0.044  15.189  43.316  1.00  0.00     0.030 C 
HETATM   10  C15 UNL     1       1.975  16.235  44.515  1.00  0.00     0.056 C 
HETATM   11  C16 UNL     1       3.375  15.916  42.529  1.00  0.00     0.035 C 
ENDROOT
BRANCH   1  12
HETATM   12  N2  UNL     1       3.138  18.107  43.566  1.00  0.00    -0.334 N 
HETATM   13  C6  UNL     1       3.901  18.911  42.673  1.00  0.00     0.316 C 
HETATM   14  N1  UNL     1       4.513  20.084  43.170  1.00  0.00    -0.343 N 
HETATM   15  O1  UNL     1       3.974  18.514  41.492  1.00  0.00    -0.247 OA
ATOM     16  H1  UNL     1       4.408  20.328  44.154  1.00  0.00     0.164 HD
ATOM     17  H2  UNL     1       3.074  18.421  44.535  1.00  0.00     0.165 HD
BRANCH  14  18
HETATM   18  C5  UNL     1       5.281  20.933  42.310  1.00  0.00     0.125 C 
BRANCH  18  19
HETATM   19  C4  UNL     1       6.735  20.788  42.579  1.00  0.00     0.023 C 
BRANCH  19  20
HETATM   20  C2  UNL     1       7.542  20.894  41.280  1.00  0.00    -0.021 C 
HETATM   21  C1  UNL     1       7.490  22.344  40.860  1.00  0.00     0.009 C 
HETATM   22  C3  UNL     1       6.914  20.013  40.220  1.00  0.00     0.009 C 
ENDBRANCH  19  20
ENDBRANCH  18  19
ENDBRANCH  14  18
ENDBRANCH   1  12
TORSDOF 4
ENDMDL
MODEL 2
REMARK VINA RESULT: -7.465011597      0.848      1.141
REMARK  4 active torsions:
REMARK  status: ('A' for Active; 'I' for Inactive)
REMARK    1  A    between atoms: C2_2  and  C4_4 
REMARK    2  A    between atoms: C4_4  and  C5_5 
REMARK    3  A    between atoms: C5_5  and  N1_6 
REMARK       I    between atoms: N1_6  and  C6_8 
REMARK       I    between atoms: C6_8  and  N2_10 
REMARK    4  A    between atoms: N2_10  and  C7_12 
ROOT
HETATM    1  C7  UNL     1       2.416  17.304  42.807  1.00  0.00     0.037 C 
HETATM    2  C8  UNL     1       1.212  17.507  41.960  1.00  0.00     0.035 C 
HETATM    3  C9  UNL     1       0.583  16.166  41.643  1.00  0.00    -0.010 C 
HETATM    4  C10 UNL     1       1.612  15.332  40.912  1.00  0.00     0.009 C 
HETATM    5  C11 UNL     1       2.777  15.065  41.835  1.00  0.00    -0.010 C 
HETATM    6  C12 UNL     1       2.358  14.413  43.128  1.00  0.00     0.030 C 
HETATM    7  C13 UNL     1       1.319  15.286  43.798  1.00  0.00     0.040 C 
HETATM    8 CL1  UNL     1       0.863  14.512  45.315  1.00  0.00    -0.119 Cl
HETATM    9  C14 UNL     1       0.143  15.414  42.853  1.00  0.00     0.030 C 
HETATM   10  C15 UNL     1       1.961  16.611  44.087  1.00  0.00     0.056 C 
HETATM   11  C16 UNL     1       3.426  16.390  42.136  1.00  0.00     0.035 C 
ENDROOT
BRANCH   1  12
HETATM   12  N2  UNL     1       2.998  18.562  43.152  1.00  0.00    -0.334 N 
HETATM   13  C6  UNL     1       4.131  19.156  42.526  1.00  0.00     0.316 C 
HETATM   14  N1  UNL     1       4.579  20.415  42.987  1.00  0.00    -0.343 N 
HETATM   15  O1  UNL     1       4.655  18.510  41.597  1.00  0.00    -0.247 OA
ATOM     16  H1  UNL     1       4.094  20.869  43.761  1.00  0.00     0.164 HD
ATOM     17  H2  UNL     1       2.564  19.081  43.915  1.00  0.00     0.165 HD
BRANCH  14  18
HETATM   18  C5  UNL     1       5.706  21.060  42.384  1.00  0.00     0.125 C 
BRANCH  18  19
HETATM   19  C4  UNL     1       5.449  22.511  42.193  1.00  0.00     0.023 C 
BRANCH  19  20
HETATM   20  C2  UNL     1       6.559  23.154  41.355  1.00  0.00    -0.021 C 
HETATM   21  C1  UNL     1       5.885  23.784  40.159  1.00  0.00     0.009 C 
HETATM   22  C3  UNL     1       7.540  22.088  40.910  1.00  0.00     0.009 C 
ENDBRANCH  19  20
ENDBRANCH  18  19
ENDBRANCH  14  18
ENDBRANCH   1  12
TORSDOF 4
ENDMDL
MODEL 3
REMARK VINA RESULT: -7.386566799      2.670      3.614
REMARK  4 active torsions:
REMARK  status: ('A' for Active; 'I' for Inactive)
REMARK    1  A    between atoms: C2_2  and  C4_4 
REMARK    2  A    between atoms: C4_4  and  C5_5 
REMARK    3  A    between atoms: C5_5  and  N1_6 
REMARK       I    between atoms: N1_6  and  C6_8 
REMARK       I    between atoms: C6_8  and  N2_10 
REMARK    4  A    between atoms: N2_10  and  C7_12 
ROOT
HETATM    1  C7  UNL     1       2.469  17.248  40.651  1.00  0.00     0.037 C 
HETATM    2  C8  UNL     1       2.527  15.930  41.333  1.00  0.00     0.035 C 
HETATM    3  C9  UNL     1       1.215  15.198  41.134  1.00  0.00    -0.010 C 
HETATM    4  C10 UNL     1       0.113  16.052  41.721  1.00  0.00     0.009 C 
HETATM    5  C11 UNL     1       0.020  17.342  40.941  1.00  0.00    -0.010 C 
HETATM    6  C12 UNL     1      -0.185  17.117  39.465  1.00  0.00     0.030 C 
HETATM    7  C13 UNL     1       0.937  16.245  38.946  1.00  0.00     0.040 C 
HETATM    8 CL1  UNL     1       0.685  16.015  37.216  1.00  0.00    -0.119 Cl
HETATM    9  C14 UNL     1       0.892  14.934  39.702  1.00  0.00     0.030 C 
HETATM   10  C15 UNL     1       2.224  16.984  39.168  1.00  0.00     0.056 C 
HETATM   11  C16 UNL     1       1.310  18.091  41.154  1.00  0.00     0.035 C 
ENDROOT
BRANCH   1  12
HETATM   12  N2  UNL     1       3.714  17.935  40.791  1.00  0.00    -0.334 N 
HETATM   13  C6  UNL     1       4.097  18.748  41.896  1.00  0.00     0.316 C 
HETATM   14  N1  UNL     1       5.373  19.356  41.881  1.00  0.00    -0.343 N 
HETATM   15  O1  UNL     1       3.262  18.866  42.815  1.00  0.00    -0.247 OA
ATOM     16  H1  UNL     1       5.990  19.211  41.082  1.00  0.00     0.164 HD
ATOM     17  H2  UNL     1       4.388  17.835  40.032  1.00  0.00     0.165 HD
BRANCH  14  18
HETATM   18  C5  UNL     1       5.811  20.172  42.972  1.00  0.00     0.125 C 
BRANCH  18  19
HETATM   19  C4  UNL     1       7.116  20.812  42.667  1.00  0.00     0.023 C 
BRANCH  19  20
HETATM   20  C2  UNL     1       6.916  22.256  42.192  1.00  0.00    -0.021 C 
HETATM   21  C1  UNL     1       7.551  22.350  40.825  1.00  0.00     0.009 C 
HETATM   22  C3  UNL     1       7.595  23.206  43.158  1.00  0.00     0.009 C 
ENDBRANCH  19  20
ENDBRANCH  18  19
ENDBRANCH  14  18
ENDBRANCH   1  12
TORSDOF 4
ENDMDL
MODEL 4
REMARK VINA RESULT: -7.374236545      2.280      3.207
REMARK  4 active torsions:
REMARK  status: ('A' for Active; 'I' for Inactive)
REMARK    1  A    between atoms: C2_2  and  C4_4 
REMARK    2  A    between atoms: C4_4  and  C5_5 
REMARK    3  A    between atoms: C5_5  and  N1_6 
REMARK       I    between atoms: N1_6  and  C6_8 
REMARK       I    between atoms: C6_8  and  N2_10 
REMARK    4  A    between atoms: N2_10  and  C7_12 
ROOT
HETATM    1  C7  UNL     1       2.312  17.429  41.900  1.00  0.00     0.037 C 
HETATM    2  C8  UNL     1       2.984  16.119  42.096  1.00  0.00     0.035 C 
HETATM    3  C9  UNL     1       2.255  15.051  41.307  1.00  0.00    -0.010 C 
HETATM    4  C10 UNL     1       0.828  14.997  41.808  1.00  0.00     0.009 C 
HETATM    5  C11 UNL     1       0.149  16.311  41.504  1.00  0.00    -0.010 C 
HETATM    6  C12 UNL     1       0.205  16.673  40.042  1.00  0.00     0.030 C 
HETATM    7  C13 UNL     1       1.653  16.692  39.602  1.00  0.00     0.040 C 
HETATM    8 CL1  UNL     1       1.691  17.136  37.896  1.00  0.00    -0.119 Cl
HETATM    9  C14 UNL     1       2.227  15.311  39.839  1.00  0.00     0.030 C 
HETATM   10  C15 UNL     1       2.356  17.744  40.408  1.00  0.00     0.056 C 
HETATM   11  C16 UNL     1       0.850  17.377  42.305  1.00  0.00     0.035 C 
ENDROOT
BRANCH   1  12
HETATM   12  N2  UNL     1       3.013  18.457  42.603  1.00  0.00    -0.334 N 
HETATM   13  C6  UNL     1       4.295  18.974  42.262  1.00  0.00     0.316 C 
HETATM   14  N1  UNL     1       4.848  19.999  43.063  1.00  0.00    -0.343 N 
HETATM   15  O1  UNL     1       4.847  18.476  41.261  1.00  0.00    -0.247 OA
ATOM     16  H1  UNL     1       4.328  20.342  43.871  1.00  0.00     0.164 HD
ATOM     17  H2  UNL     1       2.554  18.855  43.422  1.00  0.00     0.165 HD
BRANCH  14  18
HETATM   18  C5  UNL     1       6.128  20.562  42.757  1.00  0.00     0.125 C 
BRANCH  18  19
HETATM   19  C4  UNL     1       5.985  21.911  42.152  1.00  0.00     0.023 C 
BRANCH  19  20
HETATM   20  C2  UNL     1       6.759  22.000  40.832  1.00  0.00    -0.021 C 
HETATM   21  C1  UNL     1       7.609  20.755  40.747  1.00  0.00     0.009 C 
HETATM   22  C3  UNL     1       7.632  23.238  40.839  1.00  0.00     0.009 C 
ENDBRANCH  19  20
ENDBRANCH  18  19
ENDBRANCH  14  18
ENDBRANCH   1  12
TORSDOF 4
ENDMDL
MODEL 5
REMARK VINA RESULT: -7.281117514      4.095      6.091
REMARK  4 active torsions:
REMARK  status: ('A' for Active; 'I' for Inactive)
REMARK    1  A    between atoms: C2_2  and  C4_4 
REMARK    2  A    between atoms: C4_4  and  C5_5 
REMARK    3  A    between atoms: C5_5  and  N1_6 
REMARK       I    between atoms: N1_6  and  C6_8 
REMARK       I    between atoms: C6_8  and  N2_10 
REMARK    4  A    between atoms: N2_10  and  C7_12 
ROOT
HETATM    1  C7  UNL     1       1.696  15.826  42.362  1.00  0.00     0.037 C 
HETATM    2  C8  UNL     1       2.021  16.717  43.505  1.00  0.00     0.035 C 
HETATM    3  C9  UNL     1       2.125  15.897  44.775  1.00  0.00    -0.010 C 
HETATM    4  C10 UNL     1       0.793  15.213  44.996  1.00  0.00     0.009 C 
HETATM    5  C11 UNL     1       0.541  14.246  43.865  1.00  0.00    -0.010 C 
HETATM    6  C12 UNL     1       1.653  13.242  43.698  1.00  0.00     0.030 C 
HETATM    7  C13 UNL     1       2.955  13.987  43.499  1.00  0.00     0.040 C 
HETATM    8 CL1  UNL     1       4.233  12.791  43.287  1.00  0.00    -0.119 Cl
HETATM    9  C14 UNL     1       3.186  14.849  44.722  1.00  0.00     0.030 C 
HETATM   10  C15 UNL     1       2.822  14.803  42.247  1.00  0.00     0.056 C 
HETATM   11  C16 UNL     1       0.410  15.054  42.600  1.00  0.00     0.035 C 
ENDROOT
BRANCH   1  12
HETATM   12  N2  UNL     1       1.637  16.576  41.148  1.00  0.00    -0.334 N 
HETATM   13  C6  UNL     1       1.253  16.071  39.874  1.00  0.00     0.316 C 
HETATM   14  N1  UNL     1       1.243  16.953  38.769  1.00  0.00    -0.343 N 
HETATM   15  O1  UNL     1       0.945  14.863  39.824  1.00  0.00    -0.247 OA
ATOM     16  H1  UNL     1       1.518  17.926  38.899  1.00  0.00     0.164 HD
ATOM     17  H2  UNL     1       1.894  17.562  41.199  1.00  0.00     0.165 HD
BRANCH  14  18
HETATM   18  C5  UNL     1       0.853  16.498  37.469  1.00  0.00     0.125 C 
BRANCH  18  19
HETATM   19  C4  UNL     1      -0.556  16.868  37.176  1.00  0.00     0.023 C 
BRANCH  19  20
HETATM   20  C2  UNL     1      -1.103  16.044  36.005  1.00  0.00    -0.021 C 
HETATM   21  C1  UNL     1      -2.607  16.165  36.061  1.00  0.00     0.009 C 
HETATM   22  C3  UNL     1      -0.681  14.598  36.163  1.00  0.00     0.009 C 
ENDBRANCH  19  20
ENDBRANCH  18  19
ENDBRANCH  14  18
ENDBRANCH   1  12
TORSDOF 4
ENDMDL
