MODEL 1
REMARK VINA RESULT: -8.826602073      0.000      0.000
REMARK  4 active torsions:
REMARK  status: ('A' for Active; 'I' for Inactive)
REMARK       I    between atoms: C1_2  and  N1_3 
REMARK       I    between atoms: C1_2  and  N2_11 
REMARK    1  A    between atoms: N1_3  and  C2_5 
REMARK    2  A    between atoms: C2_5  and  C3_6 
REMARK    3  A    between atoms: N2_11  and  C8_13 
REMARK    4  A    between atoms: C8_13  and  C9_14 
ROOT
HETATM    1  O1  UNL     1       6.028  19.353  43.872  1.00  0.00    -0.247 OA
HETATM    2  C1  UNL     1       5.484  19.707  42.801  1.00  0.00     0.316 C 
HETATM    3  N1  UNL     1       6.138  20.677  42.001  1.00  0.00    -0.343 N 
ATOM      4  H1  UNL     1       5.724  20.988  41.123  1.00  0.00     0.164 HD
HETATM    5  N2  UNL     1       4.260  19.171  42.383  1.00  0.00    -0.343 N 
ATOM      6  H2  UNL     1       3.863  19.480  41.495  1.00  0.00     0.164 HD
ENDROOT
BRANCH   5   7
HETATM    7  C8  UNL     1       3.541  18.196  43.167  1.00  0.00     0.129 C 
BRANCH   7   8
HETATM    8  C9  UNL     1       2.365  17.701  42.415  1.00  0.00     0.012 C 
HETATM    9  C10 UNL     1       1.757  16.448  42.987  1.00  0.00    -0.008 C 
HETATM   10  C11 UNL     1       0.590  16.077  42.080  1.00  0.00     0.010 C 
HETATM   11  C17 UNL     1       2.772  15.401  42.541  1.00  0.00     0.010 C 
HETATM   12  C12 UNL     1       1.214  15.522  40.807  1.00  0.00    -0.010 C 
HETATM   13  C13 UNL     1       0.953  16.479  39.667  1.00  0.00     0.005 C 
HETATM   14  C16 UNL     1       2.690  15.729  41.044  1.00  0.00    -0.006 C 
HETATM   15  C14 UNL     1       1.794  17.665  40.007  1.00  0.00     0.006 C 
HETATM   16  C15 UNL     1       2.825  17.204  41.033  1.00  0.00    -0.004 C 
ENDBRANCH   7   8
ENDBRANCH   5   7
BRANCH   3  17
HETATM   17  C2  UNL     1       7.400  21.218  42.448  1.00  0.00     0.129 C 
BRANCH  17  18
HETATM   18  C3  UNL     1       7.491  22.663  41.985  1.00  0.00     0.003 C 
HETATM   19  C4  UNL     1       7.197  22.765  40.509  1.00  0.00     0.006 C 
HETATM   20  C5  UNL     1       6.726  24.215  40.395  1.00  0.00     0.000 C 
HETATM   21  C6  UNL     1       5.809  24.334  41.586  1.00  0.00     0.000 C 
HETATM   22  C7  UNL     1       6.342  23.404  42.648  1.00  0.00     0.006 C 
ENDBRANCH  17  18
ENDBRANCH   3  17
TORSDOF 4
ENDMDL
MODEL 2
REMARK VINA RESULT: -8.683538420      1.307      1.888
REMARK  4 active torsions:
REMARK  status: ('A' for Active; 'I' for Inactive)
REMARK       I    between atoms: C1_2  and  N1_3 
REMARK       I    between atoms: C1_2  and  N2_11 
REMARK    1  A    between atoms: N1_3  and  C2_5 
REMARK    2  A    between atoms: C2_5  and  C3_6 
REMARK    3  A    between atoms: N2_11  and  C8_13 
REMARK    4  A    between atoms: C8_13  and  C9_14 
ROOT
HETATM    1  O1  UNL     1       5.073  18.667  41.517  1.00  0.00    -0.247 OA
HETATM    2  C1  UNL     1       4.521  19.313  42.436  1.00  0.00     0.316 C 
HETATM    3  N1  UNL     1       5.147  20.500  42.893  1.00  0.00    -0.343 N 
ATOM      4  H1  UNL     1       4.726  21.052  43.640  1.00  0.00     0.164 HD
HETATM    5  N2  UNL     1       3.317  18.894  43.013  1.00  0.00    -0.343 N 
ATOM      6  H2  UNL     1       2.899  19.463  43.750  1.00  0.00     0.164 HD
ENDROOT
BRANCH   5   7
HETATM    7  C8  UNL     1       2.648  17.684  42.600  1.00  0.00     0.129 C 
BRANCH   7   8
HETATM    8  C9  UNL     1       1.992  17.886  41.287  1.00  0.00     0.012 C 
HETATM    9  C10 UNL     1       0.493  17.745  41.326  1.00  0.00    -0.008 C 
HETATM   10  C11 UNL     1      -0.001  17.958  39.900  1.00  0.00     0.010 C 
HETATM   11  C17 UNL     1       0.345  16.231  41.426  1.00  0.00     0.010 C 
HETATM   12  C12 UNL     1       0.374  16.694  39.138  1.00  0.00    -0.010 C 
HETATM   13  C13 UNL     1       1.447  17.024  38.125  1.00  0.00     0.005 C 
HETATM   14  C16 UNL     1       1.156  15.909  40.163  1.00  0.00    -0.006 C 
HETATM   15  C14 UNL     1       2.644  17.320  38.968  1.00  0.00     0.006 C 
HETATM   16  C15 UNL     1       2.376  16.729  40.350  1.00  0.00    -0.004 C 
ENDBRANCH   7   8
ENDBRANCH   5   7
BRANCH   3  17
HETATM   17  C2  UNL     1       6.389  20.917  42.285  1.00  0.00     0.129 C 
BRANCH  17  18
HETATM   18  C3  UNL     1       6.305  22.409  42.002  1.00  0.00     0.003 C 
HETATM   19  C4  UNL     1       7.326  23.160  42.818  1.00  0.00     0.006 C 
HETATM   20  C5  UNL     1       7.515  24.423  41.977  1.00  0.00     0.000 C 
HETATM   21  C6  UNL     1       7.603  23.852  40.584  1.00  0.00     0.000 C 
HETATM   22  C7  UNL     1       6.757  22.603  40.565  1.00  0.00     0.006 C 
ENDBRANCH  17  18
ENDBRANCH   3  17
TORSDOF 4
ENDMDL
MODEL 3
REMARK VINA RESULT: -8.443250836      4.750      7.732
REMARK  4 active torsions:
REMARK  status: ('A' for Active; 'I' for Inactive)
REMARK       I    between atoms: C1_2  and  N1_3 
REMARK       I    between atoms: C1_2  and  N2_11 
REMARK    1  A    between atoms: N1_3  and  C2_5 
REMARK    2  A    between atoms: C2_5  and  C3_6 
REMARK    3  A    between atoms: N2_11  and  C8_13 
REMARK    4  A    between atoms: C8_13  and  C9_14 
ROOT
HETATM    1  O1  UNL     1      -0.040  18.348  39.260  1.00  0.00    -0.247 OA
HETATM    2  C1  UNL     1       0.979  17.747  38.850  1.00  0.00     0.316 C 
HETATM    3  N1  UNL     1       1.014  17.327  37.497  1.00  0.00    -0.343 N 
ATOM      4  H1  UNL     1       1.827  16.835  37.128  1.00  0.00     0.164 HD
HETATM    5  N2  UNL     1       2.069  17.485  39.688  1.00  0.00    -0.343 N 
ATOM      6  H2  UNL     1       2.883  17.006  39.303  1.00  0.00     0.164 HD
ENDROOT
BRANCH   5   7
HETATM    7  C8  UNL     1       2.079  17.873  41.078  1.00  0.00     0.129 C 
BRANCH   7   8
HETATM    8  C9  UNL     1       2.661  16.791  41.906  1.00  0.00     0.012 C 
HETATM    9  C10 UNL     1       2.350  15.405  41.406  1.00  0.00    -0.008 C 
HETATM   10  C11 UNL     1       3.000  14.433  42.384  1.00  0.00     0.010 C 
HETATM   11  C17 UNL     1       0.892  15.262  41.832  1.00  0.00     0.010 C 
HETATM   12  C12 UNL     1       2.140  14.472  43.641  1.00  0.00    -0.010 C 
HETATM   13  C13 UNL     1       2.926  15.113  44.762  1.00  0.00     0.005 C 
HETATM   14  C16 UNL     1       1.134  15.550  43.320  1.00  0.00    -0.006 C 
HETATM   15  C14 UNL     1       3.033  16.542  44.340  1.00  0.00     0.006 C 
HETATM   16  C15 UNL     1       1.963  16.777  43.277  1.00  0.00    -0.004 C 
ENDBRANCH   7   8
ENDBRANCH   5   7
BRANCH   3  17
HETATM   17  C2  UNL     1      -0.120  17.606  36.647  1.00  0.00     0.129 C 
BRANCH  17  18
HETATM   18  C3  UNL     1      -1.114  16.464  36.787  1.00  0.00     0.003 C 
HETATM   19  C4  UNL     1      -2.204  16.582  35.751  1.00  0.00     0.006 C 
HETATM   20  C5  UNL     1      -2.671  15.130  35.638  1.00  0.00     0.000 C 
HETATM   21  C6  UNL     1      -1.359  14.389  35.598  1.00  0.00     0.000 C 
HETATM   22  C7  UNL     1      -0.372  15.194  36.407  1.00  0.00     0.006 C 
ENDBRANCH  17  18
ENDBRANCH   3  17
TORSDOF 4
ENDMDL
MODEL 4
REMARK VINA RESULT: -8.313745066      0.744      1.822
REMARK  4 active torsions:
REMARK  status: ('A' for Active; 'I' for Inactive)
REMARK       I    between atoms: C1_2  and  N1_3 
REMARK       I    between atoms: C1_2  and  N2_11 
REMARK    1  A    between atoms: N1_3  and  C2_5 
REMARK    2  A    between atoms: C2_5  and  C3_6 
REMARK    3  A    between atoms: N2_11  and  C8_13 
REMARK    4  A    between atoms: C8_13  and  C9_14 
ROOT
HETATM    1  O1  UNL     1       6.050  19.410  43.862  1.00  0.00    -0.247 OA
HETATM    2  C1  UNL     1       5.500  19.656  42.764  1.00  0.00     0.316 C 
HETATM    3  N1  UNL     1       6.178  20.494  41.844  1.00  0.00    -0.343 N 
ATOM      4  H1  UNL     1       5.760  20.715  40.941  1.00  0.00     0.164 HD
HETATM    5  N2  UNL     1       4.247  19.128  42.433  1.00  0.00    -0.343 N 
ATOM      6  H2  UNL     1       3.846  19.344  41.520  1.00  0.00     0.164 HD
ENDROOT
BRANCH   5   7
HETATM    7  C8  UNL     1       3.505  18.286  43.340  1.00  0.00     0.129 C 
BRANCH   7   8
HETATM    8  C9  UNL     1       3.193  16.989  42.694  1.00  0.00     0.012 C 
HETATM    9  C10 UNL     1       2.702  17.115  41.276  1.00  0.00    -0.008 C 
HETATM   10  C11 UNL     1       2.410  15.701  40.789  1.00  0.00     0.010 C 
HETATM   11  C17 UNL     1       1.277  17.608  41.504  1.00  0.00     0.010 C 
HETATM   12  C12 UNL     1       1.125  15.278  41.488  1.00  0.00    -0.010 C 
HETATM   13  C13 UNL     1       1.436  14.178  42.477  1.00  0.00     0.005 C 
HETATM   14  C16 UNL     1       0.850  16.443  42.408  1.00  0.00    -0.006 C 
HETATM   15  C14 UNL     1       2.225  14.873  43.537  1.00  0.00     0.006 C 
HETATM   16  C15 UNL     1       1.964  16.369  43.381  1.00  0.00    -0.004 C 
ENDBRANCH   7   8
ENDBRANCH   5   7
BRANCH   3  17
HETATM   17  C2  UNL     1       7.470  21.029  42.203  1.00  0.00     0.129 C 
BRANCH  17  18
HETATM   18  C3  UNL     1       7.508  22.496  41.802  1.00  0.00     0.003 C 
HETATM   19  C4  UNL     1       7.043  22.666  40.377  1.00  0.00     0.006 C 
HETATM   20  C5  UNL     1       6.563  24.117  40.388  1.00  0.00     0.000 C 
HETATM   21  C6  UNL     1       5.792  24.176  41.683  1.00  0.00     0.000 C 
HETATM   22  C7  UNL     1       6.445  23.199  42.629  1.00  0.00     0.006 C 
ENDBRANCH  17  18
ENDBRANCH   3  17
TORSDOF 4
ENDMDL
MODEL 5
REMARK VINA RESULT: -8.249577616      1.403      7.330
REMARK  4 active torsions:
REMARK  status: ('A' for Active; 'I' for Inactive)
REMARK       I    between atoms: C1_2  and  N1_3 
REMARK       I    between atoms: C1_2  and  N2_11 
REMARK    1  A    between atoms: N1_3  and  C2_5 
REMARK    2  A    between atoms: C2_5  and  C3_6 
REMARK    3  A    between atoms: N2_11  and  C8_13 
REMARK    4  A    between atoms: C8_13  and  C9_14 
ROOT
HETATM    1  O1  UNL     1       2.783  18.612  43.252  1.00  0.00    -0.247 OA
HETATM    2  C1  UNL     1       3.530  18.232  42.322  1.00  0.00     0.316 C 
HETATM    3  N1  UNL     1       3.157  17.079  41.586  1.00  0.00    -0.343 N 
ATOM      4  H1  UNL     1       3.741  16.742  40.822  1.00  0.00     0.164 HD
HETATM    5  N2  UNL     1       4.710  18.912  41.998  1.00  0.00    -0.343 N 
ATOM      6  H2  UNL     1       5.278  18.573  41.222  1.00  0.00     0.164 HD
ENDROOT
BRANCH   5   7
HETATM    7  C8  UNL     1       5.147  20.079  42.726  1.00  0.00     0.129 C 
BRANCH   7   8
HETATM    8  C9  UNL     1       5.743  21.068  41.798  1.00  0.00     0.012 C 
HETATM    9  C10 UNL     1       7.228  20.912  41.610  1.00  0.00    -0.008 C 
HETATM   10  C11 UNL     1       7.665  22.017  40.655  1.00  0.00     0.010 C 
HETATM   11  C17 UNL     1       7.750  21.487  42.923  1.00  0.00     0.010 C 
HETATM   12  C12 UNL     1       7.624  23.306  41.465  1.00  0.00    -0.010 C 
HETATM   13  C13 UNL     1       6.510  24.185  40.944  1.00  0.00     0.005 C 
HETATM   14  C16 UNL     1       7.055  22.848  42.786  1.00  0.00    -0.006 C 
HETATM   15  C14 UNL     1       5.271  23.454  41.344  1.00  0.00     0.006 C 
HETATM   16  C15 UNL     1       5.667  22.465  42.437  1.00  0.00    -0.004 C 
ENDBRANCH   7   8
ENDBRANCH   5   7
BRANCH   3  17
HETATM   17  C2  UNL     1       1.936  16.391  41.934  1.00  0.00     0.129 C 
BRANCH  17  18
HETATM   18  C3  UNL     1       0.996  16.452  40.740  1.00  0.00     0.003 C 
HETATM   19  C4  UNL     1       0.319  17.798  40.669  1.00  0.00     0.006 C 
HETATM   20  C5  UNL     1      -0.028  17.882  39.182  1.00  0.00     0.000 C 
HETATM   21  C6  UNL     1       1.246  17.393  38.542  1.00  0.00     0.000 C 
HETATM   22  C7  UNL     1       1.870  16.406  39.498  1.00  0.00     0.006 C 
ENDBRANCH  17  18
ENDBRANCH   3  17
TORSDOF 4
ENDMDL
