MODEL 1
REMARK VINA RESULT: -7.664056405      0.000      0.000
REMARK  9 active torsions:
REMARK  status: ('A' for Active; 'I' for Inactive)
REMARK    1  A    between atoms: C2_2  and  C4_4 
REMARK    2  A    between atoms: C4_4  and  C5_5 
REMARK    3  A    between atoms: C5_5  and  C6_6 
REMARK    4  A    between atoms: C7_7  and  O1_8 
REMARK    5  A    between atoms: C8_10  and  C9_11 
REMARK    6  A    between atoms: C9_11  and  O2_13 
REMARK    7  A    between atoms: C9_11  and  C11_15 
REMARK    8  A    between atoms: C11_15  and  C12_16 
REMARK    9  A    between atoms: C12_16  and  C13_17 
ROOT
HETATM    1  C6  UNL     1       4.749  29.735   4.406  1.00  0.00    -0.013 A 
HETATM    2  C7  UNL     1       4.882  29.732   3.034  1.00  0.00     0.098 A 
HETATM    3  C8  UNL     1       5.871  28.920   2.487  1.00  0.00     0.078 A 
HETATM    4  N1  UNL     1       6.661  28.171   3.268  1.00  0.00    -0.358 N 
ATOM      5  H1  UNL     1       7.374  27.590   2.828  1.00  0.00     0.165 HD
HETATM    6  C17 UNL     1       6.555  28.154   4.604  1.00  0.00     0.021 A 
HETATM    7  C18 UNL     1       5.602  28.930   5.215  1.00  0.00    -0.003 A 
HETATM    8  C19 UNL     1       5.416  28.976   6.681  1.00  0.00     0.210 C 
HETATM    9  O3  UNL     1       6.167  28.011   7.287  1.00  0.00    -0.376 OA
HETATM   10  C20 UNL     1       7.462  27.870   6.858  1.00  0.00     0.059 C 
HETATM   11  C21 UNL     1       8.153  26.877   7.771  1.00  0.00     0.046 C 
HETATM   12  C22 UNL     1       8.243  29.168   6.927  1.00  0.00     0.046 C 
HETATM   13  C23 UNL     1       7.457  27.312   5.445  1.00  0.00     0.095 C 
ENDROOT
BRANCH   3  14
HETATM   14  C9  UNL     1       6.057  28.907   1.036  1.00  0.00     0.099 C 
HETATM   15  C10 UNL     1       6.729  30.167   0.579  1.00  0.00     0.053 C 
BRANCH  14  16
HETATM   16  O2  UNL     1       4.853  28.696   0.369  1.00  0.00    -0.384 OA
ATOM     17  H2  UNL     1       4.487  27.843   0.574  1.00  0.00     0.211 HD
ENDBRANCH  14  16
BRANCH  14  18
HETATM   18  C11 UNL     1       6.936  27.718   0.596  1.00  0.00     0.045 C 
BRANCH  18  19
HETATM   19  C12 UNL     1       8.156  28.316  -0.054  1.00  0.00     0.011 C 
BRANCH  19  20
HETATM   20  C13 UNL     1       9.445  27.766   0.458  1.00  0.00    -0.051 C 
HETATM   21  C14 UNL     1      10.551  27.770  -0.558  1.00  0.00     0.014 C 
HETATM   22  C15 UNL     1       9.897  28.622   1.624  1.00  0.00     0.014 C 
HETATM   23  C16 UNL     1       9.285  26.351   1.007  1.00  0.00     0.014 C 
ENDBRANCH  19  20
ENDBRANCH  18  19
ENDBRANCH  14  18
ENDBRANCH   3  14
BRANCH   2  24
HETATM   24  O1  UNL     1       4.059  30.505   2.261  1.00  0.00    -0.358 OA
ATOM     25  H1  UNL     1       4.423  31.193   1.717  1.00  0.00     0.217 HD
ENDBRANCH   2  24
BRANCH   1  26
HETATM   26  C5  UNL     1       3.759  30.544   5.141  1.00  0.00     0.042 C 
BRANCH  26  27
HETATM   27  C4  UNL     1       3.778  32.005   4.953  1.00  0.00     0.008 C 
BRANCH  27  28
HETATM   28  C2  UNL     1       3.021  32.748   6.049  1.00  0.00    -0.023 C 
HETATM   29  C1  UNL     1       1.622  33.083   5.652  1.00  0.00     0.009 C 
HETATM   30  C3  UNL     1       2.977  31.822   7.251  1.00  0.00     0.009 C 
ENDBRANCH  27  28
ENDBRANCH  26  27
ENDBRANCH   1  26
TORSDOF 9
ENDMDL
MODEL 2
REMARK VINA RESULT: -7.645157712      1.151      1.761
REMARK  9 active torsions:
REMARK  status: ('A' for Active; 'I' for Inactive)
REMARK    1  A    between atoms: C2_2  and  C4_4 
REMARK    2  A    between atoms: C4_4  and  C5_5 
REMARK    3  A    between atoms: C5_5  and  C6_6 
REMARK    4  A    between atoms: C7_7  and  O1_8 
REMARK    5  A    between atoms: C8_10  and  C9_11 
REMARK    6  A    between atoms: C9_11  and  O2_13 
REMARK    7  A    between atoms: C9_11  and  C11_15 
REMARK    8  A    between atoms: C11_15  and  C12_16 
REMARK    9  A    between atoms: C12_16  and  C13_17 
ROOT
HETATM    1  C6  UNL     1       5.787  29.312   5.205  1.00  0.00    -0.013 A 
HETATM    2  C7  UNL     1       5.653  29.375   3.835  1.00  0.00     0.098 A 
HETATM    3  C8  UNL     1       6.343  28.433   3.079  1.00  0.00     0.078 A 
HETATM    4  N1  UNL     1       7.108  27.501   3.665  1.00  0.00    -0.358 N 
ATOM      5  H1  UNL     1       7.598  26.829   3.074  1.00  0.00     0.165 HD
HETATM    6  C17 UNL     1       7.257  27.416   4.994  1.00  0.00     0.021 A 
HETATM    7  C18 UNL     1       6.606  28.312   5.805  1.00  0.00    -0.003 A 
HETATM    8  C19 UNL     1       6.716  28.295   7.279  1.00  0.00     0.210 C 
HETATM    9  O3  UNL     1       7.367  27.170   7.695  1.00  0.00    -0.376 OA
HETATM   10  C20 UNL     1       8.504  26.821   7.012  1.00  0.00     0.059 C 
HETATM   11  C21 UNL     1       9.151  25.660   7.740  1.00  0.00     0.046 C 
HETATM   12  C22 UNL     1       9.520  27.947   6.962  1.00  0.00     0.046 C 
HETATM   13  C23 UNL     1       8.122  26.369   5.614  1.00  0.00     0.095 C 
ENDROOT
BRANCH   3  14
HETATM   14  C9  UNL     1       6.244  28.482   1.619  1.00  0.00     0.099 C 
HETATM   15  C10 UNL     1       6.718  29.806   1.103  1.00  0.00     0.053 C 
BRANCH  14  16
HETATM   16  O2  UNL     1       4.952  28.194   1.187  1.00  0.00    -0.384 OA
ATOM     17  H2  UNL     1       4.931  28.005   0.257  1.00  0.00     0.211 HD
ENDBRANCH  14  16
BRANCH  14  18
HETATM   18  C11 UNL     1       7.106  27.383   0.964  1.00  0.00     0.045 C 
BRANCH  18  19
HETATM   19  C12 UNL     1       8.219  28.099   0.243  1.00  0.00     0.011 C 
BRANCH  19  20
HETATM   20  C13 UNL     1       9.585  27.661   0.655  1.00  0.00    -0.051 C 
HETATM   21  C14 UNL     1      10.130  28.411   1.836  1.00  0.00     0.014 C 
HETATM   22  C15 UNL     1       9.519  26.196   1.038  1.00  0.00     0.014 C 
HETATM   23  C16 UNL     1      10.585  27.756  -0.494  1.00  0.00     0.014 C 
ENDBRANCH  19  20
ENDBRANCH  18  19
ENDBRANCH  14  18
ENDBRANCH   3  14
BRANCH   2  24
HETATM   24  O1  UNL     1       4.864  30.336   3.264  1.00  0.00    -0.358 OA
ATOM     25  H1  UNL     1       5.026  31.255   3.443  1.00  0.00     0.217 HD
ENDBRANCH   2  24
BRANCH   1  26
HETATM   26  C5  UNL     1       5.131  30.239   6.146  1.00  0.00     0.042 C 
BRANCH  26  27
HETATM   27  C4  UNL     1       3.667  30.162   6.292  1.00  0.00     0.008 C 
BRANCH  27  28
HETATM   28  C2  UNL     1       3.185  30.657   7.651  1.00  0.00    -0.023 C 
HETATM   29  C1  UNL     1       4.086  30.238   8.765  1.00  0.00     0.009 C 
HETATM   30  C3  UNL     1       3.171  32.172   7.582  1.00  0.00     0.009 C 
ENDBRANCH  27  28
ENDBRANCH  26  27
ENDBRANCH   1  26
TORSDOF 9
ENDMDL
MODEL 3
REMARK VINA RESULT: -7.594472470      1.659      2.129
REMARK  9 active torsions:
REMARK  status: ('A' for Active; 'I' for Inactive)
REMARK    1  A    between atoms: C2_2  and  C4_4 
REMARK    2  A    between atoms: C4_4  and  C5_5 
REMARK    3  A    between atoms: C5_5  and  C6_6 
REMARK    4  A    between atoms: C7_7  and  O1_8 
REMARK    5  A    between atoms: C8_10  and  C9_11 
REMARK    6  A    between atoms: C9_11  and  O2_13 
REMARK    7  A    between atoms: C9_11  and  C11_15 
REMARK    8  A    between atoms: C11_15  and  C12_16 
REMARK    9  A    between atoms: C12_16  and  C13_17 
ROOT
HETATM    1  C6  UNL     1       5.519  29.322   4.964  1.00  0.00    -0.013 A 
HETATM    2  C7  UNL     1       5.125  29.341   3.643  1.00  0.00     0.098 A 
HETATM    3  C8  UNL     1       6.109  29.159   2.677  1.00  0.00     0.078 A 
HETATM    4  N1  UNL     1       7.391  28.973   3.021  1.00  0.00    -0.358 N 
ATOM      5  H1  UNL     1       8.082  28.843   2.283  1.00  0.00     0.165 HD
HETATM    6  C17 UNL     1       7.804  28.950   4.297  1.00  0.00     0.021 A 
HETATM    7  C18 UNL     1       6.889  29.122   5.305  1.00  0.00    -0.003 A 
HETATM    8  C19 UNL     1       7.255  29.115   6.738  1.00  0.00     0.210 C 
HETATM    9  O3  UNL     1       8.551  28.718   6.896  1.00  0.00    -0.376 OA
HETATM   10  C20 UNL     1       9.478  29.271   6.050  1.00  0.00     0.059 C 
HETATM   11  C21 UNL     1      10.853  28.830   6.509  1.00  0.00     0.046 C 
HETATM   12  C22 UNL     1       9.457  30.787   6.075  1.00  0.00     0.046 C 
HETATM   13  C23 UNL     1       9.241  28.745   4.645  1.00  0.00     0.095 C 
ENDROOT
BRANCH   3  14
HETATM   14  C9  UNL     1       5.732  29.195   1.263  1.00  0.00     0.099 C 
HETATM   15  C10 UNL     1       5.387  30.592   0.846  1.00  0.00     0.053 C 
BRANCH  14  16
HETATM   16  O2  UNL     1       4.697  28.305   0.990  1.00  0.00    -0.384 OA
ATOM     17  H2  UNL     1       4.131  28.633   0.301  1.00  0.00     0.211 HD
ENDBRANCH  14  16
BRANCH  14  18
HETATM   18  C11 UNL     1       6.887  28.705   0.365  1.00  0.00     0.045 C 
BRANCH  18  19
HETATM   19  C12 UNL     1       7.225  29.855  -0.547  1.00  0.00     0.011 C 
BRANCH  19  20
HETATM   20  C13 UNL     1       8.690  30.108  -0.683  1.00  0.00    -0.051 C 
HETATM   21  C14 UNL     1       9.171  30.125  -2.106  1.00  0.00     0.014 C 
HETATM   22  C15 UNL     1       8.995  31.466  -0.084  1.00  0.00     0.014 C 
HETATM   23  C16 UNL     1       9.520  29.099   0.106  1.00  0.00     0.014 C 
ENDBRANCH  19  20
ENDBRANCH  18  19
ENDBRANCH  14  18
ENDBRANCH   3  14
BRANCH   2  24
HETATM   24  O1  UNL     1       3.809  29.531   3.322  1.00  0.00    -0.358 OA
ATOM     25  H1  UNL     1       3.255  28.786   3.118  1.00  0.00     0.217 HD
ENDBRANCH   2  24
BRANCH   1  26
HETATM   26  C5  UNL     1       4.605  29.507   6.106  1.00  0.00     0.042 C 
BRANCH  26  27
HETATM   27  C4  UNL     1       4.065  30.855   6.351  1.00  0.00     0.008 C 
BRANCH  27  28
HETATM   28  C2  UNL     1       3.876  31.151   7.836  1.00  0.00    -0.023 C 
HETATM   29  C1  UNL     1       2.500  31.634   8.152  1.00  0.00     0.009 C 
HETATM   30  C3  UNL     1       4.116  29.847   8.573  1.00  0.00     0.009 C 
ENDBRANCH  27  28
ENDBRANCH  26  27
ENDBRANCH   1  26
TORSDOF 9
ENDMDL
MODEL 4
REMARK VINA RESULT: -7.563216812      1.031      1.570
REMARK  9 active torsions:
REMARK  status: ('A' for Active; 'I' for Inactive)
REMARK    1  A    between atoms: C2_2  and  C4_4 
REMARK    2  A    between atoms: C4_4  and  C5_5 
REMARK    3  A    between atoms: C5_5  and  C6_6 
REMARK    4  A    between atoms: C7_7  and  O1_8 
REMARK    5  A    between atoms: C8_10  and  C9_11 
REMARK    6  A    between atoms: C9_11  and  O2_13 
REMARK    7  A    between atoms: C9_11  and  C11_15 
REMARK    8  A    between atoms: C11_15  and  C12_16 
REMARK    9  A    between atoms: C12_16  and  C13_17 
ROOT
HETATM    1  C6  UNL     1       5.404  28.834   4.245  1.00  0.00    -0.013 A 
HETATM    2  C7  UNL     1       5.576  28.704   2.884  1.00  0.00     0.098 A 
HETATM    3  C8  UNL     1       6.711  28.030   2.443  1.00  0.00     0.078 A 
HETATM    4  N1  UNL     1       7.600  27.529   3.312  1.00  0.00    -0.358 N 
ATOM      5  H1  UNL     1       8.419  27.042   2.947  1.00  0.00     0.165 HD
HETATM    6  C17 UNL     1       7.458  27.641   4.640  1.00  0.00     0.021 A 
HETATM    7  C18 UNL     1       6.363  28.293   5.149  1.00  0.00    -0.003 A 
HETATM    8  C19 UNL     1       6.128  28.466   6.599  1.00  0.00     0.210 C 
HETATM    9  O3  UNL     1       7.022  27.727   7.318  1.00  0.00    -0.376 OA
HETATM   10  C20 UNL     1       8.333  27.777   6.920  1.00  0.00     0.059 C 
HETATM   11  C21 UNL     1       9.165  27.034   7.946  1.00  0.00     0.046 C 
HETATM   12  C22 UNL     1       8.865  29.196   6.848  1.00  0.00     0.046 C 
HETATM   13  C23 UNL     1       8.471  27.075   5.580  1.00  0.00     0.095 C 
ENDROOT
BRANCH   3  14
HETATM   14  C9  UNL     1       6.940  27.891   1.004  1.00  0.00     0.099 C 
HETATM   15  C10 UNL     1       7.377  29.196   0.412  1.00  0.00     0.053 C 
BRANCH  14  16
HETATM   16  O2  UNL     1       5.817  27.382   0.357  1.00  0.00    -0.384 OA
ATOM     17  H2  UNL     1       5.601  27.891  -0.415  1.00  0.00     0.211 HD
ENDBRANCH  14  16
BRANCH  14  18
HETATM   18  C11 UNL     1       8.039  26.848   0.712  1.00  0.00     0.045 C 
BRANCH  18  19
HETATM   19  C12 UNL     1       9.206  27.616   0.148  1.00  0.00     0.011 C 
BRANCH  19  20
HETATM   20  C13 UNL     1      10.522  27.234   0.738  1.00  0.00    -0.051 C 
HETATM   21  C14 UNL     1      10.895  28.034   1.954  1.00  0.00     0.014 C 
HETATM   22  C15 UNL     1      10.452  25.779   1.157  1.00  0.00     0.014 C 
HETATM   23  C16 UNL     1      11.654  27.329  -0.280  1.00  0.00     0.014 C 
ENDBRANCH  19  20
ENDBRANCH  18  19
ENDBRANCH  14  18
ENDBRANCH   3  14
BRANCH   2  24
HETATM   24  O1  UNL     1       4.651  29.224   2.021  1.00  0.00    -0.358 OA
ATOM     25  H1  UNL     1       4.882  29.952   1.457  1.00  0.00     0.217 HD
ENDBRANCH   2  24
BRANCH   1  26
HETATM   26  C5  UNL     1       4.263  29.525   4.874  1.00  0.00     0.042 C 
BRANCH  26  27
HETATM   27  C4  UNL     1       4.289  30.997   4.933  1.00  0.00     0.008 C 
BRANCH  27  28
HETATM   28  C2  UNL     1       3.162  31.571   5.786  1.00  0.00    -0.023 C 
HETATM   29  C1  UNL     1       3.551  31.725   7.219  1.00  0.00     0.009 C 
HETATM   30  C3  UNL     1       2.842  32.941   5.218  1.00  0.00     0.009 C 
ENDBRANCH  27  28
ENDBRANCH  26  27
ENDBRANCH   1  26
TORSDOF 9
ENDMDL
MODEL 5
REMARK VINA RESULT: -7.368301595      2.057      5.249
REMARK  9 active torsions:
REMARK  status: ('A' for Active; 'I' for Inactive)
REMARK    1  A    between atoms: C2_2  and  C4_4 
REMARK    2  A    between atoms: C4_4  and  C5_5 
REMARK    3  A    between atoms: C5_5  and  C6_6 
REMARK    4  A    between atoms: C7_7  and  O1_8 
REMARK    5  A    between atoms: C8_10  and  C9_11 
REMARK    6  A    between atoms: C9_11  and  O2_13 
REMARK    7  A    between atoms: C9_11  and  C11_15 
REMARK    8  A    between atoms: C11_15  and  C12_16 
REMARK    9  A    between atoms: C12_16  and  C13_17 
ROOT
HETATM    1  C6  UNL     1       7.601  27.680   6.002  1.00  0.00    -0.013 A 
HETATM    2  C7  UNL     1       8.645  27.302   5.186  1.00  0.00     0.098 A 
HETATM    3  C8  UNL     1       8.813  28.001   3.994  1.00  0.00     0.078 A 
HETATM    4  N1  UNL     1       7.989  29.003   3.657  1.00  0.00    -0.358 N 
ATOM      5  H1  UNL     1       8.146  29.489   2.775  1.00  0.00     0.165 HD
HETATM    6  C17 UNL     1       6.966  29.392   4.431  1.00  0.00     0.021 A 
HETATM    7  C18 UNL     1       6.738  28.749   5.622  1.00  0.00    -0.003 A 
HETATM    8  C19 UNL     1       5.632  29.109   6.536  1.00  0.00     0.210 C 
HETATM    9  O3  UNL     1       5.032  30.264   6.125  1.00  0.00    -0.376 OA
HETATM   10  C20 UNL     1       4.757  30.380   4.787  1.00  0.00     0.059 C 
HETATM   11  C21 UNL     1       3.947  31.645   4.583  1.00  0.00     0.046 C 
HETATM   12  C22 UNL     1       3.930  29.223   4.261  1.00  0.00     0.046 C 
HETATM   13  C23 UNL     1       6.064  30.509   4.023  1.00  0.00     0.095 C 
ENDROOT
BRANCH   3  14
HETATM   14  C9  UNL     1       9.897  27.614   3.090  1.00  0.00     0.099 C 
HETATM   15  C10 UNL     1       9.537  26.368   2.339  1.00  0.00     0.053 C 
BRANCH  14  16
HETATM   16  O2  UNL     1      11.103  27.474   3.772  1.00  0.00    -0.384 OA
ATOM     17  H2  UNL     1      11.623  26.763   3.416  1.00  0.00     0.211 HD
ENDBRANCH  14  16
BRANCH  14  18
HETATM   18  C11 UNL     1      10.185  28.722   2.056  1.00  0.00     0.045 C 
BRANCH  18  19
HETATM   19  C12 UNL     1       9.690  28.199   0.733  1.00  0.00     0.011 C 
BRANCH  19  20
HETATM   20  C13 UNL     1       8.839  29.166  -0.020  1.00  0.00    -0.051 C 
HETATM   21  C14 UNL     1       7.370  28.859   0.048  1.00  0.00     0.014 C 
HETATM   22  C15 UNL     1       9.042  30.544   0.578  1.00  0.00     0.014 C 
HETATM   23  C16 UNL     1       9.254  29.273  -1.484  1.00  0.00     0.014 C 
ENDBRANCH  19  20
ENDBRANCH  18  19
ENDBRANCH  14  18
ENDBRANCH   3  14
BRANCH   2  24
HETATM   24  O1  UNL     1       9.472  26.277   5.556  1.00  0.00    -0.358 OA
ATOM     25  H1  UNL     1       9.511  25.484   5.035  1.00  0.00     0.217 HD
ENDBRANCH   2  24
BRANCH   1  26
HETATM   26  C5  UNL     1       7.281  27.038   7.291  1.00  0.00     0.042 C 
BRANCH  26  27
HETATM   27  C4  UNL     1       8.021  27.475   8.487  1.00  0.00     0.008 C 
BRANCH  27  28
HETATM   28  C2  UNL     1       8.403  26.312   9.398  1.00  0.00    -0.023 C 
HETATM   29  C1  UNL     1       9.436  25.423   8.788  1.00  0.00     0.009 C 
HETATM   30  C3  UNL     1       8.974  26.923  10.665  1.00  0.00     0.009 C 
ENDBRANCH  27  28
ENDBRANCH  26  27
ENDBRANCH   1  26
TORSDOF 9
ENDMDL
