MODEL 1
REMARK VINA RESULT: -7.240456777      0.000      0.000
REMARK  9 active torsions:
REMARK  status: ('A' for Active; 'I' for Inactive)
REMARK    1  A    between atoms: C2_2  and  O1_3 
REMARK    2  A    between atoms: O1_3  and  C3_4 
REMARK       I    between atoms: C3_4  and  N1_6 
REMARK    3  A    between atoms: N1_6  and  C4_8 
REMARK    4  A    between atoms: C5_9  and  O3_10 
REMARK    5  A    between atoms: C6_13  and  C7_14 
REMARK    6  A    between atoms: C8_15  and  C9_16 
REMARK    7  A    between atoms: C10_17  and  N2_19 
REMARK    8  A    between atoms: C12_21  and  C14_23 
REMARK    9  A    between atoms: C15_26  and  O5_27 
ROOT
HETATM    1  C4  UNL     1       2.167  33.791   4.005  1.00  0.00     0.132 A 
HETATM    2  C5  UNL     1       1.563  33.965   5.203  1.00  0.00     0.214 A 
HETATM    3  O4  UNL     1       2.165  33.250   6.088  1.00  0.00    -0.283 OA
HETATM    4  C6  UNL     1       3.190  32.555   5.581  1.00  0.00     0.114 A 
HETATM    5  C15 UNL     1       3.231  32.868   4.251  1.00  0.00     0.131 A 
ENDROOT
BRANCH   4   6
HETATM    6  C7  UNL     1       4.035  31.670   6.356  1.00  0.00     0.040 C 
HETATM    7  C8  UNL     1       4.278  30.412   6.203  1.00  0.00     0.005 C 
BRANCH   7   8
HETATM    8  C9  UNL     1       5.190  29.729   7.140  1.00  0.00     0.024 C 
HETATM    9  C10 UNL     1       6.079  28.898   6.654  1.00  0.00     0.005 C 
HETATM   10  C11 UNL     1       6.154  28.657   5.195  1.00  0.00     0.068 C 
BRANCH   9  11
HETATM   11  N2  UNL     1       6.976  28.220   7.530  1.00  0.00    -0.365 N 
HETATM   12  C12 UNL     1       8.222  28.490   7.564  1.00  0.00     0.016 C 
HETATM   13  C13 UNL     1       8.768  29.542   6.670  1.00  0.00     0.066 C 
ATOM     14  H2  UNL     1       6.611  27.495   8.148  1.00  0.00     0.165 HD
BRANCH  12  15
HETATM   15  C14 UNL     1       9.122  27.770   8.482  1.00  0.00     0.223 C 
HETATM   16 CL1  UNL     1       8.510  27.807  10.160  1.00  0.00    -0.102 Cl
HETATM   17 CL2  UNL     1       9.248  26.035   8.032  1.00  0.00    -0.102 Cl
ENDBRANCH  12  15
ENDBRANCH   9  11
ENDBRANCH   7   8
ENDBRANCH   4   6
BRANCH   5  18
HETATM   18  O5  UNL     1       4.056  32.462   3.257  1.00  0.00    -0.356 OA
ATOM     19  H5  UNL     1       4.105  31.550   2.997  1.00  0.00     0.218 HD
ENDBRANCH   5  18
BRANCH   2  20
HETATM   20  O3  UNL     1       0.459  34.814   5.367  1.00  0.00    -0.339 OA
ATOM     21  H3  UNL     1      -0.372  34.654   4.934  1.00  0.00     0.220 HD
ENDBRANCH   2  20
BRANCH   1  22
HETATM   22  N1  UNL     1       1.888  34.347   2.736  1.00  0.00    -0.296 N 
HETATM   23  C3  UNL     1       1.140  33.609   1.799  1.00  0.00     0.365 C 
HETATM   24  O2  UNL     1       0.701  32.449   2.047  1.00  0.00    -0.238 OA
ATOM     25  H1  UNL     1       2.226  35.280   2.500  1.00  0.00     0.171 HD
BRANCH  23  26
HETATM   26  O1  UNL     1       0.854  34.140   0.542  1.00  0.00    -0.304 OA
BRANCH  26  27
HETATM   27  C2  UNL     1       1.019  33.339  -0.612  1.00  0.00     0.176 C 
HETATM   28  C1  UNL     1       2.499  33.197  -0.954  1.00  0.00     0.034 C 
ENDBRANCH  26  27
ENDBRANCH  23  26
ENDBRANCH   1  22
TORSDOF 9
ENDMDL
MODEL 2
REMARK VINA RESULT: -7.149065331      1.449      1.767
REMARK  9 active torsions:
REMARK  status: ('A' for Active; 'I' for Inactive)
REMARK    1  A    between atoms: C2_2  and  O1_3 
REMARK    2  A    between atoms: O1_3  and  C3_4 
REMARK       I    between atoms: C3_4  and  N1_6 
REMARK    3  A    between atoms: N1_6  and  C4_8 
REMARK    4  A    between atoms: C5_9  and  O3_10 
REMARK    5  A    between atoms: C6_13  and  C7_14 
REMARK    6  A    between atoms: C8_15  and  C9_16 
REMARK    7  A    between atoms: C10_17  and  N2_19 
REMARK    8  A    between atoms: C12_21  and  C14_23 
REMARK    9  A    between atoms: C15_26  and  O5_27 
ROOT
HETATM    1  C4  UNL     1       2.734  32.644   3.250  1.00  0.00     0.132 A 
HETATM    2  C5  UNL     1       2.158  33.083   4.393  1.00  0.00     0.214 A 
HETATM    3  O4  UNL     1       2.773  32.572   5.401  1.00  0.00    -0.283 OA
HETATM    4  C6  UNL     1       3.782  31.770   5.039  1.00  0.00     0.114 A 
HETATM    5  C15 UNL     1       3.797  31.784   3.672  1.00  0.00     0.131 A 
ENDROOT
BRANCH   4   6
HETATM    6  C7  UNL     1       4.638  31.067   5.972  1.00  0.00     0.040 C 
HETATM    7  C8  UNL     1       5.107  29.866   5.922  1.00  0.00     0.005 C 
BRANCH   7   8
HETATM    8  C9  UNL     1       5.970  29.377   7.013  1.00  0.00     0.024 C 
HETATM    9  C10 UNL     1       7.267  29.360   6.828  1.00  0.00     0.005 C 
HETATM   10  C11 UNL     1       7.841  29.824   5.544  1.00  0.00     0.068 C 
BRANCH   9  11
HETATM   11  N2  UNL     1       8.131  28.894   7.860  1.00  0.00    -0.365 N 
HETATM   12  C12 UNL     1       8.539  27.687   7.908  1.00  0.00     0.016 C 
HETATM   13  C13 UNL     1       8.109  26.726   6.860  1.00  0.00     0.066 C 
ATOM     14  H2  UNL     1       8.432  29.546   8.585  1.00  0.00     0.165 HD
BRANCH  12  15
HETATM   15  C14 UNL     1       9.432  27.238   8.990  1.00  0.00     0.223 C 
HETATM   16 CL1  UNL     1       8.685  27.477  10.596  1.00  0.00    -0.102 Cl
HETATM   17 CL2  UNL     1       9.777  25.480   8.853  1.00  0.00    -0.102 Cl
ENDBRANCH  12  15
ENDBRANCH   9  11
ENDBRANCH   7   8
ENDBRANCH   4   6
BRANCH   5  18
HETATM   18  O5  UNL     1       4.596  31.160   2.775  1.00  0.00    -0.356 OA
ATOM     19  H5  UNL     1       4.796  30.235   2.850  1.00  0.00     0.218 HD
ENDBRANCH   5  18
BRANCH   2  20
HETATM   20  O3  UNL     1       1.064  33.961   4.388  1.00  0.00    -0.339 OA
ATOM     21  H3  UNL     1       0.169  33.654   4.301  1.00  0.00     0.220 HD
ENDBRANCH   2  20
BRANCH   1  22
HETATM   22  N1  UNL     1       2.431  32.912   1.896  1.00  0.00    -0.296 N 
HETATM   23  C3  UNL     1       3.300  33.711   1.131  1.00  0.00     0.365 C 
HETATM   24  O2  UNL     1       4.359  34.210   1.610  1.00  0.00    -0.238 OA
ATOM     25  H1  UNL     1       1.586  32.527   1.475  1.00  0.00     0.171 HD
BRANCH  23  26
HETATM   26  O1  UNL     1       3.019  33.988  -0.207  1.00  0.00    -0.304 OA
BRANCH  26  27
HETATM   27  C2  UNL     1       3.169  32.973  -1.180  1.00  0.00     0.176 C 
HETATM   28  C1  UNL     1       4.594  32.965  -1.725  1.00  0.00     0.034 C 
ENDBRANCH  26  27
ENDBRANCH  23  26
ENDBRANCH   1  22
TORSDOF 9
ENDMDL
MODEL 3
REMARK VINA RESULT: -7.037889626      1.211      1.702
REMARK  9 active torsions:
REMARK  status: ('A' for Active; 'I' for Inactive)
REMARK    1  A    between atoms: C2_2  and  O1_3 
REMARK    2  A    between atoms: O1_3  and  C3_4 
REMARK       I    between atoms: C3_4  and  N1_6 
REMARK    3  A    between atoms: N1_6  and  C4_8 
REMARK    4  A    between atoms: C5_9  and  O3_10 
REMARK    5  A    between atoms: C6_13  and  C7_14 
REMARK    6  A    between atoms: C8_15  and  C9_16 
REMARK    7  A    between atoms: C10_17  and  N2_19 
REMARK    8  A    between atoms: C12_21  and  C14_23 
REMARK    9  A    between atoms: C15_26  and  O5_27 
ROOT
HETATM    1  C4  UNL     1       3.217  32.823   4.051  1.00  0.00     0.132 A 
HETATM    2  C5  UNL     1       2.772  33.207   5.270  1.00  0.00     0.214 A 
HETATM    3  O4  UNL     1       3.215  32.389   6.159  1.00  0.00    -0.283 OA
HETATM    4  C6  UNL     1       3.970  31.415   5.635  1.00  0.00     0.114 A 
HETATM    5  C15 UNL     1       4.000  31.650   4.289  1.00  0.00     0.131 A 
ENDROOT
BRANCH   4   6
HETATM    6  C7  UNL     1       4.592  30.362   6.410  1.00  0.00     0.040 C 
HETATM    7  C8  UNL     1       5.690  29.717   6.201  1.00  0.00     0.005 C 
BRANCH   7   8
HETATM    8  C9  UNL     1       6.113  28.674   7.154  1.00  0.00     0.024 C 
HETATM    9  C10 UNL     1       7.157  27.940   6.857  1.00  0.00     0.005 C 
HETATM   10  C11 UNL     1       7.886  28.162   5.587  1.00  0.00     0.068 C 
BRANCH   9  11
HETATM   11  N2  UNL     1       7.594  26.922   7.753  1.00  0.00    -0.365 N 
HETATM   12  C12 UNL     1       8.306  27.183   8.779  1.00  0.00     0.016 C 
HETATM   13  C13 UNL     1       8.698  28.588   9.059  1.00  0.00     0.066 C 
ATOM     14  H2  UNL     1       7.330  25.954   7.569  1.00  0.00     0.165 HD
BRANCH  12  15
HETATM   15  C14 UNL     1       8.740  26.107   9.686  1.00  0.00     0.223 C 
HETATM   16 CL1  UNL     1      10.236  25.324   9.102  1.00  0.00    -0.102 Cl
HETATM   17 CL2  UNL     1       9.116  26.754  11.319  1.00  0.00    -0.102 Cl
ENDBRANCH  12  15
ENDBRANCH   9  11
ENDBRANCH   7   8
ENDBRANCH   4   6
BRANCH   5  18
HETATM   18  O5  UNL     1       4.607  30.991   3.274  1.00  0.00    -0.356 OA
ATOM     19  H5  UNL     1       4.805  30.064   3.335  1.00  0.00     0.218 HD
ENDBRANCH   5  18
BRANCH   2  20
HETATM   20  O3  UNL     1       1.959  34.336   5.447  1.00  0.00    -0.339 OA
ATOM     21  H3  UNL     1       2.045  34.908   6.200  1.00  0.00     0.220 HD
ENDBRANCH   2  20
BRANCH   1  22
HETATM   22  N1  UNL     1       3.011  33.383   2.770  1.00  0.00    -0.296 N 
HETATM   23  C3  UNL     1       1.737  33.319   2.175  1.00  0.00     0.365 C 
HETATM   24  O2  UNL     1       0.750  32.772   2.748  1.00  0.00    -0.238 OA
ATOM     25  H1  UNL     1       3.783  33.832   2.278  1.00  0.00     0.171 HD
BRANCH  23  26
HETATM   26  O1  UNL     1       1.513  33.866   0.912  1.00  0.00    -0.304 OA
BRANCH  26  27
HETATM   27  C2  UNL     1       1.587  33.040  -0.233  1.00  0.00     0.176 C 
HETATM   28  C1  UNL     1       2.967  33.144  -0.875  1.00  0.00     0.034 C 
ENDBRANCH  26  27
ENDBRANCH  23  26
ENDBRANCH   1  22
TORSDOF 9
ENDMDL
MODEL 4
REMARK VINA RESULT: -6.867960549      6.509     10.168
REMARK  9 active torsions:
REMARK  status: ('A' for Active; 'I' for Inactive)
REMARK    1  A    between atoms: C2_2  and  O1_3 
REMARK    2  A    between atoms: O1_3  and  C3_4 
REMARK       I    between atoms: C3_4  and  N1_6 
REMARK    3  A    between atoms: N1_6  and  C4_8 
REMARK    4  A    between atoms: C5_9  and  O3_10 
REMARK    5  A    between atoms: C6_13  and  C7_14 
REMARK    6  A    between atoms: C8_15  and  C9_16 
REMARK    7  A    between atoms: C10_17  and  N2_19 
REMARK    8  A    between atoms: C12_21  and  C14_23 
REMARK    9  A    between atoms: C15_26  and  O5_27 
ROOT
HETATM    1  C4  UNL     1      11.744  27.314   1.885  1.00  0.00     0.132 A 
HETATM    2  C5  UNL     1      10.997  27.698   0.824  1.00  0.00     0.214 A 
HETATM    3  O4  UNL     1       9.857  28.124   1.242  1.00  0.00    -0.283 OA
HETATM    4  C6  UNL     1       9.739  28.064   2.574  1.00  0.00     0.114 A 
HETATM    5  C15 UNL     1      10.921  27.552   3.030  1.00  0.00     0.131 A 
ENDROOT
BRANCH   4   6
HETATM    6  C7  UNL     1       8.560  28.478   3.306  1.00  0.00     0.040 C 
HETATM    7  C8  UNL     1       8.017  27.968   4.359  1.00  0.00     0.005 C 
BRANCH   7   8
HETATM    8  C9  UNL     1       6.801  28.585   4.921  1.00  0.00     0.024 C 
HETATM    9  C10 UNL     1       6.930  29.445   5.901  1.00  0.00     0.005 C 
HETATM   10  C11 UNL     1       8.273  29.781   6.424  1.00  0.00     0.068 C 
BRANCH   9  11
HETATM   11  N2  UNL     1       5.776  30.060   6.468  1.00  0.00    -0.365 N 
HETATM   12  C12 UNL     1       5.313  29.712   7.603  1.00  0.00     0.016 C 
HETATM   13  C13 UNL     1       5.987  28.633   8.370  1.00  0.00     0.066 C 
ATOM     14  H2  UNL     1       5.306  30.802   5.949  1.00  0.00     0.165 HD
BRANCH  12  15
HETATM   15  C14 UNL     1       4.118  30.369   8.161  1.00  0.00     0.223 C 
HETATM   16 CL1  UNL     1       4.362  30.827   9.871  1.00  0.00    -0.102 Cl
HETATM   17 CL2  UNL     1       3.751  31.892   7.282  1.00  0.00    -0.102 Cl
ENDBRANCH  12  15
ENDBRANCH   9  11
ENDBRANCH   7   8
ENDBRANCH   4   6
BRANCH   5  18
HETATM   18  O5  UNL     1      11.358  27.276   4.281  1.00  0.00    -0.356 OA
ATOM     19  H5  UNL     1      11.410  26.383   4.602  1.00  0.00     0.218 HD
ENDBRANCH   5  18
BRANCH   2  20
HETATM   20  O3  UNL     1      11.472  27.614  -0.493  1.00  0.00    -0.339 OA
ATOM     21  H3  UNL     1      11.897  28.346  -0.926  1.00  0.00     0.220 HD
ENDBRANCH   2  20
BRANCH   1  22
HETATM   22  N1  UNL     1      13.052  26.783   1.954  1.00  0.00    -0.296 N 
HETATM   23  C3  UNL     1      13.240  25.388   1.975  1.00  0.00     0.365 C 
HETATM   24  O2  UNL     1      12.272  24.575   1.935  1.00  0.00    -0.238 OA
ATOM     25  H1  UNL     1      13.857  27.408   1.989  1.00  0.00     0.171 HD
BRANCH  23  26
HETATM   26  O1  UNL     1      14.522  24.844   2.044  1.00  0.00    -0.304 OA
BRANCH  26  27
HETATM   27  C2  UNL     1      15.412  25.269   3.057  1.00  0.00     0.176 C 
HETATM   28  C1  UNL     1      14.882  24.871   4.431  1.00  0.00     0.034 C 
ENDBRANCH  26  27
ENDBRANCH  23  26
ENDBRANCH   1  22
TORSDOF 9
ENDMDL
MODEL 5
REMARK VINA RESULT: -6.840225599      6.413      9.953
REMARK  9 active torsions:
REMARK  status: ('A' for Active; 'I' for Inactive)
REMARK    1  A    between atoms: C2_2  and  O1_3 
REMARK    2  A    between atoms: O1_3  and  C3_4 
REMARK       I    between atoms: C3_4  and  N1_6 
REMARK    3  A    between atoms: N1_6  and  C4_8 
REMARK    4  A    between atoms: C5_9  and  O3_10 
REMARK    5  A    between atoms: C6_13  and  C7_14 
REMARK    6  A    between atoms: C8_15  and  C9_16 
REMARK    7  A    between atoms: C10_17  and  N2_19 
REMARK    8  A    between atoms: C12_21  and  C14_23 
REMARK    9  A    between atoms: C15_26  and  O5_27 
ROOT
HETATM    1  C4  UNL     1      11.098  26.859   1.837  1.00  0.00     0.132 A 
HETATM    2  C5  UNL     1      10.469  27.728   1.012  1.00  0.00     0.214 A 
HETATM    3  O4  UNL     1       9.624  28.420   1.692  1.00  0.00    -0.283 OA
HETATM    4  C6  UNL     1       9.608  28.088   2.988  1.00  0.00     0.114 A 
HETATM    5  C15 UNL     1      10.534  27.093   3.130  1.00  0.00     0.131 A 
ENDROOT
BRANCH   4   6
HETATM    6  C7  UNL     1       8.749  28.708   3.976  1.00  0.00     0.040 C 
HETATM    7  C8  UNL     1       8.973  28.974   5.219  1.00  0.00     0.005 C 
BRANCH   7   8
HETATM    8  C9  UNL     1       7.921  29.620   6.025  1.00  0.00     0.024 C 
HETATM    9  C10 UNL     1       7.256  28.891   6.888  1.00  0.00     0.005 C 
HETATM   10  C11 UNL     1       7.565  27.450   7.038  1.00  0.00     0.068 C 
BRANCH   9  11
HETATM   11  N2  UNL     1       6.232  29.481   7.683  1.00  0.00    -0.365 N 
HETATM   12  C12 UNL     1       5.096  29.797   7.199  1.00  0.00     0.016 C 
HETATM   13  C13 UNL     1       4.818  29.548   5.762  1.00  0.00     0.066 C 
ATOM     14  H2  UNL     1       6.414  29.656   8.672  1.00  0.00     0.165 HD
BRANCH  12  15
HETATM   15  C14 UNL     1       4.060  30.406   8.051  1.00  0.00     0.223 C 
HETATM   16 CL1  UNL     1       4.576  30.477   9.760  1.00  0.00    -0.102 Cl
HETATM   17 CL2  UNL     1       3.731  32.100   7.554  1.00  0.00    -0.102 Cl
ENDBRANCH  12  15
ENDBRANCH   9  11
ENDBRANCH   7   8
ENDBRANCH   4   6
BRANCH   5  18
HETATM   18  O5  UNL     1      10.937  26.388   4.213  1.00  0.00    -0.356 OA
ATOM     19  H5  UNL     1      10.313  26.051   4.844  1.00  0.00     0.218 HD
ENDBRANCH   5  18
BRANCH   2  20
HETATM   20  O3  UNL     1      10.758  27.799  -0.359  1.00  0.00    -0.339 OA
ATOM     21  H3  UNL     1      10.125  28.113  -0.994  1.00  0.00     0.220 HD
ENDBRANCH   2  20
BRANCH   1  22
HETATM   22  N1  UNL     1      12.099  25.895   1.579  1.00  0.00    -0.296 N 
HETATM   23  C3  UNL     1      13.376  26.309   1.155  1.00  0.00     0.365 C 
HETATM   24  O2  UNL     1      13.671  27.528   0.990  1.00  0.00    -0.238 OA
ATOM     25  H1  UNL     1      11.897  24.903   1.701  1.00  0.00     0.171 HD
BRANCH  23  26
HETATM   26  O1  UNL     1      14.377  25.374   0.895  1.00  0.00    -0.304 OA
BRANCH  26  27
HETATM   27  C2  UNL     1      14.798  24.494   1.919  1.00  0.00     0.176 C 
HETATM   28  C1  UNL     1      15.237  25.282   3.150  1.00  0.00     0.034 C 
ENDBRANCH  26  27
ENDBRANCH  23  26
ENDBRANCH   1  22
TORSDOF 9
ENDMDL
