MODEL 1
REMARK VINA RESULT: -8.960628986      0.000      0.000
REMARK  21 active torsions:
REMARK  status: ('A' for Active; 'I' for Inactive)
REMARK    1  A    between atoms: N1_1  and  C1_4 
REMARK    2  A    between atoms: C4_7  and  C5_8 
REMARK    3  A    between atoms: C5_8  and  N2_9 
REMARK    4  A    between atoms: N2_9  and  C6_12 
REMARK    5  A    between atoms: C6_12  and  C7_13 
REMARK    6  A    between atoms: N3_15  and  C9_16 
REMARK    7  A    between atoms: C9_16  and  C10_17 
REMARK    8  A    between atoms: C10_17  and  O1_18 
REMARK    9  A    between atoms: C10_17  and  C11_20 
REMARK   10  A    between atoms: C11_20  and  O2_21 
REMARK   11  A    between atoms: C11_20  and  C12_23 
REMARK   12  A    between atoms: C12_23  and  O3_24 
REMARK   13  A    between atoms: C13_26  and  C14_27 
REMARK   14  A    between atoms: C14_27  and  O4_28 
REMARK   15  A    between atoms: C15_31  and  N4_32 
REMARK   16  A    between atoms: C16_33  and  O6_34 
REMARK   17  A    between atoms: C18_38  and  N5_39 
REMARK       I    between atoms: N5_39  and  C19_41 
REMARK   18  A    between atoms: C19_41  and  C20_43 
REMARK   19  A    between atoms: C20_43  and  N6_44 
REMARK   20  A    between atoms: C20_43  and  N7_48 
REMARK   21  A    between atoms: C21_52  and  O8_53 
ROOT
HETATM    1  C12 UNL     1      83.850   6.117 123.063  1.00  0.00     0.144 C 
HETATM    2  C13 UNL     1      83.187   7.149 123.812  1.00  0.00     0.187 C 
HETATM    3  O5  UNL     1      83.865   7.054 125.065  1.00  0.00    -0.353 OA
HETATM    4  C15 UNL     1      84.337   5.790 125.229  1.00  0.00     0.264 C 
HETATM    5  C21 UNL     1      83.866   4.964 124.069  1.00  0.00     0.207 C 
ENDROOT
BRANCH   1   6
HETATM    6  C11 UNL     1      83.873   5.852 121.660  1.00  0.00     0.191 C 
BRANCH   6   7
HETATM    7  C10 UNL     1      84.945   5.312 120.840  1.00  0.00     0.190 C 
BRANCH   7   8
HETATM    8  C9  UNL     1      85.121   3.822 120.713  1.00  0.00     0.124 C 
BRANCH   8   9
HETATM    9  N3  UNL     1      85.687   3.142 121.796  1.00  0.00    -0.264 N 
HETATM   10  C8  UNL     1      85.470   1.836 122.153  1.00  0.00     0.145 A 
HETATM   11  C7  UNL     1      86.226   1.546 123.244  1.00  0.00     0.070 A 
HETATM   12  N9  UNL     1      86.902   2.669 123.558  1.00  0.00    -0.287 N 
HETATM   13  N8  UNL     1      86.554   3.570 122.686  1.00  0.00    -0.237 N 
ATOM     14  H9  UNL     1      87.560   2.789 124.329  1.00  0.00     0.188 HD
ATOM     15  H8  UNL     1      86.920   4.522 122.693  1.00  0.00     0.209 HD
BRANCH  11  16
HETATM   16  C6  UNL     1      86.391   0.260 124.003  1.00  0.00     0.292 C 
BRANCH  16  17
HETATM   17  N2  UNL     1      86.130   0.413 125.423  1.00  0.00    -0.066 N 
ATOM     18  H22 UNL     1      86.182   1.384 125.733  1.00  0.00     0.277 HD
ATOM     19  H21 UNL     1      86.881   0.045 126.006  1.00  0.00     0.277 HD
BRANCH  17  20
HETATM   20  C5  UNL     1      84.841  -0.202 125.706  1.00  0.00     0.272 C 
BRANCH  20  21
HETATM   21  C4  UNL     1      85.004  -1.004 126.954  1.00  0.00    -0.017 A 
HETATM   22  C3  UNL     1      84.649  -0.641 128.216  1.00  0.00     0.014 A 
HETATM   23  C2  UNL     1      85.001  -1.438 129.300  1.00  0.00     0.048 A 
HETATM   24  C1  UNL     1      85.716  -2.607 129.051  1.00  0.00     0.098 A 
HETATM   25  N10 UNL     1      86.058  -2.968 127.818  1.00  0.00    -0.352 N 
HETATM   26  C22 UNL     1      85.719  -2.206 126.790  1.00  0.00     0.098 A 
ATOM     27  H10 UNL     1      86.582  -3.830 127.665  1.00  0.00     0.166 HD
BRANCH  24  28
HETATM   28  N1  UNL     1      86.011  -3.314 130.058  1.00  0.00    -0.385 N 
ATOM     29  H12 UNL     1      85.577  -4.222 130.222  1.00  0.00     0.157 HD
ATOM     30  H11 UNL     1      86.698  -2.923 130.704  1.00  0.00     0.157 HD
ENDBRANCH  24  28
ENDBRANCH  20  21
ENDBRANCH  17  20
ENDBRANCH  16  17
ENDBRANCH  11  16
ENDBRANCH   8   9
ENDBRANCH   7   8
BRANCH   7  31
HETATM   31  O1  UNL     1      86.210   5.838 121.067  1.00  0.00    -0.388 OA
ATOM     32  H1  UNL     1      86.632   5.897 120.219  1.00  0.00     0.210 HD
ENDBRANCH   7  31
ENDBRANCH   6   7
BRANCH   6  33
HETATM   33  O2  UNL     1      82.709   5.071 121.382  1.00  0.00    -0.389 OA
ATOM     34  H2  UNL     1      82.093   5.644 120.941  1.00  0.00     0.210 HD
ENDBRANCH   6  33
ENDBRANCH   1   6
BRANCH   1  35
HETATM   35  O3  UNL     1      85.259   6.514 123.254  1.00  0.00    -0.382 OA
ATOM     36  H3  UNL     1      85.355   6.302 124.175  1.00  0.00     0.211 HD
ENDBRANCH   1  35
BRANCH   2  37
HETATM   37  C14 UNL     1      81.759   7.150 124.170  1.00  0.00     0.199 C 
BRANCH  37  38
HETATM   38  O4  UNL     1      81.066   6.812 122.972  1.00  0.00    -0.398 OA
ATOM     39  H4  UNL     1      81.316   5.916 122.779  1.00  0.00     0.209 HD
ENDBRANCH  37  38
ENDBRANCH   2  37
BRANCH   5  40
HETATM   40  O8  UNL     1      82.667   4.380 124.250  1.00  0.00    -0.388 OA
ATOM     41  H8  UNL     1      82.701   3.579 124.760  1.00  0.00     0.210 HD
ENDBRANCH   5  40
BRANCH   4  42
HETATM   42  N4  UNL     1      84.084   5.205 126.544  1.00  0.00    -0.277 N 
HETATM   43  C16 UNL     1      84.638   4.074 126.932  1.00  0.00     0.153 A 
HETATM   44  C17 UNL     1      84.370   3.610 128.174  1.00  0.00     0.109 A 
HETATM   45  S1  UNL     1      83.318   4.797 128.786  1.00  0.00    -0.061 SA
HETATM   46  C18 UNL     1      83.276   5.841 127.402  1.00  0.00     0.157 A 
BRANCH  43  47
HETATM   47  O6  UNL     1      85.519   3.274 126.108  1.00  0.00    -0.345 OA
ATOM     48  H6  UNL     1      85.479   2.327 126.047  1.00  0.00     0.219 HD
ENDBRANCH  43  47
BRANCH  46  49
HETATM   49  N5  UNL     1      82.612   6.931 127.215  1.00  0.00    -0.304 N 
HETATM   50  C19 UNL     1      82.540   7.905 128.226  1.00  0.00     0.281 C 
HETATM   51  O7  UNL     1      83.443   8.838 128.211  1.00  0.00    -0.269 OA
ATOM     52  H5  UNL     1      82.137   7.089 126.327  1.00  0.00     0.171 HD
BRANCH  50  53
HETATM   53  C20 UNL     1      81.534   7.974 129.293  1.00  0.00     0.468 C 
BRANCH  53  54
HETATM   54  N6  UNL     1      81.425   9.387 129.699  1.00  0.00    -0.042 N 
ATOM     55  H63 UNL     1      82.211   9.955 129.383  1.00  0.00     0.277 HD
ATOM     56  H62 UNL     1      80.691   9.891 129.200  1.00  0.00     0.277 HD
ATOM     57  H61 UNL     1      81.303   9.402 130.712  1.00  0.00     0.277 HD
ENDBRANCH  53  54
BRANCH  53  58
HETATM   58  N7  UNL     1      80.299   7.348 129.013  1.00  0.00    -0.042 N 
ATOM     59  H73 UNL     1      80.368   6.815 128.147  1.00  0.00     0.277 HD
ATOM     60  H72 UNL     1      80.133   6.593 129.679  1.00  0.00     0.277 HD
ATOM     61  H71 UNL     1      79.487   7.966 128.978  1.00  0.00     0.277 HD
ENDBRANCH  53  58
ENDBRANCH  50  53
ENDBRANCH  46  49
ENDBRANCH   4  42
TORSDOF 21
ENDMDL
MODEL 2
REMARK VINA RESULT: -8.785959713      3.330      6.436
REMARK  21 active torsions:
REMARK  status: ('A' for Active; 'I' for Inactive)
REMARK    1  A    between atoms: N1_1  and  C1_4 
REMARK    2  A    between atoms: C4_7  and  C5_8 
REMARK    3  A    between atoms: C5_8  and  N2_9 
REMARK    4  A    between atoms: N2_9  and  C6_12 
REMARK    5  A    between atoms: C6_12  and  C7_13 
REMARK    6  A    between atoms: N3_15  and  C9_16 
REMARK    7  A    between atoms: C9_16  and  C10_17 
REMARK    8  A    between atoms: C10_17  and  O1_18 
REMARK    9  A    between atoms: C10_17  and  C11_20 
REMARK   10  A    between atoms: C11_20  and  O2_21 
REMARK   11  A    between atoms: C11_20  and  C12_23 
REMARK   12  A    between atoms: C12_23  and  O3_24 
REMARK   13  A    between atoms: C13_26  and  C14_27 
REMARK   14  A    between atoms: C14_27  and  O4_28 
REMARK   15  A    between atoms: C15_31  and  N4_32 
REMARK   16  A    between atoms: C16_33  and  O6_34 
REMARK   17  A    between atoms: C18_38  and  N5_39 
REMARK       I    between atoms: N5_39  and  C19_41 
REMARK   18  A    between atoms: C19_41  and  C20_43 
REMARK   19  A    between atoms: C20_43  and  N6_44 
REMARK   20  A    between atoms: C20_43  and  N7_48 
REMARK   21  A    between atoms: C21_52  and  O8_53 
ROOT
HETATM    1  C12 UNL     1      83.589   6.132 124.513  1.00  0.00     0.144 C 
HETATM    2  C13 UNL     1      83.706   6.378 125.925  1.00  0.00     0.187 C 
HETATM    3  O5  UNL     1      84.765   5.485 126.270  1.00  0.00    -0.353 OA
HETATM    4  C15 UNL     1      84.789   4.450 125.389  1.00  0.00     0.264 C 
HETATM    5  C21 UNL     1      83.621   4.603 124.460  1.00  0.00     0.207 C 
ENDROOT
BRANCH   1   6
HETATM    6  C11 UNL     1      82.929   6.877 123.489  1.00  0.00     0.191 C 
BRANCH   6   7
HETATM    7  C10 UNL     1      82.602   6.485 122.128  1.00  0.00     0.190 C 
BRANCH   7   8
HETATM    8  C9  UNL     1      83.675   6.455 121.072  1.00  0.00     0.124 C 
BRANCH   8   9
HETATM    9  N3  UNL     1      84.406   5.271 120.925  1.00  0.00    -0.264 N 
HETATM   10  C8  UNL     1      84.040   4.162 120.207  1.00  0.00     0.145 A 
HETATM   11  C7  UNL     1      85.032   3.237 120.287  1.00  0.00     0.070 A 
HETATM   12  N9  UNL     1      86.003   3.776 121.053  1.00  0.00    -0.287 N 
HETATM   13  N8  UNL     1      85.590   4.960 121.400  1.00  0.00    -0.237 N 
ATOM     14  H9  UNL     1      86.889   3.339 121.309  1.00  0.00     0.188 HD
ATOM     15  H8  UNL     1      86.137   5.589 121.988  1.00  0.00     0.209 HD
BRANCH  11  16
HETATM   16  C6  UNL     1      85.155   1.880 119.657  1.00  0.00     0.292 C 
BRANCH  16  17
HETATM   17  N2  UNL     1      84.000   1.038 119.917  1.00  0.00    -0.066 N 
ATOM     18  H22 UNL     1      83.397   1.408 120.652  1.00  0.00     0.277 HD
ATOM     19  H21 UNL     1      84.246   0.160 120.374  1.00  0.00     0.277 HD
BRANCH  17  20
HETATM   20  C5  UNL     1      83.300   0.842 118.656  1.00  0.00     0.272 C 
BRANCH  20  21
HETATM   21  C4  UNL     1      82.114  -0.016 118.943  1.00  0.00    -0.017 A 
HETATM   22  C3  UNL     1      80.885   0.062 118.365  1.00  0.00     0.014 A 
HETATM   23  C2  UNL     1      79.834  -0.714 118.845  1.00  0.00     0.048 A 
HETATM   24  C1  UNL     1      80.082  -1.563 119.920  1.00  0.00     0.098 A 
HETATM   25  N10 UNL     1      81.285  -1.647 120.483  1.00  0.00    -0.352 N 
HETATM   26  C22 UNL     1      82.282  -0.908 120.020  1.00  0.00     0.098 A 
ATOM     27  H10 UNL     1      81.438  -2.278 121.268  1.00  0.00     0.166 HD
BRANCH  24  28
HETATM   28  N1  UNL     1      79.108  -2.261 120.325  1.00  0.00    -0.385 N 
ATOM     29  H12 UNL     1      78.423  -2.652 119.679  1.00  0.00     0.157 HD
ATOM     30  H11 UNL     1      79.037  -2.404 121.333  1.00  0.00     0.157 HD
ENDBRANCH  24  28
ENDBRANCH  20  21
ENDBRANCH  17  20
ENDBRANCH  16  17
ENDBRANCH  11  16
ENDBRANCH   8   9
ENDBRANCH   7   8
BRANCH   7  31
HETATM   31  O1  UNL     1      81.508   7.121 121.556  1.00  0.00    -0.388 OA
ATOM     32  H1  UNL     1      80.774   6.526 121.648  1.00  0.00     0.210 HD
ENDBRANCH   7  31
ENDBRANCH   6   7
BRANCH   6  33
HETATM   33  O2  UNL     1      81.724   7.378 124.073  1.00  0.00    -0.389 OA
ATOM     34  H2  UNL     1      81.644   6.970 124.927  1.00  0.00     0.210 HD
ENDBRANCH   6  33
ENDBRANCH   1   6
BRANCH   1  35
HETATM   35  O3  UNL     1      84.989   6.334 124.091  1.00  0.00    -0.382 OA
ATOM     36  H3  UNL     1      85.431   5.875 124.796  1.00  0.00     0.211 HD
ENDBRANCH   1  35
BRANCH   2  37
HETATM   37  C14 UNL     1      82.658   6.102 126.922  1.00  0.00     0.199 C 
BRANCH  37  38
HETATM   38  O4  UNL     1      83.260   6.356 128.187  1.00  0.00    -0.398 OA
ATOM     39  H4  UNL     1      82.554   6.298 128.820  1.00  0.00     0.209 HD
ENDBRANCH  37  38
ENDBRANCH   2  37
BRANCH   5  40
HETATM   40  O8  UNL     1      82.487   4.017 124.889  1.00  0.00    -0.388 OA
ATOM     41  H8  UNL     1      82.430   3.931 125.833  1.00  0.00     0.210 HD
ENDBRANCH   5  40
BRANCH   4  42
HETATM   42  N4  UNL     1      84.923   3.128 125.997  1.00  0.00    -0.277 N 
HETATM   43  C16 UNL     1      84.962   2.953 127.303  1.00  0.00     0.153 A 
HETATM   44  C17 UNL     1      85.065   1.694 127.788  1.00  0.00     0.109 A 
HETATM   45  S1  UNL     1      85.109   0.760 126.369  1.00  0.00    -0.061 SA
HETATM   46  C18 UNL     1      84.991   2.045 125.211  1.00  0.00     0.157 A 
BRANCH  43  47
HETATM   47  O6  UNL     1      84.912   4.027 128.270  1.00  0.00    -0.345 OA
ATOM     48  H6  UNL     1      85.062   3.916 129.202  1.00  0.00     0.219 HD
ENDBRANCH  43  47
BRANCH  46  49
HETATM   49  N5  UNL     1      85.003   1.994 123.922  1.00  0.00    -0.304 N 
HETATM   50  C19 UNL     1      84.865   0.766 123.255  1.00  0.00     0.281 C 
HETATM   51  O7  UNL     1      83.660   0.403 122.930  1.00  0.00    -0.269 OA
ATOM     52  H5  UNL     1      85.113   2.853 123.382  1.00  0.00     0.171 HD
BRANCH  50  53
HETATM   53  C20 UNL     1      85.954  -0.145 122.880  1.00  0.00     0.468 C 
BRANCH  53  54
HETATM   54  N6  UNL     1      87.206   0.632 122.924  1.00  0.00    -0.042 N 
ATOM     55  H63 UNL     1      87.477   1.006 122.015  1.00  0.00     0.277 HD
ATOM     56  H62 UNL     1      87.106   1.524 123.408  1.00  0.00     0.277 HD
ATOM     57  H61 UNL     1      87.920   0.030 123.338  1.00  0.00     0.277 HD
ENDBRANCH  53  54
BRANCH  53  58
HETATM   58  N7  UNL     1      85.999  -1.369 123.583  1.00  0.00    -0.042 N 
ATOM     59  H73 UNL     1      85.092  -1.833 123.531  1.00  0.00     0.277 HD
ATOM     60  H72 UNL     1      86.576  -2.040 123.076  1.00  0.00     0.277 HD
ATOM     61  H71 UNL     1      86.305  -1.311 124.555  1.00  0.00     0.277 HD
ENDBRANCH  53  58
ENDBRANCH  50  53
ENDBRANCH  46  49
ENDBRANCH   4  42
TORSDOF 21
ENDMDL
MODEL 3
REMARK VINA RESULT: -8.755156595      3.090      6.996
REMARK  21 active torsions:
REMARK  status: ('A' for Active; 'I' for Inactive)
REMARK    1  A    between atoms: N1_1  and  C1_4 
REMARK    2  A    between atoms: C4_7  and  C5_8 
REMARK    3  A    between atoms: C5_8  and  N2_9 
REMARK    4  A    between atoms: N2_9  and  C6_12 
REMARK    5  A    between atoms: C6_12  and  C7_13 
REMARK    6  A    between atoms: N3_15  and  C9_16 
REMARK    7  A    between atoms: C9_16  and  C10_17 
REMARK    8  A    between atoms: C10_17  and  O1_18 
REMARK    9  A    between atoms: C10_17  and  C11_20 
REMARK   10  A    between atoms: C11_20  and  O2_21 
REMARK   11  A    between atoms: C11_20  and  C12_23 
REMARK   12  A    between atoms: C12_23  and  O3_24 
REMARK   13  A    between atoms: C13_26  and  C14_27 
REMARK   14  A    between atoms: C14_27  and  O4_28 
REMARK   15  A    between atoms: C15_31  and  N4_32 
REMARK   16  A    between atoms: C16_33  and  O6_34 
REMARK   17  A    between atoms: C18_38  and  N5_39 
REMARK       I    between atoms: N5_39  and  C19_41 
REMARK   18  A    between atoms: C19_41  and  C20_43 
REMARK   19  A    between atoms: C20_43  and  N6_44 
REMARK   20  A    between atoms: C20_43  and  N7_48 
REMARK   21  A    between atoms: C21_52  and  O8_53 
ROOT
HETATM    1  C12 UNL     1      83.606   6.102 124.694  1.00  0.00     0.144 C 
HETATM    2  C13 UNL     1      83.825   6.305 126.100  1.00  0.00     0.187 C 
HETATM    3  O5  UNL     1      84.894   5.391 126.344  1.00  0.00    -0.353 OA
HETATM    4  C15 UNL     1      84.842   4.382 125.434  1.00  0.00     0.264 C 
HETATM    5  C21 UNL     1      83.614   4.574 124.596  1.00  0.00     0.207 C 
ENDROOT
BRANCH   1   6
HETATM    6  C11 UNL     1      82.885   6.883 123.740  1.00  0.00     0.191 C 
BRANCH   6   7
HETATM    7  C10 UNL     1      82.307   6.483 122.468  1.00  0.00     0.190 C 
BRANCH   7   8
HETATM    8  C9  UNL     1      83.102   6.628 121.198  1.00  0.00     0.124 C 
BRANCH   8   9
HETATM    9  N3  UNL     1      84.181   5.759 121.006  1.00  0.00    -0.264 N 
HETATM   10  C8  UNL     1      84.125   4.460 120.571  1.00  0.00     0.145 A 
HETATM   11  C7  UNL     1      85.388   3.967 120.490  1.00  0.00     0.070 A 
HETATM   12  N9  UNL     1      86.217   4.959 120.875  1.00  0.00    -0.287 N 
HETATM   13  N8  UNL     1      85.466   5.981 121.167  1.00  0.00    -0.237 N 
ATOM     14  H9  UNL     1      87.235   4.916 120.927  1.00  0.00     0.188 HD
ATOM     15  H8  UNL     1      85.840   6.872 121.490  1.00  0.00     0.209 HD
BRANCH  11  16
HETATM   16  C6  UNL     1      85.885   2.626 120.033  1.00  0.00     0.292 C 
BRANCH  16  17
HETATM   17  N2  UNL     1      84.806   1.688 119.780  1.00  0.00    -0.066 N 
ATOM     18  H22 UNL     1      83.911   2.004 120.154  1.00  0.00     0.277 HD
ATOM     19  H21 UNL     1      84.887   0.833 120.330  1.00  0.00     0.277 HD
BRANCH  17  20
HETATM   20  C5  UNL     1      84.763   1.436 118.347  1.00  0.00     0.272 C 
BRANCH  20  21
HETATM   21  C4  UNL     1      83.324   1.331 117.965  1.00  0.00    -0.017 A 
HETATM   22  C3  UNL     1      82.629   2.165 117.146  1.00  0.00     0.014 A 
HETATM   23  C2  UNL     1      81.253   2.020 117.002  1.00  0.00     0.048 A 
HETATM   24  C1  UNL     1      80.622   1.003 117.713  1.00  0.00     0.098 A 
HETATM   25  N10 UNL     1      81.300   0.180 118.509  1.00  0.00    -0.352 N 
HETATM   26  C22 UNL     1      82.610   0.322 118.640  1.00  0.00     0.098 A 
ATOM     27  H10 UNL     1      80.812  -0.557 119.017  1.00  0.00     0.166 HD
BRANCH  24  28
HETATM   28  N1  UNL     1      79.372   0.892 117.552  1.00  0.00    -0.385 N 
ATOM     29  H12 UNL     1      78.955   0.816 116.624  1.00  0.00     0.157 HD
ATOM     30  H11 UNL     1      78.801   0.894 118.398  1.00  0.00     0.157 HD
ENDBRANCH  24  28
ENDBRANCH  20  21
ENDBRANCH  17  20
ENDBRANCH  16  17
ENDBRANCH  11  16
ENDBRANCH   8   9
ENDBRANCH   7   8
BRANCH   7  31
HETATM   31  O1  UNL     1      81.037   6.976 122.194  1.00  0.00    -0.388 OA
ATOM     32  H1  UNL     1      81.146   7.898 121.991  1.00  0.00     0.210 HD
ENDBRANCH   7  31
ENDBRANCH   6   7
BRANCH   6  33
HETATM   33  O2  UNL     1      81.852   7.550 124.469  1.00  0.00    -0.389 OA
ATOM     34  H2  UNL     1      82.037   8.481 124.415  1.00  0.00     0.210 HD
ENDBRANCH   6  33
ENDBRANCH   1   6
BRANCH   1  35
HETATM   35  O3  UNL     1      84.975   6.301 124.180  1.00  0.00    -0.382 OA
ATOM     36  H3  UNL     1      84.835   7.091 123.671  1.00  0.00     0.211 HD
ENDBRANCH   1  35
BRANCH   2  37
HETATM   37  C14 UNL     1      82.846   6.012 127.160  1.00  0.00     0.199 C 
BRANCH  37  38
HETATM   38  O4  UNL     1      82.000   7.156 127.224  1.00  0.00    -0.398 OA
ATOM     39  H4  UNL     1      81.115   6.815 127.275  1.00  0.00     0.209 HD
ENDBRANCH  37  38
ENDBRANCH   2  37
BRANCH   5  40
HETATM   40  O8  UNL     1      82.505   3.989 125.087  1.00  0.00    -0.388 OA
ATOM     41  H8  UNL     1      81.892   3.703 124.420  1.00  0.00     0.210 HD
ENDBRANCH   5  40
BRANCH   4  42
HETATM   42  N4  UNL     1      85.001   3.041 125.995  1.00  0.00    -0.277 N 
HETATM   43  C16 UNL     1      84.928   2.804 127.289  1.00  0.00     0.153 A 
HETATM   44  C17 UNL     1      85.064   1.531 127.726  1.00  0.00     0.109 A 
HETATM   45  S1  UNL     1      85.301   0.673 126.278  1.00  0.00    -0.061 SA
HETATM   46  C18 UNL     1      85.212   2.005 125.172  1.00  0.00     0.157 A 
BRANCH  43  47
HETATM   47  O6  UNL     1      84.718   3.825 128.293  1.00  0.00    -0.345 OA
ATOM     48  H6  UNL     1      83.866   4.166 128.539  1.00  0.00     0.219 HD
ENDBRANCH  43  47
BRANCH  46  49
HETATM   49  N5  UNL     1      85.349   2.019 123.889  1.00  0.00    -0.304 N 
HETATM   50  C19 UNL     1      85.137   0.853 123.136  1.00  0.00     0.281 C 
HETATM   51  O7  UNL     1      83.938   0.657 122.676  1.00  0.00    -0.269 OA
ATOM     52  H5  UNL     1      85.614   2.884 123.418  1.00  0.00     0.171 HD
BRANCH  50  53
HETATM   53  C20 UNL     1      86.145  -0.164 122.810  1.00  0.00     0.468 C 
BRANCH  53  54
HETATM   54  N6  UNL     1      87.469   0.460 122.990  1.00  0.00    -0.042 N 
ATOM     55  H63 UNL     1      87.700   0.631 123.968  1.00  0.00     0.277 HD
ATOM     56  H62 UNL     1      88.241  -0.173 122.782  1.00  0.00     0.277 HD
ATOM     57  H61 UNL     1      87.482   1.308 122.422  1.00  0.00     0.277 HD
ENDBRANCH  53  54
BRANCH  53  58
HETATM   58  N7  UNL     1      85.992  -1.409 123.458  1.00  0.00    -0.042 N 
ATOM     59  H73 UNL     1      85.072  -1.463 123.894  1.00  0.00     0.277 HD
ATOM     60  H72 UNL     1      85.908  -2.154 122.765  1.00  0.00     0.277 HD
ATOM     61  H71 UNL     1      86.715  -1.647 124.138  1.00  0.00     0.277 HD
ENDBRANCH  53  58
ENDBRANCH  50  53
ENDBRANCH  46  49
ENDBRANCH   4  42
TORSDOF 21
ENDMDL
MODEL 4
REMARK VINA RESULT: -8.713797825      2.890      6.528
REMARK  21 active torsions:
REMARK  status: ('A' for Active; 'I' for Inactive)
REMARK    1  A    between atoms: N1_1  and  C1_4 
REMARK    2  A    between atoms: C4_7  and  C5_8 
REMARK    3  A    between atoms: C5_8  and  N2_9 
REMARK    4  A    between atoms: N2_9  and  C6_12 
REMARK    5  A    between atoms: C6_12  and  C7_13 
REMARK    6  A    between atoms: N3_15  and  C9_16 
REMARK    7  A    between atoms: C9_16  and  C10_17 
REMARK    8  A    between atoms: C10_17  and  O1_18 
REMARK    9  A    between atoms: C10_17  and  C11_20 
REMARK   10  A    between atoms: C11_20  and  O2_21 
REMARK   11  A    between atoms: C11_20  and  C12_23 
REMARK   12  A    between atoms: C12_23  and  O3_24 
REMARK   13  A    between atoms: C13_26  and  C14_27 
REMARK   14  A    between atoms: C14_27  and  O4_28 
REMARK   15  A    between atoms: C15_31  and  N4_32 
REMARK   16  A    between atoms: C16_33  and  O6_34 
REMARK   17  A    between atoms: C18_38  and  N5_39 
REMARK       I    between atoms: N5_39  and  C19_41 
REMARK   18  A    between atoms: C19_41  and  C20_43 
REMARK   19  A    between atoms: C20_43  and  N6_44 
REMARK   20  A    between atoms: C20_43  and  N7_48 
REMARK   21  A    between atoms: C21_52  and  O8_53 
ROOT
HETATM    1  C12 UNL     1      83.956   4.944 124.468  1.00  0.00     0.144 C 
HETATM    2  C13 UNL     1      83.764   5.650 123.231  1.00  0.00     0.187 C 
HETATM    3  O5  UNL     1      83.619   4.563 122.317  1.00  0.00    -0.353 OA
HETATM    4  C15 UNL     1      84.272   3.473 122.802  1.00  0.00     0.264 C 
HETATM    5  C21 UNL     1      84.977   3.878 124.063  1.00  0.00     0.207 C 
ENDROOT
BRANCH   1   6
HETATM    6  C11 UNL     1      83.883   5.396 125.821  1.00  0.00     0.191 C 
BRANCH   6   7
HETATM    7  C10 UNL     1      83.795   4.623 127.049  1.00  0.00     0.190 C 
BRANCH   7   8
HETATM    8  C9  UNL     1      84.935   3.732 127.464  1.00  0.00     0.124 C 
BRANCH   8   9
HETATM    9  N3  UNL     1      84.753   2.934 128.599  1.00  0.00    -0.264 N 
HETATM   10  C8  UNL     1      85.426   1.781 128.911  1.00  0.00     0.145 A 
HETATM   11  C7  UNL     1      84.981   1.321 130.109  1.00  0.00     0.070 A 
HETATM   12  N9  UNL     1      84.036   2.187 130.530  1.00  0.00    -0.287 N 
HETATM   13  N8  UNL     1      83.940   3.107 129.615  1.00  0.00    -0.237 N 
ATOM     14  H9  UNL     1      83.501   2.130 131.397  1.00  0.00     0.188 HD
ATOM     15  H8  UNL     1      83.291   3.892 129.682  1.00  0.00     0.209 HD
BRANCH  11  16
HETATM   16  C6  UNL     1      85.410   0.132 130.919  1.00  0.00     0.292 C 
BRANCH  16  17
HETATM   17  N2  UNL     1      86.244  -0.787 130.162  1.00  0.00    -0.066 N 
ATOM     18  H22 UNL     1      87.142  -0.967 130.610  1.00  0.00     0.277 HD
ATOM     19  H21 UNL     1      86.602  -0.377 129.300  1.00  0.00     0.277 HD
BRANCH  17  20
HETATM   20  C5  UNL     1      85.473  -2.000 129.934  1.00  0.00     0.272 C 
BRANCH  20  21
HETATM   21  C4  UNL     1      85.865  -2.522 128.592  1.00  0.00    -0.017 A 
HETATM   22  C3  UNL     1      85.964  -3.824 128.214  1.00  0.00     0.014 A 
HETATM   23  C2  UNL     1      86.486  -4.155 126.968  1.00  0.00     0.048 A 
HETATM   24  C1  UNL     1      86.895  -3.120 126.131  1.00  0.00     0.098 A 
HETATM   25  N10 UNL     1      86.793  -1.845 126.495  1.00  0.00    -0.352 N 
HETATM   26  C22 UNL     1      86.292  -1.536 127.682  1.00  0.00     0.098 A 
ATOM     27  H10 UNL     1      87.099  -1.107 125.862  1.00  0.00     0.166 HD
BRANCH  24  28
HETATM   28  N1  UNL     1      87.356  -3.455 125.002  1.00  0.00    -0.385 N 
ATOM     29  H12 UNL     1      88.003  -2.857 124.487  1.00  0.00     0.157 HD
ATOM     30  H11 UNL     1      87.039  -4.350 124.627  1.00  0.00     0.157 HD
ENDBRANCH  24  28
ENDBRANCH  20  21
ENDBRANCH  17  20
ENDBRANCH  16  17
ENDBRANCH  11  16
ENDBRANCH   8   9
ENDBRANCH   7   8
BRANCH   7  31
HETATM   31  O1  UNL     1      82.634   3.879 127.218  1.00  0.00    -0.388 OA
ATOM     32  H1  UNL     1      81.910   4.487 127.127  1.00  0.00     0.210 HD
ENDBRANCH   7  31
ENDBRANCH   6   7
BRANCH   6  33
HETATM   33  O2  UNL     1      84.961   6.319 125.993  1.00  0.00    -0.389 OA
ATOM     34  H2  UNL     1      85.744   5.801 126.139  1.00  0.00     0.210 HD
ENDBRANCH   6  33
ENDBRANCH   1   6
BRANCH   1  35
HETATM   35  O3  UNL     1      82.781   4.052 124.451  1.00  0.00    -0.382 OA
ATOM     36  H3  UNL     1      83.221   3.218 124.331  1.00  0.00     0.211 HD
ENDBRANCH   1  35
BRANCH   2  37
HETATM   37  C14 UNL     1      84.759   6.530 122.595  1.00  0.00     0.199 C 
BRANCH  37  38
HETATM   38  O4  UNL     1      84.232   6.832 121.307  1.00  0.00    -0.398 OA
ATOM     39  H4  UNL     1      84.241   7.779 121.245  1.00  0.00     0.209 HD
ENDBRANCH  37  38
ENDBRANCH   2  37
BRANCH   5  40
HETATM   40  O8  UNL     1      86.222   4.356 123.876  1.00  0.00    -0.388 OA
ATOM     41  H8  UNL     1      86.909   3.749 124.123  1.00  0.00     0.210 HD
ENDBRANCH   5  40
BRANCH   4  42
HETATM   42  N4  UNL     1      85.105   2.772 121.828  1.00  0.00    -0.277 N 
HETATM   43  C16 UNL     1      85.290   3.223 120.604  1.00  0.00     0.153 A 
HETATM   44  C17 UNL     1      86.095   2.526 119.768  1.00  0.00     0.109 A 
HETATM   45  S1  UNL     1      86.584   1.221 120.740  1.00  0.00    -0.061 SA
HETATM   46  C18 UNL     1      85.724   1.639 122.186  1.00  0.00     0.157 A 
BRANCH  43  47
HETATM   47  O6  UNL     1      84.677   4.422 120.076  1.00  0.00    -0.345 OA
ATOM     48  H6  UNL     1      83.847   4.440 119.615  1.00  0.00     0.219 HD
ENDBRANCH  43  47
BRANCH  46  49
HETATM   49  N5  UNL     1      85.653   1.012 123.312  1.00  0.00    -0.304 N 
HETATM   50  C19 UNL     1      85.516  -0.385 123.343  1.00  0.00     0.281 C 
HETATM   51  O7  UNL     1      86.609  -1.084 123.397  1.00  0.00    -0.269 OA
ATOM     52  H5  UNL     1      85.699   1.536 124.186  1.00  0.00     0.171 HD
BRANCH  50  53
HETATM   53  C20 UNL     1      84.252  -1.132 123.331  1.00  0.00     0.468 C 
BRANCH  53  54
HETATM   54  N6  UNL     1      84.238  -1.944 122.100  1.00  0.00    -0.042 N 
ATOM     55  H63 UNL     1      83.961  -1.414 121.274  1.00  0.00     0.277 HD
ATOM     56  H62 UNL     1      85.171  -2.204 121.782  1.00  0.00     0.277 HD
ATOM     57  H61 UNL     1      83.637  -2.750 122.277  1.00  0.00     0.277 HD
ENDBRANCH  53  54
BRANCH  53  58
HETATM   58  N7  UNL     1      83.953  -1.850 124.510  1.00  0.00    -0.042 N 
ATOM     59  H73 UNL     1      84.481  -1.467 125.293  1.00  0.00     0.277 HD
ATOM     60  H72 UNL     1      83.001  -1.641 124.812  1.00  0.00     0.277 HD
ATOM     61  H71 UNL     1      84.088  -2.861 124.459  1.00  0.00     0.277 HD
ENDBRANCH  53  58
ENDBRANCH  50  53
ENDBRANCH  46  49
ENDBRANCH   4  42
TORSDOF 21
ENDMDL
MODEL 5
REMARK VINA RESULT: -8.705223690      1.742      3.408
REMARK  21 active torsions:
REMARK  status: ('A' for Active; 'I' for Inactive)
REMARK    1  A    between atoms: N1_1  and  C1_4 
REMARK    2  A    between atoms: C4_7  and  C5_8 
REMARK    3  A    between atoms: C5_8  and  N2_9 
REMARK    4  A    between atoms: N2_9  and  C6_12 
REMARK    5  A    between atoms: C6_12  and  C7_13 
REMARK    6  A    between atoms: N3_15  and  C9_16 
REMARK    7  A    between atoms: C9_16  and  C10_17 
REMARK    8  A    between atoms: C10_17  and  O1_18 
REMARK    9  A    between atoms: C10_17  and  C11_20 
REMARK   10  A    between atoms: C11_20  and  O2_21 
REMARK   11  A    between atoms: C11_20  and  C12_23 
REMARK   12  A    between atoms: C12_23  and  O3_24 
REMARK   13  A    between atoms: C13_26  and  C14_27 
REMARK   14  A    between atoms: C14_27  and  O4_28 
REMARK   15  A    between atoms: C15_31  and  N4_32 
REMARK   16  A    between atoms: C16_33  and  O6_34 
REMARK   17  A    between atoms: C18_38  and  N5_39 
REMARK       I    between atoms: N5_39  and  C19_41 
REMARK   18  A    between atoms: C19_41  and  C20_43 
REMARK   19  A    between atoms: C20_43  and  N6_44 
REMARK   20  A    between atoms: C20_43  and  N7_48 
REMARK   21  A    between atoms: C21_52  and  O8_53 
ROOT
HETATM    1  C12 UNL     1      83.936   5.853 122.638  1.00  0.00     0.144 C 
HETATM    2  C13 UNL     1      83.465   7.109 123.154  1.00  0.00     0.187 C 
HETATM    3  O5  UNL     1      84.073   7.118 124.445  1.00  0.00    -0.353 OA
HETATM    4  C15 UNL     1      84.285   5.839 124.855  1.00  0.00     0.264 C 
HETATM    5  C21 UNL     1      83.696   4.919 123.827  1.00  0.00     0.207 C 
ENDROOT
BRANCH   1   6
HETATM    6  C11 UNL     1      83.948   5.338 121.306  1.00  0.00     0.191 C 
BRANCH   6   7
HETATM    7  C10 UNL     1      84.906   4.450 120.669  1.00  0.00     0.190 C 
BRANCH   7   8
HETATM    8  C9  UNL     1      84.831   2.964 120.903  1.00  0.00     0.124 C 
BRANCH   8   9
HETATM    9  N3  UNL     1      85.682   2.417 121.869  1.00  0.00    -0.264 N 
HETATM   10  C8  UNL     1      86.215   1.154 121.875  1.00  0.00     0.145 A 
HETATM   11  C7  UNL     1      87.013   1.018 122.967  1.00  0.00     0.070 A 
HETATM   12  N9  UNL     1      86.968   2.192 123.628  1.00  0.00    -0.287 N 
HETATM   13  N8  UNL     1      86.179   2.973 122.950  1.00  0.00    -0.237 N 
ATOM     14  H9  UNL     1      87.458   2.423 124.493  1.00  0.00     0.188 HD
ATOM     15  H8  UNL     1      85.967   3.930 123.232  1.00  0.00     0.209 HD
BRANCH  11  16
HETATM   16  C6  UNL     1      87.857  -0.138 123.420  1.00  0.00     0.292 C 
BRANCH  16  17
HETATM   17  N2  UNL     1      87.409  -0.693 124.685  1.00  0.00    -0.066 N 
ATOM     18  H22 UNL     1      86.499  -0.334 124.976  1.00  0.00     0.277 HD
ATOM     19  H21 UNL     1      87.949  -0.353 125.481  1.00  0.00     0.277 HD
BRANCH  17  20
HETATM   20  C5  UNL     1      87.432  -2.144 124.566  1.00  0.00     0.272 C 
BRANCH  20  21
HETATM   21  C4  UNL     1      87.093  -2.698 125.910  1.00  0.00    -0.017 A 
HETATM   22  C3  UNL     1      86.626  -3.945 126.190  1.00  0.00     0.014 A 
HETATM   23  C2  UNL     1      86.215  -4.266 127.479  1.00  0.00     0.048 A 
HETATM   24  C1  UNL     1      86.301  -3.282 128.460  1.00  0.00     0.098 A 
HETATM   25  N10 UNL     1      86.764  -2.064 128.191  1.00  0.00    -0.352 N 
HETATM   26  C22 UNL     1      87.157  -1.765 126.962  1.00  0.00     0.098 A 
ATOM     27  H10 UNL     1      86.817  -1.363 128.930  1.00  0.00     0.166 HD
BRANCH  24  28
HETATM   28  N1  UNL     1      85.928  -3.610 129.624  1.00  0.00    -0.385 N 
ATOM     29  H12 UNL     1      86.599  -3.860 130.351  1.00  0.00     0.157 HD
ATOM     30  H11 UNL     1      84.922  -3.622 129.795  1.00  0.00     0.157 HD
ENDBRANCH  24  28
ENDBRANCH  20  21
ENDBRANCH  17  20
ENDBRANCH  16  17
ENDBRANCH  11  16
ENDBRANCH   8   9
ENDBRANCH   7   8
BRANCH   7  31
HETATM   31  O1  UNL     1      86.243   4.800 120.802  1.00  0.00    -0.388 OA
ATOM     32  H1  UNL     1      86.326   5.227 121.646  1.00  0.00     0.210 HD
ENDBRANCH   7  31
ENDBRANCH   6   7
BRANCH   6  33
HETATM   33  O2  UNL     1      82.654   4.774 121.084  1.00  0.00    -0.389 OA
ATOM     34  H2  UNL     1      82.713   3.854 121.315  1.00  0.00     0.210 HD
ENDBRANCH   6  33
ENDBRANCH   1   6
BRANCH   1  35
HETATM   35  O3  UNL     1      85.388   6.007 122.848  1.00  0.00    -0.382 OA
ATOM     36  H3  UNL     1      85.414   5.954 123.796  1.00  0.00     0.211 HD
ENDBRANCH   1  35
BRANCH   2  37
HETATM   37  C14 UNL     1      82.054   7.442 123.414  1.00  0.00     0.199 C 
BRANCH  37  38
HETATM   38  O4  UNL     1      81.336   6.971 122.277  1.00  0.00    -0.398 OA
ATOM     39  H4  UNL     1      80.465   6.766 122.594  1.00  0.00     0.209 HD
ENDBRANCH  37  38
ENDBRANCH   2  37
BRANCH   5  40
HETATM   40  O8  UNL     1      82.401   4.612 124.029  1.00  0.00    -0.388 OA
ATOM     41  H8  UNL     1      82.078   4.849 124.890  1.00  0.00     0.210 HD
ENDBRANCH   5  40
BRANCH   4  42
HETATM   42  N4  UNL     1      83.883   5.561 126.232  1.00  0.00    -0.277 N 
HETATM   43  C16 UNL     1      83.166   6.408 126.943  1.00  0.00     0.153 A 
HETATM   44  C17 UNL     1      82.816   6.065 128.205  1.00  0.00     0.109 A 
HETATM   45  S1  UNL     1      83.521   4.528 128.372  1.00  0.00    -0.061 SA
HETATM   46  C18 UNL     1      84.235   4.399 126.798  1.00  0.00     0.157 A 
BRANCH  43  47
HETATM   47  O6  UNL     1      82.727   7.702 126.468  1.00  0.00    -0.345 OA
ATOM     48  H6  UNL     1      82.163   8.288 126.959  1.00  0.00     0.219 HD
ENDBRANCH  43  47
BRANCH  46  49
HETATM   49  N5  UNL     1      84.956   3.453 126.297  1.00  0.00    -0.304 N 
HETATM   50  C19 UNL     1      84.394   2.195 126.025  1.00  0.00     0.281 C 
HETATM   51  O7  UNL     1      83.910   2.010 124.834  1.00  0.00    -0.269 OA
ATOM     52  H5  UNL     1      85.942   3.620 126.096  1.00  0.00     0.171 HD
BRANCH  50  53
HETATM   53  C20 UNL     1      84.310   1.063 126.957  1.00  0.00     0.468 C 
BRANCH  53  54
HETATM   54  N6  UNL     1      84.334  -0.170 126.149  1.00  0.00    -0.042 N 
ATOM     55  H63 UNL     1      83.858  -0.951 126.597  1.00  0.00     0.277 HD
ATOM     56  H62 UNL     1      83.744  -0.115 125.319  1.00  0.00     0.277 HD
ATOM     57  H61 UNL     1      85.312  -0.369 125.932  1.00  0.00     0.277 HD
ENDBRANCH  53  54
BRANCH  53  58
HETATM   58  N7  UNL     1      85.231   1.080 128.027  1.00  0.00    -0.042 N 
ATOM     59  H73 UNL     1      85.190   1.979 128.507  1.00  0.00     0.277 HD
ATOM     60  H72 UNL     1      84.911   0.461 128.772  1.00  0.00     0.277 HD
ATOM     61  H71 UNL     1      86.197   0.860 127.783  1.00  0.00     0.277 HD
ENDBRANCH  53  58
ENDBRANCH  50  53
ENDBRANCH  46  49
ENDBRANCH   4  42
TORSDOF 21
ENDMDL
