MODEL 1
REMARK VINA RESULT: -4.241778463      0.000      0.000
REMARK  2 active torsions:
REMARK  status: ('A' for Active; 'I' for Inactive)
REMARK    1  A    between atoms: O1_1  and  C1_3 
REMARK    2  A    between atoms: C6_8  and  C7_9 
ROOT
HETATM    1  C1  UNL     1       8.677  -3.573  32.843  1.00  0.00     0.128 C 
HETATM    2  C2  UNL     1       7.879  -4.677  33.554  1.00  0.00     0.037 C 
HETATM    3  C3  UNL     1       6.609  -4.789  32.774  1.00  0.00    -0.011 C 
HETATM    4  C4  UNL     1       5.828  -3.492  33.002  1.00  0.00     0.005 C 
HETATM    5  C5  UNL     1       6.622  -2.419  32.238  1.00  0.00     0.013 C 
HETATM    6  C6  UNL     1       7.806  -3.184  31.702  1.00  0.00    -0.005 C 
HETATM    7  C8  UNL     1       7.112  -4.513  31.358  1.00  0.00     0.017 C 
ENDROOT
BRANCH   1   8
HETATM    8  O1  UNL     1       8.807  -2.452  33.692  1.00  0.00    -0.395 OA
ATOM      9  H1  UNL     1       9.228  -2.708  34.504  1.00  0.00     0.210 HD
ENDBRANCH   1   8
BRANCH   6  10
HETATM   10  C7  UNL     1       8.465  -2.592  30.530  1.00  0.00     0.098 C 
HETATM   11  S1  UNL     1       7.883  -3.466  29.036  1.00  0.00    -0.097 SA
ENDBRANCH   6  10
TORSDOF 2
ENDMDL
MODEL 2
REMARK VINA RESULT: -4.208325261      4.555      5.746
REMARK  2 active torsions:
REMARK  status: ('A' for Active; 'I' for Inactive)
REMARK    1  A    between atoms: O1_1  and  C1_3 
REMARK    2  A    between atoms: C6_8  and  C7_9 
ROOT
HETATM    1  C1  UNL     1       3.242  -2.524  33.483  1.00  0.00     0.128 C 
HETATM    2  C2  UNL     1       4.465  -3.362  33.080  1.00  0.00     0.037 C 
HETATM    3  C3  UNL     1       4.315  -4.641  33.837  1.00  0.00    -0.011 C 
HETATM    4  C4  UNL     1       4.502  -4.310  35.319  1.00  0.00     0.005 C 
HETATM    5  C5  UNL     1       3.240  -3.517  35.704  1.00  0.00     0.013 C 
HETATM    6  C6  UNL     1       2.486  -3.418  34.402  1.00  0.00    -0.005 C 
HETATM    7  C8  UNL     1       2.797  -4.809  33.824  1.00  0.00     0.017 C 
ENDROOT
BRANCH   1   8
HETATM    8  O1  UNL     1       3.655  -1.393  34.220  1.00  0.00    -0.395 OA
ATOM      9  H1  UNL     1       3.006  -0.703  34.146  1.00  0.00     0.210 HD
ENDBRANCH   1   8
BRANCH   6  10
HETATM   10  C7  UNL     1       1.041  -3.185  34.522  1.00  0.00     0.098 C 
HETATM   11  S1  UNL     1       0.169  -4.736  34.114  1.00  0.00    -0.097 SA
ENDBRANCH   6  10
TORSDOF 2
ENDMDL
MODEL 3
REMARK VINA RESULT: -4.165297104      4.287      5.488
REMARK  2 active torsions:
REMARK  status: ('A' for Active; 'I' for Inactive)
REMARK    1  A    between atoms: O1_1  and  C1_3 
REMARK    2  A    between atoms: C6_8  and  C7_9 
ROOT
HETATM    1  C1  UNL     1       4.552  -3.477  33.702  1.00  0.00     0.128 C 
HETATM    2  C2  UNL     1       3.677  -2.235  33.478  1.00  0.00     0.037 C 
HETATM    3  C3  UNL     1       2.571  -2.366  34.475  1.00  0.00    -0.011 C 
HETATM    4  C4  UNL     1       1.720  -3.563  34.045  1.00  0.00     0.005 C 
HETATM    5  C5  UNL     1       2.603  -4.791  34.329  1.00  0.00     0.013 C 
HETATM    6  C6  UNL     1       3.888  -4.182  34.831  1.00  0.00    -0.005 C 
HETATM    7  C8  UNL     1       3.310  -3.012  35.645  1.00  0.00     0.017 C 
ENDROOT
BRANCH   1   8
HETATM    8  O1  UNL     1       4.492  -4.319  32.570  1.00  0.00    -0.395 OA
ATOM      9  H1  UNL     1       5.358  -4.416  32.192  1.00  0.00     0.210 HD
ENDBRANCH   1   8
BRANCH   6  10
HETATM   10  C7  UNL     1       4.726  -5.061  35.657  1.00  0.00     0.098 C 
HETATM   11  S1  UNL     1       4.465  -6.785  35.117  1.00  0.00    -0.097 SA
ENDBRANCH   6  10
TORSDOF 2
ENDMDL
MODEL 4
REMARK VINA RESULT: -4.044297066      3.304      4.296
REMARK  2 active torsions:
REMARK  status: ('A' for Active; 'I' for Inactive)
REMARK    1  A    between atoms: O1_1  and  C1_3 
REMARK    2  A    between atoms: C6_8  and  C7_9 
ROOT
HETATM    1  C1  UNL     1       4.534  -6.441  33.182  1.00  0.00     0.128 C 
HETATM    2  C2  UNL     1       3.298  -6.067  34.014  1.00  0.00     0.037 C 
HETATM    3  C3  UNL     1       3.670  -4.788  34.691  1.00  0.00    -0.011 C 
HETATM    4  C4  UNL     1       4.771  -5.119  35.700  1.00  0.00     0.005 C 
HETATM    5  C5  UNL     1       6.006  -5.438  34.840  1.00  0.00     0.013 C 
HETATM    6  C6  UNL     1       5.482  -5.322  33.430  1.00  0.00    -0.005 C 
HETATM    7  C8  UNL     1       4.529  -4.128  33.614  1.00  0.00     0.017 C 
ENDROOT
BRANCH   1   8
HETATM    8  O1  UNL     1       5.116  -7.623  33.690  1.00  0.00    -0.395 OA
ATOM      9  H1  UNL     1       5.114  -8.299  33.022  1.00  0.00     0.210 HD
ENDBRANCH   1   8
BRANCH   6  10
HETATM   10  C7  UNL     1       6.493  -5.061  32.397  1.00  0.00     0.098 C 
HETATM   11  S1  UNL     1       7.894  -4.180  33.168  1.00  0.00    -0.097 SA
ENDBRANCH   6  10
TORSDOF 2
ENDMDL
MODEL 5
REMARK VINA RESULT: -4.019371243      4.581      5.580
REMARK  2 active torsions:
REMARK  status: ('A' for Active; 'I' for Inactive)
REMARK    1  A    between atoms: O1_1  and  C1_3 
REMARK    2  A    between atoms: C6_8  and  C7_9 
ROOT
HETATM    1  C1  UNL     1       2.251  -5.270  34.391  1.00  0.00     0.128 C 
HETATM    2  C2  UNL     1       1.522  -3.918  34.348  1.00  0.00     0.037 C 
HETATM    3  C3  UNL     1       2.615  -2.899  34.338  1.00  0.00    -0.011 C 
HETATM    4  C4  UNL     1       3.301  -2.964  35.704  1.00  0.00     0.005 C 
HETATM    5  C5  UNL     1       4.061  -4.302  35.697  1.00  0.00     0.013 C 
HETATM    6  C6  UNL     1       3.691  -4.899  34.362  1.00  0.00    -0.005 C 
HETATM    7  C8  UNL     1       3.677  -3.619  33.509  1.00  0.00     0.017 C 
ENDROOT
BRANCH   1   8
HETATM    8  O1  UNL     1       1.994  -5.917  35.620  1.00  0.00    -0.395 OA
ATOM      9  H1  UNL     1       2.426  -6.763  35.638  1.00  0.00     0.210 HD
ENDBRANCH   1   8
BRANCH   6  10
HETATM   10  C7  UNL     1       4.628  -5.898  33.833  1.00  0.00     0.098 C 
HETATM   11  S1  UNL     1       6.053  -5.025  33.100  1.00  0.00    -0.097 SA
ENDBRANCH   6  10
TORSDOF 2
ENDMDL
