MODEL 1
REMARK VINA RESULT: -7.801458782      0.000      0.000
REMARK  3 active torsions:
REMARK  status: ('A' for Active; 'I' for Inactive)
REMARK    1  A    between atoms: C1_2  and  C2_4 
REMARK    2  A    between atoms: C10_14  and  C11_15 
REMARK       I    between atoms: C11_15  and  N1_17 
REMARK    3  A    between atoms: N1_17  and  C12_19 
ROOT
HETATM    1  C2  UNL     1       5.820  12.336  47.347  1.00  0.00     0.250 C 
HETATM    2  O3  UNL     1       5.710  13.481  46.543  1.00  0.00    -0.333 OA
HETATM    3  C3  UNL     1       5.188  13.515  45.261  1.00  0.00     0.084 A 
HETATM    4  C4  UNL     1       4.610  14.628  44.708  1.00  0.00     0.038 A 
HETATM    5  C5  UNL     1       4.110  14.573  43.412  1.00  0.00     0.003 A 
HETATM    6  C6  UNL     1       4.175  13.431  42.653  1.00  0.00     0.001 A 
HETATM    7  C7  UNL     1       4.756  12.317  43.216  1.00  0.00     0.018 A 
HETATM    8  C8  UNL     1       5.259  12.361  44.512  1.00  0.00     0.044 A 
HETATM    9  C9  UNL     1       5.879  11.192  45.126  1.00  0.00     0.178 C 
HETATM   10  O4  UNL     1       6.468  10.367  44.377  1.00  0.00    -0.291 OA
HETATM   11  C10 UNL     1       5.784  11.037  46.593  1.00  0.00     0.193 C 
ENDROOT
BRANCH  11  12
HETATM   12  C11 UNL     1       6.777  10.061  47.110  1.00  0.00     0.238 C 
HETATM   13  O5  UNL     1       6.465   9.218  47.992  1.00  0.00    -0.272 OA
HETATM   14  N1  UNL     1       8.111  10.044  46.629  1.00  0.00    -0.306 N 
ATOM     15  H1  UNL     1       8.557  10.912  46.334  1.00  0.00     0.171 HD
BRANCH  14  16
HETATM   16  C12 UNL     1       8.775   8.905  46.563  1.00  0.00     0.150 A 
HETATM   17  N2  UNL     1       9.199   8.159  47.579  1.00  0.00    -0.346 N 
HETATM   18  C13 UNL     1       9.845   7.054  47.312  1.00  0.00     0.097 A 
ATOM     19  H2  UNL     1       9.025   8.442  48.543  1.00  0.00     0.167 HD
HETATM   20  C14 UNL     1      10.047   6.732  45.999  1.00  0.00     0.070 A 
HETATM   21  S1  UNL     1       9.297   8.035  45.194  1.00  0.00    -0.064 SA
ENDBRANCH  14  16
ENDBRANCH  11  12
BRANCH   1  22
HETATM   22  C1  UNL     1       4.730  12.415  48.363  1.00  0.00     0.205 C 
HETATM   23  O1  UNL     1       5.035  12.320  49.569  1.00  0.00    -0.646 OA
HETATM   24  O2  UNL     1       3.396  12.587  48.026  1.00  0.00    -0.646 OA
ENDBRANCH   1  22
TORSDOF 3
ENDMDL
MODEL 2
REMARK VINA RESULT: -7.677626474      5.014      7.935
REMARK  3 active torsions:
REMARK  status: ('A' for Active; 'I' for Inactive)
REMARK    1  A    between atoms: C1_2  and  C2_4 
REMARK    2  A    between atoms: C10_14  and  C11_15 
REMARK       I    between atoms: C11_15  and  N1_17 
REMARK    3  A    between atoms: N1_17  and  C12_19 
ROOT
HETATM    1  C2  UNL     1       5.280  13.250  43.243  1.00  0.00     0.250 C 
HETATM    2  O3  UNL     1       5.936  13.039  44.466  1.00  0.00    -0.333 OA
HETATM    3  C3  UNL     1       5.327  13.003  45.708  1.00  0.00     0.084 A 
HETATM    4  C4  UNL     1       5.829  12.306  46.777  1.00  0.00     0.038 A 
HETATM    5  C5  UNL     1       5.150  12.324  47.991  1.00  0.00     0.003 A 
HETATM    6  C6  UNL     1       3.982  13.023  48.163  1.00  0.00     0.001 A 
HETATM    7  C7  UNL     1       3.484  13.719  47.084  1.00  0.00     0.018 A 
HETATM    8  C8  UNL     1       4.154  13.708  45.866  1.00  0.00     0.044 A 
HETATM    9  C9  UNL     1       3.644  14.439  44.711  1.00  0.00     0.178 C 
HETATM   10  O4  UNL     1       2.977  15.488  44.917  1.00  0.00    -0.291 OA
HETATM   11  C10 UNL     1       3.936  13.912  43.361  1.00  0.00     0.193 C 
ENDROOT
BRANCH  11  12
HETATM   12  C11 UNL     1       3.723  14.939  42.309  1.00  0.00     0.238 C 
HETATM   13  O5  UNL     1       4.586  15.824  42.078  1.00  0.00    -0.272 OA
HETATM   14  N1  UNL     1       2.538  14.957  41.530  1.00  0.00    -0.306 N 
ATOM     15  H1  UNL     1       1.655  14.647  41.936  1.00  0.00     0.171 HD
BRANCH  14  16
HETATM   16  C12 UNL     1       2.577  15.375  40.278  1.00  0.00     0.150 A 
HETATM   17  N2  UNL     1       2.939  16.578  39.841  1.00  0.00    -0.346 N 
HETATM   18  C13 UNL     1       2.913  16.806  38.554  1.00  0.00     0.097 A 
ATOM     19  H2  UNL     1       3.228  17.306  40.494  1.00  0.00     0.167 HD
HETATM   20  C14 UNL     1       2.514  15.788  37.732  1.00  0.00     0.070 A 
HETATM   21  S1  UNL     1       2.190  14.538  38.845  1.00  0.00    -0.064 SA
ENDBRANCH  14  16
ENDBRANCH  11  12
BRANCH   1  22
HETATM   22  C1  UNL     1       5.184  11.923  42.569  1.00  0.00     0.205 C 
HETATM   23  O1  UNL     1       5.961  11.016  42.931  1.00  0.00    -0.646 OA
HETATM   24  O2  UNL     1       4.273  11.654  41.560  1.00  0.00    -0.646 OA
ENDBRANCH   1  22
TORSDOF 3
ENDMDL
MODEL 3
REMARK VINA RESULT: -7.602262913      3.304      6.435
REMARK  3 active torsions:
REMARK  status: ('A' for Active; 'I' for Inactive)
REMARK    1  A    between atoms: C1_2  and  C2_4 
REMARK    2  A    between atoms: C10_14  and  C11_15 
REMARK       I    between atoms: C11_15  and  N1_17 
REMARK    3  A    between atoms: N1_17  and  C12_19 
ROOT
HETATM    1  C2  UNL     1       8.707   8.039  46.226  1.00  0.00     0.250 C 
HETATM    2  O3  UNL     1       9.452   7.351  45.255  1.00  0.00    -0.333 OA
HETATM    3  C3  UNL     1      10.292   7.937  44.324  1.00  0.00     0.084 A 
HETATM    4  C4  UNL     1      11.369   7.297  43.767  1.00  0.00     0.038 A 
HETATM    5  C5  UNL     1      12.160   7.963  42.837  1.00  0.00     0.003 A 
HETATM    6  C6  UNL     1      11.901   9.253  42.449  1.00  0.00     0.001 A 
HETATM    7  C7  UNL     1      10.818   9.889  43.014  1.00  0.00     0.018 A 
HETATM    8  C8  UNL     1      10.020   9.234  43.945  1.00  0.00     0.044 A 
HETATM    9  C9  UNL     1       8.868   9.889  44.554  1.00  0.00     0.178 C 
HETATM   10  O4  UNL     1       8.257  10.765  43.885  1.00  0.00    -0.291 OA
HETATM   11  C10 UNL     1       8.478   9.492  45.924  1.00  0.00     0.193 C 
ENDROOT
BRANCH  11  12
HETATM   12  C11 UNL     1       7.094   9.922  46.249  1.00  0.00     0.238 C 
HETATM   13  O5  UNL     1       6.221   9.090  46.611  1.00  0.00    -0.272 OA
HETATM   14  N1  UNL     1       6.707  11.284  46.165  1.00  0.00    -0.306 N 
ATOM     15  H1  UNL     1       7.134  11.892  45.466  1.00  0.00     0.171 HD
BRANCH  14  16
HETATM   16  C12 UNL     1       5.795  11.764  46.990  1.00  0.00     0.150 A 
HETATM   17  N2  UNL     1       5.750  11.623  48.312  1.00  0.00    -0.346 N 
HETATM   18  C13 UNL     1       4.761  12.177  48.962  1.00  0.00     0.097 A 
ATOM     19  H2  UNL     1       6.470  11.096  48.806  1.00  0.00     0.167 HD
HETATM   20  C14 UNL     1       3.828  12.870  48.241  1.00  0.00     0.070 A 
HETATM   21  S1  UNL     1       4.412  12.699  46.648  1.00  0.00    -0.064 SA
ENDBRANCH  14  16
ENDBRANCH  11  12
BRANCH   1  22
HETATM   22  C1  UNL     1       9.412   7.849  47.527  1.00  0.00     0.205 C 
HETATM   23  O1  UNL     1      10.057   6.796  47.704  1.00  0.00    -0.646 OA
HETATM   24  O2  UNL     1       9.381   8.789  48.545  1.00  0.00    -0.646 OA
ENDBRANCH   1  22
TORSDOF 3
ENDMDL
MODEL 4
REMARK VINA RESULT: -7.594756174      5.525      7.749
REMARK  3 active torsions:
REMARK  status: ('A' for Active; 'I' for Inactive)
REMARK    1  A    between atoms: C1_2  and  C2_4 
REMARK    2  A    between atoms: C10_14  and  C11_15 
REMARK       I    between atoms: C11_15  and  N1_17 
REMARK    3  A    between atoms: N1_17  and  C12_19 
ROOT
HETATM    1  C2  UNL     1      10.789   7.027  44.203  1.00  0.00     0.250 C 
HETATM    2  O3  UNL     1      10.211   8.125  44.859  1.00  0.00    -0.333 OA
HETATM    3  C3  UNL     1       8.943   8.154  45.413  1.00  0.00     0.084 A 
HETATM    4  C4  UNL     1       8.591   8.969  46.457  1.00  0.00     0.038 A 
HETATM    5  C5  UNL     1       7.292   8.932  46.953  1.00  0.00     0.003 A 
HETATM    6  C6  UNL     1       6.335   8.101  46.428  1.00  0.00     0.001 A 
HETATM    7  C7  UNL     1       6.696   7.285  45.379  1.00  0.00     0.018 A 
HETATM    8  C8  UNL     1       7.992   7.313  44.876  1.00  0.00     0.044 A 
HETATM    9  C9  UNL     1       8.395   6.458  43.765  1.00  0.00     0.178 C 
HETATM   10  O4  UNL     1       7.523   6.137  42.913  1.00  0.00    -0.291 OA
HETATM   11  C10 UNL     1       9.803   6.012  43.698  1.00  0.00     0.193 C 
ENDROOT
BRANCH  11  12
HETATM   12  C11 UNL     1      10.158   5.510  42.346  1.00  0.00     0.238 C 
HETATM   13  O5  UNL     1      10.862   4.478  42.198  1.00  0.00    -0.272 OA
HETATM   14  N1  UNL     1       9.717   6.177  41.174  1.00  0.00    -0.306 N 
ATOM     15  H1  UNL     1       9.597   7.190  41.178  1.00  0.00     0.171 HD
BRANCH  14  16
HETATM   16  C12 UNL     1       9.460   5.487  40.078  1.00  0.00     0.150 A 
HETATM   17  N2  UNL     1       8.928   4.270  39.998  1.00  0.00    -0.346 N 
HETATM   18  C13 UNL     1       8.749   3.748  38.813  1.00  0.00     0.097 A 
ATOM     19  H2  UNL     1       8.668   3.757  40.840  1.00  0.00     0.167 HD
HETATM   20  C14 UNL     1       9.120   4.486  37.724  1.00  0.00     0.070 A 
HETATM   21  S1  UNL     1       9.717   5.911  38.448  1.00  0.00    -0.064 SA
ENDBRANCH  14  16
ENDBRANCH  11  12
BRANCH   1  22
HETATM   22  C1  UNL     1      11.766   6.421  45.154  1.00  0.00     0.205 C 
HETATM   23  O1  UNL     1      11.805   6.857  46.322  1.00  0.00    -0.646 OA
HETATM   24  O2  UNL     1      12.631   5.399  44.796  1.00  0.00    -0.646 OA
ENDBRANCH   1  22
TORSDOF 3
ENDMDL
MODEL 5
REMARK VINA RESULT: -7.513455668      2.733      3.987
REMARK  3 active torsions:
REMARK  status: ('A' for Active; 'I' for Inactive)
REMARK    1  A    between atoms: C1_2  and  C2_4 
REMARK    2  A    between atoms: C10_14  and  C11_15 
REMARK       I    between atoms: C11_15  and  N1_17 
REMARK    3  A    between atoms: N1_17  and  C12_19 
ROOT
HETATM    1  C2  UNL     1       8.680   9.394  46.509  1.00  0.00     0.250 C 
HETATM    2  O3  UNL     1       8.404  10.759  46.337  1.00  0.00    -0.333 OA
HETATM    3  C3  UNL     1       7.196  11.288  45.917  1.00  0.00     0.084 A 
HETATM    4  C4  UNL     1       6.766  12.548  46.243  1.00  0.00     0.038 A 
HETATM    5  C5  UNL     1       5.535  12.998  45.776  1.00  0.00     0.003 A 
HETATM    6  C6  UNL     1       4.725  12.220  44.989  1.00  0.00     0.001 A 
HETATM    7  C7  UNL     1       5.164  10.956  44.666  1.00  0.00     0.018 A 
HETATM    8  C8  UNL     1       6.391  10.495  45.128  1.00  0.00     0.044 A 
HETATM    9  C9  UNL     1       6.875   9.159  44.796  1.00  0.00     0.178 C 
HETATM   10  O4  UNL     1       6.518   8.651  43.700  1.00  0.00    -0.291 OA
HETATM   11  C10 UNL     1       7.757   8.472  45.764  1.00  0.00     0.193 C 
ENDROOT
BRANCH  11  12
HETATM   12  C11 UNL     1       8.483   7.337  45.139  1.00  0.00     0.238 C 
HETATM   13  O5  UNL     1       8.090   6.151  45.286  1.00  0.00    -0.272 OA
HETATM   14  N1  UNL     1       9.645   7.550  44.353  1.00  0.00    -0.306 N 
ATOM     15  H1  UNL     1      10.274   8.322  44.573  1.00  0.00     0.171 HD
BRANCH  14  16
HETATM   16  C12 UNL     1       9.912   6.750  43.338  1.00  0.00     0.150 A 
HETATM   17  N2  UNL     1      10.365   5.501  43.394  1.00  0.00    -0.346 N 
HETATM   18  C13 UNL     1      10.570   4.863  42.271  1.00  0.00     0.097 A 
ATOM     19  H2  UNL     1      10.547   5.051  44.291  1.00  0.00     0.167 HD
HETATM   20  C14 UNL     1      10.307   5.523  41.103  1.00  0.00     0.070 A 
HETATM   21  S1  UNL     1       9.771   7.041  41.665  1.00  0.00    -0.064 SA
ENDBRANCH  14  16
ENDBRANCH  11  12
BRANCH   1  22
HETATM   22  C1  UNL     1       8.657   9.130  47.977  1.00  0.00     0.205 C 
HETATM   23  O1  UNL     1       9.607   8.497  48.481  1.00  0.00    -0.646 OA
HETATM   24  O2  UNL     1       7.629   9.554  48.804  1.00  0.00    -0.646 OA
ENDBRANCH   1  22
TORSDOF 3
ENDMDL
