MODEL 1
REMARK VINA RESULT: -7.692400460      0.000      0.000
REMARK  3 active torsions:
REMARK  status: ('A' for Active; 'I' for Inactive)
REMARK    1  A    between atoms: C9_9  and  O1_10 
REMARK    2  A    between atoms: N1_15  and  N2_17 
REMARK    3  A    between atoms: N2_17  and  S1_19 
ROOT
HETATM    1  C1  UNL     1       5.178  14.479  44.419  1.00  0.00     0.016 C 
HETATM    2  C2  UNL     1       5.246  12.998  44.862  1.00  0.00    -0.033 A 
HETATM    3  C3  UNL     1       4.480  12.657  46.035  1.00  0.00     0.015 A 
HETATM    4  C4  UNL     1       5.895  12.777  46.277  1.00  0.00     0.000 A 
HETATM    5  C5  UNL     1       6.972  11.830  46.121  1.00  0.00     0.009 C 
HETATM    6  C6  UNL     1       6.815  10.380  46.376  1.00  0.00     0.060 C 
HETATM    7  C7  UNL     1       5.585   9.771  45.806  1.00  0.00    -0.017 C 
HETATM    8  C8  UNL     1       5.042   9.949  44.601  1.00  0.00     0.008 C 
HETATM    9  C9  UNL     1       5.586  10.829  43.542  1.00  0.00     0.081 C 
HETATM   10  C10 UNL     1       6.941  10.175  43.198  1.00  0.00     0.053 C 
HETATM   11  C11 UNL     1       7.907  10.601  44.255  1.00  0.00     0.041 C 
HETATM   12  C12 UNL     1       7.886   9.838  45.491  1.00  0.00     0.017 C 
HETATM   13  N1  UNL     1       8.639   8.865  45.800  1.00  0.00    -0.298 N 
ATOM     14  H1  UNL     1       8.525   8.407  46.705  1.00  0.00     0.187 HD
HETATM   15  C14 UNL     1       7.401  11.955  44.681  1.00  0.00     0.009 C 
HETATM   16  C15 UNL     1       6.052  12.160  43.994  1.00  0.00     0.037 C 
ENDROOT
BRANCH  13  17
HETATM   17  N2  UNL     1       9.612   8.417  44.926  1.00  0.00    -0.227 N 
ATOM     18  H2  UNL     1       9.761   8.878  44.029  1.00  0.00     0.200 HD
BRANCH  17  19
HETATM   19  S1  UNL     1      10.564   7.061  45.391  1.00  0.00     0.240 S 
HETATM   20  C13 UNL     1       9.831   5.608  44.678  1.00  0.00     0.187 C 
HETATM   21  O2  UNL     1      10.542   6.958  46.899  1.00  0.00    -0.205 OA
HETATM   22  O3  UNL     1      11.999   7.219  44.940  1.00  0.00    -0.205 OA
ENDBRANCH  17  19
ENDBRANCH  13  17
BRANCH   9  23
HETATM   23  O1  UNL     1       4.842  10.813  42.393  1.00  0.00    -0.385 OA
ATOM     24  H1  UNL     1       5.210  11.350  41.702  1.00  0.00     0.211 HD
ENDBRANCH   9  23
TORSDOF 3
ENDMDL
MODEL 2
REMARK VINA RESULT: -7.686396663      3.704      6.601
REMARK  3 active torsions:
REMARK  status: ('A' for Active; 'I' for Inactive)
REMARK    1  A    between atoms: C9_9  and  O1_10 
REMARK    2  A    between atoms: N1_15  and  N2_17 
REMARK    3  A    between atoms: N2_17  and  S1_19 
ROOT
HETATM    1  C1  UNL     1      12.565   4.961  42.790  1.00  0.00     0.016 C 
HETATM    2  C2  UNL     1      11.118   5.453  43.032  1.00  0.00    -0.033 A 
HETATM    3  C3  UNL     1      10.204   5.282  41.930  1.00  0.00     0.015 A 
HETATM    4  C4  UNL     1      10.674   6.634  42.094  1.00  0.00     0.000 A 
HETATM    5  C5  UNL     1      10.209   7.709  42.936  1.00  0.00     0.009 C 
HETATM    6  C6  UNL     1       8.780   7.919  43.260  1.00  0.00     0.060 C 
HETATM    7  C7  UNL     1       8.032   6.690  43.633  1.00  0.00    -0.017 C 
HETATM    8  C8  UNL     1       8.405   5.695  44.440  1.00  0.00     0.008 C 
HETATM    9  C9  UNL     1       9.698   5.616  45.157  1.00  0.00     0.081 C 
HETATM   10  C10 UNL     1       9.640   6.818  46.124  1.00  0.00     0.053 C 
HETATM   11  C11 UNL     1       9.987   8.032  45.326  1.00  0.00     0.041 C 
HETATM   12  C12 UNL     1       8.906   8.631  44.564  1.00  0.00     0.017 C 
HETATM   13  N1  UNL     1       8.169   9.602  44.918  1.00  0.00    -0.298 N 
ATOM     14  H1  UNL     1       7.437   9.935  44.290  1.00  0.00     0.187 HD
HETATM   15  C14 UNL     1      10.910   7.508  44.255  1.00  0.00     0.009 C 
HETATM   16  C15 UNL     1      10.892   5.984  44.362  1.00  0.00     0.037 C 
ENDROOT
BRANCH  13  17
HETATM   17  N2  UNL     1       8.346  10.214  46.145  1.00  0.00    -0.227 N 
ATOM     18  H2  UNL     1       9.079  10.909  46.282  1.00  0.00     0.200 HD
BRANCH  17  19
HETATM   19  S1  UNL     1       7.295   9.772  47.435  1.00  0.00     0.240 S 
HETATM   20  C13 UNL     1       6.284   8.421  46.878  1.00  0.00     0.187 C 
HETATM   21  O2  UNL     1       6.424  10.961  47.768  1.00  0.00    -0.205 OA
HETATM   22  O3  UNL     1       8.078   9.387  48.672  1.00  0.00    -0.205 OA
ENDBRANCH  17  19
ENDBRANCH  13  17
BRANCH   9  23
HETATM   23  O1  UNL     1       9.816   4.495  45.933  1.00  0.00    -0.385 OA
ATOM     24  H1  UNL     1      10.024   3.715  45.434  1.00  0.00     0.211 HD
ENDBRANCH   9  23
TORSDOF 3
ENDMDL
MODEL 3
REMARK VINA RESULT: -7.621395020      1.600      2.103
REMARK  3 active torsions:
REMARK  status: ('A' for Active; 'I' for Inactive)
REMARK    1  A    between atoms: C9_9  and  O1_10 
REMARK    2  A    between atoms: N1_15  and  N2_17 
REMARK    3  A    between atoms: N2_17  and  S1_19 
ROOT
HETATM    1  C1  UNL     1       6.115  13.007  44.530  1.00  0.00     0.016 C 
HETATM    2  C2  UNL     1       6.426  11.845  45.503  1.00  0.00    -0.033 A 
HETATM    3  C3  UNL     1       6.560  12.207  46.892  1.00  0.00     0.015 A 
HETATM    4  C4  UNL     1       7.816  11.966  46.228  1.00  0.00     0.000 A 
HETATM    5  C5  UNL     1       8.545  10.745  45.983  1.00  0.00     0.009 C 
HETATM    6  C6  UNL     1       8.564   9.612  46.935  1.00  0.00     0.060 C 
HETATM    7  C7  UNL     1       7.240   9.247  47.504  1.00  0.00    -0.017 C 
HETATM    8  C8  UNL     1       6.065   9.131  46.885  1.00  0.00     0.008 C 
HETATM    9  C9  UNL     1       5.836   9.353  45.439  1.00  0.00     0.081 C 
HETATM   10  C10 UNL     1       6.668   8.236  44.773  1.00  0.00     0.053 C 
HETATM   11  C11 UNL     1       8.088   8.698  44.771  1.00  0.00     0.041 C 
HETATM   12  C12 UNL     1       8.837   8.484  45.997  1.00  0.00     0.017 C 
HETATM   13  N1  UNL     1       9.605   7.509  46.263  1.00  0.00    -0.298 N 
ATOM     14  H1  UNL     1      10.077   7.471  47.166  1.00  0.00     0.187 HD
HETATM   15  C14 UNL     1       7.979  10.200  44.697  1.00  0.00     0.009 C 
HETATM   16  C15 UNL     1       6.500  10.545  44.863  1.00  0.00     0.037 C 
ENDROOT
BRANCH  13  17
HETATM   17  N2  UNL     1       9.809   6.499  45.342  1.00  0.00    -0.227 N 
ATOM     18  H2  UNL     1       9.070   5.831  45.126  1.00  0.00     0.200 HD
BRANCH  17  19
HETATM   19  S1  UNL     1      11.344   6.398  44.569  1.00  0.00     0.240 S 
HETATM   20  C13 UNL     1      11.121   5.556  43.021  1.00  0.00     0.187 C 
HETATM   21  O2  UNL     1      12.272   5.601  45.457  1.00  0.00    -0.205 OA
HETATM   22  O3  UNL     1      11.941   7.771  44.357  1.00  0.00    -0.205 OA
ENDBRANCH  17  19
ENDBRANCH  13  17
BRANCH   9  23
HETATM   23  O1  UNL     1       4.536   9.149  45.061  1.00  0.00    -0.385 OA
ATOM     24  H1  UNL     1       4.402   9.234  44.125  1.00  0.00     0.211 HD
ENDBRANCH   9  23
TORSDOF 3
ENDMDL
MODEL 4
REMARK VINA RESULT: -7.565695329      1.880      2.759
REMARK  3 active torsions:
REMARK  status: ('A' for Active; 'I' for Inactive)
REMARK    1  A    between atoms: C9_9  and  O1_10 
REMARK    2  A    between atoms: N1_15  and  N2_17 
REMARK    3  A    between atoms: N2_17  and  S1_19 
ROOT
HETATM    1  C1  UNL     1       4.912  13.565  45.847  1.00  0.00     0.016 C 
HETATM    2  C2  UNL     1       5.709  12.482  45.080  1.00  0.00    -0.033 A 
HETATM    3  C3  UNL     1       5.472  12.413  43.660  1.00  0.00     0.015 A 
HETATM    4  C4  UNL     1       4.814  11.375  44.412  1.00  0.00     0.000 A 
HETATM    5  C5  UNL     1       5.284  10.093  44.877  1.00  0.00     0.009 C 
HETATM    6  C6  UNL     1       6.239   9.258  44.115  1.00  0.00     0.060 C 
HETATM    7  C7  UNL     1       7.401   9.991  43.547  1.00  0.00    -0.017 C 
HETATM    8  C8  UNL     1       8.168  10.920  44.120  1.00  0.00     0.008 C 
HETATM    9  C9  UNL     1       8.005  11.427  45.502  1.00  0.00     0.081 C 
HETATM   10  C10 UNL     1       8.291  10.183  46.372  1.00  0.00     0.053 C 
HETATM   11  C11 UNL     1       7.046   9.359  46.369  1.00  0.00     0.041 C 
HETATM   12  C12 UNL     1       6.858   8.481  45.227  1.00  0.00     0.017 C 
HETATM   13  N1  UNL     1       7.159   7.250  45.153  1.00  0.00    -0.298 N 
ATOM     14  H1  UNL     1       6.977   6.738  44.290  1.00  0.00     0.187 HD
HETATM   15  C14 UNL     1       5.942  10.372  46.205  1.00  0.00     0.009 C 
HETATM   16  C15 UNL     1       6.613  11.715  45.917  1.00  0.00     0.037 C 
ENDROOT
BRANCH  13  17
HETATM   17  N2  UNL     1       7.731   6.596  46.228  1.00  0.00    -0.227 N 
ATOM     18  H2  UNL     1       7.152   6.211  46.974  1.00  0.00     0.200 HD
BRANCH  17  19
HETATM   19  S1  UNL     1       9.445   6.446  46.273  1.00  0.00     0.240 S 
HETATM   20  C13 UNL     1      10.111   7.380  44.916  1.00  0.00     0.187 C 
HETATM   21  O2  UNL     1       9.801   4.986  46.113  1.00  0.00    -0.205 OA
HETATM   22  O3  UNL     1      10.003   6.936  47.591  1.00  0.00    -0.205 OA
ENDBRANCH  17  19
ENDBRANCH  13  17
BRANCH   9  23
HETATM   23  O1  UNL     1       8.939  12.366  45.845  1.00  0.00    -0.385 OA
ATOM     24  H1  UNL     1       8.618  13.257  45.773  1.00  0.00     0.211 HD
ENDBRANCH   9  23
TORSDOF 3
ENDMDL
MODEL 5
REMARK VINA RESULT: -7.545442365      1.907      2.908
REMARK  3 active torsions:
REMARK  status: ('A' for Active; 'I' for Inactive)
REMARK    1  A    between atoms: C9_9  and  O1_10 
REMARK    2  A    between atoms: N1_15  and  N2_17 
REMARK    3  A    between atoms: N2_17  and  S1_19 
ROOT
HETATM    1  C1  UNL     1       4.850  11.776  46.124  1.00  0.00     0.016 C 
HETATM    2  C2  UNL     1       5.629  10.894  45.119  1.00  0.00    -0.033 A 
HETATM    3  C3  UNL     1       4.928  10.555  43.905  1.00  0.00     0.015 A 
HETATM    4  C4  UNL     1       4.984   9.483  44.866  1.00  0.00     0.000 A 
HETATM    5  C5  UNL     1       5.996   8.487  45.124  1.00  0.00     0.009 C 
HETATM    6  C6  UNL     1       6.829   7.888  44.057  1.00  0.00     0.060 C 
HETATM    7  C7  UNL     1       7.380   8.855  43.072  1.00  0.00    -0.017 C 
HETATM    8  C8  UNL     1       7.939  10.047  43.290  1.00  0.00     0.008 C 
HETATM    9  C9  UNL     1       8.131  10.669  44.619  1.00  0.00     0.081 C 
HETATM   10  C10 UNL     1       9.118   9.711  45.320  1.00  0.00     0.053 C 
HETATM   11  C11 UNL     1       8.317   8.552  45.814  1.00  0.00     0.041 C 
HETATM   12  C12 UNL     1       8.035   7.506  44.847  1.00  0.00     0.017 C 
HETATM   13  N1  UNL     1       8.686   6.430  44.673  1.00  0.00    -0.298 N 
ATOM     14  H1  UNL     1       8.387   5.770  43.955  1.00  0.00     0.187 HD
HETATM   15  C14 UNL     1       6.956   9.141  46.084  1.00  0.00     0.009 C 
HETATM   16  C15 UNL     1       6.978  10.570  45.543  1.00  0.00     0.037 C 
ENDROOT
BRANCH  13  17
HETATM   17  N2  UNL     1       9.797   6.143  45.445  1.00  0.00    -0.227 N 
ATOM     18  H2  UNL     1       9.698   5.886  46.427  1.00  0.00     0.200 HD
BRANCH  17  19
HETATM   19  S1  UNL     1      11.348   6.231  44.706  1.00  0.00     0.240 S 
HETATM   20  C13 UNL     1      11.216   5.538  43.075  1.00  0.00     0.187 C 
HETATM   21  O2  UNL     1      12.316   5.415  45.532  1.00  0.00    -0.205 OA
HETATM   22  O3  UNL     1      11.848   7.658  44.648  1.00  0.00    -0.205 OA
ENDBRANCH  17  19
ENDBRANCH  13  17
BRANCH   9  23
HETATM   23  O1  UNL     1       8.748  11.890  44.559  1.00  0.00    -0.385 OA
ATOM     24  H1  UNL     1       9.365  11.961  43.842  1.00  0.00     0.211 HD
ENDBRANCH   9  23
TORSDOF 3
ENDMDL
