MODEL 1
REMARK VINA RESULT: -6.606250461      0.000      0.000
REMARK  13 active torsions:
REMARK  status: ('A' for Active; 'I' for Inactive)
REMARK    1  A    between atoms: N1_2  and  S1_4 
REMARK    2  A    between atoms: S1_4  and  N2_7 
REMARK    3  A    between atoms: N2_7  and  C2_9 
REMARK    4  A    between atoms: C2_9  and  C3_10 
REMARK    5  A    between atoms: C2_9  and  C4_13 
REMARK    6  A    between atoms: C3_10  and  O3_11 
REMARK    7  A    between atoms: C4_13  and  C5_14 
REMARK    8  A    between atoms: C8_17  and  O4_18 
REMARK    9  A    between atoms: O4_18  and  C9_19 
REMARK   10  A    between atoms: C9_19  and  C10_20 
REMARK   11  A    between atoms: C10_20  and  N3_21 
REMARK   12  A    between atoms: N3_21  and  C11_23 
REMARK   13  A    between atoms: C11_23  and  C12_24 
ROOT
HETATM    1  C5  UNL     1      13.058  31.694  15.455  1.00  0.00    -0.056 A 
HETATM    2  C6  UNL     1      12.183  30.883  16.163  1.00  0.00     0.010 A 
HETATM    3  C7  UNL     1      11.422  29.928  15.545  1.00  0.00     0.037 A 
HETATM    4  C8  UNL     1      11.472  29.701  14.156  1.00  0.00     0.068 A 
HETATM    5  C18 UNL     1      12.340  30.509  13.466  1.00  0.00     0.037 A 
HETATM    6  C19 UNL     1      13.120  31.488  14.098  1.00  0.00     0.010 A 
ENDROOT
BRANCH   1   7
HETATM    7  C4  UNL     1      13.864  32.707  16.182  1.00  0.00     0.066 C 
BRANCH   7   8
HETATM    8  C2  UNL     1      15.216  32.953  15.627  1.00  0.00     0.122 C 
BRANCH   8   9
HETATM    9  N2  UNL     1      15.440  34.404  15.594  1.00  0.00    -0.296 N 
ATOM     10  H2  UNL     1      15.324  35.015  16.402  1.00  0.00     0.174 HD
BRANCH   9  11
HETATM   11  S1  UNL     1      15.918  34.950  14.045  1.00  0.00     0.315 S 
HETATM   12  O1  UNL     1      14.775  35.598  13.320  1.00  0.00    -0.183 OA
HETATM   13  O2  UNL     1      17.026  35.975  14.171  1.00  0.00    -0.183 OA
BRANCH  11  14
HETATM   14  N1  UNL     1      16.560  33.603  13.170  1.00  0.00    -0.307 N 
HETATM   15  C1  UNL     1      17.870  33.912  12.674  1.00  0.00     0.161 C 
ATOM     16  H1  UNL     1      16.076  32.716  13.028  1.00  0.00     0.173 HD
ENDBRANCH  11  14
ENDBRANCH   9  11
ENDBRANCH   8   9
BRANCH   8  17
HETATM   17  C3  UNL     1      16.266  32.310  16.488  1.00  0.00     0.190 C 
BRANCH  17  18
HETATM   18  O3  UNL     1      17.461  32.192  15.788  1.00  0.00    -0.399 OA
ATOM     19  H3  UNL     1      18.181  32.537  16.302  1.00  0.00     0.209 HD
ENDBRANCH  17  18
ENDBRANCH   8  17
ENDBRANCH   7   8
ENDBRANCH   1   7
BRANCH   4  20
HETATM   20  O4  UNL     1      10.672  28.722  13.608  1.00  0.00    -0.350 OA
BRANCH  20  21
HETATM   21  C9  UNL     1       9.914  28.810  12.456  1.00  0.00     0.195 C 
BRANCH  21  22
HETATM   22  C10 UNL     1       8.595  29.475  12.499  1.00  0.00     0.145 C 
BRANCH  22  23
HETATM   23  N3  UNL     1       8.691  30.887  12.409  1.00  0.00    -0.396 N 
ATOM     24  H3  UNL     1       9.551  31.319  12.072  1.00  0.00     0.158 HD
BRANCH  23  25
HETATM   25  C11 UNL     1       7.598  31.693  12.787  1.00  0.00     0.094 C 
BRANCH  25  26
HETATM   26  C12 UNL     1       7.626  31.768  14.305  1.00  0.00    -0.021 A 
HETATM   27  C13 UNL     1       6.596  31.270  15.056  1.00  0.00     0.013 A 
HETATM   28  C14 UNL     1       6.677  31.367  16.446  1.00  0.00     0.001 A 
HETATM   29  C15 UNL     1       7.754  31.943  17.061  1.00  0.00     0.000 A 
HETATM   30  C16 UNL     1       8.795  32.447  16.307  1.00  0.00     0.001 A 
HETATM   31  C17 UNL     1       8.701  32.344  14.942  1.00  0.00     0.013 A 
ENDBRANCH  25  26
ENDBRANCH  23  25
ENDBRANCH  22  23
ENDBRANCH  21  22
ENDBRANCH  20  21
ENDBRANCH   4  20
TORSDOF 13
ENDMDL
MODEL 2
REMARK VINA RESULT: -6.533028801      0.834      1.029
REMARK  13 active torsions:
REMARK  status: ('A' for Active; 'I' for Inactive)
REMARK    1  A    between atoms: N1_2  and  S1_4 
REMARK    2  A    between atoms: S1_4  and  N2_7 
REMARK    3  A    between atoms: N2_7  and  C2_9 
REMARK    4  A    between atoms: C2_9  and  C3_10 
REMARK    5  A    between atoms: C2_9  and  C4_13 
REMARK    6  A    between atoms: C3_10  and  O3_11 
REMARK    7  A    between atoms: C4_13  and  C5_14 
REMARK    8  A    between atoms: C8_17  and  O4_18 
REMARK    9  A    between atoms: O4_18  and  C9_19 
REMARK   10  A    between atoms: C9_19  and  C10_20 
REMARK   11  A    between atoms: C10_20  and  N3_21 
REMARK   12  A    between atoms: N3_21  and  C11_23 
REMARK   13  A    between atoms: C11_23  and  C12_24 
ROOT
HETATM    1  C5  UNL     1      13.559  31.874  15.818  1.00  0.00    -0.056 A 
HETATM    2  C6  UNL     1      12.770  30.942  16.476  1.00  0.00     0.010 A 
HETATM    3  C7  UNL     1      12.003  30.034  15.796  1.00  0.00     0.037 A 
HETATM    4  C8  UNL     1      11.961  29.981  14.389  1.00  0.00     0.068 A 
HETATM    5  C18 UNL     1      12.743  30.908  13.749  1.00  0.00     0.037 A 
HETATM    6  C19 UNL     1      13.530  31.838  14.445  1.00  0.00     0.010 A 
ENDROOT
BRANCH   1   7
HETATM    7  C4  UNL     1      14.377  32.827  16.609  1.00  0.00     0.066 C 
BRANCH   7   8
HETATM    8  C2  UNL     1      15.602  33.317  15.935  1.00  0.00     0.122 C 
BRANCH   8   9
HETATM    9  N2  UNL     1      15.398  34.728  15.585  1.00  0.00    -0.296 N 
ATOM     10  H2  UNL     1      14.988  35.417  16.216  1.00  0.00     0.174 HD
BRANCH   9  11
HETATM   11  S1  UNL     1      15.927  35.085  13.998  1.00  0.00     0.315 S 
HETATM   12  O1  UNL     1      14.827  35.697  13.182  1.00  0.00    -0.183 OA
HETATM   13  O2  UNL     1      17.076  36.072  14.040  1.00  0.00    -0.183 OA
BRANCH  11  14
HETATM   14  N1  UNL     1      16.527  33.627  13.287  1.00  0.00    -0.307 N 
HETATM   15  C1  UNL     1      17.789  33.869  12.649  1.00  0.00     0.161 C 
ATOM     16  H1  UNL     1      16.052  32.725  13.317  1.00  0.00     0.173 HD
ENDBRANCH  11  14
ENDBRANCH   9  11
ENDBRANCH   8   9
BRANCH   8  17
HETATM   17  C3  UNL     1      16.790  33.201  16.847  1.00  0.00     0.190 C 
BRANCH  17  18
HETATM   18  O3  UNL     1      17.942  32.946  16.113  1.00  0.00    -0.399 OA
ATOM     19  H3  UNL     1      18.697  32.894  16.688  1.00  0.00     0.209 HD
ENDBRANCH  17  18
ENDBRANCH   8  17
ENDBRANCH   7   8
ENDBRANCH   1   7
BRANCH   4  20
HETATM   20  O4  UNL     1      11.160  29.041  13.778  1.00  0.00    -0.350 OA
BRANCH  20  21
HETATM   21  C9  UNL     1      11.108  28.734  12.432  1.00  0.00     0.195 C 
BRANCH  21  22
HETATM   22  C10 UNL     1      10.344  29.604  11.514  1.00  0.00     0.145 C 
BRANCH  22  23
HETATM   23  N3  UNL     1       9.406  30.424  12.192  1.00  0.00    -0.396 N 
ATOM     24  H3  UNL     1       9.709  31.299  12.620  1.00  0.00     0.158 HD
BRANCH  23  25
HETATM   25  C11 UNL     1       8.055  30.030  12.272  1.00  0.00     0.094 C 
BRANCH  25  26
HETATM   26  C12 UNL     1       7.532  30.567  13.595  1.00  0.00    -0.021 A 
HETATM   27  C13 UNL     1       6.188  30.665  13.835  1.00  0.00     0.013 A 
HETATM   28  C14 UNL     1       5.766  31.165  15.068  1.00  0.00     0.001 A 
HETATM   29  C15 UNL     1       6.661  31.552  16.027  1.00  0.00     0.000 A 
HETATM   30  C16 UNL     1       8.018  31.455  15.788  1.00  0.00     0.001 A 
HETATM   31  C17 UNL     1       8.417  30.962  14.572  1.00  0.00     0.013 A 
ENDBRANCH  25  26
ENDBRANCH  23  25
ENDBRANCH  22  23
ENDBRANCH  21  22
ENDBRANCH  20  21
ENDBRANCH   4  20
TORSDOF 13
ENDMDL
MODEL 3
REMARK VINA RESULT: -6.531665542      1.913      2.398
REMARK  13 active torsions:
REMARK  status: ('A' for Active; 'I' for Inactive)
REMARK    1  A    between atoms: N1_2  and  S1_4 
REMARK    2  A    between atoms: S1_4  and  N2_7 
REMARK    3  A    between atoms: N2_7  and  C2_9 
REMARK    4  A    between atoms: C2_9  and  C3_10 
REMARK    5  A    between atoms: C2_9  and  C4_13 
REMARK    6  A    between atoms: C3_10  and  O3_11 
REMARK    7  A    between atoms: C4_13  and  C5_14 
REMARK    8  A    between atoms: C8_17  and  O4_18 
REMARK    9  A    between atoms: O4_18  and  C9_19 
REMARK   10  A    between atoms: C9_19  and  C10_20 
REMARK   11  A    between atoms: C10_20  and  N3_21 
REMARK   12  A    between atoms: N3_21  and  C11_23 
REMARK   13  A    between atoms: C11_23  and  C12_24 
ROOT
HETATM    1  C5  UNL     1      13.269  31.437  15.154  1.00  0.00    -0.056 A 
HETATM    2  C6  UNL     1      12.486  30.661  15.995  1.00  0.00     0.010 A 
HETATM    3  C7  UNL     1      11.528  29.811  15.511  1.00  0.00     0.037 A 
HETATM    4  C8  UNL     1      11.272  29.665  14.134  1.00  0.00     0.068 A 
HETATM    5  C18 UNL     1      12.051  30.438  13.312  1.00  0.00     0.037 A 
HETATM    6  C19 UNL     1      13.034  31.309  13.807  1.00  0.00     0.010 A 
ENDROOT
BRANCH   1   7
HETATM    7  C4  UNL     1      14.299  32.334  15.737  1.00  0.00     0.066 C 
BRANCH   7   8
HETATM    8  C2  UNL     1      14.222  33.749  15.305  1.00  0.00     0.122 C 
BRANCH   8   9
HETATM    9  N2  UNL     1      14.496  34.599  16.470  1.00  0.00    -0.296 N 
ATOM     10  H2  UNL     1      15.291  34.468  17.095  1.00  0.00     0.174 HD
BRANCH   9  11
HETATM   11  S1  UNL     1      13.328  35.834  16.660  1.00  0.00     0.315 S 
HETATM   12  O1  UNL     1      11.939  35.308  16.445  1.00  0.00    -0.183 OA
HETATM   13  O2  UNL     1      13.394  36.406  18.061  1.00  0.00    -0.183 OA
BRANCH  11  14
HETATM   14  N1  UNL     1      13.712  37.115  15.562  1.00  0.00    -0.307 N 
HETATM   15  C1  UNL     1      14.975  37.701  15.908  1.00  0.00     0.161 C 
ATOM     16  H1  UNL     1      13.125  37.410  14.782  1.00  0.00     0.173 HD
ENDBRANCH  11  14
ENDBRANCH   9  11
ENDBRANCH   8   9
BRANCH   8  17
HETATM   17  C3  UNL     1      15.239  34.032  14.236  1.00  0.00     0.190 C 
BRANCH  17  18
HETATM   18  O3  UNL     1      14.812  35.076  13.425  1.00  0.00    -0.399 OA
ATOM     19  H3  UNL     1      15.542  35.640  13.199  1.00  0.00     0.209 HD
ENDBRANCH  17  18
ENDBRANCH   8  17
ENDBRANCH   7   8
ENDBRANCH   1   7
BRANCH   4  20
HETATM   20  O4  UNL     1      10.287  28.792  13.724  1.00  0.00    -0.350 OA
BRANCH  20  21
HETATM   21  C9  UNL     1       9.616  28.794  12.517  1.00  0.00     0.195 C 
BRANCH  21  22
HETATM   22  C10 UNL     1       8.343  29.532  12.390  1.00  0.00     0.145 C 
BRANCH  22  23
HETATM   23  N3  UNL     1       8.526  30.939  12.375  1.00  0.00    -0.396 N 
ATOM     24  H3  UNL     1       9.398  31.336  12.024  1.00  0.00     0.158 HD
BRANCH  23  25
HETATM   25  C11 UNL     1       7.503  31.788  12.843  1.00  0.00     0.094 C 
BRANCH  25  26
HETATM   26  C12 UNL     1       7.621  31.802  14.359  1.00  0.00    -0.021 A 
HETATM   27  C13 UNL     1       6.600  31.350  15.151  1.00  0.00     0.013 A 
HETATM   28  C14 UNL     1       6.764  31.387  16.536  1.00  0.00     0.001 A 
HETATM   29  C15 UNL     1       7.913  31.861  17.108  1.00  0.00     0.000 A 
HETATM   30  C16 UNL     1       8.945  32.319  16.312  1.00  0.00     0.001 A 
HETATM   31  C17 UNL     1       8.768  32.276  14.952  1.00  0.00     0.013 A 
ENDBRANCH  25  26
ENDBRANCH  23  25
ENDBRANCH  22  23
ENDBRANCH  21  22
ENDBRANCH  20  21
ENDBRANCH   4  20
TORSDOF 13
ENDMDL
MODEL 4
REMARK VINA RESULT: -6.477190157      2.104      2.652
REMARK  13 active torsions:
REMARK  status: ('A' for Active; 'I' for Inactive)
REMARK    1  A    between atoms: N1_2  and  S1_4 
REMARK    2  A    between atoms: S1_4  and  N2_7 
REMARK    3  A    between atoms: N2_7  and  C2_9 
REMARK    4  A    between atoms: C2_9  and  C3_10 
REMARK    5  A    between atoms: C2_9  and  C4_13 
REMARK    6  A    between atoms: C3_10  and  O3_11 
REMARK    7  A    between atoms: C4_13  and  C5_14 
REMARK    8  A    between atoms: C8_17  and  O4_18 
REMARK    9  A    between atoms: O4_18  and  C9_19 
REMARK   10  A    between atoms: C9_19  and  C10_20 
REMARK   11  A    between atoms: C10_20  and  N3_21 
REMARK   12  A    between atoms: N3_21  and  C11_23 
REMARK   13  A    between atoms: C11_23  and  C12_24 
ROOT
HETATM    1  C5  UNL     1      12.381  31.022  14.665  1.00  0.00    -0.056 A 
HETATM    2  C6  UNL     1      11.114  30.723  15.143  1.00  0.00     0.010 A 
HETATM    3  C7  UNL     1      10.174  30.103  14.365  1.00  0.00     0.037 A 
HETATM    4  C8  UNL     1      10.424  29.727  13.031  1.00  0.00     0.068 A 
HETATM    5  C18 UNL     1      11.679  30.029  12.568  1.00  0.00     0.037 A 
HETATM    6  C19 UNL     1      12.643  30.664  13.365  1.00  0.00     0.010 A 
ENDROOT
BRANCH   1   7
HETATM    7  C4  UNL     1      13.361  31.686  15.560  1.00  0.00     0.066 C 
BRANCH   7   8
HETATM    8  C2  UNL     1      13.614  33.117  15.267  1.00  0.00     0.122 C 
BRANCH   8   9
HETATM    9  N2  UNL     1      13.939  33.792  16.530  1.00  0.00    -0.296 N 
ATOM     10  H2  UNL     1      14.679  33.489  17.162  1.00  0.00     0.174 HD
BRANCH   9  11
HETATM   11  S1  UNL     1      12.932  35.144  16.818  1.00  0.00     0.315 S 
HETATM   12  O1  UNL     1      11.495  34.826  16.524  1.00  0.00    -0.183 OA
HETATM   13  O2  UNL     1      13.025  35.565  18.271  1.00  0.00    -0.183 OA
BRANCH  11  14
HETATM   14  N1  UNL     1      13.511  36.464  15.861  1.00  0.00    -0.307 N 
HETATM   15  C1  UNL     1      14.814  36.866  16.310  1.00  0.00     0.161 C 
ATOM     16  H1  UNL     1      13.001  36.894  15.090  1.00  0.00     0.173 HD
ENDBRANCH  11  14
ENDBRANCH   9  11
ENDBRANCH   8   9
BRANCH   8  17
HETATM   17  C3  UNL     1      14.768  33.266  14.316  1.00  0.00     0.190 C 
BRANCH  17  18
HETATM   18  O3  UNL     1      14.697  34.486  13.655  1.00  0.00    -0.399 OA
ATOM     19  H3  UNL     1      15.102  34.424  12.799  1.00  0.00     0.209 HD
ENDBRANCH  17  18
ENDBRANCH   8  17
ENDBRANCH   7   8
ENDBRANCH   1   7
BRANCH   4  20
HETATM   20  O4  UNL     1       9.424  29.111  12.310  1.00  0.00    -0.350 OA
BRANCH  20  21
HETATM   21  C9  UNL     1       8.140  28.828  12.733  1.00  0.00     0.195 C 
BRANCH  21  22
HETATM   22  C10 UNL     1       7.005  29.598  12.185  1.00  0.00     0.145 C 
BRANCH  22  23
HETATM   23  N3  UNL     1       7.131  30.992  12.407  1.00  0.00    -0.396 N 
ATOM     24  H3  UNL     1       7.927  31.500  12.022  1.00  0.00     0.158 HD
BRANCH  23  25
HETATM   25  C11 UNL     1       6.156  31.677  13.161  1.00  0.00     0.094 C 
BRANCH  25  26
HETATM   26  C12 UNL     1       6.755  31.889  14.542  1.00  0.00    -0.021 A 
HETATM   27  C13 UNL     1       6.308  31.178  15.623  1.00  0.00     0.013 A 
HETATM   28  C14 UNL     1       6.896  31.415  16.866  1.00  0.00     0.001 A 
HETATM   29  C15 UNL     1       7.896  32.334  17.021  1.00  0.00     0.000 A 
HETATM   30  C16 UNL     1       8.349  33.055  15.933  1.00  0.00     0.001 A 
HETATM   31  C17 UNL     1       7.762  32.810  14.717  1.00  0.00     0.013 A 
ENDBRANCH  25  26
ENDBRANCH  23  25
ENDBRANCH  22  23
ENDBRANCH  21  22
ENDBRANCH  20  21
ENDBRANCH   4  20
TORSDOF 13
ENDMDL
MODEL 5
REMARK VINA RESULT: -6.461953017      1.452      2.187
REMARK  13 active torsions:
REMARK  status: ('A' for Active; 'I' for Inactive)
REMARK    1  A    between atoms: N1_2  and  S1_4 
REMARK    2  A    between atoms: S1_4  and  N2_7 
REMARK    3  A    between atoms: N2_7  and  C2_9 
REMARK    4  A    between atoms: C2_9  and  C3_10 
REMARK    5  A    between atoms: C2_9  and  C4_13 
REMARK    6  A    between atoms: C3_10  and  O3_11 
REMARK    7  A    between atoms: C4_13  and  C5_14 
REMARK    8  A    between atoms: C8_17  and  O4_18 
REMARK    9  A    between atoms: O4_18  and  C9_19 
REMARK   10  A    between atoms: C9_19  and  C10_20 
REMARK   11  A    between atoms: C10_20  and  N3_21 
REMARK   12  A    between atoms: N3_21  and  C11_23 
REMARK   13  A    between atoms: C11_23  and  C12_24 
ROOT
HETATM    1  C5  UNL     1      13.231  32.087  15.631  1.00  0.00    -0.056 A 
HETATM    2  C6  UNL     1      13.277  31.824  14.270  1.00  0.00     0.010 A 
HETATM    3  C7  UNL     1      12.580  30.788  13.708  1.00  0.00     0.037 A 
HETATM    4  C8  UNL     1      11.770  29.922  14.468  1.00  0.00     0.068 A 
HETATM    5  C18 UNL     1      11.733  30.190  15.812  1.00  0.00     0.037 A 
HETATM    6  C19 UNL     1      12.447  31.252  16.388  1.00  0.00     0.010 A 
ENDROOT
BRANCH   1   7
HETATM    7  C4  UNL     1      14.002  33.231  16.180  1.00  0.00     0.066 C 
BRANCH   7   8
HETATM    8  C2  UNL     1      15.252  33.555  15.454  1.00  0.00     0.122 C 
BRANCH   8   9
HETATM    9  N2  UNL     1      15.621  34.939  15.776  1.00  0.00    -0.296 N 
ATOM     10  H2  UNL     1      15.756  35.286  16.725  1.00  0.00     0.174 HD
BRANCH   9  11
HETATM   11  S1  UNL     1      15.799  35.904  14.374  1.00  0.00     0.315 S 
HETATM   12  O1  UNL     1      17.143  35.698  13.739  1.00  0.00    -0.183 OA
HETATM   13  O2  UNL     1      14.743  35.539  13.350  1.00  0.00    -0.183 OA
BRANCH  11  14
HETATM   14  N1  UNL     1      15.538  37.555  14.817  1.00  0.00    -0.307 N 
HETATM   15  C1  UNL     1      15.367  37.666  16.238  1.00  0.00     0.161 C 
ATOM     16  H1  UNL     1      15.509  38.338  14.163  1.00  0.00     0.173 HD
ENDBRANCH  11  14
ENDBRANCH   9  11
ENDBRANCH   8   9
BRANCH   8  17
HETATM   17  C3  UNL     1      16.363  32.637  15.878  1.00  0.00     0.190 C 
BRANCH  17  18
HETATM   18  O3  UNL     1      17.533  32.945  15.195  1.00  0.00    -0.399 OA
ATOM     19  H3  UNL     1      17.982  32.150  14.931  1.00  0.00     0.209 HD
ENDBRANCH  17  18
ENDBRANCH   8  17
ENDBRANCH   7   8
ENDBRANCH   1   7
BRANCH   4  20
HETATM   20  O4  UNL     1      11.102  28.899  13.831  1.00  0.00    -0.350 OA
BRANCH  20  21
HETATM   21  C9  UNL     1      10.986  28.696  12.469  1.00  0.00     0.195 C 
BRANCH  21  22
HETATM   22  C10 UNL     1       9.760  29.132  11.768  1.00  0.00     0.145 C 
BRANCH  22  23
HETATM   23  N3  UNL     1       8.577  28.779  12.465  1.00  0.00    -0.396 N 
ATOM     24  H3  UNL     1       8.608  28.068  13.195  1.00  0.00     0.158 HD
BRANCH  23  25
HETATM   25  C11 UNL     1       7.357  29.411  12.148  1.00  0.00     0.094 C 
BRANCH  25  26
HETATM   26  C12 UNL     1       7.140  30.477  13.209  1.00  0.00    -0.021 A 
HETATM   27  C13 UNL     1       6.027  31.274  13.192  1.00  0.00     0.013 A 
HETATM   28  C14 UNL     1       5.881  32.236  14.193  1.00  0.00     0.001 A 
HETATM   29  C15 UNL     1       6.818  32.393  15.177  1.00  0.00     0.000 A 
HETATM   30  C16 UNL     1       7.942  31.591  15.197  1.00  0.00     0.001 A 
HETATM   31  C17 UNL     1       8.072  30.649  14.207  1.00  0.00     0.013 A 
ENDBRANCH  25  26
ENDBRANCH  23  25
ENDBRANCH  22  23
ENDBRANCH  21  22
ENDBRANCH  20  21
ENDBRANCH   4  20
TORSDOF 13
ENDMDL
