MODEL 1
REMARK VINA RESULT: -5.049947836      0.000      0.000
REMARK  1 active torsions:
REMARK  status: ('A' for Active; 'I' for Inactive)
REMARK    1  A    between atoms: C2_2  and  N1_5 
ROOT
HETATM    1  N1  UNL     1       8.630  -1.072   8.936  1.00  0.00    -0.226 NA
HETATM    2  C5  UNL     1       9.159  -0.578  10.170  1.00  0.00     0.116 C 
HETATM    3  C6  UNL     1       8.567   0.777  10.460  1.00  0.00     0.095 C 
HETATM    4  C7  UNL     1       7.294   0.731  11.237  1.00  0.00     0.246 C 
HETATM    5  F1  UNL     1       7.548   0.124  12.460  1.00  0.00    -0.206 F 
HETATM    6  F2  UNL     1       6.948   2.052  11.514  1.00  0.00    -0.206 F 
HETATM    7  C8  UNL     1       6.132   0.112  10.557  1.00  0.00     0.096 C 
HETATM    8  C9  UNL     1       6.435  -0.753   9.382  1.00  0.00     0.135 C 
HETATM    9  N2  UNL     1       7.541  -0.313   8.581  1.00  0.00    -0.164 NA
ENDROOT
BRANCH   1  10
HETATM   10  C2  UNL     1       9.571  -1.353   7.914  1.00  0.00     0.018 C 
HETATM   11  C1  UNL     1      10.844  -1.997   8.378  1.00  0.00     0.033 C 
HETATM   12  C3  UNL     1       8.899  -2.206   6.859  1.00  0.00     0.033 C 
HETATM   13  C4  UNL     1       9.908  -0.036   7.223  1.00  0.00     0.033 C 
ENDBRANCH   1  10
TORSDOF 1
ENDMDL
MODEL 2
REMARK VINA RESULT: -4.796359588      0.090      1.160
REMARK  1 active torsions:
REMARK  status: ('A' for Active; 'I' for Inactive)
REMARK    1  A    between atoms: C2_2  and  N1_5 
ROOT
HETATM    1  N1  UNL     1       8.644  -1.004   8.931  1.00  0.00    -0.226 NA
HETATM    2  C5  UNL     1       9.184  -0.535  10.170  1.00  0.00     0.116 C 
HETATM    3  C6  UNL     1       8.578   0.806  10.500  1.00  0.00     0.095 C 
HETATM    4  C7  UNL     1       7.316   0.724  11.292  1.00  0.00     0.246 C 
HETATM    5  F1  UNL     1       7.594   0.090  12.496  1.00  0.00    -0.206 F 
HETATM    6  F2  UNL     1       6.958   2.034  11.607  1.00  0.00    -0.206 F 
HETATM    7  C8  UNL     1       6.153   0.107  10.612  1.00  0.00     0.096 C 
HETATM    8  C9  UNL     1       6.452  -0.725   9.412  1.00  0.00     0.135 C 
HETATM    9  N2  UNL     1       7.541  -0.252   8.609  1.00  0.00    -0.164 NA
ENDROOT
BRANCH   1  10
HETATM   10  C2  UNL     1       9.576  -1.249   7.891  1.00  0.00     0.018 C 
HETATM   11  C1  UNL     1      10.085  -0.024   7.189  1.00  0.00     0.033 C 
HETATM   12  C3  UNL     1      10.728  -2.056   8.451  1.00  0.00     0.033 C 
HETATM   13  C4  UNL     1       8.898  -2.156   6.869  1.00  0.00     0.033 C 
ENDBRANCH   1  10
TORSDOF 1
ENDMDL
MODEL 3
REMARK VINA RESULT: -4.790268378      2.580      4.461
REMARK  1 active torsions:
REMARK  status: ('A' for Active; 'I' for Inactive)
REMARK    1  A    between atoms: C2_2  and  N1_5 
ROOT
HETATM    1  N1  UNL     1       7.501   0.386  10.059  1.00  0.00    -0.226 NA
HETATM    2  C5  UNL     1       8.862   0.486   9.631  1.00  0.00     0.116 C 
HETATM    3  C6  UNL     1       9.389  -0.892   9.322  1.00  0.00     0.095 C 
HETATM    4  C7  UNL     1       9.170  -1.325   7.911  1.00  0.00     0.246 C 
HETATM    5  F1  UNL     1       9.828  -0.436   7.072  1.00  0.00    -0.206 F 
HETATM    6  F2  UNL     1       9.811  -2.555   7.768  1.00  0.00    -0.206 F 
HETATM    7  C8  UNL     1       7.761  -1.519   7.496  1.00  0.00     0.096 C 
HETATM    8  C9  UNL     1       6.723  -0.880   8.353  1.00  0.00     0.135 C 
HETATM    9  N2  UNL     1       7.027  -0.866   9.755  1.00  0.00    -0.164 NA
ENDROOT
BRANCH   1  10
HETATM   10  C2  UNL     1       7.210   0.881  11.355  1.00  0.00     0.018 C 
HETATM   11  C1  UNL     1       8.110   0.380  12.447  1.00  0.00     0.033 C 
HETATM   12  C3  UNL     1       7.223   2.395  11.310  1.00  0.00     0.033 C 
HETATM   13  C4  UNL     1       5.772   0.493  11.685  1.00  0.00     0.033 C 
ENDBRANCH   1  10
TORSDOF 1
ENDMDL
MODEL 4
REMARK VINA RESULT: -4.735704660      2.534      4.461
REMARK  1 active torsions:
REMARK  status: ('A' for Active; 'I' for Inactive)
REMARK    1  A    between atoms: C2_2  and  N1_5 
ROOT
HETATM    1  N1  UNL     1       7.452   0.395  10.077  1.00  0.00    -0.226 NA
HETATM    2  C5  UNL     1       8.833   0.546   9.736  1.00  0.00     0.116 C 
HETATM    3  C6  UNL     1       9.428  -0.811   9.458  1.00  0.00     0.095 C 
HETATM    4  C7  UNL     1       9.313  -1.246   8.035  1.00  0.00     0.246 C 
HETATM    5  F1  UNL     1       9.989  -0.329   7.240  1.00  0.00    -0.206 F 
HETATM    6  F2  UNL     1      10.005  -2.451   7.929  1.00  0.00    -0.206 F 
HETATM    7  C8  UNL     1       7.940  -1.488   7.532  1.00  0.00     0.096 C 
HETATM    8  C9  UNL     1       6.828  -0.891   8.324  1.00  0.00     0.135 C 
HETATM    9  N2  UNL     1       7.043  -0.872   9.742  1.00  0.00    -0.164 NA
ENDROOT
BRANCH   1  10
HETATM   10  C2  UNL     1       7.063   0.874  11.354  1.00  0.00     0.018 C 
HETATM   11  C1  UNL     1       5.663   0.527  11.767  1.00  0.00     0.033 C 
HETATM   12  C3  UNL     1       8.058   0.375  12.382  1.00  0.00     0.033 C 
HETATM   13  C4  UNL     1       7.212   2.392  11.343  1.00  0.00     0.033 C 
ENDBRANCH   1  10
TORSDOF 1
ENDMDL
MODEL 5
REMARK VINA RESULT: -4.719636403      2.545      4.465
REMARK  1 active torsions:
REMARK  status: ('A' for Active; 'I' for Inactive)
REMARK    1  A    between atoms: C2_2  and  N1_5 
ROOT
HETATM    1  N1  UNL     1       7.470   0.448  10.049  1.00  0.00    -0.226 NA
HETATM    2  C5  UNL     1       8.843   0.569   9.666  1.00  0.00     0.116 C 
HETATM    3  C6  UNL     1       9.413  -0.805   9.417  1.00  0.00     0.095 C 
HETATM    4  C7  UNL     1       9.255  -1.284   8.013  1.00  0.00     0.246 C 
HETATM    5  F1  UNL     1       9.921  -0.403   7.171  1.00  0.00    -0.206 F 
HETATM    6  F2  UNL     1       9.929  -2.500   7.928  1.00  0.00    -0.206 F 
HETATM    7  C8  UNL     1       7.866  -1.524   7.554  1.00  0.00     0.096 C 
HETATM    8  C9  UNL     1       6.783  -0.886   8.355  1.00  0.00     0.135 C 
HETATM    9  N2  UNL     1       7.036  -0.825   9.766  1.00  0.00    -0.164 NA
ENDROOT
BRANCH   1  10
HETATM   10  C2  UNL     1       7.121   0.973  11.319  1.00  0.00     0.018 C 
HETATM   11  C1  UNL     1       7.196   2.467  11.435  1.00  0.00     0.033 C 
HETATM   12  C3  UNL     1       5.736   0.481  11.682  1.00  0.00     0.033 C 
HETATM   13  C4  UNL     1       8.060   0.351  12.348  1.00  0.00     0.033 C 
ENDBRANCH   1  10
TORSDOF 1
ENDMDL
