MODEL 1
REMARK VINA RESULT: -3.629751822      0.000      0.000
REMARK  0 active torsions:
REMARK  status: ('A' for Active; 'I' for Inactive)
ROOT
HETATM    1  F1  UNL     1       9.025  -1.083  10.040  1.00  0.00    -0.206 F 
HETATM    2  C1  UNL     1       8.728  -0.758   8.705  1.00  0.00     0.245 C 
HETATM    3  F2  UNL     1       8.744   0.647   8.692  1.00  0.00    -0.206 F 
HETATM    4  C2  UNL     1       9.861  -1.215   7.878  1.00  0.00     0.089 C 
HETATM    5  C3  UNL     1       9.396  -1.779   6.531  1.00  0.00     0.038 C 
HETATM    6  C4  UNL     1       8.464  -0.819   5.837  1.00  0.00     0.011 C 
HETATM    7  C5  UNL     1       7.069  -1.387   5.987  1.00  0.00     0.011 C 
HETATM    8  C6  UNL     1       7.247  -2.219   7.268  1.00  0.00     0.038 C 
HETATM    9  C7  UNL     1       7.389  -1.258   8.399  1.00  0.00     0.089 C 
HETATM   10  C8  UNL     1       8.512  -2.930   6.932  1.00  0.00     0.003 C 
HETATM   11  N1  UNL     1       8.833  -4.147   6.950  1.00  0.00    -0.327 N 
ATOM     12  H1  UNL     1       8.150  -4.848   7.240  1.00  0.00     0.174 HD
HETATM   13  S1  UNL     1      10.435  -4.640   6.484  1.00  0.00     0.042 SA
ENDROOT
TORSDOF 0
ENDMDL
MODEL 2
REMARK VINA RESULT: -3.561764240      2.216      2.900
REMARK  0 active torsions:
REMARK  status: ('A' for Active; 'I' for Inactive)
ROOT
HETATM    1  F1  UNL     1      10.597  -0.187   7.962  1.00  0.00    -0.206 F 
HETATM    2  C1  UNL     1       9.629  -1.205   7.963  1.00  0.00     0.245 C 
HETATM    3  F2  UNL     1       9.261  -1.316   9.315  1.00  0.00    -0.206 F 
HETATM    4  C2  UNL     1       8.453  -0.695   7.232  1.00  0.00     0.089 C 
HETATM    5  C3  UNL     1       7.790  -1.785   6.383  1.00  0.00     0.038 C 
HETATM    6  C4  UNL     1       7.525  -3.021   7.204  1.00  0.00     0.011 C 
HETATM    7  C5  UNL     1       8.566  -4.042   6.795  1.00  0.00     0.011 C 
HETATM    8  C6  UNL     1       9.684  -3.109   6.300  1.00  0.00     0.038 C 
HETATM    9  C7  UNL     1      10.261  -2.439   7.501  1.00  0.00     0.089 C 
HETATM   10  C8  UNL     1       8.886  -2.195   5.438  1.00  0.00     0.003 C 
HETATM   11  N1  UNL     1       9.022  -1.819   4.244  1.00  0.00    -0.327 N 
ATOM     12  H1  UNL     1       9.808  -2.162   3.690  1.00  0.00     0.174 HD
HETATM   13  S1  UNL     1       7.878  -0.716   3.534  1.00  0.00     0.042 SA
ENDROOT
TORSDOF 0
ENDMDL
MODEL 3
REMARK VINA RESULT: -2.660219432      2.977      3.614
REMARK  0 active torsions:
REMARK  status: ('A' for Active; 'I' for Inactive)
ROOT
HETATM    1  F1  UNL     1       8.533  -0.167   4.577  1.00  0.00    -0.206 F 
HETATM    2  C1  UNL     1       8.094  -1.354   5.186  1.00  0.00     0.245 C 
HETATM    3  F2  UNL     1       8.192  -2.312   4.162  1.00  0.00    -0.206 F 
HETATM    4  C2  UNL     1       9.087  -1.714   6.216  1.00  0.00     0.089 C 
HETATM    5  C3  UNL     1       8.425  -2.303   7.467  1.00  0.00     0.038 C 
HETATM    6  C4  UNL     1       7.475  -3.414   7.102  1.00  0.00     0.011 C 
HETATM    7  C5  UNL     1       6.077  -2.850   7.243  1.00  0.00     0.011 C 
HETATM    8  C6  UNL     1       6.362  -1.355   7.028  1.00  0.00     0.038 C 
HETATM    9  C7  UNL     1       6.700  -1.175   5.587  1.00  0.00     0.089 C 
HETATM   10  C8  UNL     1       7.530  -1.188   7.936  1.00  0.00     0.003 C 
HETATM   11  N1  UNL     1       7.778  -0.371   8.861  1.00  0.00    -0.327 N 
ATOM     12  H1  UNL     1       7.095   0.350   9.098  1.00  0.00     0.174 HD
HETATM   13  S1  UNL     1       9.278  -0.464   9.738  1.00  0.00     0.042 SA
ENDROOT
TORSDOF 0
ENDMDL
MODEL 4
REMARK VINA RESULT: -2.349010725      2.425      3.229
REMARK  0 active torsions:
REMARK  status: ('A' for Active; 'I' for Inactive)
ROOT
HETATM    1  F1  UNL     1       9.232  -1.021   3.821  1.00  0.00    -0.206 F 
HETATM    2  C1  UNL     1       8.447  -1.296   4.952  1.00  0.00     0.245 C 
HETATM    3  F2  UNL     1       7.136  -1.028   4.522  1.00  0.00    -0.206 F 
HETATM    4  C2  UNL     1       8.534  -2.746   5.207  1.00  0.00     0.089 C 
HETATM    5  C3  UNL     1       8.574  -3.062   6.706  1.00  0.00     0.038 C 
HETATM    6  C4  UNL     1       7.452  -2.368   7.435  1.00  0.00     0.011 C 
HETATM    7  C5  UNL     1       8.074  -1.203   8.176  1.00  0.00     0.011 C 
HETATM    8  C6  UNL     1       9.315  -0.954   7.302  1.00  0.00     0.038 C 
HETATM    9  C7  UNL     1       8.836  -0.371   6.016  1.00  0.00     0.089 C 
HETATM   10  C8  UNL     1       9.816  -2.350   7.171  1.00  0.00     0.003 C 
HETATM   11  N1  UNL     1      10.944  -2.870   7.373  1.00  0.00    -0.327 N 
ATOM     12  H1  UNL     1      11.721  -2.290   7.690  1.00  0.00     0.174 HD
HETATM   13  S1  UNL     1      11.185  -4.575   7.114  1.00  0.00     0.042 SA
ENDROOT
TORSDOF 0
ENDMDL
MODEL 5
REMARK VINA RESULT: -2.200599889      1.855      2.433
REMARK  0 active torsions:
REMARK  status: ('A' for Active; 'I' for Inactive)
ROOT
HETATM    1  F1  UNL     1       5.748  -2.840   7.125  1.00  0.00    -0.206 F 
HETATM    2  C1  UNL     1       6.746  -1.852   7.116  1.00  0.00     0.245 C 
HETATM    3  F2  UNL     1       6.197  -0.814   7.889  1.00  0.00    -0.206 F 
HETATM    4  C2  UNL     1       7.901  -2.386   7.863  1.00  0.00     0.089 C 
HETATM    5  C3  UNL     1       9.234  -1.966   7.233  1.00  0.00     0.038 C 
HETATM    6  C4  UNL     1       9.276  -0.477   7.003  1.00  0.00     0.011 C 
HETATM    7  C5  UNL     1       9.083  -0.265   5.516  1.00  0.00     0.011 C 
HETATM    8  C6  UNL     1       8.311  -1.545   5.154  1.00  0.00     0.038 C 
HETATM    9  C7  UNL     1       6.944  -1.413   5.736  1.00  0.00     0.089 C 
HETATM   10  C8  UNL     1       9.157  -2.554   5.850  1.00  0.00     0.003 C 
HETATM   11  N1  UNL     1       9.696  -3.623   5.461  1.00  0.00    -0.327 N 
ATOM     12  H1  UNL     1       9.578  -3.929   4.495  1.00  0.00     0.174 HD
HETATM   13  S1  UNL     1      10.640  -4.582   6.565  1.00  0.00     0.042 SA
ENDROOT
TORSDOF 0
ENDMDL
