MODEL 1
REMARK VINA RESULT: -3.737674206      0.000      0.000
REMARK  1 active torsions:
REMARK  status: ('A' for Active; 'I' for Inactive)
REMARK    1  A    between atoms: N1_9  and  O1_10 
ROOT
HETATM    1  C1  UNL     1      19.103   0.129   6.340  1.00  0.00     0.029 C 
HETATM    2  C2  UNL     1      20.016  -0.189   7.491  1.00  0.00     0.085 C 
HETATM    3  C3  UNL     1      21.276   0.615   7.495  1.00  0.00     0.022 C 
HETATM    4  C4  UNL     1      22.036   0.281   8.763  1.00  0.00     0.006 C 
HETATM    5  C5  UNL     1      21.369  -0.764   9.587  1.00  0.00     0.061 C 
HETATM    6  C6  UNL     1      20.837  -1.927   8.809  1.00  0.00     0.190 C 
HETATM    7 CL1  UNL     1      19.404  -2.510   9.734  1.00  0.00    -0.082 Cl
HETATM    8 CL2  UNL     1      22.006  -3.256   8.794  1.00  0.00    -0.082 Cl
HETATM    9  N1  UNL     1      20.348  -1.586   7.506  1.00  0.00    -0.156 NA
ENDROOT
BRANCH   9  10
HETATM   10  O1  UNL     1      21.082  -2.006   6.493  1.00  0.00    -0.310 OA
ATOM     11  H1  UNL     1      20.611  -2.470   5.811  1.00  0.00     0.237 HD
ENDBRANCH   9  10
TORSDOF 1
ENDMDL
MODEL 2
REMARK VINA RESULT: -3.624191325      5.110      5.772
REMARK  1 active torsions:
REMARK  status: ('A' for Active; 'I' for Inactive)
REMARK    1  A    between atoms: N1_9  and  O1_10 
ROOT
HETATM    1  C1  UNL     1      21.559  -3.507   4.856  1.00  0.00     0.029 C 
HETATM    2  C2  UNL     1      22.082  -4.641   5.692  1.00  0.00     0.085 C 
HETATM    3  C3  UNL     1      22.274  -4.285   7.131  1.00  0.00     0.022 C 
HETATM    4  C4  UNL     1      22.685  -5.543   7.869  1.00  0.00     0.006 C 
HETATM    5  C5  UNL     1      22.839  -6.723   6.975  1.00  0.00     0.061 C 
HETATM    6  C6  UNL     1      23.560  -6.445   5.693  1.00  0.00     0.190 C 
HETATM    7 CL1  UNL     1      22.868  -7.596   4.492  1.00  0.00    -0.082 Cl
HETATM    8 CL2  UNL     1      25.278  -6.838   5.843  1.00  0.00    -0.082 Cl
HETATM    9  N1  UNL     1      23.321  -5.135   5.160  1.00  0.00    -0.156 NA
ENDROOT
BRANCH   9  10
HETATM   10  O1  UNL     1      24.340  -4.299   5.222  1.00  0.00    -0.310 OA
ATOM     11  H1  UNL     1      24.364  -3.632   4.547  1.00  0.00     0.237 HD
ENDBRANCH   9  10
TORSDOF 1
ENDMDL
MODEL 3
REMARK VINA RESULT: -3.612788726      5.395      6.184
REMARK  1 active torsions:
REMARK  status: ('A' for Active; 'I' for Inactive)
REMARK    1  A    between atoms: N1_9  and  O1_10 
ROOT
HETATM    1  C1  UNL     1      23.145  -7.596   4.598  1.00  0.00     0.029 C 
HETATM    2  C2  UNL     1      22.937  -6.656   5.753  1.00  0.00     0.085 C 
HETATM    3  C3  UNL     1      23.310  -5.241   5.447  1.00  0.00     0.022 C 
HETATM    4  C4  UNL     1      22.938  -4.394   6.647  1.00  0.00     0.006 C 
HETATM    5  C5  UNL     1      22.385  -5.189   7.777  1.00  0.00     0.061 C 
HETATM    6  C6  UNL     1      23.124  -6.458   8.068  1.00  0.00     0.190 C 
HETATM    7 CL1  UNL     1      21.888  -7.596   8.720  1.00  0.00    -0.082 Cl
HETATM    8 CL2  UNL     1      24.314  -6.208   9.353  1.00  0.00    -0.082 Cl
HETATM    9  N1  UNL     1      23.669  -7.098   6.906  1.00  0.00    -0.156 NA
ENDROOT
BRANCH   9  10
HETATM   10  O1  UNL     1      24.983  -7.057   6.796  1.00  0.00    -0.310 OA
ATOM     11  H1  UNL     1      25.466  -7.179   7.605  1.00  0.00     0.237 HD
ENDBRANCH   9  10
TORSDOF 1
ENDMDL
MODEL 4
REMARK VINA RESULT: -3.289662700      4.965      5.866
REMARK  1 active torsions:
REMARK  status: ('A' for Active; 'I' for Inactive)
REMARK    1  A    between atoms: N1_9  and  O1_10 
ROOT
HETATM    1  C1  UNL     1      24.000  -5.276   6.471  1.00  0.00     0.029 C 
HETATM    2  C2  UNL     1      23.018  -4.362   5.794  1.00  0.00     0.085 C 
HETATM    3  C3  UNL     1      21.682  -4.317   6.464  1.00  0.00     0.022 C 
HETATM    4  C4  UNL     1      20.841  -3.276   5.752  1.00  0.00     0.006 C 
HETATM    5  C5  UNL     1      21.535  -2.658   4.589  1.00  0.00     0.061 C 
HETATM    6  C6  UNL     1      22.267  -3.626   3.713  1.00  0.00     0.190 C 
HETATM    7 CL1  UNL     1      23.656  -2.702   3.032  1.00  0.00    -0.082 Cl
HETATM    8 CL2  UNL     1      21.261  -4.114   2.342  1.00  0.00    -0.082 Cl
HETATM    9  N1  UNL     1      22.843  -4.733   4.418  1.00  0.00    -0.156 NA
ENDROOT
BRANCH   9  10
HETATM   10  O1  UNL     1      22.266  -5.902   4.214  1.00  0.00    -0.310 OA
ATOM     11  H1  UNL     1      21.431  -5.873   3.761  1.00  0.00     0.237 HD
ENDBRANCH   9  10
TORSDOF 1
ENDMDL
MODEL 5
REMARK VINA RESULT: -3.109871470      5.088      6.010
REMARK  1 active torsions:
REMARK  status: ('A' for Active; 'I' for Inactive)
REMARK    1  A    between atoms: N1_9  and  O1_10 
ROOT
HETATM    1  C1  UNL     1      23.727  -3.939   5.054  1.00  0.00     0.029 C 
HETATM    2  C2  UNL     1      23.713  -5.199   5.874  1.00  0.00     0.085 C 
HETATM    3  C3  UNL     1      23.175  -6.385   5.138  1.00  0.00     0.022 C 
HETATM    4  C4  UNL     1      23.330  -7.596   6.035  1.00  0.00     0.006 C 
HETATM    5  C5  UNL     1      23.896  -7.267   7.371  1.00  0.00     0.061 C 
HETATM    6  C6  UNL     1      23.316  -6.043   8.010  1.00  0.00     0.190 C 
HETATM    7 CL1  UNL     1      24.640  -5.355   9.021  1.00  0.00    -0.082 Cl
HETATM    8 CL2  UNL     1      22.005  -6.477   9.116  1.00  0.00    -0.082 Cl
HETATM    9  N1  UNL     1      22.958  -5.012   7.081  1.00  0.00    -0.156 NA
ENDROOT
BRANCH   9  10
HETATM   10  O1  UNL     1      21.664  -4.815   6.918  1.00  0.00    -0.310 OA
ATOM     11  H1  UNL     1      21.115  -5.580   7.040  1.00  0.00     0.237 HD
ENDBRANCH   9  10
TORSDOF 1
ENDMDL
