MODEL 1
REMARK VINA RESULT: -4.916285746      0.000      0.000
REMARK  1 active torsions:
REMARK  status: ('A' for Active; 'I' for Inactive)
REMARK    1  A    between atoms: C2_3  and  C3_5 
ROOT
HETATM    1  C3  UNL     1      20.453   0.229   7.315  1.00  0.00     0.251 C 
HETATM    2  C4  UNL     1      20.569   1.237   6.160  1.00  0.00     0.057 C 
HETATM    3  C5  UNL     1      21.219   2.357   6.865  1.00  0.00     0.080 C 
HETATM    4  S1  UNL     1      22.387   3.336   5.908  1.00  0.00    -0.162 SA
HETATM    5  C6  UNL     1      23.700   3.368   7.208  1.00  0.00     0.076 C 
HETATM    6  C7  UNL     1      23.021   2.582   8.346  1.00  0.00     0.044 C 
HETATM    7  C8  UNL     1      22.290   1.542   7.627  1.00  0.00     0.201 C 
HETATM    8  N1  UNL     1      21.471   0.629   8.300  1.00  0.00    -0.059 N 
ATOM      9  H11 UNL     1      21.978  -0.155   8.710  1.00  0.00     0.278 HD
ATOM     10  H12 UNL     1      21.084   0.988   9.172  1.00  0.00     0.278 HD
ENDROOT
BRANCH   1  11
HETATM   11  C2  UNL     1      20.614  -1.152   6.870  1.00  0.00     0.151 C 
HETATM   12  C1  UNL     1      20.572  -2.128   7.771  1.00  0.00     0.228 C 
HETATM   13  F1  UNL     1      20.381  -1.862   9.106  1.00  0.00    -0.216 F 
HETATM   14  F2  UNL     1      20.807  -1.524   5.580  1.00  0.00    -0.206 F 
ENDBRANCH   1  11
TORSDOF 1
ENDMDL
MODEL 2
REMARK VINA RESULT: -4.585686445      3.722      4.915
REMARK  1 active torsions:
REMARK  status: ('A' for Active; 'I' for Inactive)
REMARK    1  A    between atoms: C2_3  and  C3_5 
ROOT
HETATM    1  C3  UNL     1      20.480  -1.805   8.242  1.00  0.00     0.251 C 
HETATM    2  C4  UNL     1      21.333  -3.085   8.255  1.00  0.00     0.057 C 
HETATM    3  C5  UNL     1      20.980  -3.639   6.935  1.00  0.00     0.080 C 
HETATM    4  S1  UNL     1      22.283  -4.521   6.062  1.00  0.00    -0.162 SA
HETATM    5  C6  UNL     1      21.988  -3.705   4.430  1.00  0.00     0.076 C 
HETATM    6  C7  UNL     1      20.793  -2.789   4.759  1.00  0.00     0.044 C 
HETATM    7  C8  UNL     1      21.100  -2.334   6.113  1.00  0.00     0.201 C 
HETATM    8  N1  UNL     1      20.217  -1.514   6.823  1.00  0.00    -0.059 N 
ATOM      9  H11 UNL     1      20.290  -0.526   6.585  1.00  0.00     0.278 HD
ATOM     10  H12 UNL     1      19.240  -1.628   6.553  1.00  0.00     0.278 HD
ENDROOT
BRANCH   1  11
HETATM   11  C2  UNL     1      21.129  -0.695   8.932  1.00  0.00     0.151 C 
HETATM   12  C1  UNL     1      20.906  -0.527  10.232  1.00  0.00     0.228 C 
HETATM   13  F1  UNL     1      20.080  -1.373  10.932  1.00  0.00    -0.216 F 
HETATM   14  F2  UNL     1      21.961   0.196   8.338  1.00  0.00    -0.206 F 
ENDBRANCH   1  11
TORSDOF 1
ENDMDL
MODEL 3
REMARK VINA RESULT: -4.398295698      3.012      4.726
REMARK  1 active torsions:
REMARK  status: ('A' for Active; 'I' for Inactive)
REMARK    1  A    between atoms: C2_3  and  C3_5 
ROOT
HETATM    1  C3  UNL     1      21.619   1.259   8.325  1.00  0.00     0.251 C 
HETATM    2  C4  UNL     1      21.661  -0.084   9.073  1.00  0.00     0.057 C 
HETATM    3  C5  UNL     1      20.630  -0.825   8.322  1.00  0.00     0.080 C 
HETATM    4  S1  UNL     1      20.906  -2.592   8.114  1.00  0.00    -0.162 SA
HETATM    5  C6  UNL     1      20.490  -2.626   6.314  1.00  0.00     0.076 C 
HETATM    6  C7  UNL     1      20.120  -1.152   6.058  1.00  0.00     0.044 C 
HETATM    7  C8  UNL     1      21.077  -0.431   6.894  1.00  0.00     0.201 C 
HETATM    8  N1  UNL     1      21.044   0.963   7.002  1.00  0.00    -0.059 N 
ATOM      9  H11 UNL     1      21.507   1.447   6.234  1.00  0.00     0.278 HD
ATOM     10  H12 UNL     1      20.119   1.366   6.855  1.00  0.00     0.278 HD
ENDROOT
BRANCH   1  11
HETATM   11  C2  UNL     1      22.932   1.891   8.237  1.00  0.00     0.151 C 
HETATM   12  C1  UNL     1      23.089   2.939   7.436  1.00  0.00     0.228 C 
HETATM   13  F1  UNL     1      22.045   3.435   6.692  1.00  0.00    -0.216 F 
HETATM   14  F2  UNL     1      24.026   1.483   8.927  1.00  0.00    -0.206 F 
ENDBRANCH   1  11
TORSDOF 1
ENDMDL
MODEL 4
REMARK VINA RESULT: -4.331171007      3.230      5.185
REMARK  1 active torsions:
REMARK  status: ('A' for Active; 'I' for Inactive)
REMARK    1  A    between atoms: C2_3  and  C3_5 
ROOT
HETATM    1  C3  UNL     1      20.337  -1.135   7.284  1.00  0.00     0.251 C 
HETATM    2  C4  UNL     1      20.925  -2.171   8.256  1.00  0.00     0.057 C 
HETATM    3  C5  UNL     1      20.874  -3.375   7.405  1.00  0.00     0.080 C 
HETATM    4  S1  UNL     1      22.206  -4.567   7.622  1.00  0.00    -0.162 SA
HETATM    5  C6  UNL     1      22.526  -4.806   5.817  1.00  0.00     0.076 C 
HETATM    6  C7  UNL     1      21.457  -3.887   5.194  1.00  0.00     0.044 C 
HETATM    7  C8  UNL     1      21.438  -2.749   6.108  1.00  0.00     0.201 C 
HETATM    8  N1  UNL     1      20.540  -1.690   5.936  1.00  0.00    -0.059 N 
ATOM      9  H11 UNL     1      20.841  -1.002   5.247  1.00  0.00     0.278 HD
ATOM     10  H12 UNL     1      19.675  -1.957   5.464  1.00  0.00     0.278 HD
ENDROOT
BRANCH   1  11
HETATM   11  C2  UNL     1      20.939   0.185   7.443  1.00  0.00     0.151 C 
HETATM   12  C1  UNL     1      20.602   1.152   6.596  1.00  0.00     0.228 C 
HETATM   13  F1  UNL     1      19.704   0.933   5.579  1.00  0.00    -0.216 F 
HETATM   14  F2  UNL     1      21.834   0.508   8.410  1.00  0.00    -0.206 F 
ENDBRANCH   1  11
TORSDOF 1
ENDMDL
MODEL 5
REMARK VINA RESULT: -4.295636571      3.778      5.648
REMARK  1 active torsions:
REMARK  status: ('A' for Active; 'I' for Inactive)
REMARK    1  A    between atoms: C2_3  and  C3_5 
ROOT
HETATM    1  C3  UNL     1      20.517  -2.578   7.468  1.00  0.00     0.251 C 
HETATM    2  C4  UNL     1      21.394  -3.401   8.426  1.00  0.00     0.057 C 
HETATM    3  C5  UNL     1      21.707  -4.552   7.559  1.00  0.00     0.080 C 
HETATM    4  S1  UNL     1      23.338  -5.288   7.761  1.00  0.00    -0.162 SA
HETATM    5  C6  UNL     1      23.710  -5.393   5.953  1.00  0.00     0.076 C 
HETATM    6  C7  UNL     1      22.412  -4.833   5.341  1.00  0.00     0.044 C 
HETATM    7  C8  UNL     1      22.052  -3.766   6.272  1.00  0.00     0.201 C 
HETATM    8  N1  UNL     1      20.875  -3.027   6.113  1.00  0.00    -0.059 N 
ATOM      9  H11 UNL     1      20.952  -2.270   5.434  1.00  0.00     0.278 HD
ATOM     10  H12 UNL     1      20.130  -3.536   5.636  1.00  0.00     0.278 HD
ENDROOT
BRANCH   1  11
HETATM   11  C2  UNL     1      20.692  -1.140   7.647  1.00  0.00     0.151 C 
HETATM   12  C1  UNL     1      20.083  -0.309   6.808  1.00  0.00     0.228 C 
HETATM   13  F1  UNL     1      19.297  -0.775   5.782  1.00  0.00    -0.216 F 
HETATM   14  F2  UNL     1      21.443  -0.575   8.625  1.00  0.00    -0.206 F 
ENDBRANCH   1  11
TORSDOF 1
ENDMDL
