MODEL 1
REMARK VINA RESULT: -6.300806748      0.000      0.000
REMARK  12 active torsions:
REMARK  status: ('A' for Active; 'I' for Inactive)
REMARK    1  A    between atoms: C2_2  and  C3_3 
REMARK    2  A    between atoms: C3_3  and  C4_4 
REMARK    3  A    between atoms: C4_4  and  C5_5 
REMARK    4  A    between atoms: C5_5  and  C6_6 
REMARK    5  A    between atoms: C7_7  and  C8_8 
REMARK    6  A    between atoms: C8_8  and  C9_9 
REMARK    7  A    between atoms: C9_9  and  C10_10 
REMARK    8  A    between atoms: C12_12  and  C13_13 
REMARK    9  A    between atoms: C13_13  and  C14_14 
REMARK   10  A    between atoms: C14_14  and  C15_15 
REMARK   11  A    between atoms: C15_15  and  C16_16 
REMARK   12  A    between atoms: C16_16  and  N1_17 
ROOT
HETATM    1  C10 UNL     1       4.566   0.574   6.703  1.00  0.00    -0.010 A 
HETATM    2  C11 UNL     1       5.765  -0.228   6.985  1.00  0.00     0.010 A 
HETATM    3  C12 UNL     1       4.448  -0.705   7.452  1.00  0.00    -0.010 A 
ENDROOT
BRANCH   1   4
HETATM    4  C9  UNL     1       3.951   0.835   5.394  1.00  0.00     0.009 C 
BRANCH   4   5
HETATM    5  C8  UNL     1       4.788   1.139   4.211  1.00  0.00     0.027 C 
BRANCH   5   6
HETATM    6  C7  UNL     1       5.290   0.019   3.419  1.00  0.00    -0.031 C 
HETATM    7  C6  UNL     1       6.539  -0.238   3.182  1.00  0.00    -0.031 C 
BRANCH   7   8
HETATM    8  C5  UNL     1       7.734   0.501   3.631  1.00  0.00     0.027 C 
BRANCH   8   9
HETATM    9  C4  UNL     1       8.395   1.197   2.454  1.00  0.00     0.004 C 
BRANCH   9  10
HETATM   10  C3  UNL     1       9.837   0.799   2.302  1.00  0.00    -0.000 C 
BRANCH  10  11
HETATM   11  C2  UNL     1      10.022  -0.515   1.617  1.00  0.00    -0.005 C 
HETATM   12  C1  UNL     1       9.127  -0.545   0.396  1.00  0.00     0.005 C 
ENDBRANCH  10  11
ENDBRANCH   9  10
ENDBRANCH   8   9
ENDBRANCH   7   8
ENDBRANCH   5   6
ENDBRANCH   4   5
ENDBRANCH   1   4
BRANCH   3  13
HETATM   13  C13 UNL     1       4.104  -0.617   8.937  1.00  0.00     0.005 C 
BRANCH  13  14
HETATM   14  C14 UNL     1       3.065  -1.597   9.368  1.00  0.00     0.002 C 
BRANCH  14  15
HETATM   15  C15 UNL     1       1.908  -1.530   8.390  1.00  0.00     0.027 C 
BRANCH  15  16
HETATM   16  C16 UNL     1       0.876  -0.512   8.781  1.00  0.00     0.229 C 
BRANCH  16  17
HETATM   17  N1  UNL     1       0.847   0.486   7.702  1.00  0.00    -0.079 N 
ATOM     18  H13 UNL     1       1.477   1.272   7.862  1.00  0.00     0.274 HD
ATOM     19  H12 UNL     1       1.272   0.157   6.835  1.00  0.00     0.274 HD
ATOM     20  H11 UNL     1      -0.129   0.765   7.593  1.00  0.00     0.274 HD
ENDBRANCH  16  17
ENDBRANCH  15  16
ENDBRANCH  14  15
ENDBRANCH  13  14
ENDBRANCH   3  13
TORSDOF 12
ENDMDL
MODEL 2
REMARK VINA RESULT: -6.235739568      3.052      8.318
REMARK  12 active torsions:
REMARK  status: ('A' for Active; 'I' for Inactive)
REMARK    1  A    between atoms: C2_2  and  C3_3 
REMARK    2  A    between atoms: C3_3  and  C4_4 
REMARK    3  A    between atoms: C4_4  and  C5_5 
REMARK    4  A    between atoms: C5_5  and  C6_6 
REMARK    5  A    between atoms: C7_7  and  C8_8 
REMARK    6  A    between atoms: C8_8  and  C9_9 
REMARK    7  A    between atoms: C9_9  and  C10_10 
REMARK    8  A    between atoms: C12_12  and  C13_13 
REMARK    9  A    between atoms: C13_13  and  C14_14 
REMARK   10  A    between atoms: C14_14  and  C15_15 
REMARK   11  A    between atoms: C15_15  and  C16_16 
REMARK   12  A    between atoms: C16_16  and  N1_17 
ROOT
HETATM    1  C10 UNL     1       5.589  -0.014   4.730  1.00  0.00    -0.010 A 
HETATM    2  C11 UNL     1       4.909   0.087   3.431  1.00  0.00     0.010 A 
HETATM    3  C12 UNL     1       6.356  -0.202   3.471  1.00  0.00    -0.010 A 
ENDROOT
BRANCH   1   4
HETATM    4  C9  UNL     1       5.404  -1.048   5.758  1.00  0.00     0.009 C 
BRANCH   4   5
HETATM    5  C8  UNL     1       4.297  -0.955   6.737  1.00  0.00     0.027 C 
BRANCH   5   6
HETATM    6  C7  UNL     1       4.524  -0.191   7.961  1.00  0.00    -0.031 C 
HETATM    7  C6  UNL     1       4.150  -0.543   9.151  1.00  0.00    -0.031 C 
BRANCH   7   8
HETATM    8  C5  UNL     1       3.426  -1.759   9.569  1.00  0.00     0.027 C 
BRANCH   8   9
HETATM    9  C4  UNL     1       2.058  -1.395  10.118  1.00  0.00     0.004 C 
BRANCH   9  10
HETATM   10  C3  UNL     1       0.993  -1.457   9.059  1.00  0.00    -0.000 C 
BRANCH  10  11
HETATM   11  C2  UNL     1       0.272  -0.164   8.865  1.00  0.00    -0.005 C 
HETATM   12  C1  UNL     1       0.902   0.561   7.695  1.00  0.00     0.005 C 
ENDBRANCH  10  11
ENDBRANCH   9  10
ENDBRANCH   8   9
ENDBRANCH   7   8
ENDBRANCH   5   6
ENDBRANCH   4   5
ENDBRANCH   1   4
BRANCH   3  13
HETATM   13  C13 UNL     1       7.349   0.892   3.086  1.00  0.00     0.005 C 
BRANCH  13  14
HETATM   14  C14 UNL     1       8.677   0.368   2.653  1.00  0.00     0.002 C 
BRANCH  14  15
HETATM   15  C15 UNL     1       8.449  -0.767   1.674  1.00  0.00     0.027 C 
BRANCH  15  16
HETATM   16  C16 UNL     1       9.106  -0.528   0.345  1.00  0.00     0.229 C 
BRANCH  16  17
HETATM   17  N1  UNL     1      10.316   0.264   0.616  1.00  0.00    -0.079 N 
ATOM     18  H13 UNL     1      10.139   1.267   0.668  1.00  0.00     0.274 HD
ATOM     19  H12 UNL     1      10.670   0.149   1.566  1.00  0.00     0.274 HD
ATOM     20  H11 UNL     1      10.994   0.009  -0.102  1.00  0.00     0.274 HD
ENDBRANCH  16  17
ENDBRANCH  15  16
ENDBRANCH  14  15
ENDBRANCH  13  14
ENDBRANCH   3  13
TORSDOF 12
ENDMDL
MODEL 3
REMARK VINA RESULT: -6.221845163      1.341      2.180
REMARK  12 active torsions:
REMARK  status: ('A' for Active; 'I' for Inactive)
REMARK    1  A    between atoms: C2_2  and  C3_3 
REMARK    2  A    between atoms: C3_3  and  C4_4 
REMARK    3  A    between atoms: C4_4  and  C5_5 
REMARK    4  A    between atoms: C5_5  and  C6_6 
REMARK    5  A    between atoms: C7_7  and  C8_8 
REMARK    6  A    between atoms: C8_8  and  C9_9 
REMARK    7  A    between atoms: C9_9  and  C10_10 
REMARK    8  A    between atoms: C12_12  and  C13_13 
REMARK    9  A    between atoms: C13_13  and  C14_14 
REMARK   10  A    between atoms: C14_14  and  C15_15 
REMARK   11  A    between atoms: C15_15  and  C16_16 
REMARK   12  A    between atoms: C16_16  and  N1_17 
ROOT
HETATM    1  C10 UNL     1       3.943   0.069   7.841  1.00  0.00    -0.010 A 
HETATM    2  C11 UNL     1       3.757  -0.384   9.228  1.00  0.00     0.010 A 
HETATM    3  C12 UNL     1       3.156  -1.160   8.126  1.00  0.00    -0.010 A 
ENDROOT
BRANCH   1   4
HETATM    4  C9  UNL     1       5.194   0.100   7.071  1.00  0.00     0.009 C 
BRANCH   4   5
HETATM    5  C8  UNL     1       5.371   1.051   5.950  1.00  0.00     0.027 C 
BRANCH   5   6
HETATM    6  C7  UNL     1       4.654   0.787   4.705  1.00  0.00    -0.031 C 
HETATM    7  C6  UNL     1       5.029  -0.039   3.779  1.00  0.00    -0.031 C 
BRANCH   7   8
HETATM    8  C5  UNL     1       6.228  -0.897   3.737  1.00  0.00     0.027 C 
BRANCH   8   9
HETATM    9  C4  UNL     1       7.198  -0.397   2.681  1.00  0.00     0.004 C 
BRANCH   9  10
HETATM   10  C3  UNL     1       8.126   0.653   3.222  1.00  0.00    -0.000 C 
BRANCH  10  11
HETATM   11  C2  UNL     1       9.500   0.590   2.639  1.00  0.00    -0.005 C 
HETATM   12  C1  UNL     1       9.503  -0.451   1.539  1.00  0.00     0.005 C 
ENDBRANCH  10  11
ENDBRANCH   9  10
ENDBRANCH   8   9
ENDBRANCH   7   8
ENDBRANCH   5   6
ENDBRANCH   4   5
ENDBRANCH   1   4
BRANCH   3  13
HETATM   13  C13 UNL     1       1.648  -1.093   7.899  1.00  0.00     0.005 C 
BRANCH  13  14
HETATM   14  C14 UNL     1       0.848  -1.646   9.030  1.00  0.00     0.002 C 
BRANCH  14  15
HETATM   15  C15 UNL     1       0.017  -0.524   9.623  1.00  0.00     0.027 C 
BRANCH  15  16
HETATM   16  C16 UNL     1       0.182  -0.404  11.111  1.00  0.00     0.229 C 
BRANCH  16  17
HETATM   17  N1  UNL     1       0.907   0.854  11.348  1.00  0.00    -0.079 N 
ATOM     18  H13 UNL     1       1.086   1.384  10.496  1.00  0.00     0.274 HD
ATOM     19  H12 UNL     1       0.344   1.562  11.821  1.00  0.00     0.274 HD
ATOM     20  H11 UNL     1       1.756   0.606  11.857  1.00  0.00     0.274 HD
ENDBRANCH  16  17
ENDBRANCH  15  16
ENDBRANCH  14  15
ENDBRANCH  13  14
ENDBRANCH   3  13
TORSDOF 12
ENDMDL
MODEL 4
REMARK VINA RESULT: -6.163404208      1.091      1.248
REMARK  12 active torsions:
REMARK  status: ('A' for Active; 'I' for Inactive)
REMARK    1  A    between atoms: C2_2  and  C3_3 
REMARK    2  A    between atoms: C3_3  and  C4_4 
REMARK    3  A    between atoms: C4_4  and  C5_5 
REMARK    4  A    between atoms: C5_5  and  C6_6 
REMARK    5  A    between atoms: C7_7  and  C8_8 
REMARK    6  A    between atoms: C8_8  and  C9_9 
REMARK    7  A    between atoms: C9_9  and  C10_10 
REMARK    8  A    between atoms: C12_12  and  C13_13 
REMARK    9  A    between atoms: C13_13  and  C14_14 
REMARK   10  A    between atoms: C14_14  and  C15_15 
REMARK   11  A    between atoms: C15_15  and  C16_16 
REMARK   12  A    between atoms: C16_16  and  N1_17 
ROOT
HETATM    1  C10 UNL     1       4.829   0.161   6.787  1.00  0.00    -0.010 A 
HETATM    2  C11 UNL     1       3.520  -0.502   6.699  1.00  0.00     0.010 A 
HETATM    3  C12 UNL     1       3.822   0.353   7.863  1.00  0.00    -0.010 A 
ENDROOT
BRANCH   1   4
HETATM    4  C9  UNL     1       5.348   1.234   5.927  1.00  0.00     0.009 C 
BRANCH   4   5
HETATM    5  C8  UNL     1       4.938   1.333   4.508  1.00  0.00     0.027 C 
BRANCH   5   6
HETATM    6  C7  UNL     1       5.312   0.247   3.606  1.00  0.00    -0.031 C 
HETATM    7  C6  UNL     1       6.520  -0.043   3.233  1.00  0.00    -0.031 C 
BRANCH   7   8
HETATM    8  C5  UNL     1       7.785   0.620   3.605  1.00  0.00     0.027 C 
BRANCH   8   9
HETATM    9  C4  UNL     1       8.488   1.144   2.366  1.00  0.00     0.004 C 
BRANCH   9  10
HETATM   10  C3  UNL     1       9.934   0.734   2.324  1.00  0.00    -0.000 C 
BRANCH  10  11
HETATM   11  C2  UNL     1      10.185  -0.473   1.481  1.00  0.00    -0.005 C 
HETATM   12  C1  UNL     1       9.085  -0.570   0.447  1.00  0.00     0.005 C 
ENDBRANCH  10  11
ENDBRANCH   9  10
ENDBRANCH   8   9
ENDBRANCH   7   8
ENDBRANCH   5   6
ENDBRANCH   4   5
ENDBRANCH   1   4
BRANCH   3  13
HETATM   13  C13 UNL     1       4.109  -0.296   9.215  1.00  0.00     0.005 C 
BRANCH  13  14
HETATM   14  C14 UNL     1       2.992  -0.157  10.194  1.00  0.00     0.002 C 
BRANCH  14  15
HETATM   15  C15 UNL     1       2.176  -1.435  10.176  1.00  0.00     0.027 C 
BRANCH  15  16
HETATM   16  C16 UNL     1       0.950  -1.328   9.314  1.00  0.00     0.229 C 
BRANCH  16  17
HETATM   17  N1  UNL     1      -0.158  -0.970  10.211  1.00  0.00    -0.079 N 
ATOM     18  H13 UNL     1       0.108  -0.955  11.196  1.00  0.00     0.274 HD
ATOM     19  H12 UNL     1      -0.435   0.010  10.141  1.00  0.00     0.274 HD
ATOM     20  H11 UNL     1      -0.917  -1.620  10.006  1.00  0.00     0.274 HD
ENDBRANCH  16  17
ENDBRANCH  15  16
ENDBRANCH  14  15
ENDBRANCH  13  14
ENDBRANCH   3  13
TORSDOF 12
ENDMDL
MODEL 5
REMARK VINA RESULT: -6.125488794      2.999      8.476
REMARK  12 active torsions:
REMARK  status: ('A' for Active; 'I' for Inactive)
REMARK    1  A    between atoms: C2_2  and  C3_3 
REMARK    2  A    between atoms: C3_3  and  C4_4 
REMARK    3  A    between atoms: C4_4  and  C5_5 
REMARK    4  A    between atoms: C5_5  and  C6_6 
REMARK    5  A    between atoms: C7_7  and  C8_8 
REMARK    6  A    between atoms: C8_8  and  C9_9 
REMARK    7  A    between atoms: C9_9  and  C10_10 
REMARK    8  A    between atoms: C12_12  and  C13_13 
REMARK    9  A    between atoms: C13_13  and  C14_14 
REMARK   10  A    between atoms: C14_14  and  C15_15 
REMARK   11  A    between atoms: C15_15  and  C16_16 
REMARK   12  A    between atoms: C16_16  and  N1_17 
ROOT
HETATM    1  C10 UNL     1       5.279   0.032   5.358  1.00  0.00    -0.010 A 
HETATM    2  C11 UNL     1       4.509  -0.873   4.492  1.00  0.00     0.010 A 
HETATM    3  C12 UNL     1       5.955  -0.695   4.251  1.00  0.00    -0.010 A 
ENDROOT
BRANCH   1   4
HETATM    4  C9  UNL     1       5.588  -0.142   6.784  1.00  0.00     0.009 C 
BRANCH   4   5
HETATM    5  C8  UNL     1       4.504  -0.295   7.781  1.00  0.00     0.027 C 
BRANCH   5   6
HETATM    6  C7  UNL     1       3.351   0.596   7.686  1.00  0.00    -0.031 C 
HETATM    7  C6  UNL     1       2.114   0.222   7.578  1.00  0.00    -0.031 C 
BRANCH   7   8
HETATM    8  C5  UNL     1       1.565  -1.146   7.526  1.00  0.00     0.027 C 
BRANCH   8   9
HETATM    9  C4  UNL     1       1.093  -1.578   8.903  1.00  0.00     0.004 C 
BRANCH   9  10
HETATM   10  C3  UNL     1       0.112  -0.605   9.492  1.00  0.00    -0.000 C 
BRANCH  10  11
HETATM   11  C2  UNL     1       0.225  -0.469  10.975  1.00  0.00    -0.005 C 
HETATM   12  C1  UNL     1       1.343   0.506  11.280  1.00  0.00     0.005 C 
ENDBRANCH  10  11
ENDBRANCH   9  10
ENDBRANCH   8   9
ENDBRANCH   7   8
ENDBRANCH   5   6
ENDBRANCH   4   5
ENDBRANCH   1   4
BRANCH   3  13
HETATM   13  C13 UNL     1       6.419   0.128   3.052  1.00  0.00     0.005 C 
BRANCH  13  14
HETATM   14  C14 UNL     1       7.823  -0.158   2.639  1.00  0.00     0.002 C 
BRANCH  14  15
HETATM   15  C15 UNL     1       8.622   1.127   2.737  1.00  0.00     0.027 C 
BRANCH  15  16
HETATM   16  C16 UNL     1      10.045   0.962   2.283  1.00  0.00     0.229 C 
BRANCH  16  17
HETATM   17  N1  UNL     1      10.177  -0.431   1.829  1.00  0.00    -0.079 N 
ATOM     18  H13 UNL     1      10.451  -1.073   2.572  1.00  0.00     0.274 HD
ATOM     19  H12 UNL     1       9.284  -0.870   1.605  1.00  0.00     0.274 HD
ATOM     20  H11 UNL     1      10.829  -0.418   1.045  1.00  0.00     0.274 HD
ENDBRANCH  16  17
ENDBRANCH  15  16
ENDBRANCH  14  15
ENDBRANCH  13  14
ENDBRANCH   3  13
TORSDOF 12
ENDMDL
