MODEL 1
REMARK VINA RESULT: -9.221049569      0.000      0.000
REMARK  18 active torsions:
REMARK  status: ('A' for Active; 'I' for Inactive)
REMARK    1  A    between atoms: S1_2  and  C2_3 
REMARK    2  A    between atoms: C4_10  and  N4_11 
REMARK       I    between atoms: N4_11  and  C5_13 
REMARK    3  A    between atoms: C5_13  and  C6_15 
REMARK    4  A    between atoms: C6_15  and  O2_16 
REMARK    5  A    between atoms: C6_15  and  C7_18 
REMARK    6  A    between atoms: C7_18  and  O3_19 
REMARK    7  A    between atoms: C8_21  and  C9_22 
REMARK    8  A    between atoms: C10_27  and  O5_28 
REMARK    9  A    between atoms: N7_31  and  C12_32 
REMARK   10  A    between atoms: C13_34  and  C14_35 
REMARK   11  A    between atoms: C15_38  and  O8_39 
REMARK   12  A    between atoms: C16_41  and  O9_42 
REMARK   13  A    between atoms: O9_42  and  C17_43 
REMARK   14  A    between atoms: C17_43  and  C18_44 
REMARK   15  A    between atoms: C18_44  and  O10_45 
REMARK   16  A    between atoms: C18_44  and  C19_47 
REMARK   17  A    between atoms: C19_47  and  O11_48 
REMARK   18  A    between atoms: C20_50  and  O12_51 
ROOT
HETATM    1  C2  UNL     1     -40.362   1.047  10.151  1.00  0.00     0.132 A 
HETATM    2  N1  UNL     1     -40.086  -0.232  10.459  1.00  0.00    -0.276 N 
ATOM      3  H1  UNL     1     -40.719  -0.847  10.970  1.00  0.00     0.189 HD
HETATM    4  N2  UNL     1     -38.897  -0.596  10.020  1.00  0.00    -0.233 N 
ATOM      5  H2  UNL     1     -38.458  -1.511  10.127  1.00  0.00     0.209 HD
HETATM    6  N3  UNL     1     -38.385   0.464   9.412  1.00  0.00    -0.218 N 
HETATM    7  C3  UNL     1     -37.297   0.889   8.748  1.00  0.00     0.120 A 
HETATM    8  C4  UNL     1     -36.122   0.234   8.414  1.00  0.00     0.098 A 
HETATM    9  C8  UNL     1     -35.170   0.924   7.723  1.00  0.00     0.129 A 
HETATM   10  N6  UNL     1     -35.394   2.231   7.380  1.00  0.00    -0.329 N 
ATOM     11  H6  UNL     1     -34.680   2.745   6.864  1.00  0.00     0.168 HD
HETATM   12  C10 UNL     1     -36.524   2.838   7.710  1.00  0.00     0.171 A 
HETATM   13  C11 UNL     1     -37.530   2.204   8.407  1.00  0.00     0.121 A 
HETATM   14  N7  UNL     1     -38.742   2.592   8.851  1.00  0.00    -0.293 N 
HETATM   15  C21 UNL     1     -39.249   1.493   9.469  1.00  0.00     0.169 A 
ENDROOT
BRANCH  14  16
HETATM   16  C12 UNL     1     -39.372   3.886   8.708  1.00  0.00     0.262 C 
HETATM   17  O6  UNL     1     -39.503   4.296   7.381  1.00  0.00    -0.347 OA
HETATM   18  C13 UNL     1     -40.521   5.196   7.208  1.00  0.00     0.244 C 
HETATM   19  C15 UNL     1     -40.658   6.116   8.413  1.00  0.00     0.187 C 
HETATM   20  C16 UNL     1     -39.310   6.303   9.097  1.00  0.00     0.186 C 
HETATM   21  C20 UNL     1     -38.901   4.928   9.651  1.00  0.00     0.199 C 
BRANCH  18  22
HETATM   22  C14 UNL     1     -40.314   5.931   5.946  1.00  0.00     0.262 C 
HETATM   23  N8  UNL     1     -41.384   6.282   5.104  1.00  0.00    -0.060 NA
HETATM   24  O7  UNL     1     -39.153   6.253   5.616  1.00  0.00    -0.274 OA
ENDBRANCH  18  22
BRANCH  19  25
HETATM   25  O8  UNL     1     -41.167   7.305   7.949  1.00  0.00    -0.390 OA
ATOM     26  H8  UNL     1     -42.069   7.137   7.698  1.00  0.00     0.210 HD
ENDBRANCH  19  25
BRANCH  20  27
HETATM   27  O9  UNL     1     -39.441   7.128  10.156  1.00  0.00    -0.378 OA
BRANCH  27  28
HETATM   28  C17 UNL     1     -38.786   8.301  10.221  1.00  0.00     0.202 C 
BRANCH  28  29
HETATM   29  C18 UNL     1     -39.546   9.563  10.031  1.00  0.00     0.165 C 
BRANCH  29  30
HETATM   30  O10 UNL     1     -40.139   9.725   8.786  1.00  0.00    -0.391 OA
ATOM     31  H10 UNL     1     -41.047   9.452   8.725  1.00  0.00     0.210 HD
ENDBRANCH  29  30
BRANCH  29  32
HETATM   32  C19 UNL     1     -40.714   9.526  11.032  1.00  0.00     0.198 C 
BRANCH  32  33
HETATM   33  O11 UNL     1     -40.339   8.905  12.214  1.00  0.00    -0.398 OA
ATOM     34  H11 UNL     1     -39.484   9.205  12.502  1.00  0.00     0.209 HD
ENDBRANCH  32  33
ENDBRANCH  29  32
ENDBRANCH  28  29
ENDBRANCH  27  28
ENDBRANCH  20  27
BRANCH  21  35
HETATM   35  O12 UNL     1     -39.577   4.733  10.880  1.00  0.00    -0.388 OA
ATOM     36  H12 UNL     1     -40.464   5.055  10.776  1.00  0.00     0.210 HD
ENDBRANCH  21  35
ENDBRANCH  14  16
BRANCH  12  37
HETATM   37  O5  UNL     1     -36.689   4.159   7.334  1.00  0.00    -0.344 OA
ATOM     38  H5  UNL     1     -36.503   4.834   7.976  1.00  0.00     0.219 HD
ENDBRANCH  12  37
BRANCH   1  39
HETATM   39  S1  UNL     1     -41.869   1.945  10.556  1.00  0.00    -0.112 SA
HETATM   40  C1  UNL     1     -42.486   2.754   9.081  1.00  0.00     0.097 C 
ENDBRANCH   1  39
BRANCH   8  41
HETATM   41  N4  UNL     1     -35.979  -1.101   8.804  1.00  0.00    -0.321 N 
HETATM   42  C5  UNL     1     -35.740  -1.548  10.113  1.00  0.00     0.253 C 
HETATM   43  O1  UNL     1     -35.633  -0.722  11.043  1.00  0.00    -0.270 OA
ATOM     44  H4  UNL     1     -36.054  -1.811   8.075  1.00  0.00     0.169 HD
BRANCH  42  45
HETATM   45  C6  UNL     1     -35.616  -2.985  10.406  1.00  0.00     0.233 C 
BRANCH  45  46
HETATM   46  O2  UNL     1     -34.256  -3.344  10.559  1.00  0.00    -0.384 OA
ATOM     47  H2  UNL     1     -33.994  -3.954   9.879  1.00  0.00     0.210 HD
ENDBRANCH  45  46
BRANCH  45  48
HETATM   48  C7  UNL     1     -36.397  -3.439  11.593  1.00  0.00     0.205 C 
BRANCH  48  49
HETATM   49  O3  UNL     1     -37.406  -2.584  11.958  1.00  0.00    -0.398 OA
ATOM     50  H3  UNL     1     -38.021  -2.955  12.580  1.00  0.00     0.209 HD
ENDBRANCH  48  49
ENDBRANCH  45  48
ENDBRANCH  42  45
ENDBRANCH   8  41
BRANCH   9  51
HETATM   51  C9  UNL     1     -33.937   0.275   7.334  1.00  0.00     0.283 C 
HETATM   52  N5  UNL     1     -33.138  -0.339   8.314  1.00  0.00    -0.056 NA
HETATM   53  O4  UNL     1     -33.584   0.255   6.147  1.00  0.00    -0.269 OA
ENDBRANCH   9  51
TORSDOF 18
ENDMDL
MODEL 2
REMARK VINA RESULT: -8.536224162      6.081      8.139
REMARK  18 active torsions:
REMARK  status: ('A' for Active; 'I' for Inactive)
REMARK    1  A    between atoms: S1_2  and  C2_3 
REMARK    2  A    between atoms: C4_10  and  N4_11 
REMARK       I    between atoms: N4_11  and  C5_13 
REMARK    3  A    between atoms: C5_13  and  C6_15 
REMARK    4  A    between atoms: C6_15  and  O2_16 
REMARK    5  A    between atoms: C6_15  and  C7_18 
REMARK    6  A    between atoms: C7_18  and  O3_19 
REMARK    7  A    between atoms: C8_21  and  C9_22 
REMARK    8  A    between atoms: C10_27  and  O5_28 
REMARK    9  A    between atoms: N7_31  and  C12_32 
REMARK   10  A    between atoms: C13_34  and  C14_35 
REMARK   11  A    between atoms: C15_38  and  O8_39 
REMARK   12  A    between atoms: C16_41  and  O9_42 
REMARK   13  A    between atoms: O9_42  and  C17_43 
REMARK   14  A    between atoms: C17_43  and  C18_44 
REMARK   15  A    between atoms: C18_44  and  O10_45 
REMARK   16  A    between atoms: C18_44  and  C19_47 
REMARK   17  A    between atoms: C19_47  and  O11_48 
REMARK   18  A    between atoms: C20_50  and  O12_51 
ROOT
HETATM    1  C2  UNL     1     -36.476   7.116  16.784  1.00  0.00     0.132 A 
HETATM    2  N1  UNL     1     -36.841   6.035  17.495  1.00  0.00    -0.276 N 
ATOM      3  H1  UNL     1     -36.734   5.953  18.506  1.00  0.00     0.189 HD
HETATM    4  N2  UNL     1     -37.354   5.094  16.727  1.00  0.00    -0.233 N 
ATOM      5  H2  UNL     1     -37.703   4.183  17.025  1.00  0.00     0.209 HD
HETATM    6  N3  UNL     1     -37.325   5.568  15.490  1.00  0.00    -0.218 N 
HETATM    7  C3  UNL     1     -37.641   5.254  14.222  1.00  0.00     0.120 A 
HETATM    8  C4  UNL     1     -38.209   4.110  13.682  1.00  0.00     0.098 A 
HETATM    9  C8  UNL     1     -38.421   4.066  12.336  1.00  0.00     0.129 A 
HETATM   10  N6  UNL     1     -38.071   5.138  11.558  1.00  0.00    -0.329 N 
ATOM     11  H6  UNL     1     -38.229   5.102  10.551  1.00  0.00     0.168 HD
HETATM   12  C10 UNL     1     -37.528   6.220  12.095  1.00  0.00     0.171 A 
HETATM   13  C11 UNL     1     -37.285   6.336  13.446  1.00  0.00     0.121 A 
HETATM   14  N7  UNL     1     -36.757   7.308  14.217  1.00  0.00    -0.293 N 
HETATM   15  C21 UNL     1     -36.796   6.804  15.479  1.00  0.00     0.169 A 
ENDROOT
BRANCH  14  16
HETATM   16  C12 UNL     1     -36.257   8.601  13.805  1.00  0.00     0.262 C 
HETATM   17  O6  UNL     1     -34.996   8.898  14.322  1.00  0.00    -0.347 OA
HETATM   18  C13 UNL     1     -34.316   9.807  13.554  1.00  0.00     0.244 C 
HETATM   19  C15 UNL     1     -35.261  10.831  12.942  1.00  0.00     0.187 C 
HETATM   20  C16 UNL     1     -36.475  11.039  13.837  1.00  0.00     0.186 C 
HETATM   21  C20 UNL     1     -37.243   9.707  13.859  1.00  0.00     0.199 C 
BRANCH  18  22
HETATM   22  C14 UNL     1     -33.247  10.424  14.361  1.00  0.00     0.262 C 
HETATM   23  N8  UNL     1     -32.015  10.804  13.800  1.00  0.00    -0.060 NA
HETATM   24  O7  UNL     1     -33.443  10.617  15.580  1.00  0.00    -0.274 OA
ENDBRANCH  18  22
BRANCH  19  25
HETATM   25  O8  UNL     1     -34.539  11.988  12.777  1.00  0.00    -0.390 OA
ATOM     26  H8  UNL     1     -34.988  12.499  12.113  1.00  0.00     0.210 HD
ENDBRANCH  19  25
BRANCH  20  27
HETATM   27  O9  UNL     1     -37.299  11.956  13.290  1.00  0.00    -0.378 OA
BRANCH  27  28
HETATM   28  C17 UNL     1     -37.534  13.139  13.886  1.00  0.00     0.202 C 
BRANCH  28  29
HETATM   29  C18 UNL     1     -38.337  14.162  13.169  1.00  0.00     0.165 C 
BRANCH  29  30
HETATM   30  O10 UNL     1     -38.734  15.255  13.927  1.00  0.00    -0.391 OA
ATOM     31  H10 UNL     1     -39.143  15.963  13.445  1.00  0.00     0.210 HD
ENDBRANCH  29  30
BRANCH  29  32
HETATM   32  C19 UNL     1     -37.428  14.742  12.071  1.00  0.00     0.198 C 
BRANCH  32  33
HETATM   33  O11 UNL     1     -36.093  14.476  12.337  1.00  0.00    -0.398 OA
ATOM     34  H11 UNL     1     -35.524  14.965  11.753  1.00  0.00     0.209 HD
ENDBRANCH  32  33
ENDBRANCH  29  32
ENDBRANCH  28  29
ENDBRANCH  27  28
ENDBRANCH  20  27
BRANCH  21  35
HETATM   35  O12 UNL     1     -38.032   9.637  12.686  1.00  0.00    -0.388 OA
ATOM     36  H12 UNL     1     -38.181  10.526  12.385  1.00  0.00     0.210 HD
ENDBRANCH  21  35
ENDBRANCH  14  16
BRANCH  12  37
HETATM   37  O5  UNL     1     -37.196   7.268  11.255  1.00  0.00    -0.344 OA
ATOM     38  H5  UNL     1     -36.553   7.111  10.573  1.00  0.00     0.219 HD
ENDBRANCH  12  37
BRANCH   1  39
HETATM   39  S1  UNL     1     -35.737   8.625  17.431  1.00  0.00    -0.112 SA
HETATM   40  C1  UNL     1     -35.999   8.696  19.203  1.00  0.00     0.097 C 
ENDBRANCH   1  39
BRANCH   8  41
HETATM   41  N4  UNL     1     -38.537   3.065  14.552  1.00  0.00    -0.321 N 
HETATM   42  C5  UNL     1     -37.662   2.055  14.979  1.00  0.00     0.253 C 
HETATM   43  O1  UNL     1     -36.481   2.041  14.574  1.00  0.00    -0.270 OA
ATOM     44  H4  UNL     1     -39.494   3.034  14.905  1.00  0.00     0.169 HD
BRANCH  42  45
HETATM   45  C6  UNL     1     -38.119   1.007  15.907  1.00  0.00     0.233 C 
BRANCH  45  46
HETATM   46  O2  UNL     1     -39.532   0.986  15.974  1.00  0.00    -0.384 OA
ATOM     47  H2  UNL     1     -39.898   1.741  15.528  1.00  0.00     0.210 HD
ENDBRANCH  45  46
BRANCH  45  48
HETATM   48  C7  UNL     1     -37.606  -0.358  15.591  1.00  0.00     0.205 C 
BRANCH  48  49
HETATM   49  O3  UNL     1     -36.382  -0.636  16.144  1.00  0.00    -0.398 OA
ATOM     50  H3  UNL     1     -36.360  -1.440  16.650  1.00  0.00     0.209 HD
ENDBRANCH  48  49
ENDBRANCH  45  48
ENDBRANCH  42  45
ENDBRANCH   8  41
BRANCH   9  51
HETATM   51  C9  UNL     1     -39.032   2.902  11.732  1.00  0.00     0.283 C 
HETATM   52  N5  UNL     1     -40.311   2.496  12.150  1.00  0.00    -0.056 NA
HETATM   53  O4  UNL     1     -38.438   2.265  10.851  1.00  0.00    -0.269 OA
ENDBRANCH   9  51
TORSDOF 18
ENDMDL
MODEL 3
REMARK VINA RESULT: -8.533019548      4.819      7.995
REMARK  18 active torsions:
REMARK  status: ('A' for Active; 'I' for Inactive)
REMARK    1  A    between atoms: S1_2  and  C2_3 
REMARK    2  A    between atoms: C4_10  and  N4_11 
REMARK       I    between atoms: N4_11  and  C5_13 
REMARK    3  A    between atoms: C5_13  and  C6_15 
REMARK    4  A    between atoms: C6_15  and  O2_16 
REMARK    5  A    between atoms: C6_15  and  C7_18 
REMARK    6  A    between atoms: C7_18  and  O3_19 
REMARK    7  A    between atoms: C8_21  and  C9_22 
REMARK    8  A    between atoms: C10_27  and  O5_28 
REMARK    9  A    between atoms: N7_31  and  C12_32 
REMARK   10  A    between atoms: C13_34  and  C14_35 
REMARK   11  A    between atoms: C15_38  and  O8_39 
REMARK   12  A    between atoms: C16_41  and  O9_42 
REMARK   13  A    between atoms: O9_42  and  C17_43 
REMARK   14  A    between atoms: C17_43  and  C18_44 
REMARK   15  A    between atoms: C18_44  and  O10_45 
REMARK   16  A    between atoms: C18_44  and  C19_47 
REMARK   17  A    between atoms: C19_47  and  O11_48 
REMARK   18  A    between atoms: C20_50  and  O12_51 
ROOT
HETATM    1  C2  UNL     1     -39.091   7.707  11.599  1.00  0.00     0.132 A 
HETATM    2  N1  UNL     1     -38.840   8.550  12.616  1.00  0.00    -0.276 N 
ATOM      3  H1  UNL     1     -38.934   9.564  12.554  1.00  0.00     0.189 HD
HETATM    4  N2  UNL     1     -38.458   7.907  13.702  1.00  0.00    -0.233 N 
ATOM      5  H2  UNL     1     -38.211   8.320  14.602  1.00  0.00     0.209 HD
HETATM    6  N3  UNL     1     -38.460   6.620  13.392  1.00  0.00    -0.218 N 
HETATM    7  C3  UNL     1     -38.215   5.401  13.902  1.00  0.00     0.120 A 
HETATM    8  C4  UNL     1     -37.798   5.011  15.165  1.00  0.00     0.098 A 
HETATM    9  C8  UNL     1     -37.628   3.680  15.409  1.00  0.00     0.129 A 
HETATM   10  N6  UNL     1     -37.869   2.772  14.412  1.00  0.00    -0.329 N 
ATOM     11  H6  UNL     1     -37.740   1.777  14.596  1.00  0.00     0.168 HD
HETATM   12  C10 UNL     1     -38.266   3.166  13.212  1.00  0.00     0.171 A 
HETATM   13  C11 UNL     1     -38.459   4.493  12.894  1.00  0.00     0.121 A 
HETATM   14  N7  UNL     1     -38.849   5.135  11.775  1.00  0.00    -0.293 N 
HETATM   15  C21 UNL     1     -38.841   6.451  12.113  1.00  0.00     0.169 A 
ENDROOT
BRANCH  14  16
HETATM   16  C12 UNL     1     -39.199   4.562  10.494  1.00  0.00     0.262 C 
HETATM   17  O6  UNL     1     -40.514   4.102  10.433  1.00  0.00    -0.347 OA
HETATM   18  C13 UNL     1     -40.999   4.067   9.152  1.00  0.00     0.244 C 
HETATM   19  C15 UNL     1     -39.907   3.695   8.157  1.00  0.00     0.187 C 
HETATM   20  C16 UNL     1     -38.862   2.807   8.820  1.00  0.00     0.186 C 
HETATM   21  C20 UNL     1     -38.182   3.659   9.905  1.00  0.00     0.199 C 
BRANCH  18  22
HETATM   22  C14 UNL     1     -42.160   3.159   9.094  1.00  0.00     0.262 C 
HETATM   23  N8  UNL     1     -43.352   3.514   8.438  1.00  0.00    -0.060 NA
HETATM   24  O7  UNL     1     -42.082   2.039   9.644  1.00  0.00    -0.274 OA
ENDBRANCH  18  22
BRANCH  19  25
HETATM   25  O8  UNL     1     -40.527   3.062   7.107  1.00  0.00    -0.390 OA
ATOM     26  H8  UNL     1     -40.202   3.469   6.312  1.00  0.00     0.210 HD
ENDBRANCH  19  25
BRANCH  20  27
HETATM   27  O9  UNL     1     -37.907   2.475   7.927  1.00  0.00    -0.378 OA
BRANCH  27  28
HETATM   28  C17 UNL     1     -37.488   1.205   7.781  1.00  0.00     0.202 C 
BRANCH  28  29
HETATM   29  C18 UNL     1     -36.148   0.951   7.194  1.00  0.00     0.165 C 
BRANCH  29  30
HETATM   30  O10 UNL     1     -36.062   1.083   5.815  1.00  0.00    -0.391 OA
ATOM     31  H10 UNL     1     -35.740   1.920   5.502  1.00  0.00     0.210 HD
ENDBRANCH  29  30
BRANCH  29  32
HETATM   32  C19 UNL     1     -35.209   2.029   7.762  1.00  0.00     0.198 C 
BRANCH  32  33
HETATM   33  O11 UNL     1     -35.436   3.257   7.159  1.00  0.00    -0.398 OA
ATOM     34  H11 UNL     1     -35.429   3.960   7.799  1.00  0.00     0.209 HD
ENDBRANCH  32  33
ENDBRANCH  29  32
ENDBRANCH  28  29
ENDBRANCH  27  28
ENDBRANCH  20  27
BRANCH  21  35
HETATM   35  O12 UNL     1     -37.202   4.465   9.278  1.00  0.00    -0.388 OA
ATOM     36  H12 UNL     1     -36.939   4.029   8.476  1.00  0.00     0.210 HD
ENDBRANCH  21  35
ENDBRANCH  14  16
BRANCH  12  37
HETATM   37  O5  UNL     1     -38.492   2.199  12.249  1.00  0.00    -0.344 OA
ATOM     38  H5  UNL     1     -38.898   2.466  11.433  1.00  0.00     0.219 HD
ENDBRANCH  12  37
BRANCH   1  39
HETATM   39  S1  UNL     1     -39.635   8.157   9.943  1.00  0.00    -0.112 SA
HETATM   40  C1  UNL     1     -39.839   9.935   9.853  1.00  0.00     0.097 C 
ENDBRANCH   1  39
BRANCH   8  41
HETATM   41  N4  UNL     1     -37.578   6.007  16.123  1.00  0.00    -0.321 N 
HETATM   42  C5  UNL     1     -36.406   6.767  16.253  1.00  0.00     0.253 C 
HETATM   43  O1  UNL     1     -35.447   6.573  15.477  1.00  0.00    -0.270 OA
ATOM     44  H4  UNL     1     -38.333   6.196  16.782  1.00  0.00     0.169 HD
BRANCH  42  45
HETATM   45  C6  UNL     1     -36.291   7.798  17.298  1.00  0.00     0.233 C 
BRANCH  45  46
HETATM   46  O2  UNL     1     -36.563   9.079  16.762  1.00  0.00    -0.384 OA
ATOM     47  H2  UNL     1     -36.149   9.754  17.287  1.00  0.00     0.210 HD
ENDBRANCH  45  46
BRANCH  45  48
HETATM   48  C7  UNL     1     -37.148   7.556  18.495  1.00  0.00     0.205 C 
BRANCH  48  49
HETATM   49  O3  UNL     1     -36.861   6.391  19.161  1.00  0.00    -0.398 OA
ATOM     50  H3  UNL     1     -37.500   6.158  19.825  1.00  0.00     0.209 HD
ENDBRANCH  48  49
ENDBRANCH  45  48
ENDBRANCH  42  45
ENDBRANCH   8  41
BRANCH   9  51
HETATM   51  C9  UNL     1     -37.216   3.225  16.719  1.00  0.00     0.283 C 
HETATM   52  N5  UNL     1     -37.303   1.859  17.037  1.00  0.00    -0.056 NA
HETATM   53  O4  UNL     1     -36.788   4.030  17.558  1.00  0.00    -0.269 OA
ENDBRANCH   9  51
TORSDOF 18
ENDMDL
MODEL 4
REMARK VINA RESULT: -8.436811808      4.633      7.676
REMARK  18 active torsions:
REMARK  status: ('A' for Active; 'I' for Inactive)
REMARK    1  A    between atoms: S1_2  and  C2_3 
REMARK    2  A    between atoms: C4_10  and  N4_11 
REMARK       I    between atoms: N4_11  and  C5_13 
REMARK    3  A    between atoms: C5_13  and  C6_15 
REMARK    4  A    between atoms: C6_15  and  O2_16 
REMARK    5  A    between atoms: C6_15  and  C7_18 
REMARK    6  A    between atoms: C7_18  and  O3_19 
REMARK    7  A    between atoms: C8_21  and  C9_22 
REMARK    8  A    between atoms: C10_27  and  O5_28 
REMARK    9  A    between atoms: N7_31  and  C12_32 
REMARK   10  A    between atoms: C13_34  and  C14_35 
REMARK   11  A    between atoms: C15_38  and  O8_39 
REMARK   12  A    between atoms: C16_41  and  O9_42 
REMARK   13  A    between atoms: O9_42  and  C17_43 
REMARK   14  A    between atoms: C17_43  and  C18_44 
REMARK   15  A    between atoms: C18_44  and  O10_45 
REMARK   16  A    between atoms: C18_44  and  C19_47 
REMARK   17  A    between atoms: C19_47  and  O11_48 
REMARK   18  A    between atoms: C20_50  and  O12_51 
ROOT
HETATM    1  C2  UNL     1     -38.375   2.671  14.214  1.00  0.00     0.132 A 
HETATM    2  N1  UNL     1     -38.228   2.995  15.510  1.00  0.00    -0.276 N 
ATOM      3  H1  UNL     1     -38.311   2.329  16.279  1.00  0.00     0.189 HD
HETATM    4  N2  UNL     1     -37.964   4.277  15.668  1.00  0.00    -0.233 N 
ATOM      5  H2  UNL     1     -37.811   4.767  16.550  1.00  0.00     0.209 HD
HETATM    6  N3  UNL     1     -37.935   4.803  14.452  1.00  0.00    -0.218 N 
HETATM    7  C3  UNL     1     -37.745   5.960  13.797  1.00  0.00     0.120 A 
HETATM    8  C4  UNL     1     -37.462   7.234  14.264  1.00  0.00     0.098 A 
HETATM    9  C8  UNL     1     -37.317   8.240  13.354  1.00  0.00     0.129 A 
HETATM   10  N6  UNL     1     -37.455   7.971  12.018  1.00  0.00    -0.329 N 
ATOM     11  H6  UNL     1     -37.346   8.726  11.340  1.00  0.00     0.168 HD
HETATM   12  C10 UNL     1     -37.726   6.747  11.594  1.00  0.00     0.171 A 
HETATM   13  C11 UNL     1     -37.885   5.682  12.454  1.00  0.00     0.121 A 
HETATM   14  N7  UNL     1     -38.158   4.374  12.276  1.00  0.00    -0.293 N 
HETATM   15  C21 UNL     1     -38.182   3.854  13.531  1.00  0.00     0.169 A 
ENDROOT
BRANCH  14  16
HETATM   16  C12 UNL     1     -38.378   3.670  11.032  1.00  0.00     0.262 C 
HETATM   17  O6  UNL     1     -37.286   3.718  10.167  1.00  0.00    -0.347 OA
HETATM   18  C13 UNL     1     -37.269   2.669   9.285  1.00  0.00     0.244 C 
HETATM   19  C15 UNL     1     -38.679   2.269   8.874  1.00  0.00     0.187 C 
HETATM   20  C16 UNL     1     -39.611   3.472   8.925  1.00  0.00     0.186 C 
HETATM   21  C20 UNL     1     -39.700   3.900  10.400  1.00  0.00     0.199 C 
BRANCH  18  22
HETATM   22  C14 UNL     1     -36.411   3.011   8.135  1.00  0.00     0.262 C 
HETATM   23  N8  UNL     1     -35.405   2.145   7.671  1.00  0.00    -0.060 NA
HETATM   24  O7  UNL     1     -36.585   4.104   7.554  1.00  0.00    -0.274 OA
ENDBRANCH  18  22
BRANCH  19  25
HETATM   25  O8  UNL     1     -38.588   1.743   7.607  1.00  0.00    -0.390 OA
ATOM     26  H8  UNL     1     -38.255   0.858   7.702  1.00  0.00     0.210 HD
ENDBRANCH  19  25
BRANCH  20  27
HETATM   27  O9  UNL     1     -40.854   3.108   8.549  1.00  0.00    -0.378 OA
BRANCH  27  28
HETATM   28  C17 UNL     1     -41.584   3.860   7.706  1.00  0.00     0.202 C 
BRANCH  28  29
HETATM   29  C18 UNL     1     -40.898   4.875   6.865  1.00  0.00     0.165 C 
BRANCH  29  30
HETATM   30  O10 UNL     1     -41.214   4.848   5.514  1.00  0.00    -0.391 OA
ATOM     31  H10 UNL     1     -41.264   5.696   5.087  1.00  0.00     0.210 HD
ENDBRANCH  29  30
BRANCH  29  32
HETATM   32  C19 UNL     1     -41.373   6.250   7.365  1.00  0.00     0.198 C 
BRANCH  32  33
HETATM   33  O11 UNL     1     -41.753   7.062   6.306  1.00  0.00    -0.398 OA
ATOM     34  H11 UNL     1     -42.333   7.756   6.598  1.00  0.00     0.209 HD
ENDBRANCH  32  33
ENDBRANCH  29  32
ENDBRANCH  28  29
ENDBRANCH  27  28
ENDBRANCH  20  27
BRANCH  21  35
HETATM   35  O12 UNL     1     -40.637   3.057  11.045  1.00  0.00    -0.388 OA
ATOM     36  H12 UNL     1     -41.490   3.471  10.981  1.00  0.00     0.210 HD
ENDBRANCH  21  35
ENDBRANCH  14  16
BRANCH  12  37
HETATM   37  O5  UNL     1     -37.853   6.542  10.232  1.00  0.00    -0.344 OA
ATOM     38  H5  UNL     1     -37.664   5.676   9.889  1.00  0.00     0.219 HD
ENDBRANCH  12  37
BRANCH   1  39
HETATM   39  S1  UNL     1     -38.740   1.037  13.552  1.00  0.00    -0.112 SA
HETATM   40  C1  UNL     1     -39.091  -0.082  14.908  1.00  0.00     0.097 C 
ENDBRANCH   1  39
BRANCH   8  41
HETATM   41  N4  UNL     1     -37.338   7.416  15.645  1.00  0.00    -0.321 N 
HETATM   42  C5  UNL     1     -36.145   7.315  16.377  1.00  0.00     0.253 C 
HETATM   43  O1  UNL     1     -35.077   7.035  15.794  1.00  0.00    -0.270 OA
ATOM     44  H4  UNL     1     -38.187   7.642  16.164  1.00  0.00     0.169 HD
BRANCH  42  45
HETATM   45  C6  UNL     1     -36.135   7.537  17.833  1.00  0.00     0.233 C 
BRANCH  45  46
HETATM   46  O2  UNL     1     -35.972   8.912  18.123  1.00  0.00    -0.384 OA
ATOM     47  H2  UNL     1     -36.452   9.146  18.909  1.00  0.00     0.210 HD
ENDBRANCH  45  46
BRANCH  45  48
HETATM   48  C7  UNL     1     -37.337   7.009  18.543  1.00  0.00     0.205 C 
BRANCH  48  49
HETATM   49  O3  UNL     1     -37.902   5.913  17.942  1.00  0.00    -0.398 OA
ATOM     50  H3  UNL     1     -37.612   5.082  18.302  1.00  0.00     0.209 HD
ENDBRANCH  48  49
ENDBRANCH  45  48
ENDBRANCH  42  45
ENDBRANCH   8  41
BRANCH   9  51
HETATM   51  C9  UNL     1     -36.999   9.581  13.795  1.00  0.00     0.283 C 
HETATM   52  N5  UNL     1     -36.050  10.337  13.085  1.00  0.00    -0.056 NA
HETATM   53  O4  UNL     1     -37.558  10.065  14.789  1.00  0.00    -0.269 OA
ENDBRANCH   9  51
TORSDOF 18
ENDMDL
MODEL 5
REMARK VINA RESULT: -8.352397322      4.168      9.324
REMARK  18 active torsions:
REMARK  status: ('A' for Active; 'I' for Inactive)
REMARK    1  A    between atoms: S1_2  and  C2_3 
REMARK    2  A    between atoms: C4_10  and  N4_11 
REMARK       I    between atoms: N4_11  and  C5_13 
REMARK    3  A    between atoms: C5_13  and  C6_15 
REMARK    4  A    between atoms: C6_15  and  O2_16 
REMARK    5  A    between atoms: C6_15  and  C7_18 
REMARK    6  A    between atoms: C7_18  and  O3_19 
REMARK    7  A    between atoms: C8_21  and  C9_22 
REMARK    8  A    between atoms: C10_27  and  O5_28 
REMARK    9  A    between atoms: N7_31  and  C12_32 
REMARK   10  A    between atoms: C13_34  and  C14_35 
REMARK   11  A    between atoms: C15_38  and  O8_39 
REMARK   12  A    between atoms: C16_41  and  O9_42 
REMARK   13  A    between atoms: O9_42  and  C17_43 
REMARK   14  A    between atoms: C17_43  and  C18_44 
REMARK   15  A    between atoms: C18_44  and  O10_45 
REMARK   16  A    between atoms: C18_44  and  C19_47 
REMARK   17  A    between atoms: C19_47  and  O11_48 
REMARK   18  A    between atoms: C20_50  and  O12_51 
ROOT
HETATM    1  C2  UNL     1     -40.031   7.738   9.033  1.00  0.00     0.132 A 
HETATM    2  N1  UNL     1     -40.180   9.058   9.243  1.00  0.00    -0.276 N 
ATOM      3  H1  UNL     1     -40.725   9.674   8.641  1.00  0.00     0.189 HD
HETATM    4  N2  UNL     1     -39.537   9.458  10.322  1.00  0.00    -0.233 N 
ATOM      5  H2  UNL     1     -39.495  10.408  10.693  1.00  0.00     0.209 HD
HETATM    6  N3  UNL     1     -38.956   8.381  10.829  1.00  0.00    -0.218 N 
HETATM    7  C3  UNL     1     -38.179   7.968  11.845  1.00  0.00     0.120 A 
HETATM    8  C4  UNL     1     -37.618   8.667  12.903  1.00  0.00     0.098 A 
HETATM    9  C8  UNL     1     -36.859   7.979  13.803  1.00  0.00     0.129 A 
HETATM   10  N6  UNL     1     -36.670   6.632  13.643  1.00  0.00    -0.329 N 
ATOM     11  H6  UNL     1     -36.102   6.120  14.317  1.00  0.00     0.168 HD
HETATM   12  C10 UNL     1     -37.215   5.984  12.624  1.00  0.00     0.171 A 
HETATM   13  C11 UNL     1     -37.994   6.613  11.677  1.00  0.00     0.121 A 
HETATM   14  N7  UNL     1     -38.644   6.188  10.575  1.00  0.00    -0.293 N 
HETATM   15  C21 UNL     1     -39.232   7.305  10.071  1.00  0.00     0.169 A 
ENDROOT
BRANCH  14  16
HETATM   16  C12 UNL     1     -38.709   4.846  10.039  1.00  0.00     0.262 C 
HETATM   17  O6  UNL     1     -39.100   3.892  10.978  1.00  0.00    -0.347 OA
HETATM   18  C13 UNL     1     -39.664   2.786  10.398  1.00  0.00     0.244 C 
HETATM   19  C15 UNL     1     -39.006   2.465   9.063  1.00  0.00     0.187 C 
HETATM   20  C16 UNL     1     -37.553   2.922   9.062  1.00  0.00     0.186 C 
HETATM   21  C20 UNL     1     -37.572   4.455   9.172  1.00  0.00     0.199 C 
BRANCH  18  22
HETATM   22  C14 UNL     1     -39.615   1.658  11.347  1.00  0.00     0.262 C 
HETATM   23  N8  UNL     1     -38.498   1.424  12.168  1.00  0.00    -0.060 NA
HETATM   24  O7  UNL     1     -40.596   0.889  11.425  1.00  0.00    -0.274 OA
ENDBRANCH  18  22
BRANCH  19  25
HETATM   25  O8  UNL     1     -39.117   1.107   8.883  1.00  0.00    -0.390 OA
ATOM     26  H8  UNL     1     -38.237   0.775   8.751  1.00  0.00     0.210 HD
ENDBRANCH  19  25
BRANCH  20  27
HETATM   27  O9  UNL     1     -36.977   2.622   7.879  1.00  0.00    -0.378 OA
BRANCH  27  28
HETATM   28  C17 UNL     1     -35.834   1.917   7.810  1.00  0.00     0.202 C 
BRANCH  28  29
HETATM   29  C18 UNL     1     -35.897   0.468   7.490  1.00  0.00     0.165 C 
BRANCH  29  30
HETATM   30  O10 UNL     1     -36.633  -0.310   8.373  1.00  0.00    -0.391 OA
ATOM     31  H10 UNL     1     -37.546  -0.439   8.145  1.00  0.00     0.210 HD
ENDBRANCH  29  30
BRANCH  29  32
HETATM   32  C19 UNL     1     -36.629   0.349   6.142  1.00  0.00     0.198 C 
BRANCH  32  33
HETATM   33  O11 UNL     1     -38.000   0.244   6.325  1.00  0.00    -0.398 OA
ATOM     34  H11 UNL     1     -38.401   1.102   6.409  1.00  0.00     0.209 HD
ENDBRANCH  32  33
ENDBRANCH  29  32
ENDBRANCH  28  29
ENDBRANCH  27  28
ENDBRANCH  20  27
BRANCH  21  35
HETATM   35  O12 UNL     1     -37.813   4.984   7.881  1.00  0.00    -0.388 OA
ATOM     36  H12 UNL     1     -37.019   4.875   7.371  1.00  0.00     0.210 HD
ENDBRANCH  21  35
ENDBRANCH  14  16
BRANCH  12  37
HETATM   37  O5  UNL     1     -36.987   4.624  12.519  1.00  0.00    -0.344 OA
ATOM     38  H5  UNL     1     -37.673   4.031  12.802  1.00  0.00     0.219 HD
ENDBRANCH  12  37
BRANCH   1  39
HETATM   39  S1  UNL     1     -40.737   6.782   7.681  1.00  0.00    -0.112 SA
HETATM   40  C1  UNL     1     -40.590   7.716   6.159  1.00  0.00     0.097 C 
ENDBRANCH   1  39
BRANCH   8  41
HETATM   41  N4  UNL     1     -37.864  10.041  12.988  1.00  0.00    -0.321 N 
HETATM   42  C5  UNL     1     -36.937  11.055  12.704  1.00  0.00     0.253 C 
HETATM   43  O1  UNL     1     -35.779  10.758  12.344  1.00  0.00    -0.270 OA
ATOM     44  H4  UNL     1     -38.797  10.331  13.284  1.00  0.00     0.169 HD
BRANCH  42  45
HETATM   45  C6  UNL     1     -37.315  12.473  12.822  1.00  0.00     0.233 C 
BRANCH  45  46
HETATM   46  O2  UNL     1     -37.984  12.708  14.046  1.00  0.00    -0.384 OA
ATOM     47  H2  UNL     1     -37.390  13.088  14.683  1.00  0.00     0.210 HD
ENDBRANCH  45  46
BRANCH  45  48
HETATM   48  C7  UNL     1     -36.175  13.426  12.676  1.00  0.00     0.205 C 
BRANCH  48  49
HETATM   49  O3  UNL     1     -35.341  13.469  13.764  1.00  0.00    -0.398 OA
ATOM     50  H3  UNL     1     -35.018  14.339  13.970  1.00  0.00     0.209 HD
ENDBRANCH  48  49
ENDBRANCH  45  48
ENDBRANCH  42  45
ENDBRANCH   8  41
BRANCH   9  51
HETATM   51  C9  UNL     1     -36.272   8.663  14.935  1.00  0.00     0.283 C 
HETATM   52  N5  UNL     1     -34.875   8.675  15.089  1.00  0.00    -0.056 NA
HETATM   53  O4  UNL     1     -36.990   9.237  15.765  1.00  0.00    -0.269 OA
ENDBRANCH   9  51
TORSDOF 18
ENDMDL
