MODEL 1
REMARK VINA RESULT: -8.168193818      0.000      0.000
REMARK  20 active torsions:
REMARK  status: ('A' for Active; 'I' for Inactive)
REMARK    1  A    between atoms: C2_2  and  C3_3 
REMARK    2  A    between atoms: C3_3  and  O1_5 
REMARK    3  A    between atoms: O1_5  and  C5_6 
REMARK    4  A    between atoms: C5_6  and  O2_7 
REMARK    5  A    between atoms: O2_7  and  C6_8 
REMARK    6  A    between atoms: C8_10  and  N1_11 
REMARK    7  A    between atoms: C9_15  and  O3_16 
REMARK    8  A    between atoms: C12_21  and  O5_22 
REMARK    9  A    between atoms: C13_24  and  O6_25 
REMARK   10  A    between atoms: C14_27  and  O7_28 
REMARK   11  A    between atoms: O7_28  and  C15_29 
REMARK   12  A    between atoms: C16_30  and  N2_31 
REMARK   13  A    between atoms: C18_36  and  N3_37 
REMARK   14  A    between atoms: C19_41  and  O8_42 
REMARK   15  A    between atoms: O8_42  and  C20_43 
REMARK   16  A    between atoms: C21_45  and  N4_46 
REMARK   17  A    between atoms: C22_51  and  C23_52 
REMARK   18  A    between atoms: C23_52  and  N5_53 
REMARK   19  A    between atoms: C24_58  and  O12_59 
REMARK   20  A    between atoms: C25_61  and  O13_62 
ROOT
HETATM    1  C15 UNL     1     -37.843   6.951  12.667  1.00  0.00     0.183 C 
HETATM    2  C16 UNL     1     -38.362   7.337  11.303  1.00  0.00     0.217 C 
HETATM    3  C17 UNL     1     -38.253   6.289  10.259  1.00  0.00     0.071 C 
HETATM    4  C18 UNL     1     -38.903   5.008  10.654  1.00  0.00     0.217 C 
HETATM    5  C19 UNL     1     -39.061   4.778  12.111  1.00  0.00     0.188 C 
HETATM    6  C24 UNL     1     -38.120   5.513  13.001  1.00  0.00     0.180 C 
ENDROOT
BRANCH   1   7
HETATM    7  O7  UNL     1     -36.488   7.111  12.803  1.00  0.00    -0.370 OA
BRANCH   7   8
HETATM    8  C14 UNL     1     -35.985   7.977  13.704  1.00  0.00     0.187 C 
HETATM    9  C13 UNL     1     -36.484   9.343  13.758  1.00  0.00     0.184 C 
HETATM   10  C12 UNL     1     -35.356  10.178  14.319  1.00  0.00     0.214 C 
HETATM   11  C5  UNL     1     -34.278   9.164  14.742  1.00  0.00     0.225 C 
HETATM   12  C25 UNL     1     -34.464   8.182  13.551  1.00  0.00     0.215 C 
BRANCH   9  13
HETATM   13  O6  UNL     1     -36.804   9.925  12.533  1.00  0.00    -0.390 OA
ATOM     14  H6  UNL     1     -37.691   9.644  12.343  1.00  0.00     0.210 HD
ENDBRANCH   9  13
BRANCH  10  15
HETATM   15  O5  UNL     1     -34.742  10.940  13.288  1.00  0.00    -0.387 OA
ATOM     16  H5  UNL     1     -35.446  11.127  12.679  1.00  0.00     0.210 HD
ENDBRANCH  10  15
BRANCH  11  17
HETATM   17  O1  UNL     1     -34.701   8.508  15.831  1.00  0.00    -0.342 OA
BRANCH  17  18
HETATM   18  C3  UNL     1     -35.423   9.116  16.806  1.00  0.00     0.143 C 
HETATM   19  C4  UNL     1     -36.443   8.028  17.304  1.00  0.00     0.044 C 
BRANCH  18  20
HETATM   20  C2  UNL     1     -34.581   9.313  18.023  1.00  0.00    -0.006 C 
HETATM   21  C1  UNL     1     -34.933   9.744  19.184  1.00  0.00     0.009 C 
ENDBRANCH  18  20
ENDBRANCH  17  18
ENDBRANCH  11  17
BRANCH  11  22
HETATM   22  O2  UNL     1     -33.093   9.779  14.671  1.00  0.00    -0.320 OA
BRANCH  22  23
HETATM   23  C6  UNL     1     -32.014   9.322  15.394  1.00  0.00     0.266 C 
HETATM   24  C7  UNL     1     -31.114  10.480  15.667  1.00  0.00     0.096 C 
HETATM   25  C8  UNL     1     -29.664  10.191  15.798  1.00  0.00     0.219 C 
HETATM   26  C9  UNL     1     -29.231   8.854  15.305  1.00  0.00     0.177 C 
HETATM   27  C10 UNL     1     -30.203   8.400  14.206  1.00  0.00     0.151 C 
HETATM   28  C11 UNL     1     -30.030   9.173  12.930  1.00  0.00     0.042 C 
HETATM   29  O4  UNL     1     -31.474   8.290  14.642  1.00  0.00    -0.354 OA
BRANCH  25  30
HETATM   30  N1  UNL     1     -29.230  10.295  17.198  1.00  0.00    -0.072 N 
ATOM     31  H13 UNL     1     -28.679  11.138  17.360  1.00  0.00     0.274 HD
ATOM     32  H12 UNL     1     -30.012  10.499  17.820  1.00  0.00     0.274 HD
ATOM     33  H11 UNL     1     -28.728   9.456  17.488  1.00  0.00     0.274 HD
ENDBRANCH  25  30
BRANCH  26  34
HETATM   34  O3  UNL     1     -27.946   8.836  14.791  1.00  0.00    -0.391 OA
ATOM     35  H3  UNL     1     -27.597   7.962  14.658  1.00  0.00     0.210 HD
ENDBRANCH  26  34
ENDBRANCH  22  23
ENDBRANCH  11  22
BRANCH  12  36
HETATM   36  O13 UNL     1     -33.902   6.953  13.864  1.00  0.00    -0.387 OA
ATOM     37  H13 UNL     1     -33.025   6.899  13.502  1.00  0.00     0.210 HD
ENDBRANCH  12  36
ENDBRANCH   7   8
ENDBRANCH   1   7
BRANCH   2  38
HETATM   38  N2  UNL     1     -39.722   7.885  11.404  1.00  0.00    -0.072 N 
ATOM     39  H23 UNL     1     -40.363   7.228  11.850  1.00  0.00     0.274 HD
ATOM     40  H22 UNL     1     -39.777   8.640  12.088  1.00  0.00     0.274 HD
ATOM     41  H21 UNL     1     -40.059   8.179  10.487  1.00  0.00     0.274 HD
ENDBRANCH   2  38
BRANCH   6  42
HETATM   42  O12 UNL     1     -36.912   4.762  12.959  1.00  0.00    -0.390 OA
ATOM     43  H12 UNL     1     -37.003   3.972  13.478  1.00  0.00     0.210 HD
ENDBRANCH   6  42
BRANCH   5  44
HETATM   44  O8  UNL     1     -38.804   3.392  12.304  1.00  0.00    -0.329 OA
BRANCH  44  45
HETATM   45  C20 UNL     1     -39.912   2.671  12.651  1.00  0.00     0.419 C 
HETATM   46  O9  UNL     1     -40.265   1.866  11.567  1.00  0.00    -0.284 OA
HETATM   47  C21 UNL     1     -39.388   0.818  11.374  1.00  0.00     0.472 C 
HETATM   48  O10 UNL     1     -39.266   0.063  12.516  1.00  0.00    -0.306 OA
HETATM   49  C22 UNL     1     -38.908   0.822  13.625  1.00  0.00     0.295 C 
HETATM   50  O11 UNL     1     -39.670   1.950  13.795  1.00  0.00    -0.306 OA
BRANCH  47  51
HETATM   51  N4  UNL     1     -39.919  -0.036  10.321  1.00  0.00    -0.029 N 
ATOM     52  H43 UNL     1     -40.711  -0.598  10.633  1.00  0.00     0.280 HD
ATOM     53  H42 UNL     1     -40.401   0.492   9.593  1.00  0.00     0.280 HD
ATOM     54  H41 UNL     1     -39.155  -0.604   9.953  1.00  0.00     0.280 HD
ENDBRANCH  47  51
BRANCH  49  55
HETATM   55  C23 UNL     1     -38.931  -0.083  14.844  1.00  0.00     0.290 C 
BRANCH  55  56
HETATM   56  N5  UNL     1     -39.289   0.633  16.039  1.00  0.00    -0.075 N 
ATOM     57  H53 UNL     1     -39.025   1.616  15.975  1.00  0.00     0.274 HD
ATOM     58  H52 UNL     1     -40.300   0.742  16.116  1.00  0.00     0.274 HD
ATOM     59  H51 UNL     1     -38.899   0.199  16.875  1.00  0.00     0.274 HD
ENDBRANCH  55  56
ENDBRANCH  49  55
ENDBRANCH  44  45
ENDBRANCH   5  44
BRANCH   4  60
HETATM   60  N3  UNL     1     -38.177   3.939   9.980  1.00  0.00    -0.072 N 
ATOM     61  H33 UNL     1     -37.384   4.275   9.433  1.00  0.00     0.274 HD
ATOM     62  H32 UNL     1     -37.650   3.345  10.620  1.00  0.00     0.274 HD
ATOM     63  H31 UNL     1     -38.859   3.422   9.424  1.00  0.00     0.274 HD
ENDBRANCH   4  60
TORSDOF 20
ENDMDL
MODEL 2
REMARK VINA RESULT: -8.149562333      2.644     10.117
REMARK  20 active torsions:
REMARK  status: ('A' for Active; 'I' for Inactive)
REMARK    1  A    between atoms: C2_2  and  C3_3 
REMARK    2  A    between atoms: C3_3  and  O1_5 
REMARK    3  A    between atoms: O1_5  and  C5_6 
REMARK    4  A    between atoms: C5_6  and  O2_7 
REMARK    5  A    between atoms: O2_7  and  C6_8 
REMARK    6  A    between atoms: C8_10  and  N1_11 
REMARK    7  A    between atoms: C9_15  and  O3_16 
REMARK    8  A    between atoms: C12_21  and  O5_22 
REMARK    9  A    between atoms: C13_24  and  O6_25 
REMARK   10  A    between atoms: C14_27  and  O7_28 
REMARK   11  A    between atoms: O7_28  and  C15_29 
REMARK   12  A    between atoms: C16_30  and  N2_31 
REMARK   13  A    between atoms: C18_36  and  N3_37 
REMARK   14  A    between atoms: C19_41  and  O8_42 
REMARK   15  A    between atoms: O8_42  and  C20_43 
REMARK   16  A    between atoms: C21_45  and  N4_46 
REMARK   17  A    between atoms: C22_51  and  C23_52 
REMARK   18  A    between atoms: C23_52  and  N5_53 
REMARK   19  A    between atoms: C24_58  and  O12_59 
REMARK   20  A    between atoms: C25_61  and  O13_62 
ROOT
HETATM    1  C15 UNL     1     -35.713   8.278  14.171  1.00  0.00     0.183 C 
HETATM    2  C16 UNL     1     -35.320   7.494  15.399  1.00  0.00     0.217 C 
HETATM    3  C17 UNL     1     -33.863   7.293  15.588  1.00  0.00     0.071 C 
HETATM    4  C18 UNL     1     -33.097   8.571  15.593  1.00  0.00     0.217 C 
HETATM    5  C19 UNL     1     -33.741   9.720  14.909  1.00  0.00     0.188 C 
HETATM    6  C24 UNL     1     -34.746   9.386  13.862  1.00  0.00     0.180 C 
ENDROOT
BRANCH   1   7
HETATM    7  O7  UNL     1     -35.782   7.516  13.033  1.00  0.00    -0.370 OA
BRANCH   7   8
HETATM    8  C14 UNL     1     -36.890   6.805  12.747  1.00  0.00     0.187 C 
HETATM    9  C13 UNL     1     -38.204   7.352  13.049  1.00  0.00     0.184 C 
HETATM   10  C12 UNL     1     -39.115   6.163  13.252  1.00  0.00     0.214 C 
HETATM   11  C5  UNL     1     -38.269   4.938  12.860  1.00  0.00     0.225 C 
HETATM   12  C25 UNL     1     -36.923   5.438  13.458  1.00  0.00     0.215 C 
BRANCH   9  13
HETATM   13  O6  UNL     1     -38.299   8.097  14.223  1.00  0.00    -0.390 OA
ATOM     14  H6  UNL     1     -37.826   7.599  14.878  1.00  0.00     0.210 HD
ENDBRANCH   9  13
BRANCH  10  15
HETATM   15  O5  UNL     1     -39.390   5.977  14.634  1.00  0.00    -0.387 OA
ATOM     16  H5  UNL     1     -39.488   6.858  14.977  1.00  0.00     0.210 HD
ENDBRANCH  10  15
BRANCH  11  17
HETATM   17  O1  UNL     1     -38.101   4.933  11.531  1.00  0.00    -0.342 OA
BRANCH  17  18
HETATM   18  C3  UNL     1     -39.135   5.125  10.671  1.00  0.00     0.143 C 
HETATM   19  C4  UNL     1     -38.523   5.927   9.465  1.00  0.00     0.044 C 
BRANCH  18  20
HETATM   20  C2  UNL     1     -39.504   3.836  10.015  1.00  0.00    -0.006 C 
HETATM   21  C1  UNL     1     -40.510   3.070  10.256  1.00  0.00     0.009 C 
ENDBRANCH  18  20
ENDBRANCH  17  18
ENDBRANCH  11  17
BRANCH  11  22
HETATM   22  O2  UNL     1     -38.734   3.889  13.545  1.00  0.00    -0.320 OA
BRANCH  22  23
HETATM   23  C6  UNL     1     -38.284   2.615  13.280  1.00  0.00     0.266 C 
HETATM   24  C7  UNL     1     -39.405   1.664  13.537  1.00  0.00     0.096 C 
HETATM   25  C8  UNL     1     -39.038   0.295  13.978  1.00  0.00     0.219 C 
HETATM   26  C9  UNL     1     -37.634   0.127  14.446  1.00  0.00     0.177 C 
HETATM   27  C10 UNL     1     -37.135   1.474  14.989  1.00  0.00     0.151 C 
HETATM   28  C11 UNL     1     -37.764   1.832  16.304  1.00  0.00     0.042 C 
HETATM   29  O4  UNL     1     -37.150   2.451  14.060  1.00  0.00    -0.354 OA
BRANCH  25  30
HETATM   30  N1  UNL     1     -39.254  -0.681  12.902  1.00  0.00    -0.072 N 
ATOM     31  H13 UNL     1     -38.463  -0.714  12.259  1.00  0.00     0.274 HD
ATOM     32  H12 UNL     1     -39.211  -1.639  13.249  1.00  0.00     0.274 HD
ATOM     33  H11 UNL     1     -40.130  -0.497  12.412  1.00  0.00     0.274 HD
ENDBRANCH  25  30
BRANCH  26  34
HETATM   34  O3  UNL     1     -37.484  -0.830  15.434  1.00  0.00    -0.391 OA
ATOM     35  H3  UNL     1     -36.972  -1.585  15.165  1.00  0.00     0.210 HD
ENDBRANCH  26  34
ENDBRANCH  22  23
ENDBRANCH  11  22
BRANCH  12  36
HETATM   36  O13 UNL     1     -35.871   4.720  12.911  1.00  0.00    -0.387 OA
ATOM     37  H13 UNL     1     -35.048   5.152  13.110  1.00  0.00     0.210 HD
ENDBRANCH  12  36
ENDBRANCH   7   8
ENDBRANCH   1   7
BRANCH   2  38
HETATM   38  N2  UNL     1     -35.967   8.051  16.596  1.00  0.00    -0.072 N 
ATOM     39  H23 UNL     1     -36.678   8.742  16.356  1.00  0.00     0.274 HD
ATOM     40  H22 UNL     1     -36.569   7.366  17.055  1.00  0.00     0.274 HD
ATOM     41  H21 UNL     1     -35.270   8.432  17.236  1.00  0.00     0.274 HD
ENDBRANCH   2  38
BRANCH   6  42
HETATM   42  O12 UNL     1     -33.981   9.058  12.709  1.00  0.00    -0.390 OA
ATOM     43  H12 UNL     1     -34.475   9.261  11.923  1.00  0.00     0.210 HD
ENDBRANCH   6  42
BRANCH   5  44
HETATM   44  O8  UNL     1     -32.682  10.406  14.251  1.00  0.00    -0.329 OA
BRANCH  44  45
HETATM   45  C20 UNL     1     -31.993  11.263  15.065  1.00  0.00     0.419 C 
HETATM   46  O9  UNL     1     -30.630  11.007  14.911  1.00  0.00    -0.284 OA
HETATM   47  C21 UNL     1     -30.142  11.439  13.694  1.00  0.00     0.472 C 
HETATM   48  O10 UNL     1     -30.406  12.774  13.504  1.00  0.00    -0.306 OA
HETATM   49  C22 UNL     1     -31.758  13.078  13.641  1.00  0.00     0.295 C 
HETATM   50  O11 UNL     1     -32.329  12.563  14.778  1.00  0.00    -0.306 OA
BRANCH  47  51
HETATM   51  N4  UNL     1     -28.697  11.260  13.690  1.00  0.00    -0.029 N 
ATOM     52  H43 UNL     1     -28.209  11.993  14.205  1.00  0.00     0.280 HD
ATOM     53  H42 UNL     1     -28.398  10.468  14.260  1.00  0.00     0.280 HD
ATOM     54  H41 UNL     1     -28.385  11.186  12.722  1.00  0.00     0.280 HD
ENDBRANCH  47  51
BRANCH  49  55
HETATM   55  C23 UNL     1     -31.915  14.585  13.544  1.00  0.00     0.290 C 
BRANCH  55  56
HETATM   56  N5  UNL     1     -32.297  15.001  12.221  1.00  0.00    -0.075 N 
ATOM     57  H53 UNL     1     -32.099  15.991  12.073  1.00  0.00     0.274 HD
ATOM     58  H52 UNL     1     -31.676  14.606  11.515  1.00  0.00     0.274 HD
ATOM     59  H51 UNL     1     -33.273  14.784  12.019  1.00  0.00     0.274 HD
ENDBRANCH  55  56
ENDBRANCH  49  55
ENDBRANCH  44  45
ENDBRANCH   5  44
BRANCH   4  60
HETATM   60  N3  UNL     1     -31.766   8.270  15.081  1.00  0.00    -0.072 N 
ATOM     61  H33 UNL     1     -31.534   7.278  15.126  1.00  0.00     0.274 HD
ATOM     62  H32 UNL     1     -31.692   8.375  14.069  1.00  0.00     0.274 HD
ATOM     63  H31 UNL     1     -31.111   8.860  15.594  1.00  0.00     0.274 HD
ENDBRANCH   4  60
TORSDOF 20
ENDMDL
MODEL 3
REMARK VINA RESULT: -8.093485848      2.834      9.964
REMARK  20 active torsions:
REMARK  status: ('A' for Active; 'I' for Inactive)
REMARK    1  A    between atoms: C2_2  and  C3_3 
REMARK    2  A    between atoms: C3_3  and  O1_5 
REMARK    3  A    between atoms: O1_5  and  C5_6 
REMARK    4  A    between atoms: C5_6  and  O2_7 
REMARK    5  A    between atoms: O2_7  and  C6_8 
REMARK    6  A    between atoms: C8_10  and  N1_11 
REMARK    7  A    between atoms: C9_15  and  O3_16 
REMARK    8  A    between atoms: C12_21  and  O5_22 
REMARK    9  A    between atoms: C13_24  and  O6_25 
REMARK   10  A    between atoms: C14_27  and  O7_28 
REMARK   11  A    between atoms: O7_28  and  C15_29 
REMARK   12  A    between atoms: C16_30  and  N2_31 
REMARK   13  A    between atoms: C18_36  and  N3_37 
REMARK   14  A    between atoms: C19_41  and  O8_42 
REMARK   15  A    between atoms: O8_42  and  C20_43 
REMARK   16  A    between atoms: C21_45  and  N4_46 
REMARK   17  A    between atoms: C22_51  and  C23_52 
REMARK   18  A    between atoms: C23_52  and  N5_53 
REMARK   19  A    between atoms: C24_58  and  O12_59 
REMARK   20  A    between atoms: C25_61  and  O13_62 
ROOT
HETATM    1  C15 UNL     1     -35.429   7.884  14.198  1.00  0.00     0.183 C 
HETATM    2  C16 UNL     1     -34.318   7.097  14.850  1.00  0.00     0.217 C 
HETATM    3  C17 UNL     1     -32.943   7.484  14.451  1.00  0.00     0.071 C 
HETATM    4  C18 UNL     1     -32.665   8.933  14.659  1.00  0.00     0.217 C 
HETATM    5  C19 UNL     1     -33.849   9.825  14.697  1.00  0.00     0.188 C 
HETATM    6  C24 UNL     1     -35.072   9.330  14.005  1.00  0.00     0.180 C 
ENDROOT
BRANCH   1   7
HETATM    7  O7  UNL     1     -35.775   7.417  12.957  1.00  0.00    -0.370 OA
BRANCH   7   8
HETATM    8  C14 UNL     1     -36.930   6.746  12.771  1.00  0.00     0.187 C 
HETATM    9  C13 UNL     1     -38.184   7.315  13.240  1.00  0.00     0.184 C 
HETATM   10  C12 UNL     1     -39.103   6.143  13.500  1.00  0.00     0.214 C 
HETATM   11  C5  UNL     1     -38.343   4.913  12.970  1.00  0.00     0.225 C 
HETATM   12  C25 UNL     1     -36.924   5.353  13.431  1.00  0.00     0.215 C 
BRANCH   9  13
HETATM   13  O6  UNL     1     -38.125   8.014  14.444  1.00  0.00    -0.390 OA
ATOM     14  H6  UNL     1     -38.631   7.500  15.061  1.00  0.00     0.210 HD
ENDBRANCH   9  13
BRANCH  10  15
HETATM   15  O5  UNL     1     -39.227   5.908  14.897  1.00  0.00    -0.387 OA
ATOM     16  H5  UNL     1     -39.969   6.438  15.161  1.00  0.00     0.210 HD
ENDBRANCH  10  15
BRANCH  11  17
HETATM   17  O1  UNL     1     -38.325   4.956  11.631  1.00  0.00    -0.342 OA
BRANCH  17  18
HETATM   18  C3  UNL     1     -39.465   5.007  10.894  1.00  0.00     0.143 C 
HETATM   19  C4  UNL     1     -39.162   6.028   9.737  1.00  0.00     0.044 C 
BRANCH  18  20
HETATM   20  C2  UNL     1     -39.642   3.737  10.132  1.00  0.00    -0.006 C 
HETATM   21  C1  UNL     1     -40.513   2.805  10.310  1.00  0.00     0.009 C 
ENDBRANCH  18  20
ENDBRANCH  17  18
ENDBRANCH  11  17
BRANCH  11  22
HETATM   22  O2  UNL     1     -38.760   3.849  13.664  1.00  0.00    -0.320 OA
BRANCH  22  23
HETATM   23  C6  UNL     1     -38.296   2.587  13.371  1.00  0.00     0.266 C 
HETATM   24  C7  UNL     1     -39.406   1.618  13.603  1.00  0.00     0.096 C 
HETATM   25  C8  UNL     1     -39.026   0.243  14.014  1.00  0.00     0.219 C 
HETATM   26  C9  UNL     1     -37.621   0.080  14.481  1.00  0.00     0.177 C 
HETATM   27  C10 UNL     1     -37.138   1.419  15.056  1.00  0.00     0.151 C 
HETATM   28  C11 UNL     1     -37.774   1.741  16.378  1.00  0.00     0.042 C 
HETATM   29  O4  UNL     1     -37.162   2.418  14.150  1.00  0.00    -0.354 OA
BRANCH  25  30
HETATM   30  N1  UNL     1     -39.228  -0.711  12.915  1.00  0.00    -0.072 N 
ATOM     31  H13 UNL     1     -39.990  -0.422  12.302  1.00  0.00     0.274 HD
ATOM     32  H12 UNL     1     -38.464  -0.676  12.241  1.00  0.00     0.274 HD
ATOM     33  H11 UNL     1     -39.371  -1.655  13.273  1.00  0.00     0.274 HD
ENDBRANCH  25  30
BRANCH  26  34
HETATM   34  O3  UNL     1     -37.462  -0.898  15.448  1.00  0.00    -0.391 OA
ATOM     35  H3  UNL     1     -37.227  -0.558  16.304  1.00  0.00     0.210 HD
ENDBRANCH  26  34
ENDBRANCH  22  23
ENDBRANCH  11  22
BRANCH  12  36
HETATM   36  O13 UNL     1     -35.962   4.631  12.741  1.00  0.00    -0.387 OA
ATOM     37  H13 UNL     1     -35.302   4.313  13.347  1.00  0.00     0.210 HD
ENDBRANCH  12  36
ENDBRANCH   7   8
ENDBRANCH   1   7
BRANCH   2  38
HETATM   38  N2  UNL     1     -34.490   7.073  16.310  1.00  0.00    -0.072 N 
ATOM     39  H23 UNL     1     -33.866   7.733  16.776  1.00  0.00     0.274 HD
ATOM     40  H22 UNL     1     -35.382   7.479  16.593  1.00  0.00     0.274 HD
ATOM     41  H21 UNL     1     -34.374   6.125  16.669  1.00  0.00     0.274 HD
ENDBRANCH   2  38
BRANCH   6  42
HETATM   42  O12 UNL     1     -34.847   9.596  12.626  1.00  0.00    -0.390 OA
ATOM     43  H12 UNL     1     -34.063  10.121  12.520  1.00  0.00     0.210 HD
ENDBRANCH   6  42
BRANCH   5  44
HETATM   44  O8  UNL     1     -33.449  11.010  14.017  1.00  0.00    -0.329 OA
BRANCH  44  45
HETATM   45  C20 UNL     1     -33.915  12.159  14.593  1.00  0.00     0.419 C 
HETATM   46  O9  UNL     1     -32.910  13.124  14.513  1.00  0.00    -0.284 OA
HETATM   47  C21 UNL     1     -32.728  13.596  13.229  1.00  0.00     0.472 C 
HETATM   48  O10 UNL     1     -33.905  14.081  12.711  1.00  0.00    -0.306 OA
HETATM   49  C22 UNL     1     -34.938  13.149  12.764  1.00  0.00     0.295 C 
HETATM   50  O11 UNL     1     -35.084  12.553  13.990  1.00  0.00    -0.306 OA
BRANCH  47  51
HETATM   51  N4  UNL     1     -31.769  14.691  13.274  1.00  0.00    -0.029 N 
ATOM     52  H43 UNL     1     -32.072  15.453  13.881  1.00  0.00     0.280 HD
ATOM     53  H42 UNL     1     -30.916  14.445  13.776  1.00  0.00     0.280 HD
ATOM     54  H41 UNL     1     -31.587  14.998  12.319  1.00  0.00     0.280 HD
ENDBRANCH  47  51
BRANCH  49  55
HETATM   55  C23 UNL     1     -36.211  13.829  12.293  1.00  0.00     0.290 C 
BRANCH  55  56
HETATM   56  N5  UNL     1     -35.950  14.826  11.290  1.00  0.00    -0.075 N 
ATOM     57  H53 UNL     1     -35.782  15.740  11.711  1.00  0.00     0.274 HD
ATOM     58  H52 UNL     1     -35.040  14.681  10.853  1.00  0.00     0.274 HD
ATOM     59  H51 UNL     1     -36.693  14.871  10.593  1.00  0.00     0.274 HD
ENDBRANCH  55  56
ENDBRANCH  49  55
ENDBRANCH  44  45
ENDBRANCH   5  44
BRANCH   4  60
HETATM   60  N3  UNL     1     -31.682   9.325  13.657  1.00  0.00    -0.072 N 
ATOM     61  H33 UNL     1     -30.787   9.602  14.060  1.00  0.00     0.274 HD
ATOM     62  H32 UNL     1     -31.338   8.540  13.104  1.00  0.00     0.274 HD
ATOM     63  H31 UNL     1     -32.112  10.056  13.090  1.00  0.00     0.274 HD
ENDBRANCH   4  60
TORSDOF 20
ENDMDL
MODEL 4
REMARK VINA RESULT: -8.067951729      2.254     10.089
REMARK  20 active torsions:
REMARK  status: ('A' for Active; 'I' for Inactive)
REMARK    1  A    between atoms: C2_2  and  C3_3 
REMARK    2  A    between atoms: C3_3  and  O1_5 
REMARK    3  A    between atoms: O1_5  and  C5_6 
REMARK    4  A    between atoms: C5_6  and  O2_7 
REMARK    5  A    between atoms: O2_7  and  C6_8 
REMARK    6  A    between atoms: C8_10  and  N1_11 
REMARK    7  A    between atoms: C9_15  and  O3_16 
REMARK    8  A    between atoms: C12_21  and  O5_22 
REMARK    9  A    between atoms: C13_24  and  O6_25 
REMARK   10  A    between atoms: C14_27  and  O7_28 
REMARK   11  A    between atoms: O7_28  and  C15_29 
REMARK   12  A    between atoms: C16_30  and  N2_31 
REMARK   13  A    between atoms: C18_36  and  N3_37 
REMARK   14  A    between atoms: C19_41  and  O8_42 
REMARK   15  A    between atoms: O8_42  and  C20_43 
REMARK   16  A    between atoms: C21_45  and  N4_46 
REMARK   17  A    between atoms: C22_51  and  C23_52 
REMARK   18  A    between atoms: C23_52  and  N5_53 
REMARK   19  A    between atoms: C24_58  and  O12_59 
REMARK   20  A    between atoms: C25_61  and  O13_62 
ROOT
HETATM    1  C15 UNL     1     -34.963   8.560  13.554  1.00  0.00     0.183 C 
HETATM    2  C16 UNL     1     -35.507   9.616  14.485  1.00  0.00     0.217 C 
HETATM    3  C17 UNL     1     -34.709   9.857  15.712  1.00  0.00     0.071 C 
HETATM    4  C18 UNL     1     -33.286  10.188  15.421  1.00  0.00     0.217 C 
HETATM    5  C19 UNL     1     -32.762   9.724  14.113  1.00  0.00     0.188 C 
HETATM    6  C24 UNL     1     -33.462   8.563  13.496  1.00  0.00     0.180 C 
ENDROOT
BRANCH   1   7
HETATM    7  O7  UNL     1     -35.319   7.283  13.905  1.00  0.00    -0.370 OA
BRANCH   7   8
HETATM    8  C14 UNL     1     -36.416   6.705  13.378  1.00  0.00     0.187 C 
HETATM    9  C13 UNL     1     -37.723   7.318  13.564  1.00  0.00     0.184 C 
HETATM   10  C12 UNL     1     -38.728   6.192  13.482  1.00  0.00     0.214 C 
HETATM   11  C5  UNL     1     -37.914   4.958  13.054  1.00  0.00     0.225 C 
HETATM   12  C25 UNL     1     -36.642   5.270  13.893  1.00  0.00     0.215 C 
BRANCH   9  13
HETATM   13  O6  UNL     1     -37.942   7.922  14.801  1.00  0.00    -0.390 OA
ATOM     14  H6  UNL     1     -37.103   7.900  15.246  1.00  0.00     0.210 HD
ENDBRANCH   9  13
BRANCH  10  15
HETATM   15  O5  UNL     1     -39.215   5.864  14.776  1.00  0.00    -0.387 OA
ATOM     16  H5  UNL     1     -38.910   4.977  14.927  1.00  0.00     0.210 HD
ENDBRANCH  10  15
BRANCH  11  17
HETATM   17  O1  UNL     1     -37.552   5.098  11.772  1.00  0.00    -0.342 OA
BRANCH  17  18
HETATM   18  C3  UNL     1     -38.454   5.055  10.758  1.00  0.00     0.143 C 
HETATM   19  C4  UNL     1     -38.221   6.379   9.943  1.00  0.00     0.044 C 
BRANCH  18  20
HETATM   20  C2  UNL     1     -38.058   4.019   9.760  1.00  0.00    -0.006 C 
HETATM   21  C1  UNL     1     -37.765   4.170   8.515  1.00  0.00     0.009 C 
ENDBRANCH  18  20
ENDBRANCH  17  18
ENDBRANCH  11  17
BRANCH  11  22
HETATM   22  O2  UNL     1     -38.541   3.875  13.525  1.00  0.00    -0.320 OA
BRANCH  22  23
HETATM   23  C6  UNL     1     -38.120   2.609  13.185  1.00  0.00     0.266 C 
HETATM   24  C7  UNL     1     -39.310   1.710  13.180  1.00  0.00     0.096 C 
HETATM   25  C8  UNL     1     -39.077   0.282  13.514  1.00  0.00     0.219 C 
HETATM   26  C9  UNL     1     -37.763  -0.021  14.147  1.00  0.00     0.177 C 
HETATM   27  C10 UNL     1     -37.281   1.229  14.898  1.00  0.00     0.151 C 
HETATM   28  C11 UNL     1     -38.072   1.489  16.147  1.00  0.00     0.042 C 
HETATM   29  O4  UNL     1     -37.117   2.295  14.089  1.00  0.00    -0.354 OA
BRANCH  25  30
HETATM   30  N1  UNL     1     -39.185  -0.563  12.318  1.00  0.00    -0.072 N 
ATOM     31  H13 UNL     1     -40.016  -1.153  12.347  1.00  0.00     0.274 HD
ATOM     32  H12 UNL     1     -39.413  -0.015  11.489  1.00  0.00     0.274 HD
ATOM     33  H11 UNL     1     -38.337  -1.114  12.182  1.00  0.00     0.274 HD
ENDBRANCH  25  30
BRANCH  26  34
HETATM   34  O3  UNL     1     -37.801  -1.082  15.035  1.00  0.00    -0.391 OA
ATOM     35  H3  UNL     1     -38.631  -1.176  15.488  1.00  0.00     0.210 HD
ENDBRANCH  26  34
ENDBRANCH  22  23
ENDBRANCH  11  22
BRANCH  12  36
HETATM   36  O13 UNL     1     -35.568   4.539  13.407  1.00  0.00    -0.387 OA
ATOM     37  H13 UNL     1     -35.440   4.729  12.485  1.00  0.00     0.210 HD
ENDBRANCH  12  36
ENDBRANCH   7   8
ENDBRANCH   1   7
BRANCH   2  38
HETATM   38  N2  UNL     1     -35.791  10.857  13.750  1.00  0.00    -0.072 N 
ATOM     39  H23 UNL     1     -35.297  11.655  14.151  1.00  0.00     0.274 HD
ATOM     40  H22 UNL     1     -35.357  10.857  12.826  1.00  0.00     0.274 HD
ATOM     41  H21 UNL     1     -36.796  11.020  13.697  1.00  0.00     0.274 HD
ENDBRANCH   2  38
BRANCH   6  42
HETATM   42  O12 UNL     1     -32.946   7.421  14.169  1.00  0.00    -0.390 OA
ATOM     43  H12 UNL     1     -32.780   6.724  13.546  1.00  0.00     0.210 HD
ENDBRANCH   6  42
BRANCH   5  44
HETATM   44  O8  UNL     1     -31.427   9.303  14.371  1.00  0.00    -0.329 OA
BRANCH  44  45
HETATM   45  C20 UNL     1     -30.498   9.896  13.562  1.00  0.00     0.419 C 
HETATM   46  O9  UNL     1     -30.395  11.239  13.930  1.00  0.00    -0.284 OA
HETATM   47  C21 UNL     1     -29.757  11.411  15.141  1.00  0.00     0.472 C 
HETATM   48  O10 UNL     1     -28.517  10.817  15.132  1.00  0.00    -0.306 OA
HETATM   49  C22 UNL     1     -28.569   9.473  14.777  1.00  0.00     0.295 C 
HETATM   50  O11 UNL     1     -29.301   9.227  13.644  1.00  0.00    -0.306 OA
BRANCH  47  51
HETATM   51  N4  UNL     1     -29.573  12.838  15.364  1.00  0.00    -0.029 N 
ATOM     52  H43 UNL     1     -30.145  13.409  14.742  1.00  0.00     0.280 HD
ATOM     53  H42 UNL     1     -29.973  13.152  16.247  1.00  0.00     0.280 HD
ATOM     54  H41 UNL     1     -28.578  13.050  15.286  1.00  0.00     0.280 HD
ENDBRANCH  47  51
BRANCH  49  55
HETATM   55  C23 UNL     1     -27.145   8.957  14.672  1.00  0.00     0.290 C 
BRANCH  55  56
HETATM   56  N5  UNL     1     -26.671   8.960  13.314  1.00  0.00    -0.075 N 
ATOM     57  H53 UNL     1     -26.029   9.735  13.147  1.00  0.00     0.274 HD
ATOM     58  H52 UNL     1     -26.033   8.183  13.143  1.00  0.00     0.274 HD
ATOM     59  H51 UNL     1     -27.438   8.963  12.641  1.00  0.00     0.274 HD
ENDBRANCH  55  56
ENDBRANCH  49  55
ENDBRANCH  44  45
ENDBRANCH   5  44
BRANCH   4  60
HETATM   60  N3  UNL     1     -32.500   9.716  16.554  1.00  0.00    -0.072 N 
ATOM     61  H33 UNL     1     -32.862  10.035  17.453  1.00  0.00     0.274 HD
ATOM     62  H32 UNL     1     -32.599   8.715  16.722  1.00  0.00     0.274 HD
ATOM     63  H31 UNL     1     -31.535  10.001  16.386  1.00  0.00     0.274 HD
ENDBRANCH   4  60
TORSDOF 20
ENDMDL
MODEL 5
REMARK VINA RESULT: -8.065817749      2.201     10.001
REMARK  20 active torsions:
REMARK  status: ('A' for Active; 'I' for Inactive)
REMARK    1  A    between atoms: C2_2  and  C3_3 
REMARK    2  A    between atoms: C3_3  and  O1_5 
REMARK    3  A    between atoms: O1_5  and  C5_6 
REMARK    4  A    between atoms: C5_6  and  O2_7 
REMARK    5  A    between atoms: O2_7  and  C6_8 
REMARK    6  A    between atoms: C8_10  and  N1_11 
REMARK    7  A    between atoms: C9_15  and  O3_16 
REMARK    8  A    between atoms: C12_21  and  O5_22 
REMARK    9  A    between atoms: C13_24  and  O6_25 
REMARK   10  A    between atoms: C14_27  and  O7_28 
REMARK   11  A    between atoms: O7_28  and  C15_29 
REMARK   12  A    between atoms: C16_30  and  N2_31 
REMARK   13  A    between atoms: C18_36  and  N3_37 
REMARK   14  A    between atoms: C19_41  and  O8_42 
REMARK   15  A    between atoms: O8_42  and  C20_43 
REMARK   16  A    between atoms: C21_45  and  N4_46 
REMARK   17  A    between atoms: C22_51  and  C23_52 
REMARK   18  A    between atoms: C23_52  and  N5_53 
REMARK   19  A    between atoms: C24_58  and  O12_59 
REMARK   20  A    between atoms: C25_61  and  O13_62 
ROOT
HETATM    1  C15 UNL     1     -35.031   8.573  13.507  1.00  0.00     0.183 C 
HETATM    2  C16 UNL     1     -35.545   9.640  14.444  1.00  0.00     0.217 C 
HETATM    3  C17 UNL     1     -34.724   9.872  15.657  1.00  0.00     0.071 C 
HETATM    4  C18 UNL     1     -33.301  10.180  15.345  1.00  0.00     0.217 C 
HETATM    5  C19 UNL     1     -32.804   9.704  14.031  1.00  0.00     0.188 C 
HETATM    6  C24 UNL     1     -33.531   8.553  13.427  1.00  0.00     0.180 C 
ENDROOT
BRANCH   1   7
HETATM    7  O7  UNL     1     -35.401   7.303  13.867  1.00  0.00    -0.370 OA
BRANCH   7   8
HETATM    8  C14 UNL     1     -36.477   6.716  13.308  1.00  0.00     0.187 C 
HETATM    9  C13 UNL     1     -37.788   7.336  13.426  1.00  0.00     0.184 C 
HETATM   10  C12 UNL     1     -38.793   6.211  13.328  1.00  0.00     0.214 C 
HETATM   11  C5  UNL     1     -37.966   4.965  12.962  1.00  0.00     0.225 C 
HETATM   12  C25 UNL     1     -36.729   5.293  13.846  1.00  0.00     0.215 C 
BRANCH   9  13
HETATM   13  O6  UNL     1     -38.057   7.969  14.638  1.00  0.00    -0.390 OA
ATOM     14  H6  UNL     1     -38.760   8.580  14.454  1.00  0.00     0.210 HD
ENDBRANCH   9  13
BRANCH  10  15
HETATM   15  O5  UNL     1     -39.335   5.914  14.608  1.00  0.00    -0.387 OA
ATOM     16  H5  UNL     1     -39.778   6.713  14.868  1.00  0.00     0.210 HD
ENDBRANCH  10  15
BRANCH  11  17
HETATM   17  O1  UNL     1     -37.551   5.074  11.693  1.00  0.00    -0.342 OA
BRANCH  17  18
HETATM   18  C3  UNL     1     -38.405   4.973  10.642  1.00  0.00     0.143 C 
HETATM   19  C4  UNL     1     -38.223   6.308   9.833  1.00  0.00     0.044 C 
BRANCH  18  20
HETATM   20  C2  UNL     1     -37.900   3.963   9.666  1.00  0.00    -0.006 C 
HETATM   21  C1  UNL     1     -37.645   4.113   8.413  1.00  0.00     0.009 C 
ENDBRANCH  18  20
ENDBRANCH  17  18
ENDBRANCH  11  17
BRANCH  11  22
HETATM   22  O2  UNL     1     -38.616   3.895  13.432  1.00  0.00    -0.320 OA
BRANCH  22  23
HETATM   23  C6  UNL     1     -38.190   2.621  13.132  1.00  0.00     0.266 C 
HETATM   24  C7  UNL     1     -39.362   1.703  13.235  1.00  0.00     0.096 C 
HETATM   25  C8  UNL     1     -39.085   0.298  13.626  1.00  0.00     0.219 C 
HETATM   26  C9  UNL     1     -37.735   0.048  14.202  1.00  0.00     0.177 C 
HETATM   27  C10 UNL     1     -37.238   1.341  14.864  1.00  0.00     0.151 C 
HETATM   28  C11 UNL     1     -37.968   1.651  16.139  1.00  0.00     0.042 C 
HETATM   29  O4  UNL     1     -37.136   2.368  13.997  1.00  0.00    -0.354 OA
BRANCH  25  30
HETATM   30  N1  UNL     1     -39.239  -0.608  12.479  1.00  0.00    -0.072 N 
ATOM     31  H13 UNL     1     -39.210  -1.586  12.766  1.00  0.00     0.274 HD
ATOM     32  H12 UNL     1     -40.187  -0.584  12.106  1.00  0.00     0.274 HD
ATOM     33  H11 UNL     1     -38.546  -0.406  11.759  1.00  0.00     0.274 HD
ENDBRANCH  25  30
BRANCH  26  34
HETATM   34  O3  UNL     1     -37.707  -0.968  15.143  1.00  0.00    -0.391 OA
ATOM     35  H3  UNL     1     -38.516  -1.464  15.198  1.00  0.00     0.210 HD
ENDBRANCH  26  34
ENDBRANCH  22  23
ENDBRANCH  11  22
BRANCH  12  36
HETATM   36  O13 UNL     1     -35.638   4.549  13.422  1.00  0.00    -0.387 OA
ATOM     37  H13 UNL     1     -35.149   5.037  12.770  1.00  0.00     0.210 HD
ENDBRANCH  12  36
ENDBRANCH   7   8
ENDBRANCH   1   7
BRANCH   2  38
HETATM   38  N2  UNL     1     -35.820  10.883  13.709  1.00  0.00    -0.072 N 
ATOM     39  H23 UNL     1     -36.137  10.698  12.757  1.00  0.00     0.274 HD
ATOM     40  H22 UNL     1     -36.655  11.354  14.060  1.00  0.00     0.274 HD
ATOM     41  H21 UNL     1     -35.005  11.496  13.725  1.00  0.00     0.274 HD
ENDBRANCH   2  38
BRANCH   6  42
HETATM   42  O12 UNL     1     -33.022   7.405  14.096  1.00  0.00    -0.390 OA
ATOM     43  H12 UNL     1     -32.375   7.665  14.740  1.00  0.00     0.210 HD
ENDBRANCH   6  42
BRANCH   5  44
HETATM   44  O8  UNL     1     -31.472   9.264  14.270  1.00  0.00    -0.329 OA
BRANCH  44  45
HETATM   45  C20 UNL     1     -30.533  10.247  14.123  1.00  0.00     0.419 C 
HETATM   46  O9  UNL     1     -29.747  10.272  15.276  1.00  0.00    -0.284 OA
HETATM   47  C21 UNL     1     -28.899   9.187  15.366  1.00  0.00     0.472 C 
HETATM   48  O10 UNL     1     -28.109   9.087  14.246  1.00  0.00    -0.306 OA
HETATM   49  C22 UNL     1     -28.850   9.051  13.069  1.00  0.00     0.295 C 
HETATM   50  O11 UNL     1     -29.800  10.037  12.981  1.00  0.00    -0.306 OA
BRANCH  47  51
HETATM   51  N4  UNL     1     -28.028   9.380  16.517  1.00  0.00    -0.029 N 
ATOM     52  H43 UNL     1     -27.039   9.319  16.276  1.00  0.00     0.280 HD
ATOM     53  H42 UNL     1     -28.030  10.343  16.854  1.00  0.00     0.280 HD
ATOM     54  H41 UNL     1     -28.298   8.712  17.239  1.00  0.00     0.280 HD
ENDBRANCH  47  51
BRANCH  49  55
HETATM   55  C23 UNL     1     -27.881   9.073  11.900  1.00  0.00     0.290 C 
BRANCH  55  56
HETATM   56  N5  UNL     1     -26.985  10.195  11.965  1.00  0.00    -0.075 N 
ATOM     57  H53 UNL     1     -27.397  11.024  11.536  1.00  0.00     0.274 HD
ATOM     58  H52 UNL     1     -26.891  10.539  12.921  1.00  0.00     0.274 HD
ATOM     59  H51 UNL     1     -26.074   9.981  11.558  1.00  0.00     0.274 HD
ENDBRANCH  55  56
ENDBRANCH  49  55
ENDBRANCH  44  45
ENDBRANCH   5  44
BRANCH   4  60
HETATM   60  N3  UNL     1     -32.506   9.699  16.468  1.00  0.00    -0.072 N 
ATOM     61  H33 UNL     1     -32.964   9.834  17.369  1.00  0.00     0.274 HD
ATOM     62  H32 UNL     1     -32.440   8.682  16.507  1.00  0.00     0.274 HD
ATOM     63  H31 UNL     1     -31.597  10.157  16.405  1.00  0.00     0.274 HD
ENDBRANCH   4  60
TORSDOF 20
ENDMDL
