MODEL 1
REMARK VINA RESULT: -10.086375084      0.000      0.000
REMARK  16 active torsions:
REMARK  status: ('A' for Active; 'I' for Inactive)
REMARK    1  A    between atoms: C2_2  and  O1_3 
REMARK    2  A    between atoms: C3_5  and  N1_6 
REMARK       I    between atoms: N1_6  and  C4_8 
REMARK    3  A    between atoms: C4_8  and  C5_10 
REMARK    4  A    between atoms: C5_10  and  N2_11 
REMARK    5  A    between atoms: C5_10  and  C6_15 
REMARK    6  A    between atoms: N2_11  and  O3_13 
REMARK    7  A    between atoms: C6_15  and  O4_16 
REMARK    8  A    between atoms: C6_15  and  C7_18 
REMARK    9  A    between atoms: C7_18  and  N3_19 
REMARK   10  A    between atoms: C8_22  and  N5_23 
REMARK   11  A    between atoms: C9_28  and  N7_29 
REMARK   12  A    between atoms: C12_35  and  N8_36 
REMARK   13  A    between atoms: N8_36  and  C13_38 
REMARK   14  A    between atoms: C14_44  and  N11_45 
REMARK   15  A    between atoms: C15_49  and  C16_50 
REMARK   16  A    between atoms: C17_55  and  C18_56 
ROOT
HETATM    1  C1  UNL     1     -35.757   8.784  17.749  1.00  0.00     0.073 C 
HETATM    2  C2  UNL     1     -35.137   8.153  16.526  1.00  0.00     0.154 C 
HETATM    3  C3  UNL     1     -34.549   9.117  15.541  1.00  0.00     0.172 C 
HETATM    4  C10 UNL     1     -35.168   8.227  14.508  1.00  0.00     0.177 C 
HETATM    5  S1  UNL     1     -36.234   9.158  13.384  1.00  0.00    -0.135 SA
HETATM    6  C11 UNL     1     -37.870   8.454  13.513  1.00  0.00     0.135 C 
HETATM    7  C12 UNL     1     -37.918   7.175  14.259  1.00  0.00     0.052 C 
HETATM    8  C17 UNL     1     -37.095   6.765  15.190  1.00  0.00     0.123 C 
HETATM    9  N16 UNL     1     -35.969   7.589  15.543  1.00  0.00    -0.326 N 
ENDROOT
BRANCH   3  10
HETATM   10  N1  UNL     1     -33.089   9.108  15.522  1.00  0.00    -0.344 N 
HETATM   11  C4  UNL     1     -32.407  10.057  14.724  1.00  0.00     0.269 C 
HETATM   12  O2  UNL     1     -33.006  10.905  14.034  1.00  0.00    -0.266 OA
ATOM     13  H1  UNL     1     -32.569   8.428  16.077  1.00  0.00     0.163 HD
BRANCH  11  14
HETATM   14  C5  UNL     1     -30.916  10.068  14.686  1.00  0.00     0.129 C 
BRANCH  14  15
HETATM   15  N2  UNL     1     -30.337   9.097  14.119  1.00  0.00    -0.265 N 
ATOM     16  H2  UNL     1     -30.056   9.207  13.144  1.00  0.00     0.194 HD
BRANCH  15  17
HETATM   17  O3  UNL     1     -30.069   7.919  14.734  1.00  0.00    -0.289 OA
ATOM     18  H3  UNL     1     -30.427   7.085  14.454  1.00  0.00     0.244 HD
ENDBRANCH  15  17
ENDBRANCH  14  15
BRANCH  14  19
HETATM   19  C6  UNL     1     -30.194  11.192  15.290  1.00  0.00     0.196 C 
BRANCH  19  20
HETATM   20  O4  UNL     1     -31.168  11.872  16.085  1.00  0.00    -0.387 OA
ATOM     21  H4  UNL     1     -31.309  12.702  15.643  1.00  0.00     0.210 HD
ENDBRANCH  19  20
BRANCH  19  22
HETATM   22  C7  UNL     1     -29.612  12.226  14.412  1.00  0.00     0.206 C 
BRANCH  22  23
HETATM   23  N3  UNL     1     -30.327  13.440  14.221  1.00  0.00    -0.106 N 
HETATM   24  N4  UNL     1     -30.299  14.555  14.909  1.00  0.00    -0.115 N 
HETATM   25  C8  UNL     1     -31.106  15.463  14.332  1.00  0.00     0.705 A 
ATOM     26  H4  UNL     1     -29.750  14.710  15.754  1.00  0.00     0.206 HD
HETATM   27  N6  UNL     1     -31.643  14.881  13.253  1.00  0.00    -0.020 N 
HETATM   28  C9  UNL     1     -31.177  13.641  13.170  1.00  0.00     0.707 A 
ATOM     29  H6  UNL     1     -32.299  15.316  12.605  1.00  0.00     0.203 HD
BRANCH  25  30
HETATM   30  N5  UNL     1     -31.336  16.690  14.729  1.00  0.00    -0.233 N 
ATOM     31  H52 UNL     1     -32.202  17.023  15.153  1.00  0.00     0.174 HD
ATOM     32  H51 UNL     1     -30.703  17.488  14.676  1.00  0.00     0.174 HD
ENDBRANCH  25  30
BRANCH  28  33
HETATM   33  N7  UNL     1     -31.497  12.788  12.237  1.00  0.00    -0.233 N 
ATOM     34  H72 UNL     1     -30.828  12.313  11.631  1.00  0.00     0.174 HD
ATOM     35  H71 UNL     1     -32.433  12.476  11.979  1.00  0.00     0.174 HD
ENDBRANCH  28  33
ENDBRANCH  22  23
ENDBRANCH  19  22
ENDBRANCH  14  19
ENDBRANCH  11  14
ENDBRANCH   3  10
BRANCH   2  36
HETATM   36  O1  UNL     1     -34.190   7.184  16.952  1.00  0.00    -0.369 OA
ATOM     37  H1  UNL     1     -33.897   6.696  16.192  1.00  0.00     0.212 HD
ENDBRANCH   2  36
BRANCH   8  38
HETATM   38  C18 UNL     1     -37.213   5.464  15.889  1.00  0.00     0.283 C 
HETATM   39  N15 UNL     1     -38.371   4.982  16.502  1.00  0.00    -0.056 NA
HETATM   40  O8  UNL     1     -36.177   4.717  15.941  1.00  0.00    -0.269 OA
ENDBRANCH   8  38
BRANCH   7  41
HETATM   41  N8  UNL     1     -39.028   6.313  13.908  1.00  0.00    -0.339 N 
ATOM     42  H8  UNL     1     -39.735   6.053  14.595  1.00  0.00     0.167 HD
BRANCH  41  43
HETATM   43  C13 UNL     1     -39.085   5.885  12.688  1.00  0.00     0.177 A 
HETATM   44  N9  UNL     1     -39.139   6.571  11.546  1.00  0.00    -0.222 N 
HETATM   45  O5  UNL     1     -39.161   5.730  10.542  1.00  0.00    -0.153 OA
ATOM     46  H9  UNL     1     -39.159   7.588  11.467  1.00  0.00     0.198 HD
HETATM   47  N10 UNL     1     -39.126   4.510  10.984  1.00  0.00    -0.219 N 
HETATM   48  C14 UNL     1     -39.077   4.541  12.345  1.00  0.00     0.211 A 
ATOM     49  H10 UNL     1     -39.134   3.667  10.409  1.00  0.00     0.198 HD
BRANCH  48  50
HETATM   50  N11 UNL     1     -39.015   3.406  13.201  1.00  0.00    -0.156 N 
HETATM   51  N12 UNL     1     -39.952   2.475  13.348  1.00  0.00     0.004 NA
HETATM   52  N13 UNL     1     -39.504   1.584  14.245  1.00  0.00    -0.261 N 
HETATM   53  C15 UNL     1     -38.290   1.938  14.672  1.00  0.00     0.213 A 
ATOM     54  H13 UNL     1     -40.016   0.758  14.555  1.00  0.00     0.186 HD
HETATM   55  N14 UNL     1     -38.002   3.075  14.012  1.00  0.00    -0.257 N 
ATOM     56  H14 UNL     1     -37.138   3.607  14.114  1.00  0.00     0.190 HD
BRANCH  53  57
HETATM   57  C16 UNL     1     -37.444   1.243  15.657  1.00  0.00     0.247 C 
HETATM   58  O6  UNL     1     -36.855   0.196  15.304  1.00  0.00    -0.642 OA
HETATM   59  O7  UNL     1     -37.292   1.711  16.933  1.00  0.00    -0.642 OA
ENDBRANCH  53  57
ENDBRANCH  48  50
ENDBRANCH  41  43
ENDBRANCH   7  41
TORSDOF 16
ENDMDL
MODEL 2
REMARK VINA RESULT: -9.790659053      1.763      2.926
REMARK  16 active torsions:
REMARK  status: ('A' for Active; 'I' for Inactive)
REMARK    1  A    between atoms: C2_2  and  O1_3 
REMARK    2  A    between atoms: C3_5  and  N1_6 
REMARK       I    between atoms: N1_6  and  C4_8 
REMARK    3  A    between atoms: C4_8  and  C5_10 
REMARK    4  A    between atoms: C5_10  and  N2_11 
REMARK    5  A    between atoms: C5_10  and  C6_15 
REMARK    6  A    between atoms: N2_11  and  O3_13 
REMARK    7  A    between atoms: C6_15  and  O4_16 
REMARK    8  A    between atoms: C6_15  and  C7_18 
REMARK    9  A    between atoms: C7_18  and  N3_19 
REMARK   10  A    between atoms: C8_22  and  N5_23 
REMARK   11  A    between atoms: C9_28  and  N7_29 
REMARK   12  A    between atoms: C12_35  and  N8_36 
REMARK   13  A    between atoms: N8_36  and  C13_38 
REMARK   14  A    between atoms: C14_44  and  N11_45 
REMARK   15  A    between atoms: C15_49  and  C16_50 
REMARK   16  A    between atoms: C17_55  and  C18_56 
ROOT
HETATM    1  C1  UNL     1     -34.457   8.970  16.888  1.00  0.00     0.073 C 
HETATM    2  C2  UNL     1     -34.256   8.808  15.401  1.00  0.00     0.154 C 
HETATM    3  C3  UNL     1     -34.379  10.069  14.601  1.00  0.00     0.172 C 
HETATM    4  C10 UNL     1     -35.126   9.214  13.624  1.00  0.00     0.177 C 
HETATM    5  S1  UNL     1     -36.752   9.905  13.245  1.00  0.00    -0.135 SA
HETATM    6  C11 UNL     1     -37.963   8.677  13.704  1.00  0.00     0.135 C 
HETATM    7  C12 UNL     1     -37.385   7.350  14.018  1.00  0.00     0.052 C 
HETATM    8  C17 UNL     1     -36.181   7.090  14.458  1.00  0.00     0.123 C 
HETATM    9  N16 UNL     1     -35.250   8.174  14.635  1.00  0.00    -0.326 N 
ENDROOT
BRANCH   3  10
HETATM   10  N1  UNL     1     -33.102  10.559  14.092  1.00  0.00    -0.344 N 
HETATM   11  C4  UNL     1     -32.904  11.954  13.963  1.00  0.00     0.269 C 
HETATM   12  O2  UNL     1     -33.781  12.786  14.270  1.00  0.00    -0.266 OA
ATOM     13  H1  UNL     1     -32.363   9.905  13.832  1.00  0.00     0.163 HD
BRANCH  11  14
HETATM   14  C5  UNL     1     -31.609  12.481  13.445  1.00  0.00     0.129 C 
BRANCH  14  15
HETATM   15  N2  UNL     1     -31.488  12.608  12.192  1.00  0.00    -0.265 N 
ATOM     16  H2  UNL     1     -32.163  13.194  11.699  1.00  0.00     0.194 HD
BRANCH  15  17
HETATM   17  O3  UNL     1     -30.510  12.010  11.467  1.00  0.00    -0.289 OA
ATOM     18  H3  UNL     1     -30.609  11.165  11.045  1.00  0.00     0.244 HD
ENDBRANCH  15  17
ENDBRANCH  14  15
BRANCH  14  19
HETATM   19  C6  UNL     1     -30.549  12.835  14.394  1.00  0.00     0.196 C 
BRANCH  19  20
HETATM   20  O4  UNL     1     -29.668  13.689  13.660  1.00  0.00    -0.387 OA
ATOM     21  H4  UNL     1     -28.806  13.524  14.024  1.00  0.00     0.210 HD
ENDBRANCH  19  20
BRANCH  19  22
HETATM   22  C7  UNL     1     -29.691  11.766  14.942  1.00  0.00     0.206 C 
BRANCH  22  23
HETATM   23  N3  UNL     1     -29.000  10.914  14.038  1.00  0.00    -0.106 N 
HETATM   24  N4  UNL     1     -28.040  11.184  13.188  1.00  0.00    -0.115 N 
HETATM   25  C8  UNL     1     -27.649  10.054  12.572  1.00  0.00     0.705 A 
ATOM     26  H4  UNL     1     -27.649  12.111  13.018  1.00  0.00     0.206 HD
HETATM   27  N6  UNL     1     -28.397   9.060  13.067  1.00  0.00    -0.020 N 
HETATM   28  C9  UNL     1     -29.230   9.569  13.966  1.00  0.00     0.707 A 
ATOM     29  H6  UNL     1     -28.338   8.078  12.798  1.00  0.00     0.203 HD
BRANCH  25  30
HETATM   30  N5  UNL     1     -26.717   9.924  11.662  1.00  0.00    -0.233 N 
ATOM     31  H52 UNL     1     -26.631  10.487  10.816  1.00  0.00     0.174 HD
ATOM     32  H51 UNL     1     -25.947   9.254  11.653  1.00  0.00     0.174 HD
ENDBRANCH  25  30
BRANCH  28  33
HETATM   33  N7  UNL     1     -30.105   8.879  14.643  1.00  0.00    -0.233 N 
ATOM     34  H72 UNL     1     -31.117   8.966  14.543  1.00  0.00     0.174 HD
ATOM     35  H71 UNL     1     -29.919   8.172  15.354  1.00  0.00     0.174 HD
ENDBRANCH  28  33
ENDBRANCH  22  23
ENDBRANCH  19  22
ENDBRANCH  14  19
ENDBRANCH  11  14
ENDBRANCH   3  10
BRANCH   2  36
HETATM   36  O1  UNL     1     -33.011   8.160  15.184  1.00  0.00    -0.369 OA
ATOM     37  H1  UNL     1     -32.880   8.066  14.248  1.00  0.00     0.212 HD
ENDBRANCH   2  36
BRANCH   8  38
HETATM   38  C18 UNL     1     -35.678   5.726  14.746  1.00  0.00     0.283 C 
HETATM   39  N15 UNL     1     -35.762   5.082  15.982  1.00  0.00    -0.056 NA
HETATM   40  O8  UNL     1     -35.120   5.081  13.795  1.00  0.00    -0.269 OA
ENDBRANCH   8  38
BRANCH   7  41
HETATM   41  N8  UNL     1     -38.292   6.236  13.826  1.00  0.00    -0.339 N 
ATOM     42  H8  UNL     1     -38.858   5.876  14.593  1.00  0.00     0.167 HD
BRANCH  41  43
HETATM   43  C13 UNL     1     -38.353   5.718  12.642  1.00  0.00     0.177 A 
HETATM   44  N9  UNL     1     -38.291   6.309  11.448  1.00  0.00    -0.222 N 
HETATM   45  O5  UNL     1     -38.370   5.395  10.513  1.00  0.00    -0.153 OA
ATOM     46  H9  UNL     1     -38.197   7.312  11.289  1.00  0.00     0.198 HD
HETATM   47  N10 UNL     1     -38.485   4.218  11.051  1.00  0.00    -0.219 N 
HETATM   48  C14 UNL     1     -38.480   4.357  12.406  1.00  0.00     0.211 A 
ATOM     49  H10 UNL     1     -38.565   3.337  10.544  1.00  0.00     0.198 HD
BRANCH  48  50
HETATM   50  N11 UNL     1     -38.573   3.296  13.351  1.00  0.00    -0.156 N 
HETATM   51  N12 UNL     1     -39.595   2.459  13.501  1.00  0.00     0.004 NA
HETATM   52  N13 UNL     1     -39.286   1.614  14.496  1.00  0.00    -0.261 N 
HETATM   53  C15 UNL     1     -38.076   1.903  14.981  1.00  0.00     0.213 A 
ATOM     54  H13 UNL     1     -39.887   0.861  14.831  1.00  0.00     0.186 HD
HETATM   55  N14 UNL     1     -37.648   2.953  14.256  1.00  0.00    -0.257 N 
ATOM     56  H14 UNL     1     -36.750   3.420  14.378  1.00  0.00     0.190 HD
BRANCH  53  57
HETATM   57  C16 UNL     1     -37.360   1.227  16.075  1.00  0.00     0.247 C 
HETATM   58  O6  UNL     1     -37.201   1.841  17.154  1.00  0.00    -0.642 OA
HETATM   59  O7  UNL     1     -36.870  -0.042  15.938  1.00  0.00    -0.642 OA
ENDBRANCH  53  57
ENDBRANCH  48  50
ENDBRANCH  41  43
ENDBRANCH   7  41
TORSDOF 16
ENDMDL
MODEL 3
REMARK VINA RESULT: -9.768402579      1.007      1.616
REMARK  16 active torsions:
REMARK  status: ('A' for Active; 'I' for Inactive)
REMARK    1  A    between atoms: C2_2  and  O1_3 
REMARK    2  A    between atoms: C3_5  and  N1_6 
REMARK       I    between atoms: N1_6  and  C4_8 
REMARK    3  A    between atoms: C4_8  and  C5_10 
REMARK    4  A    between atoms: C5_10  and  N2_11 
REMARK    5  A    between atoms: C5_10  and  C6_15 
REMARK    6  A    between atoms: N2_11  and  O3_13 
REMARK    7  A    between atoms: C6_15  and  O4_16 
REMARK    8  A    between atoms: C6_15  and  C7_18 
REMARK    9  A    between atoms: C7_18  and  N3_19 
REMARK   10  A    between atoms: C8_22  and  N5_23 
REMARK   11  A    between atoms: C9_28  and  N7_29 
REMARK   12  A    between atoms: C12_35  and  N8_36 
REMARK   13  A    between atoms: N8_36  and  C13_38 
REMARK   14  A    between atoms: C14_44  and  N11_45 
REMARK   15  A    between atoms: C15_49  and  C16_50 
REMARK   16  A    between atoms: C17_55  and  C18_56 
ROOT
HETATM    1  C1  UNL     1     -35.622   8.707  17.578  1.00  0.00     0.073 C 
HETATM    2  C2  UNL     1     -35.030   7.998  16.384  1.00  0.00     0.154 C 
HETATM    3  C3  UNL     1     -34.319   8.884  15.407  1.00  0.00     0.172 C 
HETATM    4  C10 UNL     1     -34.991   8.044  14.365  1.00  0.00     0.177 C 
HETATM    5  S1  UNL     1     -35.924   9.057  13.196  1.00  0.00    -0.135 SA
HETATM    6  C11 UNL     1     -37.625   8.520  13.280  1.00  0.00     0.135 C 
HETATM    7  C12 UNL     1     -37.822   7.264  14.040  1.00  0.00     0.052 C 
HETATM    8  C17 UNL     1     -37.074   6.789  15.002  1.00  0.00     0.123 C 
HETATM    9  N16 UNL     1     -35.883   7.504  15.381  1.00  0.00    -0.326 N 
ENDROOT
BRANCH   3  10
HETATM   10  N1  UNL     1     -32.867   8.731  15.436  1.00  0.00    -0.344 N 
HETATM   11  C4  UNL     1     -32.054   9.889  15.414  1.00  0.00     0.269 C 
HETATM   12  O2  UNL     1     -32.530  11.041  15.373  1.00  0.00    -0.266 OA
ATOM     13  H1  UNL     1     -32.446   7.803  15.470  1.00  0.00     0.163 HD
BRANCH  11  14
HETATM   14  C5  UNL     1     -30.569   9.760  15.442  1.00  0.00     0.129 C 
BRANCH  14  15
HETATM   15  N2  UNL     1     -29.978  10.018  16.532  1.00  0.00    -0.265 N 
ATOM     16  H2  UNL     1     -30.464   9.808  17.404  1.00  0.00     0.194 HD
BRANCH  15  17
HETATM   17  O3  UNL     1     -28.737  10.558  16.604  1.00  0.00    -0.289 OA
ATOM     18  H3  UNL     1     -27.974  10.185  16.177  1.00  0.00     0.244 HD
ENDBRANCH  15  17
ENDBRANCH  14  15
BRANCH  14  19
HETATM   19  C6  UNL     1     -29.864   9.336  14.229  1.00  0.00     0.196 C 
BRANCH  19  20
HETATM   20  O4  UNL     1     -28.735   8.596  14.698  1.00  0.00    -0.387 OA
ATOM     21  H4  UNL     1     -28.101   8.642  13.992  1.00  0.00     0.210 HD
ENDBRANCH  19  20
BRANCH  19  22
HETATM   22  C7  UNL     1     -29.311  10.363  13.325  1.00  0.00     0.206 C 
BRANCH  22  23
HETATM   23  N3  UNL     1     -29.936  11.639  13.276  1.00  0.00    -0.106 N 
HETATM   24  N4  UNL     1     -31.047  12.014  12.691  1.00  0.00    -0.115 N 
HETATM   25  C8  UNL     1     -31.280  13.313  12.954  1.00  0.00     0.705 A 
ATOM     26  H4  UNL     1     -31.644  11.413  12.124  1.00  0.00     0.206 HD
HETATM   27  N6  UNL     1     -30.275  13.743  13.727  1.00  0.00    -0.020 N 
HETATM   28  C9  UNL     1     -29.443  12.731  13.933  1.00  0.00     0.707 A 
ATOM     29  H6  UNL     1     -30.168  14.688  14.094  1.00  0.00     0.203 HD
BRANCH  25  30
HETATM   30  N5  UNL     1     -32.291  14.039  12.545  1.00  0.00    -0.233 N 
ATOM     31  H52 UNL     1     -32.903  13.815  11.761  1.00  0.00     0.174 HD
ATOM     32  H51 UNL     1     -32.617  14.923  12.935  1.00  0.00     0.174 HD
ENDBRANCH  25  30
BRANCH  28  33
HETATM   33  N7  UNL     1     -28.351  12.800  14.643  1.00  0.00    -0.233 N 
ATOM     34  H72 UNL     1     -28.005  12.057  15.252  1.00  0.00     0.174 HD
ATOM     35  H71 UNL     1     -27.698  13.582  14.699  1.00  0.00     0.174 HD
ENDBRANCH  28  33
ENDBRANCH  22  23
ENDBRANCH  19  22
ENDBRANCH  14  19
ENDBRANCH  11  14
ENDBRANCH   3  10
BRANCH   2  36
HETATM   36  O1  UNL     1     -34.198   6.948  16.853  1.00  0.00    -0.369 OA
ATOM     37  H1  UNL     1     -33.789   6.531  16.104  1.00  0.00     0.212 HD
ENDBRANCH   2  36
BRANCH   8  38
HETATM   38  C18 UNL     1     -37.342   5.518  15.713  1.00  0.00     0.283 C 
HETATM   39  N15 UNL     1     -38.584   5.119  16.209  1.00  0.00    -0.056 NA
HETATM   40  O8  UNL     1     -36.363   4.716  15.895  1.00  0.00    -0.269 OA
ENDBRANCH   8  38
BRANCH   7  41
HETATM   41  N8  UNL     1     -39.001   6.510  13.664  1.00  0.00    -0.339 N 
ATOM     42  H8  UNL     1     -39.746   6.323  14.334  1.00  0.00     0.167 HD
BRANCH  41  43
HETATM   43  C13 UNL     1     -39.070   6.085  12.444  1.00  0.00     0.177 A 
HETATM   44  N9  UNL     1     -39.113   6.772  11.302  1.00  0.00    -0.222 N 
HETATM   45  O5  UNL     1     -39.153   5.932  10.298  1.00  0.00    -0.153 OA
ATOM     46  H9  UNL     1     -39.114   7.789  11.224  1.00  0.00     0.198 HD
HETATM   47  N10 UNL     1     -39.140   4.711  10.739  1.00  0.00    -0.219 N 
HETATM   48  C14 UNL     1     -39.087   4.741  12.100  1.00  0.00     0.211 A 
ATOM     49  H10 UNL     1     -39.166   3.869  10.164  1.00  0.00     0.198 HD
BRANCH  48  50
HETATM   50  N11 UNL     1     -39.045   3.604  12.956  1.00  0.00    -0.156 N 
HETATM   51  N12 UNL     1     -40.020   2.720  13.144  1.00  0.00     0.004 NA
HETATM   52  N13 UNL     1     -39.578   1.808  14.023  1.00  0.00    -0.261 N 
HETATM   53  C15 UNL     1     -38.331   2.103  14.398  1.00  0.00     0.213 A 
ATOM     54  H13 UNL     1     -40.117   1.009  14.357  1.00  0.00     0.186 HD
HETATM   55  N14 UNL     1     -38.017   3.224  13.723  1.00  0.00    -0.257 N 
ATOM     56  H14 UNL     1     -37.124   3.713  13.788  1.00  0.00     0.190 HD
BRANCH  53  57
HETATM   57  C16 UNL     1     -37.479   1.367  15.347  1.00  0.00     0.247 C 
HETATM   58  O6  UNL     1     -36.760   0.440  14.910  1.00  0.00    -0.642 OA
HETATM   59  O7  UNL     1     -37.459   1.670  16.681  1.00  0.00    -0.642 OA
ENDBRANCH  53  57
ENDBRANCH  48  50
ENDBRANCH  41  43
ENDBRANCH   7  41
TORSDOF 16
ENDMDL
MODEL 4
REMARK VINA RESULT: -9.713559560      4.426      7.598
REMARK  16 active torsions:
REMARK  status: ('A' for Active; 'I' for Inactive)
REMARK    1  A    between atoms: C2_2  and  O1_3 
REMARK    2  A    between atoms: C3_5  and  N1_6 
REMARK       I    between atoms: N1_6  and  C4_8 
REMARK    3  A    between atoms: C4_8  and  C5_10 
REMARK    4  A    between atoms: C5_10  and  N2_11 
REMARK    5  A    between atoms: C5_10  and  C6_15 
REMARK    6  A    between atoms: N2_11  and  O3_13 
REMARK    7  A    between atoms: C6_15  and  O4_16 
REMARK    8  A    between atoms: C6_15  and  C7_18 
REMARK    9  A    between atoms: C7_18  and  N3_19 
REMARK   10  A    between atoms: C8_22  and  N5_23 
REMARK   11  A    between atoms: C9_28  and  N7_29 
REMARK   12  A    between atoms: C12_35  and  N8_36 
REMARK   13  A    between atoms: N8_36  and  C13_38 
REMARK   14  A    between atoms: C14_44  and  N11_45 
REMARK   15  A    between atoms: C15_49  and  C16_50 
REMARK   16  A    between atoms: C17_55  and  C18_56 
ROOT
HETATM    1  C1  UNL     1     -39.047   0.268  15.681  1.00  0.00     0.073 C 
HETATM    2  C2  UNL     1     -38.196   1.165  14.816  1.00  0.00     0.154 C 
HETATM    3  C3  UNL     1     -38.550   2.621  14.869  1.00  0.00     0.172 C 
HETATM    4  C10 UNL     1     -38.326   2.588  13.388  1.00  0.00     0.177 C 
HETATM    5  S1  UNL     1     -39.760   3.219  12.487  1.00  0.00    -0.135 SA
HETATM    6  C11 UNL     1     -40.321   1.907  11.414  1.00  0.00     0.135 C 
HETATM    7  C12 UNL     1     -39.380   0.767  11.313  1.00  0.00     0.052 C 
HETATM    8  C17 UNL     1     -38.502   0.379  12.202  1.00  0.00     0.123 C 
HETATM    9  N16 UNL     1     -38.357   1.133  13.420  1.00  0.00    -0.326 N 
ENDROOT
BRANCH   3  10
HETATM   10  N1  UNL     1     -37.571   3.429  15.591  1.00  0.00    -0.344 N 
HETATM   11  C4  UNL     1     -37.775   4.826  15.691  1.00  0.00     0.269 C 
HETATM   12  O2  UNL     1     -38.762   5.396  15.188  1.00  0.00    -0.266 OA
ATOM     13  H1  UNL     1     -36.752   2.993  16.015  1.00  0.00     0.163 HD
BRANCH  11  14
HETATM   14  C5  UNL     1     -36.790   5.674  16.422  1.00  0.00     0.129 C 
BRANCH  14  15
HETATM   15  N2  UNL     1     -37.148   6.161  17.534  1.00  0.00    -0.265 N 
ATOM     16  H2  UNL     1     -37.404   5.517  18.282  1.00  0.00     0.194 HD
BRANCH  15  17
HETATM   17  O3  UNL     1     -37.208   7.492  17.787  1.00  0.00    -0.289 OA
ATOM     18  H3  UNL     1     -38.009   8.001  17.744  1.00  0.00     0.244 HD
ENDBRANCH  15  17
ENDBRANCH  14  15
BRANCH  14  19
HETATM   19  C6  UNL     1     -35.465   5.898  15.837  1.00  0.00     0.196 C 
BRANCH  19  20
HETATM   20  O4  UNL     1     -34.789   6.747  16.769  1.00  0.00    -0.387 OA
ATOM     21  H4  UNL     1     -34.222   7.292  16.237  1.00  0.00     0.210 HD
ENDBRANCH  19  20
BRANCH  19  22
HETATM   22  C7  UNL     1     -35.362   6.586  14.535  1.00  0.00     0.206 C 
BRANCH  22  23
HETATM   23  N3  UNL     1     -36.402   7.474  14.148  1.00  0.00    -0.106 N 
HETATM   24  N4  UNL     1     -37.388   7.302  13.303  1.00  0.00    -0.115 N 
HETATM   25  C8  UNL     1     -38.167   8.399  13.288  1.00  0.00     0.705 A 
ATOM     26  H4  UNL     1     -37.543   6.464  12.742  1.00  0.00     0.206 HD
HETATM   27  N6  UNL     1     -37.635   9.269  14.155  1.00  0.00    -0.020 N 
HETATM   28  C9  UNL     1     -36.553   8.718  14.691  1.00  0.00     0.707 A 
ATOM     29  H6  UNL     1     -37.999  10.197  14.368  1.00  0.00     0.203 HD
BRANCH  25  30
HETATM   30  N5  UNL     1     -39.245   8.601  12.572  1.00  0.00    -0.233 N 
ATOM     31  H52 UNL     1     -40.193   8.687  12.939  1.00  0.00     0.174 HD
ATOM     32  H51 UNL     1     -39.307   8.698  11.558  1.00  0.00     0.174 HD
ENDBRANCH  25  30
BRANCH  28  33
HETATM   33  N7  UNL     1     -35.788   9.293  15.576  1.00  0.00    -0.233 N 
ATOM     34  H72 UNL     1     -35.106   8.807  16.159  1.00  0.00     0.174 HD
ATOM     35  H71 UNL     1     -35.755  10.285  15.816  1.00  0.00     0.174 HD
ENDBRANCH  28  33
ENDBRANCH  22  23
ENDBRANCH  19  22
ENDBRANCH  14  19
ENDBRANCH  11  14
ENDBRANCH   3  10
BRANCH   2  36
HETATM   36  O1  UNL     1     -36.832   0.937  15.138  1.00  0.00    -0.369 OA
ATOM     37  H1  UNL     1     -36.314   1.642  14.767  1.00  0.00     0.212 HD
ENDBRANCH   2  36
BRANCH   8  38
HETATM   38  C18 UNL     1     -37.592  -0.776  12.021  1.00  0.00     0.283 C 
HETATM   39  N15 UNL     1     -36.204  -0.695  11.892  1.00  0.00    -0.056 NA
HETATM   40  O8  UNL     1     -38.109  -1.943  11.976  1.00  0.00    -0.269 OA
ENDBRANCH   8  38
BRANCH   7  41
HETATM   41  N8  UNL     1     -39.486   0.004  10.087  1.00  0.00    -0.339 N 
ATOM     42  H8  UNL     1     -40.310  -0.563   9.885  1.00  0.00     0.167 HD
BRANCH  41  43
HETATM   43  C13 UNL     1     -38.495   0.070   9.258  1.00  0.00     0.177 A 
HETATM   44  N9  UNL     1     -37.630  -0.875   8.887  1.00  0.00    -0.222 N 
HETATM   45  O5  UNL     1     -36.802  -0.374   8.004  1.00  0.00    -0.153 OA
ATOM     46  H9  UNL     1     -37.616  -1.833   9.234  1.00  0.00     0.198 HD
HETATM   47  N10 UNL     1     -37.091   0.873   7.781  1.00  0.00    -0.219 N 
HETATM   48  C14 UNL     1     -38.161   1.215   8.551  1.00  0.00     0.211 A 
ATOM     49  H10 UNL     1     -36.599   1.492   7.138  1.00  0.00     0.198 HD
BRANCH  48  50
HETATM   50  N11 UNL     1     -38.788   2.493   8.582  1.00  0.00    -0.156 N 
HETATM   51  N12 UNL     1     -40.014   2.783   8.160  1.00  0.00     0.004 NA
HETATM   52  N13 UNL     1     -40.216   4.093   8.366  1.00  0.00    -0.261 N 
HETATM   53  C15 UNL     1     -39.130   4.642   8.916  1.00  0.00     0.213 A 
ATOM     54  H13 UNL     1     -41.074   4.596   8.136  1.00  0.00     0.186 HD
HETATM   55  N14 UNL     1     -38.251   3.630   9.043  1.00  0.00    -0.257 N 
ATOM     56  H14 UNL     1     -37.313   3.718   9.433  1.00  0.00     0.190 HD
BRANCH  53  57
HETATM   57  C16 UNL     1     -38.929   6.049   9.300  1.00  0.00     0.247 C 
HETATM   58  O6  UNL     1     -39.286   6.943   8.500  1.00  0.00    -0.642 OA
HETATM   59  O7  UNL     1     -38.365   6.394  10.497  1.00  0.00    -0.642 OA
ENDBRANCH  53  57
ENDBRANCH  48  50
ENDBRANCH  41  43
ENDBRANCH   7  41
TORSDOF 16
ENDMDL
MODEL 5
REMARK VINA RESULT: -9.660274130      0.907      1.058
REMARK  16 active torsions:
REMARK  status: ('A' for Active; 'I' for Inactive)
REMARK    1  A    between atoms: C2_2  and  O1_3 
REMARK    2  A    between atoms: C3_5  and  N1_6 
REMARK       I    between atoms: N1_6  and  C4_8 
REMARK    3  A    between atoms: C4_8  and  C5_10 
REMARK    4  A    between atoms: C5_10  and  N2_11 
REMARK    5  A    between atoms: C5_10  and  C6_15 
REMARK    6  A    between atoms: N2_11  and  O3_13 
REMARK    7  A    between atoms: C6_15  and  O4_16 
REMARK    8  A    between atoms: C6_15  and  C7_18 
REMARK    9  A    between atoms: C7_18  and  N3_19 
REMARK   10  A    between atoms: C8_22  and  N5_23 
REMARK   11  A    between atoms: C9_28  and  N7_29 
REMARK   12  A    between atoms: C12_35  and  N8_36 
REMARK   13  A    between atoms: N8_36  and  C13_38 
REMARK   14  A    between atoms: C14_44  and  N11_45 
REMARK   15  A    between atoms: C15_49  and  C16_50 
REMARK   16  A    between atoms: C17_55  and  C18_56 
ROOT
HETATM    1  C1  UNL     1     -36.158   8.713  17.741  1.00  0.00     0.073 C 
HETATM    2  C2  UNL     1     -35.423   7.988  16.641  1.00  0.00     0.154 C 
HETATM    3  C3  UNL     1     -34.680   8.870  15.684  1.00  0.00     0.172 C 
HETATM    4  C10 UNL     1     -35.207   7.942  14.633  1.00  0.00     0.177 C 
HETATM    5  S1  UNL     1     -36.091   8.839  13.337  1.00  0.00    -0.135 SA
HETATM    6  C11 UNL     1     -37.758   8.202  13.303  1.00  0.00     0.135 C 
HETATM    7  C12 UNL     1     -37.949   6.973  14.108  1.00  0.00     0.052 C 
HETATM    8  C17 UNL     1     -37.263   6.591  15.154  1.00  0.00     0.123 C 
HETATM    9  N16 UNL     1     -36.153   7.396  15.596  1.00  0.00    -0.326 N 
ENDROOT
BRANCH   3  10
HETATM   10  N1  UNL     1     -33.231   8.809  15.844  1.00  0.00    -0.344 N 
HETATM   11  C4  UNL     1     -32.413   9.608  15.011  1.00  0.00     0.269 C 
HETATM   12  O2  UNL     1     -32.884  10.367  14.141  1.00  0.00    -0.266 OA
ATOM     13  H1  UNL     1     -32.813   8.198  16.547  1.00  0.00     0.163 HD
BRANCH  11  14
HETATM   14  C5  UNL     1     -30.930   9.564  15.154  1.00  0.00     0.129 C 
BRANCH  14  15
HETATM   15  N2  UNL     1     -30.318   8.595  14.615  1.00  0.00    -0.265 N 
ATOM     16  H2  UNL     1     -30.835   7.998  13.969  1.00  0.00     0.194 HD
BRANCH  15  17
HETATM   17  O3  UNL     1     -29.013   8.308  14.848  1.00  0.00    -0.289 OA
ATOM     18  H3  UNL     1     -28.675   7.424  14.927  1.00  0.00     0.244 HD
ENDBRANCH  15  17
ENDBRANCH  14  15
BRANCH  14  19
HETATM   19  C6  UNL     1     -30.249  10.631  15.893  1.00  0.00     0.196 C 
BRANCH  19  20
HETATM   20  O4  UNL     1     -31.243  11.160  16.774  1.00  0.00    -0.387 OA
ATOM     21  H4  UNL     1     -31.116  12.101  16.750  1.00  0.00     0.210 HD
ENDBRANCH  19  20
BRANCH  19  22
HETATM   22  C7  UNL     1     -29.723  11.794  15.152  1.00  0.00     0.206 C 
BRANCH  22  23
HETATM   23  N3  UNL     1     -30.518  12.362  14.118  1.00  0.00    -0.106 N 
HETATM   24  N4  UNL     1     -31.505  13.221  14.187  1.00  0.00    -0.115 N 
HETATM   25  C8  UNL     1     -31.932  13.519  12.946  1.00  0.00     0.705 A 
ATOM     26  H4  UNL     1     -31.891  13.604  15.049  1.00  0.00     0.206 HD
HETATM   27  N6  UNL     1     -31.176  12.817  12.093  1.00  0.00    -0.020 N 
HETATM   28  C9  UNL     1     -30.305  12.103  12.794  1.00  0.00     0.707 A 
ATOM     29  H6  UNL     1     -31.256  12.829  11.076  1.00  0.00     0.203 HD
BRANCH  25  30
HETATM   30  N5  UNL     1     -32.898  14.338  12.612  1.00  0.00    -0.233 N 
ATOM     31  H52 UNL     1     -33.049  14.728  11.682  1.00  0.00     0.174 HD
ATOM     32  H51 UNL     1     -33.634  14.707  13.214  1.00  0.00     0.174 HD
ENDBRANCH  25  30
BRANCH  28  33
HETATM   33  N7  UNL     1     -29.415  11.301  12.278  1.00  0.00    -0.233 N 
ATOM     34  H72 UNL     1     -29.265  11.167  11.278  1.00  0.00     0.174 HD
ATOM     35  H71 UNL     1     -28.757  10.704  12.778  1.00  0.00     0.174 HD
ENDBRANCH  28  33
ENDBRANCH  22  23
ENDBRANCH  19  22
ENDBRANCH  14  19
ENDBRANCH  11  14
ENDBRANCH   3  10
BRANCH   2  36
HETATM   36  O1  UNL     1     -34.576   7.014  17.233  1.00  0.00    -0.369 OA
ATOM     37  H1  UNL     1     -33.754   7.001  16.757  1.00  0.00     0.212 HD
ENDBRANCH   2  36
BRANCH   8  38
HETATM   38  C18 UNL     1     -37.518   5.340  15.905  1.00  0.00     0.283 C 
HETATM   39  N15 UNL     1     -38.772   4.902  16.337  1.00  0.00    -0.056 NA
HETATM   40  O8  UNL     1     -36.518   4.596  16.186  1.00  0.00    -0.269 OA
ENDBRANCH   8  38
BRANCH   7  41
HETATM   41  N8  UNL     1     -39.044   6.131  13.672  1.00  0.00    -0.339 N 
ATOM     42  H8  UNL     1     -39.847   5.951  14.275  1.00  0.00     0.167 HD
BRANCH  41  43
HETATM   43  C13 UNL     1     -38.963   5.616  12.488  1.00  0.00     0.177 A 
HETATM   44  N9  UNL     1     -38.908   6.218  11.299  1.00  0.00    -0.222 N 
HETATM   45  O5  UNL     1     -38.806   5.307  10.363  1.00  0.00    -0.153 OA
ATOM     46  H9  UNL     1     -38.941   7.225  11.143  1.00  0.00     0.198 HD
HETATM   47  N10 UNL     1     -38.794   4.122  10.895  1.00  0.00    -0.219 N 
HETATM   48  C14 UNL     1     -38.891   4.252  12.247  1.00  0.00     0.211 A 
ATOM     49  H10 UNL     1     -38.724   3.242  10.386  1.00  0.00     0.198 HD
BRANCH  48  50
HETATM   50  N11 UNL     1     -38.898   3.182  13.187  1.00  0.00    -0.156 N 
HETATM   51  N12 UNL     1     -39.897   2.335  13.412  1.00  0.00     0.004 NA
HETATM   52  N13 UNL     1     -39.500   1.484  14.370  1.00  0.00    -0.261 N 
HETATM   53  C15 UNL     1     -38.258   1.781  14.758  1.00  0.00     0.213 A 
ATOM     54  H13 UNL     1     -40.066   0.723  14.746  1.00  0.00     0.186 HD
HETATM   55  N14 UNL     1     -37.900   2.841  14.011  1.00  0.00    -0.257 N 
ATOM     56  H14 UNL     1     -36.998   3.315  14.065  1.00  0.00     0.190 HD
BRANCH  53  57
HETATM   57  C16 UNL     1     -37.450   1.102  15.785  1.00  0.00     0.247 C 
HETATM   58  O6  UNL     1     -36.879   0.029  15.483  1.00  0.00    -0.642 OA
HETATM   59  O7  UNL     1     -37.312   1.612  17.046  1.00  0.00    -0.642 OA
ENDBRANCH  53  57
ENDBRANCH  48  50
ENDBRANCH  41  43
ENDBRANCH   7  41
TORSDOF 16
ENDMDL
