MODEL 1
REMARK VINA RESULT: -7.427893759      0.000      0.000
REMARK  8 active torsions:
REMARK  status: ('A' for Active; 'I' for Inactive)
REMARK    1  A    between atoms: C2_2  and  O1_3 
REMARK    2  A    between atoms: O1_3  and  C3_4 
REMARK    3  A    between atoms: C3_4  and  C4_6 
REMARK    4  A    between atoms: C5_8  and  O4_9 
REMARK    5  A    between atoms: C7_13  and  O5_14 
REMARK    6  A    between atoms: O5_14  and  C8_15 
REMARK    7  A    between atoms: C16_23  and  C17_24 
REMARK    8  A    between atoms: C17_24  and  C18_25 
ROOT
HETATM    1  C8  UNL     1      17.162  15.349  62.548  1.00  0.00     0.138 C 
HETATM    2  C9  UNL     1      17.977  14.587  63.601  1.00  0.00     0.036 C 
HETATM    3  C10 UNL     1      19.104  13.869  62.858  1.00  0.00     0.040 C 
HETATM    4  C11 UNL     1      19.787  14.891  61.974  1.00  0.00     0.058 C 
HETATM    5  C12 UNL     1      21.286  14.762  62.301  1.00  0.00     0.046 C 
HETATM    6  C13 UNL     1      19.425  16.288  62.309  1.00  0.00     0.050 C 
HETATM    7  C14 UNL     1      17.946  16.631  62.232  1.00  0.00    -0.011 C 
HETATM    8  C15 UNL     1      17.776  17.695  63.284  1.00  0.00     0.018 C 
HETATM    9  C16 UNL     1      17.510  17.111  60.889  1.00  0.00    -0.000 C 
HETATM   10  C22 UNL     1      17.988  16.383  59.699  1.00  0.00     0.008 C 
HETATM   11  C23 UNL     1      19.386  16.446  59.274  1.00  0.00     0.027 C 
HETATM   12  C24 UNL     1      20.280  15.328  59.764  1.00  0.00     0.168 C 
HETATM   13  O6  UNL     1      19.616  14.541  60.664  1.00  0.00    -0.381 OA
ENDROOT
BRANCH   1  14
HETATM   14  O5  UNL     1      15.868  15.342  62.656  1.00  0.00    -0.340 OA
BRANCH  14  15
HETATM   15  C7  UNL     1      14.588  15.363  62.805  1.00  0.00     0.136 A 
HETATM   16  C4  UNL     1      13.774  14.240  63.023  1.00  0.00     0.188 A 
HETATM   17  O3  UNL     1      12.534  14.649  63.133  1.00  0.00    -0.277 OA
HETATM   18  C5  UNL     1      12.438  15.919  63.009  1.00  0.00     0.209 A 
HETATM   19  C6  UNL     1      13.693  16.440  62.799  1.00  0.00     0.128 A 
HETATM   20 CL1  UNL     1      14.064  18.145  62.566  1.00  0.00    -0.076 Cl
BRANCH  16  21
HETATM   21  C3  UNL     1      14.135  12.826  63.124  1.00  0.00     0.320 C 
HETATM   22  O2  UNL     1      13.486  11.869  62.691  1.00  0.00    -0.257 OA
BRANCH  21  23
HETATM   23  O1  UNL     1      15.331  12.496  63.774  1.00  0.00    -0.316 OA
BRANCH  23  24
HETATM   24  C2  UNL     1      16.229  11.541  63.211  1.00  0.00     0.175 C 
HETATM   25  C1  UNL     1      16.439  11.948  61.767  1.00  0.00     0.034 C 
ENDBRANCH  23  24
ENDBRANCH  21  23
ENDBRANCH  16  21
BRANCH  18  26
HETATM   26  O4  UNL     1      11.274  16.676  63.072  1.00  0.00    -0.339 OA
ATOM     27  H4  UNL     1      10.400  16.397  62.822  1.00  0.00     0.220 HD
ENDBRANCH  18  26
ENDBRANCH  14  15
ENDBRANCH   1  14
BRANCH   9  28
HETATM   28  C17 UNL     1      17.517  18.589  60.685  1.00  0.00     0.033 C 
BRANCH  28  29
HETATM   29  C18 UNL     1      16.186  18.997  60.163  1.00  0.00    -0.024 C 
HETATM   30  C19 UNL     1      15.883  20.084  59.520  1.00  0.00    -0.091 C 
HETATM   31  C20 UNL     1      16.881  21.139  59.197  1.00  0.00     0.042 C 
HETATM   32  C21 UNL     1      14.481  20.330  59.066  1.00  0.00     0.042 C 
ENDBRANCH  28  29
ENDBRANCH   9  28
TORSDOF 8
ENDMDL
MODEL 2
REMARK VINA RESULT: -7.421775963      1.919      3.803
REMARK  8 active torsions:
REMARK  status: ('A' for Active; 'I' for Inactive)
REMARK    1  A    between atoms: C2_2  and  O1_3 
REMARK    2  A    between atoms: O1_3  and  C3_4 
REMARK    3  A    between atoms: C3_4  and  C4_6 
REMARK    4  A    between atoms: C5_8  and  O4_9 
REMARK    5  A    between atoms: C7_13  and  O5_14 
REMARK    6  A    between atoms: O5_14  and  C8_15 
REMARK    7  A    between atoms: C16_23  and  C17_24 
REMARK    8  A    between atoms: C17_24  and  C18_25 
ROOT
HETATM    1  C8  UNL     1      16.942  15.144  62.647  1.00  0.00     0.138 C 
HETATM    2  C9  UNL     1      17.484  14.128  63.660  1.00  0.00     0.036 C 
HETATM    3  C10 UNL     1      18.408  13.181  62.893  1.00  0.00     0.040 C 
HETATM    4  C11 UNL     1      19.373  14.037  62.099  1.00  0.00     0.058 C 
HETATM    5  C12 UNL     1      20.769  13.491  62.447  1.00  0.00     0.046 C 
HETATM    6  C13 UNL     1      19.381  15.456  62.524  1.00  0.00     0.050 C 
HETATM    7  C14 UNL     1      18.051  16.187  62.439  1.00  0.00    -0.011 C 
HETATM    8  C15 UNL     1      18.128  17.189  63.560  1.00  0.00     0.018 C 
HETATM    9  C16 UNL     1      17.811  16.848  61.124  1.00  0.00    -0.000 C 
HETATM   10  C22 UNL     1      18.125  16.095  59.896  1.00  0.00     0.008 C 
HETATM   11  C23 UNL     1      19.506  15.807  59.507  1.00  0.00     0.027 C 
HETATM   12  C24 UNL     1      20.051  14.463  59.936  1.00  0.00     0.168 C 
HETATM   13  O6  UNL     1      19.166  13.828  60.764  1.00  0.00    -0.381 OA
ENDROOT
BRANCH   1  14
HETATM   14  O5  UNL     1      15.690  15.477  62.727  1.00  0.00    -0.340 OA
BRANCH  14  15
HETATM   15  C7  UNL     1      14.440  15.770  62.838  1.00  0.00     0.136 A 
HETATM   16  C4  UNL     1      13.878  17.038  62.622  1.00  0.00     0.188 A 
HETATM   17  O3  UNL     1      12.585  16.951  62.820  1.00  0.00    -0.277 OA
HETATM   18  C5  UNL     1      12.231  15.765  63.145  1.00  0.00     0.209 A 
HETATM   19  C6  UNL     1      13.347  14.962  63.177  1.00  0.00     0.128 A 
HETATM   20 CL1  UNL     1      13.360  13.249  63.579  1.00  0.00    -0.076 Cl
BRANCH  16  21
HETATM   21  C3  UNL     1      14.520  18.297  62.247  1.00  0.00     0.320 C 
HETATM   22  O2  UNL     1      15.437  18.864  62.850  1.00  0.00    -0.257 OA
BRANCH  21  23
HETATM   23  O1  UNL     1      14.069  18.948  61.091  1.00  0.00    -0.316 OA
BRANCH  23  24
HETATM   24  C2  UNL     1      14.994  19.492  60.151  1.00  0.00     0.175 C 
HETATM   25  C1  UNL     1      14.177  20.287  59.154  1.00  0.00     0.034 C 
ENDBRANCH  23  24
ENDBRANCH  21  23
ENDBRANCH  16  21
BRANCH  18  26
HETATM   26  O4  UNL     1      10.941  15.328  63.424  1.00  0.00    -0.339 OA
ATOM     27  H4  UNL     1      10.257  15.137  62.794  1.00  0.00     0.220 HD
ENDBRANCH  18  26
ENDBRANCH  14  15
ENDBRANCH   1  14
BRANCH   9  28
HETATM   28  C17 UNL     1      18.218  18.280  61.026  1.00  0.00     0.033 C 
BRANCH  28  29
HETATM   29  C18 UNL     1      19.620  18.337  60.534  1.00  0.00    -0.024 C 
HETATM   30  C19 UNL     1      20.451  19.332  60.612  1.00  0.00    -0.091 C 
HETATM   31  C20 UNL     1      20.099  20.634  61.240  1.00  0.00     0.042 C 
HETATM   32  C21 UNL     1      21.833  19.210  60.059  1.00  0.00     0.042 C 
ENDBRANCH  28  29
ENDBRANCH   9  28
TORSDOF 8
ENDMDL
MODEL 3
REMARK VINA RESULT: -7.351032645      2.365      7.054
REMARK  8 active torsions:
REMARK  status: ('A' for Active; 'I' for Inactive)
REMARK    1  A    between atoms: C2_2  and  O1_3 
REMARK    2  A    between atoms: O1_3  and  C3_4 
REMARK    3  A    between atoms: C3_4  and  C4_6 
REMARK    4  A    between atoms: C5_8  and  O4_9 
REMARK    5  A    between atoms: C7_13  and  O5_14 
REMARK    6  A    between atoms: O5_14  and  C8_15 
REMARK    7  A    between atoms: C16_23  and  C17_24 
REMARK    8  A    between atoms: C17_24  and  C18_25 
ROOT
HETATM    1  C8  UNL     1      16.671  15.579  61.985  1.00  0.00     0.138 C 
HETATM    2  C9  UNL     1      15.587  16.581  62.402  1.00  0.00     0.036 C 
HETATM    3  C10 UNL     1      14.262  15.819  62.428  1.00  0.00     0.040 C 
HETATM    4  C11 UNL     1      14.478  14.564  63.246  1.00  0.00     0.058 C 
HETATM    5  C12 UNL     1      13.338  14.561  64.281  1.00  0.00     0.046 C 
HETATM    6  C13 UNL     1      15.733  14.588  64.034  1.00  0.00     0.050 C 
HETATM    7  C14 UNL     1      17.017  14.762  63.240  1.00  0.00    -0.011 C 
HETATM    8  C15 UNL     1      17.920  15.503  64.189  1.00  0.00     0.018 C 
HETATM    9  C16 UNL     1      17.625  13.477  62.791  1.00  0.00    -0.000 C 
HETATM   10  C22 UNL     1      16.738  12.447  62.219  1.00  0.00     0.008 C 
HETATM   11  C23 UNL     1      15.783  11.712  63.050  1.00  0.00     0.027 C 
HETATM   12  C24 UNL     1      14.376  12.265  63.090  1.00  0.00     0.168 C 
HETATM   13  O6  UNL     1      14.313  13.469  62.444  1.00  0.00    -0.381 OA
ENDROOT
BRANCH   1  14
HETATM   14  O5  UNL     1      17.582  15.978  61.151  1.00  0.00    -0.340 OA
BRANCH  14  15
HETATM   15  C7  UNL     1      18.522  16.361  60.356  1.00  0.00     0.136 A 
HETATM   16  C4  UNL     1      18.944  17.687  60.172  1.00  0.00     0.188 A 
HETATM   17  O3  UNL     1      19.920  17.687  59.297  1.00  0.00    -0.277 OA
HETATM   18  C5  UNL     1      20.188  16.507  58.880  1.00  0.00     0.209 A 
HETATM   19  C6  UNL     1      19.346  15.616  59.503  1.00  0.00     0.128 A 
HETATM   20 CL1  UNL     1      19.334  13.875  59.247  1.00  0.00    -0.076 Cl
BRANCH  16  21
HETATM   21  C3  UNL     1      18.456  18.920  60.787  1.00  0.00     0.320 C 
HETATM   22  O2  UNL     1      19.129  19.748  61.410  1.00  0.00    -0.257 OA
BRANCH  21  23
HETATM   23  O1  UNL     1      17.092  19.219  60.674  1.00  0.00    -0.316 OA
BRANCH  23  24
HETATM   24  C2  UNL     1      16.404  19.036  59.439  1.00  0.00     0.175 C 
HETATM   25  C1  UNL     1      15.755  20.364  59.106  1.00  0.00     0.034 C 
ENDBRANCH  23  24
ENDBRANCH  21  23
ENDBRANCH  16  21
BRANCH  18  26
HETATM   26  O4  UNL     1      21.161  16.152  57.954  1.00  0.00    -0.339 OA
ATOM     27  H4  UNL     1      21.115  15.441  57.325  1.00  0.00     0.220 HD
ENDBRANCH  18  26
ENDBRANCH  14  15
ENDBRANCH   1  14
BRANCH   9  28
HETATM   28  C17 UNL     1      18.661  12.892  63.691  1.00  0.00     0.033 C 
BRANCH  28  29
HETATM   29  C18 UNL     1      19.807  12.441  62.857  1.00  0.00    -0.024 C 
HETATM   30  C19 UNL     1      20.792  13.157  62.406  1.00  0.00    -0.091 C 
HETATM   31  C20 UNL     1      20.923  14.615  62.671  1.00  0.00     0.042 C 
HETATM   32  C21 UNL     1      21.866  12.530  61.577  1.00  0.00     0.042 C 
ENDBRANCH  28  29
ENDBRANCH   9  28
TORSDOF 8
ENDMDL
MODEL 4
REMARK VINA RESULT: -7.119551634      3.912      7.141
REMARK  8 active torsions:
REMARK  status: ('A' for Active; 'I' for Inactive)
REMARK    1  A    between atoms: C2_2  and  O1_3 
REMARK    2  A    between atoms: O1_3  and  C3_4 
REMARK    3  A    between atoms: C3_4  and  C4_6 
REMARK    4  A    between atoms: C5_8  and  O4_9 
REMARK    5  A    between atoms: C7_13  and  O5_14 
REMARK    6  A    between atoms: O5_14  and  C8_15 
REMARK    7  A    between atoms: C16_23  and  C17_24 
REMARK    8  A    between atoms: C17_24  and  C18_25 
ROOT
HETATM    1  C8  UNL     1      21.097  16.806  60.957  1.00  0.00     0.138 C 
HETATM    2  C9  UNL     1      22.384  16.215  60.370  1.00  0.00     0.036 C 
HETATM    3  C10 UNL     1      22.734  14.985  61.208  1.00  0.00     0.040 C 
HETATM    4  C11 UNL     1      21.488  14.129  61.299  1.00  0.00     0.058 C 
HETATM    5  C12 UNL     1      21.941  12.719  60.879  1.00  0.00     0.046 C 
HETATM    6  C13 UNL     1      20.441  14.519  60.326  1.00  0.00     0.050 C 
HETATM    7  C14 UNL     1      19.939  15.950  60.422  1.00  0.00    -0.011 C 
HETATM    8  C15 UNL     1      19.570  16.289  59.002  1.00  0.00     0.018 C 
HETATM    9  C16 UNL     1      18.782  16.121  61.347  1.00  0.00    -0.000 C 
HETATM   10  C22 UNL     1      18.831  15.447  62.658  1.00  0.00     0.008 C 
HETATM   11  C23 UNL     1      18.718  13.993  62.775  1.00  0.00     0.027 C 
HETATM   12  C24 UNL     1      20.022  13.228  62.834  1.00  0.00     0.168 C 
HETATM   13  O6  UNL     1      21.080  14.064  62.601  1.00  0.00    -0.381 OA
ENDROOT
BRANCH   1  14
HETATM   14  O5  UNL     1      21.009  18.097  61.059  1.00  0.00    -0.340 OA
BRANCH  14  15
HETATM   15  C7  UNL     1      20.935  19.375  61.207  1.00  0.00     0.136 A 
HETATM   16  C4  UNL     1      21.958  20.199  61.704  1.00  0.00     0.188 A 
HETATM   17  O3  UNL     1      21.524  21.435  61.703  1.00  0.00    -0.277 OA
HETATM   18  C5  UNL     1      20.325  21.519  61.263  1.00  0.00     0.209 A 
HETATM   19  C6  UNL     1      19.885  20.260  60.930  1.00  0.00     0.128 A 
HETATM   20 CL1  UNL     1      18.294  19.872  60.286  1.00  0.00    -0.076 Cl
BRANCH  16  21
HETATM   21  C3  UNL     1      23.300  19.850  62.168  1.00  0.00     0.320 C 
HETATM   22  O2  UNL     1      24.099  19.092  61.608  1.00  0.00    -0.257 OA
BRANCH  21  23
HETATM   23  O1  UNL     1      23.752  20.419  63.366  1.00  0.00    -0.316 OA
BRANCH  23  24
HETATM   24  C2  UNL     1      24.288  19.602  64.406  1.00  0.00     0.175 C 
HETATM   25  C1  UNL     1      23.788  20.185  65.712  1.00  0.00     0.034 C 
ENDBRANCH  23  24
ENDBRANCH  21  23
ENDBRANCH  16  21
BRANCH  18  26
HETATM   26  O4  UNL     1      19.566  22.677  61.131  1.00  0.00    -0.339 OA
ATOM     27  H4  UNL     1      18.633  22.765  61.284  1.00  0.00     0.220 HD
ENDBRANCH  18  26
ENDBRANCH  14  15
ENDBRANCH   1  14
BRANCH   9  28
HETATM   28  C17 UNL     1      17.428  16.046  60.726  1.00  0.00     0.033 C 
BRANCH  28  29
HETATM   29  C18 UNL     1      16.582  17.118  61.314  1.00  0.00    -0.024 C 
HETATM   30  C19 UNL     1      15.564  16.982  62.110  1.00  0.00    -0.091 C 
HETATM   31  C20 UNL     1      15.069  15.658  62.573  1.00  0.00     0.042 C 
HETATM   32  C21 UNL     1      14.825  18.182  62.607  1.00  0.00     0.042 C 
ENDBRANCH  28  29
ENDBRANCH   9  28
TORSDOF 8
ENDMDL
MODEL 5
REMARK VINA RESULT: -7.080123130      3.411      6.942
REMARK  8 active torsions:
REMARK  status: ('A' for Active; 'I' for Inactive)
REMARK    1  A    between atoms: C2_2  and  O1_3 
REMARK    2  A    between atoms: O1_3  and  C3_4 
REMARK    3  A    between atoms: C3_4  and  C4_6 
REMARK    4  A    between atoms: C5_8  and  O4_9 
REMARK    5  A    between atoms: C7_13  and  O5_14 
REMARK    6  A    between atoms: O5_14  and  C8_15 
REMARK    7  A    between atoms: C16_23  and  C17_24 
REMARK    8  A    between atoms: C17_24  and  C18_25 
ROOT
HETATM    1  C8  UNL     1      21.137  15.861  60.114  1.00  0.00     0.138 C 
HETATM    2  C9  UNL     1      21.746  15.743  58.711  1.00  0.00     0.036 C 
HETATM    3  C10 UNL     1      23.211  15.346  58.892  1.00  0.00     0.040 C 
HETATM    4  C11 UNL     1      23.246  14.156  59.828  1.00  0.00     0.058 C 
HETATM    5  C12 UNL     1      24.101  13.103  59.102  1.00  0.00     0.046 C 
HETATM    6  C13 UNL     1      21.918  13.528  60.023  1.00  0.00     0.050 C 
HETATM    7  C14 UNL     1      20.827  14.429  60.578  1.00  0.00    -0.011 C 
HETATM    8  C15 UNL     1      19.568  13.876  59.964  1.00  0.00     0.018 C 
HETATM    9  C16 UNL     1      20.756  14.440  62.067  1.00  0.00    -0.000 C 
HETATM   10  C22 UNL     1      22.016  14.540  62.826  1.00  0.00     0.008 C 
HETATM   11  C23 UNL     1      22.971  13.432  62.873  1.00  0.00     0.027 C 
HETATM   12  C24 UNL     1      24.096  13.481  61.863  1.00  0.00     0.168 C 
HETATM   13  O6  UNL     1      23.901  14.504  60.976  1.00  0.00    -0.381 OA
ENDROOT
BRANCH   1  14
HETATM   14  O5  UNL     1      20.329  16.850  60.348  1.00  0.00    -0.340 OA
BRANCH  14  15
HETATM   15  C7  UNL     1      19.505  17.823  60.536  1.00  0.00     0.136 A 
HETATM   16  C4  UNL     1      19.854  19.179  60.636  1.00  0.00     0.188 A 
HETATM   17  O3  UNL     1      18.756  19.871  60.818  1.00  0.00    -0.277 OA
HETATM   18  C5  UNL     1      17.719  19.121  60.851  1.00  0.00     0.209 A 
HETATM   19  C6  UNL     1      18.112  17.814  60.680  1.00  0.00     0.128 A 
HETATM   20 CL1  UNL     1      17.037  16.421  60.659  1.00  0.00    -0.076 Cl
BRANCH  16  21
HETATM   21  C3  UNL     1      21.168  19.817  60.568  1.00  0.00     0.320 C 
HETATM   22  O2  UNL     1      21.641  20.427  59.604  1.00  0.00    -0.257 OA
BRANCH  21  23
HETATM   23  O1  UNL     1      21.996  19.744  61.696  1.00  0.00    -0.316 OA
BRANCH  23  24
HETATM   24  C2  UNL     1      23.407  19.590  61.558  1.00  0.00     0.175 C 
HETATM   25  C1  UNL     1      23.667  18.102  61.431  1.00  0.00     0.034 C 
ENDBRANCH  23  24
ENDBRANCH  21  23
ENDBRANCH  16  21
BRANCH  18  26
HETATM   26  O4  UNL     1      16.402  19.528  61.028  1.00  0.00    -0.339 OA
ATOM     27  H4  UNL     1      15.942  19.621  61.853  1.00  0.00     0.220 HD
ENDBRANCH  18  26
ENDBRANCH  14  15
ENDBRANCH   1  14
BRANCH   9  28
HETATM   28  C17 UNL     1      19.802  13.474  62.685  1.00  0.00     0.033 C 
BRANCH  28  29
HETATM   29  C18 UNL     1      18.548  14.200  63.019  1.00  0.00    -0.024 C 
HETATM   30  C19 UNL     1      17.387  13.693  63.304  1.00  0.00    -0.091 C 
HETATM   31  C20 UNL     1      17.127  12.229  63.336  1.00  0.00     0.042 C 
HETATM   32  C21 UNL     1      16.228  14.583  63.618  1.00  0.00     0.042 C 
ENDBRANCH  28  29
ENDBRANCH   9  28
TORSDOF 8
ENDMDL
