MODEL 1
REMARK VINA RESULT: -6.750779426      0.000      0.000
REMARK  7 active torsions:
REMARK  status: ('A' for Active; 'I' for Inactive)
REMARK    1  A    between atoms: C4_4  and  O1_5 
REMARK    2  A    between atoms: O1_5  and  C5_6 
REMARK       I    between atoms: C5_6  and  N1_8 
REMARK    3  A    between atoms: N1_8  and  C6_10 
REMARK    4  A    between atoms: C13_19  and  N4_20 
REMARK    5  A    between atoms: N4_20  and  N5_22 
REMARK    6  A    between atoms: N5_22  and  N6_23 
REMARK    7  A    between atoms: C14_26  and  C15_27 
ROOT
HETATM    1  C6  UNL     1      27.683  17.663  28.795  1.00  0.00     0.124 C 
HETATM    2  C7  UNL     1      28.778  18.558  29.186  1.00  0.00     0.091 C 
HETATM    3  N2  UNL     1      29.623  19.255  29.502  1.00  0.00    -0.195 NA
HETATM    4  C8  UNL     1      27.897  17.088  27.436  1.00  0.00     0.047 C 
HETATM    5  C9  UNL     1      26.505  17.521  27.029  1.00  0.00     0.007 C 
HETATM    6  C10 UNL     1      26.459  18.398  28.254  1.00  0.00     0.047 C 
ENDROOT
BRANCH   1   7
HETATM    7  N1  UNL     1      27.278  16.761  29.834  1.00  0.00    -0.314 N 
HETATM    8  C5  UNL     1      28.171  15.743  30.246  1.00  0.00     0.366 C 
HETATM    9  O2  UNL     1      29.316  15.618  29.714  1.00  0.00    -0.238 OA
ATOM     10  H1  UNL     1      26.359  16.852  30.269  1.00  0.00     0.166 HD
BRANCH   8  11
HETATM   11  O1  UNL     1      27.868  14.828  31.240  1.00  0.00    -0.272 OA
BRANCH  11  12
HETATM   12  C4  UNL     1      27.411  13.543  30.961  1.00  0.00     0.177 C 
HETATM   13  C3  UNL     1      26.128  13.251  31.083  1.00  0.00     0.062 C 
HETATM   14  C2  UNL     1      25.348  12.043  30.875  1.00  0.00    -0.016 C 
HETATM   15  N3  UNL     1      24.941  13.902  31.450  1.00  0.00    -0.353 N 
HETATM   16  C1  UNL     1      25.597  10.769  30.927  1.00  0.00     0.023 C 
HETATM   17  C11 UNL     1      24.229  12.933  30.600  1.00  0.00     0.122 C 
HETATM   18  C12 UNL     1      22.940  12.675  31.311  1.00  0.00     0.060 C 
HETATM   19  C13 UNL     1      22.858  13.715  32.379  1.00  0.00     0.150 C 
HETATM   20  C14 UNL     1      23.882  14.737  31.979  1.00  0.00     0.211 C 
BRANCH  19  21
HETATM   21  N4  UNL     1      21.535  14.269  32.541  1.00  0.00    -0.245 N 
ATOM     22  H4  UNL     1      21.157  14.936  31.868  1.00  0.00     0.197 HD
BRANCH  21  23
HETATM   23  N5  UNL     1      20.879  13.907  33.522  1.00  0.00    -0.248 NA
BRANCH  23  24
HETATM   24  N6  UNL     1      20.292  13.345  34.465  1.00  0.00    -0.261 N 
ATOM     25  H62 UNL     1      19.429  13.794  34.159  1.00  0.00     0.193 HD
ATOM     26  H61 UNL     1      19.969  12.816  35.275  1.00  0.00     0.193 HD
ENDBRANCH  23  24
ENDBRANCH  21  23
ENDBRANCH  19  21
BRANCH  20  27
HETATM   27  C15 UNL     1      23.390  15.682  30.966  1.00  0.00     0.199 C 
HETATM   28  O3  UNL     1      24.202  16.415  30.361  1.00  0.00    -0.646 OA
HETATM   29  O4  UNL     1      22.055  15.760  30.683  1.00  0.00    -0.646 OA
ENDBRANCH  20  27
ENDBRANCH  11  12
ENDBRANCH   8  11
ENDBRANCH   1   7
TORSDOF 7
ENDMDL
MODEL 2
REMARK VINA RESULT: -6.627922493      1.444      1.952
REMARK  7 active torsions:
REMARK  status: ('A' for Active; 'I' for Inactive)
REMARK    1  A    between atoms: C4_4  and  O1_5 
REMARK    2  A    between atoms: O1_5  and  C5_6 
REMARK       I    between atoms: C5_6  and  N1_8 
REMARK    3  A    between atoms: N1_8  and  C6_10 
REMARK    4  A    between atoms: C13_19  and  N4_20 
REMARK    5  A    between atoms: N4_20  and  N5_22 
REMARK    6  A    between atoms: N5_22  and  N6_23 
REMARK    7  A    between atoms: C14_26  and  C15_27 
ROOT
HETATM    1  C6  UNL     1      29.136  17.921  28.663  1.00  0.00     0.124 C 
HETATM    2  C7  UNL     1      27.986  18.420  27.901  1.00  0.00     0.091 C 
HETATM    3  N2  UNL     1      27.089  18.796  27.306  1.00  0.00    -0.195 NA
HETATM    4  C8  UNL     1      29.945  19.035  29.238  1.00  0.00     0.047 C 
HETATM    5  C9  UNL     1      31.202  18.432  28.648  1.00  0.00     0.007 C 
HETATM    6  C10 UNL     1      30.332  17.549  27.789  1.00  0.00     0.047 C 
ENDROOT
BRANCH   1   7
HETATM    7  N1  UNL     1      28.820  16.824  29.530  1.00  0.00    -0.314 N 
HETATM    8  C5  UNL     1      27.936  17.038  30.615  1.00  0.00     0.366 C 
HETATM    9  O2  UNL     1      27.424  18.180  30.830  1.00  0.00    -0.238 OA
ATOM     10  H1  UNL     1      29.225  15.902  29.368  1.00  0.00     0.166 HD
BRANCH   8  11
HETATM   11  O1  UNL     1      27.572  16.040  31.504  1.00  0.00    -0.272 OA
BRANCH  11  12
HETATM   12  C4  UNL     1      27.547  14.694  31.149  1.00  0.00     0.177 C 
HETATM   13  C3  UNL     1      26.421  14.008  31.221  1.00  0.00     0.062 C 
HETATM   14  C2  UNL     1      26.063  12.629  30.932  1.00  0.00    -0.016 C 
HETATM   15  N3  UNL     1      25.084  14.231  31.587  1.00  0.00    -0.353 N 
HETATM   16  C1  UNL     1      26.701  11.497  30.929  1.00  0.00     0.023 C 
HETATM   17  C11 UNL     1      24.724  13.136  30.670  1.00  0.00     0.122 C 
HETATM   18  C12 UNL     1      23.575  12.447  31.332  1.00  0.00     0.060 C 
HETATM   19  C13 UNL     1      23.158  13.347  32.448  1.00  0.00     0.150 C 
HETATM   20  C14 UNL     1      23.811  14.660  32.127  1.00  0.00     0.211 C 
BRANCH  19  21
HETATM   21  N4  UNL     1      21.726  13.448  32.599  1.00  0.00    -0.245 N 
ATOM     22  H4  UNL     1      21.127  13.693  31.811  1.00  0.00     0.197 HD
BRANCH  21  23
HETATM   23  N5  UNL     1      21.253  13.225  33.718  1.00  0.00    -0.248 NA
BRANCH  23  24
HETATM   24  N6  UNL     1      20.936  12.860  34.866  1.00  0.00    -0.261 N 
ATOM     25  H62 UNL     1      21.496  12.019  34.722  1.00  0.00     0.193 HD
ATOM     26  H61 UNL     1      20.586  12.711  35.812  1.00  0.00     0.193 HD
ENDBRANCH  23  24
ENDBRANCH  21  23
ENDBRANCH  19  21
BRANCH  20  27
HETATM   27  C15 UNL     1      23.057  15.456  31.148  1.00  0.00     0.199 C 
HETATM   28  O3  UNL     1      23.569  16.493  30.670  1.00  0.00    -0.646 OA
HETATM   29  O4  UNL     1      21.804  15.071  30.760  1.00  0.00    -0.646 OA
ENDBRANCH  20  27
ENDBRANCH  11  12
ENDBRANCH   8  11
ENDBRANCH   1   7
TORSDOF 7
ENDMDL
MODEL 3
REMARK VINA RESULT: -6.572992848      2.569      7.419
REMARK  7 active torsions:
REMARK  status: ('A' for Active; 'I' for Inactive)
REMARK    1  A    between atoms: C4_4  and  O1_5 
REMARK    2  A    between atoms: O1_5  and  C5_6 
REMARK       I    between atoms: C5_6  and  N1_8 
REMARK    3  A    between atoms: N1_8  and  C6_10 
REMARK    4  A    between atoms: C13_19  and  N4_20 
REMARK    5  A    between atoms: N4_20  and  N5_22 
REMARK    6  A    between atoms: N5_22  and  N6_23 
REMARK    7  A    between atoms: C14_26  and  C15_27 
ROOT
HETATM    1  C6  UNL     1      19.669  14.154  33.138  1.00  0.00     0.124 C 
HETATM    2  C7  UNL     1      19.844  13.062  34.102  1.00  0.00     0.091 C 
HETATM    3  N2  UNL     1      19.983  12.206  34.842  1.00  0.00    -0.195 NA
HETATM    4  C8  UNL     1      19.179  15.400  33.795  1.00  0.00     0.047 C 
HETATM    5  C9  UNL     1      18.068  15.507  32.773  1.00  0.00     0.007 C 
HETATM    6  C10 UNL     1      18.352  14.083  32.368  1.00  0.00     0.047 C 
ENDROOT
BRANCH   1   7
HETATM    7  N1  UNL     1      20.757  14.284  32.212  1.00  0.00    -0.314 N 
HETATM    8  C5  UNL     1      22.081  14.338  32.712  1.00  0.00     0.366 C 
HETATM    9  O2  UNL     1      22.317  14.275  33.957  1.00  0.00    -0.238 OA
ATOM     10  H1  UNL     1      20.579  14.336  31.209  1.00  0.00     0.166 HD
BRANCH   8  11
HETATM   11  O1  UNL     1      23.193  14.462  31.895  1.00  0.00    -0.272 OA
BRANCH  11  12
HETATM   12  C4  UNL     1      24.217  13.520  31.876  1.00  0.00     0.177 C 
HETATM   13  C3  UNL     1      25.346  13.777  31.243  1.00  0.00     0.062 C 
HETATM   14  C2  UNL     1      26.577  13.031  31.039  1.00  0.00    -0.016 C 
HETATM   15  N3  UNL     1      25.908  14.822  30.493  1.00  0.00    -0.353 N 
HETATM   16  C1  UNL     1      26.889  11.771  30.991  1.00  0.00     0.023 C 
HETATM   17  C11 UNL     1      27.227  14.328  30.923  1.00  0.00     0.122 C 
HETATM   18  C12 UNL     1      28.123  14.559  29.749  1.00  0.00     0.060 C 
HETATM   19  C13 UNL     1      27.342  15.424  28.815  1.00  0.00     0.150 C 
HETATM   20  C14 UNL     1      26.223  15.963  29.659  1.00  0.00     0.211 C 
BRANCH  19  21
HETATM   21  N4  UNL     1      28.134  16.459  28.194  1.00  0.00    -0.245 N 
ATOM     22  H4  UNL     1      29.070  16.681  28.531  1.00  0.00     0.197 HD
BRANCH  21  23
HETATM   23  N5  UNL     1      27.636  17.064  27.240  1.00  0.00    -0.248 NA
BRANCH  23  24
HETATM   24  N6  UNL     1      26.954  17.676  26.396  1.00  0.00    -0.261 N 
ATOM     25  H62 UNL     1      26.124  17.222  26.778  1.00  0.00     0.193 HD
ATOM     26  H61 UNL     1      26.550  18.245  25.653  1.00  0.00     0.193 HD
ENDBRANCH  23  24
ENDBRANCH  21  23
ENDBRANCH  19  21
BRANCH  20  27
HETATM   27  C15 UNL     1      26.618  17.124  30.468  1.00  0.00     0.199 C 
HETATM   28  O3  UNL     1      25.877  18.132  30.504  1.00  0.00    -0.646 OA
HETATM   29  O4  UNL     1      27.785  17.107  31.180  1.00  0.00    -0.646 OA
ENDBRANCH  20  27
ENDBRANCH  11  12
ENDBRANCH   8  11
ENDBRANCH   1   7
TORSDOF 7
ENDMDL
MODEL 4
REMARK VINA RESULT: -6.544380226      2.646      6.486
REMARK  7 active torsions:
REMARK  status: ('A' for Active; 'I' for Inactive)
REMARK    1  A    between atoms: C4_4  and  O1_5 
REMARK    2  A    between atoms: O1_5  and  C5_6 
REMARK       I    between atoms: C5_6  and  N1_8 
REMARK    3  A    between atoms: N1_8  and  C6_10 
REMARK    4  A    between atoms: C13_19  and  N4_20 
REMARK    5  A    between atoms: N4_20  and  N5_22 
REMARK    6  A    between atoms: N5_22  and  N6_23 
REMARK    7  A    between atoms: C14_26  and  C15_27 
ROOT
HETATM    1  C6  UNL     1      23.991  13.412  31.323  1.00  0.00     0.124 C 
HETATM    2  C7  UNL     1      23.832  12.129  30.629  1.00  0.00     0.091 C 
HETATM    3  N2  UNL     1      23.715  11.137  30.080  1.00  0.00    -0.195 NA
HETATM    4  C8  UNL     1      23.336  13.401  32.663  1.00  0.00     0.047 C 
HETATM    5  C9  UNL     1      22.610  14.686  32.323  1.00  0.00     0.007 C 
HETATM    6  C10 UNL     1      22.987  14.474  30.879  1.00  0.00     0.047 C 
ENDROOT
BRANCH   1   7
HETATM    7  N1  UNL     1      25.318  13.948  31.246  1.00  0.00    -0.314 N 
HETATM    8  C5  UNL     1      26.418  13.104  31.534  1.00  0.00     0.366 C 
HETATM    9  O2  UNL     1      26.246  11.889  31.858  1.00  0.00    -0.238 OA
ATOM     10  H1  UNL     1      25.469  14.923  30.987  1.00  0.00     0.166 HD
BRANCH   8  11
HETATM   11  O1  UNL     1      27.734  13.532  31.485  1.00  0.00    -0.272 OA
BRANCH  11  12
HETATM   12  C4  UNL     1      28.533  13.368  30.357  1.00  0.00     0.177 C 
HETATM   13  C3  UNL     1      28.598  14.319  29.444  1.00  0.00     0.062 C 
HETATM   14  C2  UNL     1      29.316  14.459  28.187  1.00  0.00    -0.016 C 
HETATM   15  N3  UNL     1      28.052  15.593  29.223  1.00  0.00    -0.353 N 
HETATM   16  C1  UNL     1      29.777  13.634  27.297  1.00  0.00     0.023 C 
HETATM   17  C11 UNL     1      29.255  15.894  28.428  1.00  0.00     0.122 C 
HETATM   18  C12 UNL     1      28.770  16.768  27.316  1.00  0.00     0.060 C 
HETATM   19  C13 UNL     1      27.375  17.150  27.689  1.00  0.00     0.150 C 
HETATM   20  C14 UNL     1      27.277  16.814  29.149  1.00  0.00     0.211 C 
BRANCH  19  21
HETATM   21  N4  UNL     1      27.062  18.529  27.402  1.00  0.00    -0.245 N 
ATOM     22  H4  UNL     1      27.798  19.212  27.225  1.00  0.00     0.197 HD
BRANCH  21  23
HETATM   23  N5  UNL     1      25.870  18.852  27.378  1.00  0.00    -0.248 NA
BRANCH  23  24
HETATM   24  N6  UNL     1      24.663  19.073  27.166  1.00  0.00    -0.261 N 
ATOM     25  H62 UNL     1      24.458  18.136  27.514  1.00  0.00     0.193 HD
ATOM     26  H61 UNL     1      23.729  19.411  26.935  1.00  0.00     0.193 HD
ENDBRANCH  23  24
ENDBRANCH  21  23
ENDBRANCH  19  21
BRANCH  20  27
HETATM   27  C15 UNL     1      27.838  17.856  30.020  1.00  0.00     0.199 C 
HETATM   28  O3  UNL     1      27.400  17.988  31.184  1.00  0.00    -0.646 OA
HETATM   29  O4  UNL     1      28.833  18.676  29.567  1.00  0.00    -0.646 OA
ENDBRANCH  20  27
ENDBRANCH  11  12
ENDBRANCH   8  11
ENDBRANCH   1   7
TORSDOF 7
ENDMDL
MODEL 5
REMARK VINA RESULT: -6.455995683      2.417      6.628
REMARK  7 active torsions:
REMARK  status: ('A' for Active; 'I' for Inactive)
REMARK    1  A    between atoms: C4_4  and  O1_5 
REMARK    2  A    between atoms: O1_5  and  C5_6 
REMARK       I    between atoms: C5_6  and  N1_8 
REMARK    3  A    between atoms: N1_8  and  C6_10 
REMARK    4  A    between atoms: C13_19  and  N4_20 
REMARK    5  A    between atoms: N4_20  and  N5_22 
REMARK    6  A    between atoms: N5_22  and  N6_23 
REMARK    7  A    between atoms: C14_26  and  C15_27 
ROOT
HETATM    1  C6  UNL     1      22.883  14.818  31.217  1.00  0.00     0.124 C 
HETATM    2  C7  UNL     1      23.415  16.115  30.784  1.00  0.00     0.091 C 
HETATM    3  N2  UNL     1      23.840  17.118  30.449  1.00  0.00    -0.195 NA
HETATM    4  C8  UNL     1      21.395  14.769  31.119  1.00  0.00     0.047 C 
HETATM    5  C9  UNL     1      21.313  14.282  32.550  1.00  0.00     0.007 C 
HETATM    6  C10 UNL     1      22.752  14.688  32.733  1.00  0.00     0.047 C 
ENDROOT
BRANCH   1   7
HETATM    7  N1  UNL     1      23.612  13.696  30.703  1.00  0.00    -0.314 N 
HETATM    8  C5  UNL     1      24.964  13.522  31.085  1.00  0.00     0.366 C 
HETATM    9  O2  UNL     1      25.536  14.340  31.870  1.00  0.00    -0.238 OA
ATOM     10  H1  UNL     1      23.163  13.032  30.072  1.00  0.00     0.166 HD
BRANCH   8  11
HETATM   11  O1  UNL     1      25.747  12.470  30.640  1.00  0.00    -0.272 OA
BRANCH  11  12
HETATM   12  C4  UNL     1      27.103  12.367  30.937  1.00  0.00     0.177 C 
HETATM   13  C3  UNL     1      27.969  13.201  30.389  1.00  0.00     0.062 C 
HETATM   14  C2  UNL     1      29.411  13.360  30.486  1.00  0.00    -0.016 C 
HETATM   15  N3  UNL     1      27.954  14.284  29.497  1.00  0.00    -0.353 N 
HETATM   16  C1  UNL     1      30.406  12.567  30.746  1.00  0.00     0.023 C 
HETATM   17  C11 UNL     1      29.177  14.760  30.164  1.00  0.00     0.122 C 
HETATM   18  C12 UNL     1      29.995  15.371  29.072  1.00  0.00     0.060 C 
HETATM   19  C13 UNL     1      29.082  15.465  27.895  1.00  0.00     0.150 C 
HETATM   20  C14 UNL     1      27.710  15.280  28.475  1.00  0.00     0.211 C 
BRANCH  19  21
HETATM   21  N4  UNL     1      29.224  16.696  27.154  1.00  0.00    -0.245 N 
ATOM     22  H4  UNL     1      28.418  17.153  26.729  1.00  0.00     0.197 HD
BRANCH  21  23
HETATM   23  N5  UNL     1      30.358  17.175  27.055  1.00  0.00    -0.248 NA
BRANCH  23  24
HETATM   24  N6  UNL     1      31.421  17.764  26.785  1.00  0.00    -0.261 N 
ATOM     25  H62 UNL     1      31.691  17.669  27.764  1.00  0.00     0.193 HD
ATOM     26  H61 UNL     1      32.229  18.253  26.399  1.00  0.00     0.193 HD
ENDBRANCH  23  24
ENDBRANCH  21  23
ENDBRANCH  19  21
BRANCH  20  27
HETATM   27  C15 UNL     1      27.156  16.513  29.053  1.00  0.00     0.199 C 
HETATM   28  O3  UNL     1      26.735  17.414  28.294  1.00  0.00    -0.646 OA
HETATM   29  O4  UNL     1      27.098  16.678  30.408  1.00  0.00    -0.646 OA
ENDBRANCH  20  27
ENDBRANCH  11  12
ENDBRANCH   8  11
ENDBRANCH   1   7
TORSDOF 7
ENDMDL
