MODEL 1
REMARK VINA RESULT: -7.007282149      0.000      0.000
REMARK  6 active torsions:
REMARK  status: ('A' for Active; 'I' for Inactive)
REMARK    1  A    between atoms: C3_3  and  N1_4 
REMARK       I    between atoms: N2_7  and  C6_8 
REMARK       I    between atoms: C6_8  and  N3_10 
REMARK    2  A    between atoms: N3_10  and  C7_12 
REMARK    3  A    between atoms: C7_12  and  C8_13 
REMARK    4  A    between atoms: C7_12  and  C13_18 
REMARK    5  A    between atoms: C9_14  and  C10_15 
REMARK    6  A    between atoms: C13_18  and  O2_19 
ROOT
HETATM    1  C1  UNL     1       4.151   5.448  12.379  1.00  0.00     0.013 C 
HETATM    2  C2  UNL     1       3.100   5.756  11.860  1.00  0.00    -0.087 C 
HETATM    3  C3  UNL     1       1.869   6.120  11.205  1.00  0.00     0.365 C 
ENDROOT
BRANCH   3   4
HETATM    4  N1  UNL     1       0.668   5.509  11.711  1.00  0.00     0.107 N 
HETATM    5  C4  UNL     1       0.277   4.493  10.722  1.00  0.00     0.294 C 
HETATM    6  C5  UNL     1      -1.187   4.587  10.351  1.00  0.00     0.158 C 
HETATM    7  N2  UNL     1      -1.971   4.601  11.597  1.00  0.00    -0.326 N 
HETATM    8  C6  UNL     1      -2.989   3.617  11.756  1.00  0.00     0.319 C 
HETATM    9  C14 UNL     1      -1.618   5.612  12.520  1.00  0.00     0.122 C 
HETATM   10  O1  UNL     1      -3.204   2.759  10.829  1.00  0.00    -0.247 OA
HETATM   11  N3  UNL     1      -3.800   3.523  12.907  1.00  0.00    -0.326 N 
ATOM     12  H3  UNL     1      -3.659   4.187  13.668  1.00  0.00     0.165 HD
HETATM   13  C15 UNL     1      -2.589   6.756  12.662  1.00  0.00     0.028 C 
HETATM   14  C18 UNL     1      -0.435   6.396  11.918  1.00  0.00     0.246 C 
HETATM   15  C16 UNL     1      -1.712   7.717  13.483  1.00  0.00     0.004 C 
HETATM   16  C17 UNL     1      -0.282   7.445  12.963  1.00  0.00     0.038 C 
BRANCH  11  17
HETATM   17  C7  UNL     1      -4.819   2.517  13.035  1.00  0.00     0.189 C 
BRANCH  17  18
HETATM   18  C8  UNL     1      -5.452   2.520  14.376  1.00  0.00    -0.078 C 
HETATM   19  C9  UNL     1      -5.972   2.502  15.462  1.00  0.00    -0.100 C 
BRANCH  19  20
HETATM   20  C10 UNL     1      -6.627   2.462  16.788  1.00  0.00     0.065 A 
HETATM   21  C11 UNL     1      -7.363   1.212  17.063  1.00  0.00     0.018 A 
HETATM   22  C12 UNL     1      -6.026   1.427  17.755  1.00  0.00     0.018 A 
ENDBRANCH  19  20
ENDBRANCH  17  18
BRANCH  17  23
HETATM   23  C13 UNL     1      -4.276   1.115  12.826  1.00  0.00     0.202 C 
BRANCH  23  24
HETATM   24  O2  UNL     1      -4.895   0.466  11.779  1.00  0.00    -0.398 OA
ATOM     25  H2  UNL     1      -4.450  -0.340  11.543  1.00  0.00     0.209 HD
ENDBRANCH  23  24
ENDBRANCH  17  23
ENDBRANCH  11  17
ENDBRANCH   3   4
TORSDOF 6
ENDMDL
MODEL 2
REMARK VINA RESULT: -6.794323167      1.687      1.965
REMARK  6 active torsions:
REMARK  status: ('A' for Active; 'I' for Inactive)
REMARK    1  A    between atoms: C3_3  and  N1_4 
REMARK       I    between atoms: N2_7  and  C6_8 
REMARK       I    between atoms: C6_8  and  N3_10 
REMARK    2  A    between atoms: N3_10  and  C7_12 
REMARK    3  A    between atoms: C7_12  and  C8_13 
REMARK    4  A    between atoms: C7_12  and  C13_18 
REMARK    5  A    between atoms: C9_14  and  C10_15 
REMARK    6  A    between atoms: C13_18  and  O2_19 
ROOT
HETATM    1  C1  UNL     1       2.980   5.122   7.996  1.00  0.00     0.013 C 
HETATM    2  C2  UNL     1       1.861   5.510   8.255  1.00  0.00    -0.087 C 
HETATM    3  C3  UNL     1       0.525   5.981   8.522  1.00  0.00     0.365 C 
ENDROOT
BRANCH   3   4
HETATM    4  N1  UNL     1      -0.270   5.183   9.418  1.00  0.00     0.107 N 
HETATM    5  C4  UNL     1      -1.276   4.509   8.583  1.00  0.00     0.294 C 
HETATM    6  C5  UNL     1      -2.673   4.640   9.150  1.00  0.00     0.158 C 
HETATM    7  N2  UNL     1      -2.630   4.224  10.561  1.00  0.00    -0.326 N 
HETATM    8  C6  UNL     1      -3.517   3.189  10.978  1.00  0.00     0.319 C 
HETATM    9  C14 UNL     1      -1.693   4.912  11.365  1.00  0.00     0.122 C 
HETATM   10  O1  UNL     1      -4.323   2.655  10.137  1.00  0.00    -0.247 OA
HETATM   11  N3  UNL     1      -3.565   2.700  12.301  1.00  0.00    -0.326 N 
ATOM     12  H3  UNL     1      -2.939   3.098  13.000  1.00  0.00     0.165 HD
HETATM   13  C15 UNL     1      -2.257   5.903  12.350  1.00  0.00     0.028 C 
HETATM   14  C18 UNL     1      -0.941   5.903  10.454  1.00  0.00     0.246 C 
HETATM   15  C16 UNL     1      -0.950   6.602  12.765  1.00  0.00     0.004 C 
HETATM   16  C17 UNL     1      -0.096   6.579  11.477  1.00  0.00     0.038 C 
BRANCH  11  17
HETATM   17  C7  UNL     1      -4.473   1.653  12.688  1.00  0.00     0.189 C 
BRANCH  17  18
HETATM   18  C8  UNL     1      -4.710   1.624  14.152  1.00  0.00    -0.078 C 
HETATM   19  C9  UNL     1      -4.920   1.613  15.338  1.00  0.00    -0.100 C 
BRANCH  19  20
HETATM   20  C10 UNL     1      -5.191   1.621  16.792  1.00  0.00     0.065 A 
HETATM   21  C11 UNL     1      -6.585   1.951  17.148  1.00  0.00     0.018 A 
HETATM   22  C12 UNL     1      -6.136   0.502  17.262  1.00  0.00     0.018 A 
ENDBRANCH  19  20
ENDBRANCH  17  18
BRANCH  17  23
HETATM   23  C13 UNL     1      -3.960   0.276  12.314  1.00  0.00     0.202 C 
BRANCH  23  24
HETATM   24  O2  UNL     1      -4.560  -0.214  11.174  1.00  0.00    -0.398 OA
ATOM     25  H2  UNL     1      -4.863  -1.108  11.282  1.00  0.00     0.209 HD
ENDBRANCH  23  24
ENDBRANCH  17  23
ENDBRANCH  11  17
ENDBRANCH   3   4
TORSDOF 6
ENDMDL
MODEL 3
REMARK VINA RESULT: -6.697646414      1.498      1.620
REMARK  6 active torsions:
REMARK  status: ('A' for Active; 'I' for Inactive)
REMARK    1  A    between atoms: C3_3  and  N1_4 
REMARK       I    between atoms: N2_7  and  C6_8 
REMARK       I    between atoms: C6_8  and  N3_10 
REMARK    2  A    between atoms: N3_10  and  C7_12 
REMARK    3  A    between atoms: C7_12  and  C8_13 
REMARK    4  A    between atoms: C7_12  and  C13_18 
REMARK    5  A    between atoms: C9_14  and  C10_15 
REMARK    6  A    between atoms: C13_18  and  O2_19 
ROOT
HETATM    1  C1  UNL     1       2.699   6.984   9.607  1.00  0.00     0.013 C 
HETATM    2  C2  UNL     1       1.540   7.283   9.801  1.00  0.00    -0.087 C 
HETATM    3  C3  UNL     1       0.160   7.652   9.993  1.00  0.00     0.365 C 
ENDROOT
BRANCH   3   4
HETATM    4  N1  UNL     1      -0.665   6.707  10.699  1.00  0.00     0.107 N 
HETATM    5  C4  UNL     1      -1.570   6.125   9.696  1.00  0.00     0.294 C 
HETATM    6  C5  UNL     1      -3.012   6.125  10.157  1.00  0.00     0.158 C 
HETATM    7  N2  UNL     1      -3.061   5.514  11.495  1.00  0.00    -0.326 N 
HETATM    8  C6  UNL     1      -3.929   4.401  11.688  1.00  0.00     0.319 C 
HETATM    9  C14 UNL     1      -2.222   6.113  12.463  1.00  0.00     0.122 C 
HETATM   10  O1  UNL     1      -4.641   3.964  10.717  1.00  0.00    -0.247 OA
HETATM   11  N3  UNL     1      -4.057   3.726  12.921  1.00  0.00    -0.326 N 
ATOM     12  H3  UNL     1      -3.507   4.042  13.719  1.00  0.00     0.165 HD
HETATM   13  C15 UNL     1      -2.907   6.934  13.526  1.00  0.00     0.028 C 
HETATM   14  C18 UNL     1      -1.448   7.249  11.765  1.00  0.00     0.246 C 
HETATM   15  C16 UNL     1      -1.670   7.611  14.141  1.00  0.00     0.004 C 
HETATM   16  C17 UNL     1      -0.718   7.801  12.940  1.00  0.00     0.038 C 
BRANCH  11  17
HETATM   17  C7  UNL     1      -4.944   2.605  13.082  1.00  0.00     0.189 C 
BRANCH  17  18
HETATM   18  C8  UNL     1      -5.539   2.545  14.439  1.00  0.00    -0.078 C 
HETATM   19  C9  UNL     1      -6.042   2.490  15.532  1.00  0.00    -0.100 C 
BRANCH  19  20
HETATM   20  C10 UNL     1      -6.682   2.429  16.863  1.00  0.00     0.065 A 
HETATM   21  C11 UNL     1      -7.373   1.155  17.147  1.00  0.00     0.018 A 
HETATM   22  C12 UNL     1      -6.038   1.416  17.826  1.00  0.00     0.018 A 
ENDBRANCH  19  20
ENDBRANCH  17  18
BRANCH  17  23
HETATM   23  C13 UNL     1      -4.240   1.278  12.868  1.00  0.00     0.202 C 
BRANCH  23  24
HETATM   24  O2  UNL     1      -3.128   1.400  12.063  1.00  0.00    -0.398 OA
ATOM     25  H2  UNL     1      -2.677   2.226  12.194  1.00  0.00     0.209 HD
ENDBRANCH  23  24
ENDBRANCH  17  23
ENDBRANCH  11  17
ENDBRANCH   3   4
TORSDOF 6
ENDMDL
MODEL 4
REMARK VINA RESULT: -6.625519235      2.754      3.441
REMARK  6 active torsions:
REMARK  status: ('A' for Active; 'I' for Inactive)
REMARK    1  A    between atoms: C3_3  and  N1_4 
REMARK       I    between atoms: N2_7  and  C6_8 
REMARK       I    between atoms: C6_8  and  N3_10 
REMARK    2  A    between atoms: N3_10  and  C7_12 
REMARK    3  A    between atoms: C7_12  and  C8_13 
REMARK    4  A    between atoms: C7_12  and  C13_18 
REMARK    5  A    between atoms: C9_14  and  C10_15 
REMARK    6  A    between atoms: C13_18  and  O2_19 
ROOT
HETATM    1  C1  UNL     1      -2.855  11.621  10.851  1.00  0.00     0.013 C 
HETATM    2  C2  UNL     1      -2.071  10.697  10.882  1.00  0.00    -0.087 C 
HETATM    3  C3  UNL     1      -1.111   9.623  10.933  1.00  0.00     0.365 C 
ENDROOT
BRANCH   3   4
HETATM    4  N1  UNL     1      -1.592   8.354  11.413  1.00  0.00     0.107 N 
HETATM    5  C4  UNL     1      -2.703   7.975  10.528  1.00  0.00     0.294 C 
HETATM    6  C5  UNL     1      -3.929   7.540  11.301  1.00  0.00     0.158 C 
HETATM    7  N2  UNL     1      -3.512   6.519  12.276  1.00  0.00    -0.326 N 
HETATM    8  C6  UNL     1      -4.175   5.258  12.247  1.00  0.00     0.319 C 
HETATM    9  C14 UNL     1      -2.475   6.911  13.154  1.00  0.00     0.122 C 
HETATM   10  O1  UNL     1      -5.107   5.041  11.395  1.00  0.00    -0.247 OA
HETATM   11  N3  UNL     1      -3.859   4.199  13.124  1.00  0.00    -0.326 N 
ATOM     12  H3  UNL     1      -3.122   4.331  13.817  1.00  0.00     0.165 HD
HETATM   13  C15 UNL     1      -2.874   7.179  14.583  1.00  0.00     0.028 C 
HETATM   14  C18 UNL     1      -2.058   8.343  12.765  1.00  0.00     0.246 C 
HETATM   15  C16 UNL     1      -1.575   7.839  15.076  1.00  0.00     0.004 C 
HETATM   16  C17 UNL     1      -1.057   8.603  13.837  1.00  0.00     0.038 C 
BRANCH  11  17
HETATM   17  C7  UNL     1      -4.549   2.938  13.068  1.00  0.00     0.189 C 
BRANCH  17  18
HETATM   18  C8  UNL     1      -4.839   2.391  14.416  1.00  0.00    -0.078 C 
HETATM   19  C9  UNL     1      -5.096   1.944  15.504  1.00  0.00    -0.100 C 
BRANCH  19  20
HETATM   20  C10 UNL     1      -5.436   1.402  16.837  1.00  0.00     0.065 A 
HETATM   21  C11 UNL     1      -6.438   2.193  17.577  1.00  0.00     0.018 A 
HETATM   22  C12 UNL     1      -6.877   0.877  16.955  1.00  0.00     0.018 A 
ENDBRANCH  19  20
ENDBRANCH  17  18
BRANCH  17  23
HETATM   23  C13 UNL     1      -3.747   1.873  12.343  1.00  0.00     0.202 C 
BRANCH  23  24
HETATM   24  O2  UNL     1      -2.504   2.328  11.956  1.00  0.00    -0.398 OA
ATOM     25  H2  UNL     1      -2.118   1.787  11.276  1.00  0.00     0.209 HD
ENDBRANCH  23  24
ENDBRANCH  17  23
ENDBRANCH  11  17
ENDBRANCH   3   4
TORSDOF 6
ENDMDL
MODEL 5
REMARK VINA RESULT: -6.592284415      2.032      2.576
REMARK  6 active torsions:
REMARK  status: ('A' for Active; 'I' for Inactive)
REMARK    1  A    between atoms: C3_3  and  N1_4 
REMARK       I    between atoms: N2_7  and  C6_8 
REMARK       I    between atoms: C6_8  and  N3_10 
REMARK    2  A    between atoms: N3_10  and  C7_12 
REMARK    3  A    between atoms: C7_12  and  C8_13 
REMARK    4  A    between atoms: C7_12  and  C13_18 
REMARK    5  A    between atoms: C9_14  and  C10_15 
REMARK    6  A    between atoms: C13_18  and  O2_19 
ROOT
HETATM    1  C1  UNL     1      -1.861   9.905   9.284  1.00  0.00     0.013 C 
HETATM    2  C2  UNL     1      -1.185   8.970   9.658  1.00  0.00    -0.087 C 
HETATM    3  C3  UNL     1      -0.353   7.886  10.117  1.00  0.00     0.365 C 
ENDROOT
BRANCH   3   4
HETATM    4  N1  UNL     1      -1.023   6.799  10.781  1.00  0.00     0.107 N 
HETATM    5  C4  UNL     1      -1.941   6.217   9.790  1.00  0.00     0.294 C 
HETATM    6  C5  UNL     1      -3.336   6.024  10.345  1.00  0.00     0.158 C 
HETATM    7  N2  UNL     1      -3.221   5.292  11.617  1.00  0.00    -0.326 N 
HETATM    8  C6  UNL     1      -3.957   4.081  11.759  1.00  0.00     0.319 C 
HETATM    9  C14 UNL     1      -2.373   5.886  12.580  1.00  0.00     0.122 C 
HETATM   10  O1  UNL     1      -4.695   3.661  10.799  1.00  0.00    -0.247 OA
HETATM   11  N3  UNL     1      -3.922   3.288  12.925  1.00  0.00    -0.326 N 
ATOM     12  H3  UNL     1      -3.346   3.587  13.712  1.00  0.00     0.165 HD
HETATM   13  C15 UNL     1      -3.051   6.531  13.762  1.00  0.00     0.028 C 
HETATM   14  C18 UNL     1      -1.771   7.156  11.946  1.00  0.00     0.246 C 
HETATM   15  C16 UNL     1      -1.843   7.277  14.356  1.00  0.00     0.004 C 
HETATM   16  C17 UNL     1      -1.011   7.674  13.117  1.00  0.00     0.038 C 
BRANCH  11  17
HETATM   17  C7  UNL     1      -4.678   2.069  13.035  1.00  0.00     0.189 C 
BRANCH  17  18
HETATM   18  C8  UNL     1      -4.969   1.709  14.444  1.00  0.00    -0.078 C 
HETATM   19  C9  UNL     1      -5.226   1.414  15.583  1.00  0.00    -0.100 C 
BRANCH  19  20
HETATM   20  C10 UNL     1      -5.565   1.063  16.979  1.00  0.00     0.065 A 
HETATM   21  C11 UNL     1      -6.329   2.102  17.698  1.00  0.00     0.018 A 
HETATM   22  C12 UNL     1      -7.070   0.860  17.229  1.00  0.00     0.018 A 
ENDBRANCH  19  20
ENDBRANCH  17  18
BRANCH  17  23
HETATM   23  C13 UNL     1      -3.949   0.881  12.436  1.00  0.00     0.202 C 
BRANCH  23  24
HETATM   24  O2  UNL     1      -4.302   0.659  11.121  1.00  0.00    -0.398 OA
ATOM     25  H2  UNL     1      -3.664   0.125  10.663  1.00  0.00     0.209 HD
ENDBRANCH  23  24
ENDBRANCH  17  23
ENDBRANCH  11  17
ENDBRANCH   3   4
TORSDOF 6
ENDMDL
