MODEL 1
REMARK VINA RESULT: -7.192301447      0.000      0.000
REMARK  6 active torsions:
REMARK  status: ('A' for Active; 'I' for Inactive)
REMARK    1  A    between atoms: C2_3  and  O1_4 
REMARK    2  A    between atoms: O1_4  and  N2_5 
REMARK    3  A    between atoms: N2_5  and  C3_7 
REMARK    4  A    between atoms: C3_7  and  N3_8 
REMARK    5  A    between atoms: N3_8  and  C4_10 
REMARK    6  A    between atoms: C8_22  and  N8_23 
ROOT
HETATM    1  N1  UNL     1     -18.680 -32.596 -26.700  1.00  0.00    -0.195 NA
HETATM    2  C1  UNL     1     -18.676 -32.034 -27.729  1.00  0.00     0.087 C 
HETATM    3  C2  UNL     1     -18.681 -31.350 -29.024  1.00  0.00     0.324 C 
ENDROOT
BRANCH   3   4
HETATM    4  O1  UNL     1     -17.660 -30.385 -29.005  1.00  0.00    -0.266 OA
BRANCH   4   5
HETATM    5  N2  UNL     1     -17.837 -29.085 -28.612  1.00  0.00    -0.261 N 
ATOM      6  H2  UNL     1     -18.549 -28.534 -29.091  1.00  0.00     0.195 HD
BRANCH   5   7
HETATM    7  C3  UNL     1     -17.165 -28.518 -27.683  1.00  0.00     0.205 C 
BRANCH   7   8
HETATM    8  N3  UNL     1     -15.752 -28.458 -27.825  1.00  0.00    -0.336 N 
ATOM      9  H3  UNL     1     -15.310 -28.930 -28.615  1.00  0.00     0.168 HD
BRANCH   8  10
HETATM   10  C4  UNL     1     -15.016 -27.823 -26.979  1.00  0.00     0.124 A 
HETATM   11  N4  UNL     1     -15.534 -27.164 -25.929  1.00  0.00    -0.338 N 
HETATM   12  C5  UNL     1     -14.759 -26.503 -25.049  1.00  0.00     0.183 A 
ATOM     13  H4  UNL     1     -16.545 -27.165 -25.794  1.00  0.00     0.168 HD
HETATM   14  N5  UNL     1     -13.428 -26.519 -25.254  1.00  0.00    -0.338 N 
HETATM   15  C6  UNL     1     -12.861 -27.164 -26.289  1.00  0.00     0.124 A 
ATOM     16  H5  UNL     1     -12.826 -26.023 -24.597  1.00  0.00     0.168 HD
HETATM   17  N6  UNL     1     -11.530 -27.184 -26.499  1.00  0.00    -0.338 N 
HETATM   18  C9  UNL     1     -13.646 -27.844 -27.197  1.00  0.00     0.096 A 
HETATM   19  C7  UNL     1     -11.021 -27.851 -27.560  1.00  0.00     0.183 A 
ATOM     20  H6  UNL     1     -10.905 -26.695 -25.857  1.00  0.00     0.168 HD
HETATM   21  N7  UNL     1     -11.803 -28.510 -28.436  1.00  0.00    -0.338 N 
HETATM   22  C8  UNL     1     -13.134 -28.523 -28.274  1.00  0.00     0.117 A 
ATOM     23  H7  UNL     1     -11.382 -29.001 -29.225  1.00  0.00     0.168 HD
BRANCH  22  24
HETATM   24  N8  UNL     1     -13.935 -29.150 -29.100  1.00  0.00    -0.385 N 
ATOM     25  H82 UNL     1     -13.798 -30.142 -29.293  1.00  0.00     0.157 HD
ATOM     26  H81 UNL     1     -14.710 -28.682 -29.570  1.00  0.00     0.157 HD
ENDBRANCH  22  24
ENDBRANCH   8  10
ENDBRANCH   7   8
ENDBRANCH   5   7
ENDBRANCH   4   5
ENDBRANCH   3   4
TORSDOF 6
ENDMDL
MODEL 2
REMARK VINA RESULT: -7.146920270      3.144      5.872
REMARK  6 active torsions:
REMARK  status: ('A' for Active; 'I' for Inactive)
REMARK    1  A    between atoms: C2_3  and  O1_4 
REMARK    2  A    between atoms: O1_4  and  N2_5 
REMARK    3  A    between atoms: N2_5  and  C3_7 
REMARK    4  A    between atoms: C3_7  and  N3_8 
REMARK    5  A    between atoms: N3_8  and  C4_10 
REMARK    6  A    between atoms: C8_22  and  N8_23 
ROOT
HETATM    1  N1  UNL     1     -13.450 -25.143 -19.489  1.00  0.00    -0.195 NA
HETATM    2  C1  UNL     1     -14.154 -24.801 -20.362  1.00  0.00     0.087 C 
HETATM    3  C2  UNL     1     -15.033 -24.353 -21.445  1.00  0.00     0.324 C 
ENDROOT
BRANCH   3   4
HETATM    4  O1  UNL     1     -15.781 -25.461 -21.879  1.00  0.00    -0.266 OA
BRANCH   4   5
HETATM    5  N2  UNL     1     -15.436 -26.254 -22.941  1.00  0.00    -0.261 N 
ATOM      6  H2  UNL     1     -15.395 -27.261 -22.792  1.00  0.00     0.195 HD
BRANCH   5   7
HETATM    7  C3  UNL     1     -15.162 -25.809 -24.109  1.00  0.00     0.205 C 
BRANCH   7   8
HETATM    8  N3  UNL     1     -14.167 -26.489 -24.863  1.00  0.00    -0.336 N 
ATOM      9  H3  UNL     1     -13.195 -26.451 -24.554  1.00  0.00     0.168 HD
BRANCH   8  10
HETATM   10  C4  UNL     1     -14.463 -27.151 -25.928  1.00  0.00     0.124 A 
HETATM   11  N4  UNL     1     -15.730 -27.461 -26.253  1.00  0.00    -0.338 N 
HETATM   12  C5  UNL     1     -16.032 -28.152 -27.366  1.00  0.00     0.183 A 
ATOM     13  H4  UNL     1     -16.485 -27.162 -25.636  1.00  0.00     0.168 HD
HETATM   14  N5  UNL     1     -15.014 -28.532 -28.161  1.00  0.00    -0.338 N 
HETATM   15  C6  UNL     1     -13.729 -28.247 -27.881  1.00  0.00     0.124 A 
ATOM     16  H5  UNL     1     -15.225 -29.058 -29.010  1.00  0.00     0.168 HD
HETATM   17  N6  UNL     1     -12.706 -28.626 -28.672  1.00  0.00    -0.338 N 
HETATM   18  C9  UNL     1     -13.409 -27.540 -26.742  1.00  0.00     0.096 A 
HETATM   19  C7  UNL     1     -11.436 -28.308 -28.334  1.00  0.00     0.183 A 
ATOM     20  H6  UNL     1     -12.890 -29.152 -29.527  1.00  0.00     0.168 HD
HETATM   21  N7  UNL     1     -11.141 -27.615 -27.218  1.00  0.00    -0.338 N 
HETATM   22  C8  UNL     1     -12.121 -27.215 -26.396  1.00  0.00     0.117 A 
ATOM     23  H7  UNL     1     -10.170 -27.395 -26.996  1.00  0.00     0.168 HD
BRANCH  22  24
HETATM   24  N8  UNL     1     -11.884 -26.539 -25.298  1.00  0.00    -0.385 N 
ATOM     25  H82 UNL     1     -11.950 -25.522 -25.298  1.00  0.00     0.157 HD
ATOM     26  H81 UNL     1     -11.630 -26.994 -24.421  1.00  0.00     0.157 HD
ENDBRANCH  22  24
ENDBRANCH   8  10
ENDBRANCH   7   8
ENDBRANCH   5   7
ENDBRANCH   4   5
ENDBRANCH   3   4
TORSDOF 6
ENDMDL
MODEL 3
REMARK VINA RESULT: -7.023656732      2.890      4.495
REMARK  6 active torsions:
REMARK  status: ('A' for Active; 'I' for Inactive)
REMARK    1  A    between atoms: C2_3  and  O1_4 
REMARK    2  A    between atoms: O1_4  and  N2_5 
REMARK    3  A    between atoms: N2_5  and  C3_7 
REMARK    4  A    between atoms: C3_7  and  N3_8 
REMARK    5  A    between atoms: N3_8  and  C4_10 
REMARK    6  A    between atoms: C8_22  and  N8_23 
ROOT
HETATM    1  N1  UNL     1     -18.137 -28.510 -24.048  1.00  0.00    -0.195 NA
HETATM    2  C1  UNL     1     -17.814 -27.681 -23.285  1.00  0.00     0.087 C 
HETATM    3  C2  UNL     1     -17.429 -26.635 -22.335  1.00  0.00     0.324 C 
ENDROOT
BRANCH   3   4
HETATM    4  O1  UNL     1     -16.026 -26.611 -22.264  1.00  0.00    -0.266 OA
BRANCH   4   5
HETATM    5  N2  UNL     1     -15.243 -25.639 -22.830  1.00  0.00    -0.261 N 
ATOM      6  H2  UNL     1     -14.776 -24.981 -22.208  1.00  0.00     0.195 HD
BRANCH   5   7
HETATM    7  C3  UNL     1     -15.063 -25.506 -24.089  1.00  0.00     0.205 C 
BRANCH   7   8
HETATM    8  N3  UNL     1     -14.144 -26.383 -24.727  1.00  0.00    -0.336 N 
ATOM      9  H3  UNL     1     -13.205 -26.486 -24.343  1.00  0.00     0.168 HD
BRANCH   8  10
HETATM   10  C4  UNL     1     -14.470 -27.052 -25.779  1.00  0.00     0.124 A 
HETATM   11  N4  UNL     1     -15.748 -27.341 -26.080  1.00  0.00    -0.338 N 
HETATM   12  C5  UNL     1     -16.081 -28.040 -27.180  1.00  0.00     0.183 A 
ATOM     13  H4  UNL     1     -16.487 -27.021 -25.455  1.00  0.00     0.168 HD
HETATM   14  N5  UNL     1     -15.083 -28.449 -27.986  1.00  0.00    -0.338 N 
HETATM   15  C6  UNL     1     -13.788 -28.186 -27.730  1.00  0.00     0.124 A 
ATOM     16  H5  UNL     1     -15.318 -28.981 -28.825  1.00  0.00     0.168 HD
HETATM   17  N6  UNL     1     -12.786 -28.593 -28.532  1.00  0.00    -0.338 N 
HETATM   18  C9  UNL     1     -13.436 -27.471 -26.604  1.00  0.00     0.096 A 
HETATM   19  C7  UNL     1     -11.504 -28.295 -28.219  1.00  0.00     0.183 A 
ATOM     20  H6  UNL     1     -12.993 -29.126 -29.378  1.00  0.00     0.168 HD
HETATM   21  N7  UNL     1     -11.178 -27.596 -27.115  1.00  0.00    -0.338 N 
HETATM   22  C8  UNL     1     -12.138 -27.166 -26.283  1.00  0.00     0.117 A 
ATOM     23  H7  UNL     1     -10.200 -27.392 -26.912  1.00  0.00     0.168 HD
BRANCH  22  24
HETATM   24  N8  UNL     1     -11.870 -26.482 -25.198  1.00  0.00    -0.385 N 
ATOM     25  H82 UNL     1     -10.907 -26.233 -24.973  1.00  0.00     0.157 HD
ATOM     26  H81 UNL     1     -12.598 -26.179 -24.551  1.00  0.00     0.157 HD
ENDBRANCH  22  24
ENDBRANCH   8  10
ENDBRANCH   7   8
ENDBRANCH   5   7
ENDBRANCH   4   5
ENDBRANCH   3   4
TORSDOF 6
ENDMDL
MODEL 4
REMARK VINA RESULT: -7.010569757      3.193      5.607
REMARK  6 active torsions:
REMARK  status: ('A' for Active; 'I' for Inactive)
REMARK    1  A    between atoms: C2_3  and  O1_4 
REMARK    2  A    between atoms: O1_4  and  N2_5 
REMARK    3  A    between atoms: N2_5  and  C3_7 
REMARK    4  A    between atoms: C3_7  and  N3_8 
REMARK    5  A    between atoms: N3_8  and  C4_10 
REMARK    6  A    between atoms: C8_22  and  N8_23 
ROOT
HETATM    1  N1  UNL     1     -18.497 -22.769 -24.095  1.00  0.00    -0.195 NA
HETATM    2  C1  UNL     1     -17.668 -23.141 -23.355  1.00  0.00     0.087 C 
HETATM    3  C2  UNL     1     -16.644 -23.600 -22.413  1.00  0.00     0.324 C 
ENDROOT
BRANCH   3   4
HETATM    4  O1  UNL     1     -15.399 -23.526 -23.061  1.00  0.00    -0.266 OA
BRANCH   4   5
HETATM    5  N2  UNL     1     -15.007 -24.365 -24.071  1.00  0.00    -0.261 N 
ATOM      6  H2  UNL     1     -14.639 -23.945 -24.924  1.00  0.00     0.195 HD
BRANCH   5   7
HETATM    7  C3  UNL     1     -15.073 -25.640 -24.011  1.00  0.00     0.205 C 
BRANCH   7   8
HETATM    8  N3  UNL     1     -14.114 -26.392 -24.743  1.00  0.00    -0.336 N 
ATOM      9  H3  UNL     1     -13.144 -26.402 -24.429  1.00  0.00     0.168 HD
BRANCH   8  10
HETATM   10  C4  UNL     1     -14.442 -27.060 -25.795  1.00  0.00     0.124 A 
HETATM   11  N4  UNL     1     -15.720 -27.352 -26.092  1.00  0.00    -0.338 N 
HETATM   12  C5  UNL     1     -16.056 -28.051 -27.191  1.00  0.00     0.183 A 
ATOM     13  H4  UNL     1     -16.458 -27.034 -25.464  1.00  0.00     0.168 HD
HETATM   14  N5  UNL     1     -15.060 -28.457 -28.001  1.00  0.00    -0.338 N 
HETATM   15  C6  UNL     1     -13.765 -28.191 -27.750  1.00  0.00     0.124 A 
ATOM     16  H5  UNL     1     -15.296 -28.989 -28.839  1.00  0.00     0.168 HD
HETATM   17  N6  UNL     1     -12.764 -28.595 -28.556  1.00  0.00    -0.338 N 
HETATM   18  C9  UNL     1     -13.411 -27.476 -26.624  1.00  0.00     0.096 A 
HETATM   19  C7  UNL     1     -11.482 -28.295 -28.246  1.00  0.00     0.183 A 
ATOM     20  H6  UNL     1     -12.973 -29.128 -29.400  1.00  0.00     0.168 HD
HETATM   21  N7  UNL     1     -11.154 -27.595 -27.143  1.00  0.00    -0.338 N 
HETATM   22  C8  UNL     1     -12.111 -27.169 -26.307  1.00  0.00     0.117 A 
ATOM     23  H7  UNL     1     -10.175 -27.389 -26.943  1.00  0.00     0.168 HD
BRANCH  22  24
HETATM   24  N8  UNL     1     -11.841 -26.485 -25.222  1.00  0.00    -0.385 N 
ATOM     25  H82 UNL     1     -10.888 -26.176 -25.034  1.00  0.00     0.157 HD
ATOM     26  H81 UNL     1     -12.558 -26.240 -24.539  1.00  0.00     0.157 HD
ENDBRANCH  22  24
ENDBRANCH   8  10
ENDBRANCH   7   8
ENDBRANCH   5   7
ENDBRANCH   4   5
ENDBRANCH   3   4
TORSDOF 6
ENDMDL
MODEL 5
REMARK VINA RESULT: -6.928217406      2.775      4.085
REMARK  6 active torsions:
REMARK  status: ('A' for Active; 'I' for Inactive)
REMARK    1  A    between atoms: C2_3  and  O1_4 
REMARK    2  A    between atoms: O1_4  and  N2_5 
REMARK    3  A    between atoms: N2_5  and  C3_7 
REMARK    4  A    between atoms: C3_7  and  N3_8 
REMARK    5  A    between atoms: N3_8  and  C4_10 
REMARK    6  A    between atoms: C8_22  and  N8_23 
ROOT
HETATM    1  N1  UNL     1     -17.885 -28.420 -22.573  1.00  0.00    -0.195 NA
HETATM    2  C1  UNL     1     -17.580 -27.365 -22.981  1.00  0.00     0.087 C 
HETATM    3  C2  UNL     1     -17.205 -26.036 -23.472  1.00  0.00     0.324 C 
ENDROOT
BRANCH   3   4
HETATM    4  O1  UNL     1     -17.253 -26.066 -24.876  1.00  0.00    -0.266 OA
BRANCH   4   5
HETATM    5  N2  UNL     1     -17.605 -27.168 -25.610  1.00  0.00    -0.261 N 
ATOM      6  H2  UNL     1     -18.520 -27.583 -25.440  1.00  0.00     0.195 HD
BRANCH   5   7
HETATM    7  C3  UNL     1     -16.857 -27.709 -26.496  1.00  0.00     0.205 C 
BRANCH   7   8
HETATM    8  N3  UNL     1     -15.462 -27.444 -26.441  1.00  0.00    -0.336 N 
ATOM      9  H3  UNL     1     -15.104 -26.803 -25.732  1.00  0.00     0.168 HD
BRANCH   8  10
HETATM   10  C4  UNL     1     -14.638 -27.994 -27.265  1.00  0.00     0.124 A 
HETATM   11  N4  UNL     1     -15.037 -28.523 -28.434  1.00  0.00    -0.338 N 
HETATM   12  C5  UNL     1     -14.172 -29.096 -29.290  1.00  0.00     0.183 A 
ATOM     13  H4  UNL     1     -16.027 -28.490 -28.680  1.00  0.00     0.168 HD
HETATM   14  N5  UNL     1     -12.873 -29.126 -28.938  1.00  0.00    -0.338 N 
HETATM   15  C6  UNL     1     -12.422 -28.610 -27.780  1.00  0.00     0.124 A 
ATOM     16  H5  UNL     1     -12.203 -29.557 -29.576  1.00  0.00     0.168 HD
HETATM   17  N6  UNL     1     -11.123 -28.637 -27.423  1.00  0.00    -0.338 N 
HETATM   18  C9  UNL     1     -13.301 -28.021 -26.895  1.00  0.00     0.096 A 
HETATM   19  C7  UNL     1     -10.734 -28.101 -26.244  1.00  0.00     0.183 A 
ATOM     20  H6  UNL     1     -10.433 -29.063 -28.042  1.00  0.00     0.168 HD
HETATM   21  N7  UNL     1     -11.607 -27.530 -25.391  1.00  0.00    -0.338 N 
HETATM   22  C8  UNL     1     -12.911 -27.476 -25.698  1.00  0.00     0.117 A 
ATOM     23  H7  UNL     1     -11.275 -27.137 -24.510  1.00  0.00     0.168 HD
BRANCH  22  24
HETATM   24  N8  UNL     1     -13.796 -26.930 -24.902  1.00  0.00    -0.385 N 
ATOM     25  H82 UNL     1     -13.599 -26.038 -24.450  1.00  0.00     0.157 HD
ATOM     26  H81 UNL     1     -14.698 -27.366 -24.709  1.00  0.00     0.157 HD
ENDBRANCH  22  24
ENDBRANCH   8  10
ENDBRANCH   7   8
ENDBRANCH   5   7
ENDBRANCH   4   5
ENDBRANCH   3   4
TORSDOF 6
ENDMDL
