MODEL 1
REMARK VINA RESULT: -7.507954662      0.000      0.000
REMARK  4 active torsions:
REMARK  status: ('A' for Active; 'I' for Inactive)
REMARK    1  A    between atoms: C1_4  and  C2_6 
REMARK    2  A    between atoms: C3_9  and  C4_10 
REMARK    3  A    between atoms: N4_11  and  N5_13 
REMARK    4  A    between atoms: N5_13  and  C5_15 
ROOT
HETATM    1  C4  UNL     1     -15.050 -25.771 -24.128  1.00  0.00     0.137 C 
HETATM    2  N4  UNL     1     -15.125 -26.246 -22.957  1.00  0.00    -0.295 N 
ATOM      3  H4  UNL     1     -14.857 -27.222 -22.833  1.00  0.00     0.186 HD
ENDROOT
BRANCH   1   4
HETATM    4  C3  UNL     1     -14.587 -26.616 -25.260  1.00  0.00     0.056 A 
HETATM    5  N3  UNL     1     -13.339 -26.687 -25.588  1.00  0.00    -0.346 N 
HETATM    6  C2  UNL     1     -12.957 -27.446 -26.599  1.00  0.00     0.115 A 
ATOM      7  H3  UNL     1     -12.646 -26.155 -25.062  1.00  0.00     0.167 HD
HETATM    8  S1  UNL     1     -14.447 -28.105 -27.132  1.00  0.00    -0.079 SA
HETATM    9  C7  UNL     1     -15.481 -27.352 -26.002  1.00  0.00     0.082 A 
BRANCH   6  10
HETATM   10  C1  UNL     1     -11.613 -27.675 -27.139  1.00  0.00     0.144 C 
HETATM   11  N1  UNL     1     -10.642 -27.833 -26.334  1.00  0.00    -0.385 N 
ATOM     12  H12 UNL     1      -9.707 -27.992 -26.709  1.00  0.00     0.157 HD
ATOM     13  H11 UNL     1     -10.776 -27.803 -25.323  1.00  0.00     0.157 HD
HETATM   14  N2  UNL     1     -11.429 -27.715 -28.522  1.00  0.00    -0.080 NA
ENDBRANCH   6  10
ENDBRANCH   1   4
BRANCH   2  15
HETATM   15  N5  UNL     1     -15.537 -25.563 -21.839  1.00  0.00    -0.131 N 
ATOM     16  H5  UNL     1     -16.518 -25.309 -21.728  1.00  0.00     0.205 HD
BRANCH  15  17
HETATM   17  C5  UNL     1     -14.686 -25.246 -20.937  1.00  0.00     0.712 A 
HETATM   18  N6  UNL     1     -13.919 -26.072 -20.176  1.00  0.00    -0.184 N 
HETATM   19  C6  UNL     1     -13.155 -25.354 -19.343  1.00  0.00     0.215 A 
ATOM     20  H6  UNL     1     -13.925 -27.090 -20.233  1.00  0.00     0.185 HD
HETATM   21  N7  UNL     1     -13.449 -24.069 -19.588  1.00  0.00    -0.281 N 
HETATM   22  N8  UNL     1     -14.356 -24.006 -20.532  1.00  0.00    -0.130 N 
ATOM     23  H7  UNL     1     -13.033 -23.266 -19.115  1.00  0.00     0.188 HD
ATOM     24  H8  UNL     1     -14.754 -23.144 -20.904  1.00  0.00     0.205 HD
ENDBRANCH  15  17
ENDBRANCH   2  15
TORSDOF 4
ENDMDL
MODEL 2
REMARK VINA RESULT: -6.881623059      1.772      2.137
REMARK  4 active torsions:
REMARK  status: ('A' for Active; 'I' for Inactive)
REMARK    1  A    between atoms: C1_4  and  C2_6 
REMARK    2  A    between atoms: C3_9  and  C4_10 
REMARK    3  A    between atoms: N4_11  and  N5_13 
REMARK    4  A    between atoms: N5_13  and  C5_15 
ROOT
HETATM    1  C4  UNL     1     -14.655 -25.973 -24.464  1.00  0.00     0.137 C 
HETATM    2  N4  UNL     1     -14.772 -26.497 -23.317  1.00  0.00    -0.295 N 
ATOM      3  H4  UNL     1     -14.364 -27.422 -23.185  1.00  0.00     0.186 HD
ENDROOT
BRANCH   1   4
HETATM    4  C3  UNL     1     -13.948 -26.690 -25.557  1.00  0.00     0.056 A 
HETATM    5  N3  UNL     1     -14.591 -27.368 -26.450  1.00  0.00    -0.346 N 
HETATM    6  C2  UNL     1     -13.936 -27.996 -27.410  1.00  0.00     0.115 A 
ATOM      7  H3  UNL     1     -15.608 -27.419 -26.413  1.00  0.00     0.167 HD
HETATM    8  S1  UNL     1     -12.307 -27.612 -27.039  1.00  0.00    -0.079 SA
HETATM    9  C7  UNL     1     -12.577 -26.655 -25.653  1.00  0.00     0.082 A 
BRANCH   6  10
HETATM   10  C1  UNL     1     -14.453 -28.812 -28.513  1.00  0.00     0.144 C 
HETATM   11  N1  UNL     1     -13.632 -29.381 -29.299  1.00  0.00    -0.385 N 
ATOM     12  H12 UNL     1     -13.992 -29.949 -30.066  1.00  0.00     0.157 HD
ATOM     13  H11 UNL     1     -12.623 -29.282 -29.180  1.00  0.00     0.157 HD
HETATM   14  N2  UNL     1     -15.833 -28.948 -28.674  1.00  0.00    -0.080 NA
ENDBRANCH   6  10
ENDBRANCH   1   4
BRANCH   2  15
HETATM   15  N5  UNL     1     -15.400 -25.930 -22.236  1.00  0.00    -0.131 N 
ATOM     16  H5  UNL     1     -16.418 -25.899 -22.196  1.00  0.00     0.205 HD
BRANCH  15  17
HETATM   17  C5  UNL     1     -14.705 -25.441 -21.278  1.00  0.00     0.712 A 
HETATM   18  N6  UNL     1     -13.928 -26.103 -20.380  1.00  0.00    -0.184 N 
HETATM   19  C6  UNL     1     -13.362 -25.234 -19.532  1.00  0.00     0.215 A 
ATOM     20  H6  UNL     1     -13.796 -27.114 -20.356  1.00  0.00     0.185 HD
HETATM   21  N7  UNL     1     -13.791 -24.021 -19.907  1.00  0.00    -0.281 N 
HETATM   22  N8  UNL     1     -14.586 -24.145 -20.941  1.00  0.00    -0.130 N 
ATOM     23  H7  UNL     1     -13.538 -23.139 -19.459  1.00  0.00     0.188 HD
ATOM     24  H8  UNL     1     -15.048 -23.371 -21.420  1.00  0.00     0.205 HD
ENDBRANCH  15  17
ENDBRANCH   2  15
TORSDOF 4
ENDMDL
MODEL 3
REMARK VINA RESULT: -6.723364966      4.652      7.058
REMARK  4 active torsions:
REMARK  status: ('A' for Active; 'I' for Inactive)
REMARK    1  A    between atoms: C1_4  and  C2_6 
REMARK    2  A    between atoms: C3_9  and  C4_10 
REMARK    3  A    between atoms: N4_11  and  N5_13 
REMARK    4  A    between atoms: N5_13  and  C5_15 
ROOT
HETATM    1  C4  UNL     1     -16.650 -28.152 -26.979  1.00  0.00     0.137 C 
HETATM    2  N4  UNL     1     -16.900 -28.744 -28.070  1.00  0.00    -0.295 N 
ATOM      3  H4  UNL     1     -16.117 -28.900 -28.704  1.00  0.00     0.186 HD
ENDROOT
BRANCH   1   4
HETATM    4  C3  UNL     1     -15.269 -27.712 -26.654  1.00  0.00     0.056 A 
HETATM    5  N3  UNL     1     -14.266 -28.008 -27.413  1.00  0.00    -0.346 N 
HETATM    6  C2  UNL     1     -13.049 -27.603 -27.099  1.00  0.00     0.115 A 
ATOM      7  H3  UNL     1     -14.415 -28.557 -28.259  1.00  0.00     0.167 HD
HETATM    8  S1  UNL     1     -13.324 -26.748 -25.639  1.00  0.00    -0.079 SA
HETATM    9  C7  UNL     1     -15.012 -26.970 -25.525  1.00  0.00     0.082 A 
BRANCH   6  10
HETATM   10  C1  UNL     1     -11.782 -27.819 -27.805  1.00  0.00     0.144 C 
HETATM   11  N1  UNL     1     -10.702 -27.408 -27.277  1.00  0.00    -0.385 N 
ATOM     12  H12 UNL     1      -9.820 -27.558 -27.768  1.00  0.00     0.157 HD
ATOM     13  H11 UNL     1     -10.696 -26.931 -26.375  1.00  0.00     0.157 HD
HETATM   14  N2  UNL     1     -11.790 -28.472 -29.039  1.00  0.00    -0.080 NA
ENDBRANCH   6  10
ENDBRANCH   1   4
BRANCH   2  15
HETATM   15  N5  UNL     1     -18.132 -29.195 -28.474  1.00  0.00    -0.131 N 
ATOM     16  H5  UNL     1     -18.771 -28.567 -28.961  1.00  0.00     0.205 HD
BRANCH  15  17
HETATM   17  C5  UNL     1     -18.478 -30.405 -28.238  1.00  0.00     0.712 A 
HETATM   18  N6  UNL     1     -18.938 -30.936 -27.075  1.00  0.00    -0.184 N 
HETATM   19  C6  UNL     1     -19.191 -32.243 -27.232  1.00  0.00     0.215 A 
ATOM     20  H6  UNL     1     -19.072 -30.416 -26.208  1.00  0.00     0.185 HD
HETATM   21  N7  UNL     1     -18.884 -32.525 -28.507  1.00  0.00    -0.281 N 
HETATM   22  N8  UNL     1     -18.462 -31.437 -29.101  1.00  0.00    -0.130 N 
ATOM     23  H7  UNL     1     -18.967 -33.443 -28.945  1.00  0.00     0.188 HD
ATOM     24  H8  UNL     1     -18.165 -31.380 -30.075  1.00  0.00     0.205 HD
ENDBRANCH  15  17
ENDBRANCH   2  15
TORSDOF 4
ENDMDL
MODEL 4
REMARK VINA RESULT: -6.604155420      4.108      6.012
REMARK  4 active torsions:
REMARK  status: ('A' for Active; 'I' for Inactive)
REMARK    1  A    between atoms: C1_4  and  C2_6 
REMARK    2  A    between atoms: C3_9  and  C4_10 
REMARK    3  A    between atoms: N4_11  and  N5_13 
REMARK    4  A    between atoms: N5_13  and  C5_15 
ROOT
HETATM    1  C4  UNL     1     -13.591 -26.968 -25.678  1.00  0.00     0.137 C 
HETATM    2  N4  UNL     1     -12.970 -27.178 -26.762  1.00  0.00    -0.295 N 
ATOM      3  H4  UNL     1     -13.531 -27.399 -27.584  1.00  0.00     0.186 HD
ENDROOT
BRANCH   1   4
HETATM    4  C3  UNL     1     -15.074 -27.043 -25.628  1.00  0.00     0.056 A 
HETATM    5  N3  UNL     1     -15.749 -27.730 -26.490  1.00  0.00    -0.346 N 
HETATM    6  C2  UNL     1     -17.067 -27.778 -26.421  1.00  0.00     0.115 A 
ATOM      7  H3  UNL     1     -15.261 -28.238 -27.227  1.00  0.00     0.167 HD
HETATM    8  S1  UNL     1     -17.387 -26.793 -25.054  1.00  0.00    -0.079 SA
HETATM    9  C7  UNL     1     -15.781 -26.377 -24.654  1.00  0.00     0.082 A 
BRANCH   6  10
HETATM   10  C1  UNL     1     -18.022 -28.485 -27.280  1.00  0.00     0.144 C 
HETATM   11  N1  UNL     1     -19.259 -28.444 -26.993  1.00  0.00    -0.385 N 
ATOM     12  H12 UNL     1     -19.924 -28.936 -27.591  1.00  0.00     0.157 HD
ATOM     13  H11 UNL     1     -19.603 -27.933 -26.180  1.00  0.00     0.157 HD
HETATM   14  N2  UNL     1     -17.552 -29.184 -28.393  1.00  0.00    -0.080 NA
ENDBRANCH   6  10
ENDBRANCH   1   4
BRANCH   2  15
HETATM   15  N5  UNL     1     -11.608 -27.135 -26.926  1.00  0.00    -0.131 N 
ATOM     16  H5  UNL     1     -11.187 -26.422 -27.520  1.00  0.00     0.205 HD
BRANCH  15  17
HETATM   17  C5  UNL     1     -10.866 -27.993 -26.332  1.00  0.00     0.712 A 
HETATM   18  N6  UNL     1     -10.643 -29.291 -26.672  1.00  0.00    -0.184 N 
HETATM   19  C6  UNL     1      -9.803 -29.859 -25.796  1.00  0.00     0.215 A 
ATOM     20  H6  UNL     1     -11.055 -29.762 -27.476  1.00  0.00     0.185 HD
HETATM   21  N7  UNL     1      -9.501 -28.905 -24.904  1.00  0.00    -0.281 N 
HETATM   22  N8  UNL     1     -10.131 -27.801 -25.222  1.00  0.00    -0.130 N 
ATOM     23  H7  UNL     1      -8.879 -29.020 -24.103  1.00  0.00     0.188 HD
ATOM     24  H8  UNL     1     -10.073 -26.925 -24.703  1.00  0.00     0.205 HD
ENDBRANCH  15  17
ENDBRANCH   2  15
TORSDOF 4
ENDMDL
MODEL 5
REMARK VINA RESULT: -6.592371916      3.286      6.131
REMARK  4 active torsions:
REMARK  status: ('A' for Active; 'I' for Inactive)
REMARK    1  A    between atoms: C1_4  and  C2_6 
REMARK    2  A    between atoms: C3_9  and  C4_10 
REMARK    3  A    between atoms: N4_11  and  N5_13 
REMARK    4  A    between atoms: N5_13  and  C5_15 
ROOT
HETATM    1  C4  UNL     1     -14.968 -28.017 -26.643  1.00  0.00     0.137 C 
HETATM    2  N4  UNL     1     -14.215 -28.841 -26.044  1.00  0.00    -0.295 N 
ATOM      3  H4  UNL     1     -14.507 -29.149 -25.117  1.00  0.00     0.186 HD
ENDROOT
BRANCH   1   4
HETATM    4  C3  UNL     1     -16.220 -27.533 -26.006  1.00  0.00     0.056 A 
HETATM    5  N3  UNL     1     -16.208 -26.615 -25.096  1.00  0.00    -0.346 N 
HETATM    6  C2  UNL     1     -17.336 -26.204 -24.547  1.00  0.00     0.115 A 
ATOM      7  H3  UNL     1     -15.322 -26.205 -24.801  1.00  0.00     0.167 HD
HETATM    8  S1  UNL     1     -18.498 -27.170 -25.358  1.00  0.00    -0.079 SA
HETATM    9  C7  UNL     1     -17.441 -28.052 -26.366  1.00  0.00     0.082 A 
BRANCH   6  10
HETATM   10  C1  UNL     1     -17.556 -25.189 -23.512  1.00  0.00     0.144 C 
HETATM   11  N1  UNL     1     -17.578 -25.544 -22.292  1.00  0.00    -0.385 N 
ATOM     12  H12 UNL     1     -17.731 -24.837 -21.572  1.00  0.00     0.157 HD
ATOM     13  H11 UNL     1     -17.447 -26.518 -22.016  1.00  0.00     0.157 HD
HETATM   14  N2  UNL     1     -17.735 -23.857 -23.889  1.00  0.00    -0.080 NA
ENDBRANCH   6  10
ENDBRANCH   1   4
BRANCH   2  15
HETATM   15  N5  UNL     1     -13.040 -29.355 -26.533  1.00  0.00    -0.131 N 
ATOM     16  H5  UNL     1     -13.059 -30.097 -27.233  1.00  0.00     0.205 HD
BRANCH  15  17
HETATM   17  C5  UNL     1     -11.919 -28.902 -26.110  1.00  0.00     0.712 A 
HETATM   18  N6  UNL     1     -10.669 -29.359 -26.386  1.00  0.00    -0.184 N 
HETATM   19  C6  UNL     1      -9.755 -28.615 -25.748  1.00  0.00     0.215 A 
ATOM     20  H6  UNL     1     -10.458 -30.152 -26.991  1.00  0.00     0.185 HD
HETATM   21  N7  UNL     1     -10.445 -27.687 -25.069  1.00  0.00    -0.281 N 
HETATM   22  N8  UNL     1     -11.726 -27.858 -25.284  1.00  0.00    -0.130 N 
ATOM     23  H7  UNL     1     -10.037 -26.962 -24.479  1.00  0.00     0.188 HD
ATOM     24  H8  UNL     1     -12.467 -27.285 -24.883  1.00  0.00     0.205 HD
ENDBRANCH  15  17
ENDBRANCH   2  15
TORSDOF 4
ENDMDL
