MODEL 1
REMARK VINA RESULT: -7.871342498      0.000      0.000
REMARK  16 active torsions:
REMARK  status: ('A' for Active; 'I' for Inactive)
REMARK    1  A    between atoms: C2_2  and  O1_3 
REMARK    2  A    between atoms: O1_3  and  C3_4 
REMARK    3  A    between atoms: C3_4  and  C4_6 
REMARK    4  A    between atoms: C10_12  and  N1_13 
REMARK    5  A    between atoms: C10_12  and  C18_24 
REMARK       I    between atoms: N1_13  and  C11_15 
REMARK    6  A    between atoms: C11_15  and  C12_17 
REMARK    7  A    between atoms: C12_17  and  S1_18 
REMARK    8  A    between atoms: S1_18  and  C13_19 
REMARK    9  A    between atoms: C13_19  and  C14_20 
REMARK   10  A    between atoms: C18_24  and  O4_25 
REMARK   11  A    between atoms: C18_24  and  N2_27 
REMARK   12  A    between atoms: C20_29  and  N3_30 
REMARK       I    between atoms: N3_30  and  C21_32 
REMARK   13  A    between atoms: C21_32  and  C22_34 
REMARK   14  A    between atoms: C22_34  and  N4_36 
REMARK       I    between atoms: N4_36  and  C24_38 
REMARK   15  A    between atoms: C24_38  and  O7_40 
REMARK   16  A    between atoms: C26_42  and  C27_43 
ROOT
HETATM    1  C4  UNL     1       7.668  18.248  19.523  1.00  0.00     0.127 C 
HETATM    2  C5  UNL     1       8.345  17.234  20.380  1.00  0.00     0.018 A 
HETATM    3  C6  UNL     1       7.076  16.440  19.850  1.00  0.00     0.037 A 
HETATM    4  C7  UNL     1       7.772  16.059  21.020  1.00  0.00    -0.036 A 
HETATM    5  C8  UNL     1       7.277  16.407  22.447  1.00  0.00     0.015 C 
HETATM    6  C9  UNL     1       8.436  14.694  21.017  1.00  0.00     0.015 C 
HETATM    7  C10 UNL     1       7.548  17.146  18.548  1.00  0.00     0.115 C 
ENDROOT
BRANCH   7   8
HETATM    8  N1  UNL     1       6.402  17.195  17.617  1.00  0.00    -0.342 N 
HETATM    9  C11 UNL     1       5.813  16.182  16.910  1.00  0.00     0.228 C 
HETATM   10  O3  UNL     1       6.056  14.958  16.850  1.00  0.00    -0.273 OA
ATOM     11  H1  UNL     1       5.990  18.119  17.482  1.00  0.00     0.163 HD
BRANCH   9  12
HETATM   12  C12 UNL     1       4.630  16.631  16.018  1.00  0.00     0.176 C 
BRANCH  12  13
HETATM   13  S1  UNL     1       3.137  15.980  16.708  1.00  0.00    -0.156 SA
BRANCH  13  14
HETATM   14  C13 UNL     1       2.401  16.774  18.090  1.00  0.00     0.101 C 
BRANCH  14  15
HETATM   15  C14 UNL     1       2.462  18.250  18.031  1.00  0.00    -0.015 C 
HETATM   16  C15 UNL     1       3.137  18.992  18.920  1.00  0.00    -0.091 C 
HETATM   17  C16 UNL     1       3.128  20.462  18.763  1.00  0.00     0.042 C 
HETATM   18  C17 UNL     1       3.887  18.384  20.038  1.00  0.00     0.042 C 
ENDBRANCH  14  15
ENDBRANCH  13  14
ENDBRANCH  12  13
ENDBRANCH   9  12
ENDBRANCH   7   8
BRANCH   7  19
HETATM   19  C18 UNL     1       8.580  16.400  17.888  1.00  0.00     0.144 C 
BRANCH  19  20
HETATM   20  O4  UNL     1       8.458  15.116  18.090  1.00  0.00    -0.347 OA
ATOM     21  H4  UNL     1       8.328  14.640  17.279  1.00  0.00     0.219 HD
ENDBRANCH  19  20
BRANCH  19  22
HETATM   22  N2  UNL     1       9.671  16.728  17.087  1.00  0.00    -0.354 N 
HETATM   23  C19 UNL     1      11.052  17.169  17.390  1.00  0.00     0.152 C 
HETATM   24  C20 UNL     1      11.263  17.584  15.940  1.00  0.00     0.125 C 
HETATM   25  C26 UNL     1      10.081  16.758  15.698  1.00  0.00     0.114 C 
BRANCH  24  26
HETATM   26  N3  UNL     1      11.202  19.000  15.845  1.00  0.00    -0.351 N 
HETATM   27  C21 UNL     1      12.381  19.772  15.889  1.00  0.00     0.240 C 
HETATM   28  O5  UNL     1      13.485  19.151  16.023  1.00  0.00    -0.271 OA
ATOM     29  H3  UNL     1      10.298  19.462  15.744  1.00  0.00     0.163 HD
BRANCH  27  30
HETATM   30  C22 UNL     1      12.414  21.262  15.791  1.00  0.00     0.174 C 
HETATM   31  C23 UNL     1      11.668  21.959  16.868  1.00  0.00     0.042 C 
BRANCH  30  32
HETATM   32  N4  UNL     1      13.770  21.651  15.599  1.00  0.00    -0.324 N 
HETATM   33  C24 UNL     1      14.397  22.014  14.392  1.00  0.00     0.360 C 
HETATM   34  O6  UNL     1      13.752  22.022  13.315  1.00  0.00    -0.239 OA
ATOM     35  H4  UNL     1      14.356  21.669  16.434  1.00  0.00     0.165 HD
BRANCH  33  36
HETATM   36  O7  UNL     1      15.739  22.374  14.328  1.00  0.00    -0.309 OA
HETATM   37  C25 UNL     1      16.754  21.523  14.806  1.00  0.00     0.215 C 
ENDBRANCH  33  36
ENDBRANCH  30  32
ENDBRANCH  27  30
ENDBRANCH  24  26
BRANCH  25  38
HETATM   38  C27 UNL     1       9.213  17.110  14.577  1.00  0.00     0.002 C 
HETATM   39  C28 UNL     1       8.192  18.177  14.785  1.00  0.00     0.011 C 
HETATM   40  C29 UNL     1       8.430  15.823  14.216  1.00  0.00     0.011 C 
ENDBRANCH  25  38
ENDBRANCH  19  22
ENDBRANCH   7  19
BRANCH   1  41
HETATM   41  C3  UNL     1       8.358  19.480  19.256  1.00  0.00     0.266 C 
HETATM   42  O2  UNL     1       8.874  19.736  18.095  1.00  0.00    -0.265 OA
BRANCH  41  43
HETATM   43  O1  UNL     1       8.525  20.477  20.187  1.00  0.00    -0.321 OA
BRANCH  43  44
HETATM   44  C2  UNL     1       9.741  21.142  20.428  1.00  0.00     0.174 C 
HETATM   45  C1  UNL     1      10.800  20.090  20.718  1.00  0.00     0.034 C 
ENDBRANCH  43  44
ENDBRANCH  41  43
ENDBRANCH   1  41
TORSDOF 16
ENDMDL
MODEL 2
REMARK VINA RESULT: -7.757640171      2.221      5.200
REMARK  16 active torsions:
REMARK  status: ('A' for Active; 'I' for Inactive)
REMARK    1  A    between atoms: C2_2  and  O1_3 
REMARK    2  A    between atoms: O1_3  and  C3_4 
REMARK    3  A    between atoms: C3_4  and  C4_6 
REMARK    4  A    between atoms: C10_12  and  N1_13 
REMARK    5  A    between atoms: C10_12  and  C18_24 
REMARK       I    between atoms: N1_13  and  C11_15 
REMARK    6  A    between atoms: C11_15  and  C12_17 
REMARK    7  A    between atoms: C12_17  and  S1_18 
REMARK    8  A    between atoms: S1_18  and  C13_19 
REMARK    9  A    between atoms: C13_19  and  C14_20 
REMARK   10  A    between atoms: C18_24  and  O4_25 
REMARK   11  A    between atoms: C18_24  and  N2_27 
REMARK   12  A    between atoms: C20_29  and  N3_30 
REMARK       I    between atoms: N3_30  and  C21_32 
REMARK   13  A    between atoms: C21_32  and  C22_34 
REMARK   14  A    between atoms: C22_34  and  N4_36 
REMARK       I    between atoms: N4_36  and  C24_38 
REMARK   15  A    between atoms: C24_38  and  O7_40 
REMARK   16  A    between atoms: C26_42  and  C27_43 
ROOT
HETATM    1  C4  UNL     1       6.134  16.507  19.532  1.00  0.00     0.127 C 
HETATM    2  C5  UNL     1       5.613  15.694  18.396  1.00  0.00     0.018 A 
HETATM    3  C6  UNL     1       5.834  17.117  17.726  1.00  0.00     0.037 A 
HETATM    4  C7  UNL     1       4.956  16.151  17.180  1.00  0.00    -0.036 A 
HETATM    5  C8  UNL     1       3.420  16.199  17.379  1.00  0.00     0.015 C 
HETATM    6  C9  UNL     1       5.286  15.618  15.797  1.00  0.00     0.015 C 
HETATM    7  C10 UNL     1       7.139  16.977  18.558  1.00  0.00     0.115 C 
ENDROOT
BRANCH   7   8
HETATM    8  N1  UNL     1       7.692  18.331  18.766  1.00  0.00    -0.342 N 
HETATM    9  C11 UNL     1       8.463  18.806  19.792  1.00  0.00     0.228 C 
HETATM   10  O3  UNL     1       8.918  18.254  20.816  1.00  0.00    -0.273 OA
ATOM     11  H1  UNL     1       7.466  19.010  18.039  1.00  0.00     0.163 HD
BRANCH   9  12
HETATM   12  C12 UNL     1       8.841  20.302  19.665  1.00  0.00     0.176 C 
BRANCH  12  13
HETATM   13  S1  UNL     1      10.373  20.561  20.511  1.00  0.00    -0.156 SA
BRANCH  13  14
HETATM   14  C13 UNL     1      11.887  20.339  19.651  1.00  0.00     0.101 C 
BRANCH  14  15
HETATM   15  C14 UNL     1      12.737  21.548  19.620  1.00  0.00    -0.015 C 
HETATM   16  C15 UNL     1      13.987  21.553  19.138  1.00  0.00    -0.091 C 
HETATM   17  C16 UNL     1      14.746  22.822  19.158  1.00  0.00     0.042 C 
HETATM   18  C17 UNL     1      14.619  20.336  18.588  1.00  0.00     0.042 C 
ENDBRANCH  14  15
ENDBRANCH  13  14
ENDBRANCH  12  13
ENDBRANCH   9  12
ENDBRANCH   7   8
BRANCH   7  19
HETATM   19  C18 UNL     1       8.138  16.229  17.851  1.00  0.00     0.144 C 
BRANCH  19  20
HETATM   20  O4  UNL     1       7.934  14.943  17.935  1.00  0.00    -0.347 OA
ATOM     21  H4  UNL     1       8.118  14.611  18.805  1.00  0.00     0.219 HD
ENDBRANCH  19  20
BRANCH  19  22
HETATM   22  N2  UNL     1       9.265  16.558  17.102  1.00  0.00    -0.354 N 
HETATM   23  C19 UNL     1      10.620  17.030  17.466  1.00  0.00     0.152 C 
HETATM   24  C20 UNL     1      10.901  17.416  16.021  1.00  0.00     0.125 C 
HETATM   25  C26 UNL     1       9.748  16.563  15.736  1.00  0.00     0.114 C 
BRANCH  24  26
HETATM   26  N3  UNL     1      10.822  18.828  15.888  1.00  0.00    -0.351 N 
HETATM   27  C21 UNL     1      11.993  19.602  15.765  1.00  0.00     0.240 C 
HETATM   28  O5  UNL     1      13.109  18.987  15.783  1.00  0.00    -0.271 OA
ATOM     29  H3  UNL     1       9.910  19.286  15.883  1.00  0.00     0.163 HD
BRANCH  27  30
HETATM   30  C22 UNL     1      12.008  21.088  15.616  1.00  0.00     0.174 C 
HETATM   31  C23 UNL     1      11.135  21.804  16.580  1.00  0.00     0.042 C 
BRANCH  30  32
HETATM   32  N4  UNL     1      13.368  21.503  15.557  1.00  0.00    -0.324 N 
HETATM   33  C24 UNL     1      14.111  21.853  14.413  1.00  0.00     0.360 C 
HETATM   34  O6  UNL     1      13.582  21.824  13.275  1.00  0.00    -0.239 OA
ATOM     35  H4  UNL     1      13.863  21.551  16.448  1.00  0.00     0.165 HD
BRANCH  33  36
HETATM   36  O7  UNL     1      15.444  22.242  14.481  1.00  0.00    -0.309 OA
HETATM   37  C25 UNL     1      16.033  22.647  15.694  1.00  0.00     0.215 C 
ENDBRANCH  33  36
ENDBRANCH  30  32
ENDBRANCH  27  30
ENDBRANCH  24  26
BRANCH  25  38
HETATM   38  C27 UNL     1       8.934  16.874  14.562  1.00  0.00     0.002 C 
HETATM   39  C28 UNL     1       7.809  17.840  14.721  1.00  0.00     0.011 C 
HETATM   40  C29 UNL     1       8.299  15.536  14.110  1.00  0.00     0.011 C 
ENDBRANCH  25  38
ENDBRANCH  19  22
ENDBRANCH   7  19
BRANCH   1  41
HETATM   41  C3  UNL     1       6.462  15.829  20.756  1.00  0.00     0.266 C 
HETATM   42  O2  UNL     1       7.531  15.105  20.870  1.00  0.00    -0.265 OA
BRANCH  41  43
HETATM   43  O1  UNL     1       5.690  15.891  21.891  1.00  0.00    -0.321 OA
BRANCH  43  44
HETATM   44  C2  UNL     1       5.937  16.757  22.972  1.00  0.00     0.174 C 
HETATM   45  C1  UNL     1       6.344  15.909  24.168  1.00  0.00     0.034 C 
ENDBRANCH  43  44
ENDBRANCH  41  43
ENDBRANCH   1  41
TORSDOF 16
ENDMDL
MODEL 3
REMARK VINA RESULT: -7.756569745      1.001      1.261
REMARK  16 active torsions:
REMARK  status: ('A' for Active; 'I' for Inactive)
REMARK    1  A    between atoms: C2_2  and  O1_3 
REMARK    2  A    between atoms: O1_3  and  C3_4 
REMARK    3  A    between atoms: C3_4  and  C4_6 
REMARK    4  A    between atoms: C10_12  and  N1_13 
REMARK    5  A    between atoms: C10_12  and  C18_24 
REMARK       I    between atoms: N1_13  and  C11_15 
REMARK    6  A    between atoms: C11_15  and  C12_17 
REMARK    7  A    between atoms: C12_17  and  S1_18 
REMARK    8  A    between atoms: S1_18  and  C13_19 
REMARK    9  A    between atoms: C13_19  and  C14_20 
REMARK   10  A    between atoms: C18_24  and  O4_25 
REMARK   11  A    between atoms: C18_24  and  N2_27 
REMARK   12  A    between atoms: C20_29  and  N3_30 
REMARK       I    between atoms: N3_30  and  C21_32 
REMARK   13  A    between atoms: C21_32  and  C22_34 
REMARK   14  A    between atoms: C22_34  and  N4_36 
REMARK       I    between atoms: N4_36  and  C24_38 
REMARK   15  A    between atoms: C24_38  and  O7_40 
REMARK   16  A    between atoms: C26_42  and  C27_43 
ROOT
HETATM    1  C4  UNL     1       7.536  18.182  19.776  1.00  0.00     0.127 C 
HETATM    2  C5  UNL     1       8.264  17.115  20.520  1.00  0.00     0.018 A 
HETATM    3  C6  UNL     1       6.917  16.383  20.105  1.00  0.00     0.037 A 
HETATM    4  C7  UNL     1       7.721  15.936  21.180  1.00  0.00    -0.036 A 
HETATM    5  C8  UNL     1       7.395  16.247  22.663  1.00  0.00     0.015 C 
HETATM    6  C9  UNL     1       8.331  14.552  21.059  1.00  0.00     0.015 C 
HETATM    7  C10 UNL     1       7.272  17.120  18.784  1.00  0.00     0.115 C 
ENDROOT
BRANCH   7   8
HETATM    8  N1  UNL     1       6.034  17.241  17.986  1.00  0.00    -0.342 N 
HETATM    9  C11 UNL     1       4.819  16.638  18.170  1.00  0.00     0.228 C 
HETATM   10  O3  UNL     1       4.409  15.842  19.041  1.00  0.00    -0.273 OA
ATOM     11  H1  UNL     1       6.094  17.864  17.180  1.00  0.00     0.163 HD
BRANCH   9  12
HETATM   12  C12 UNL     1       3.757  17.006  17.105  1.00  0.00     0.176 C 
BRANCH  12  13
HETATM   13  S1  UNL     1       2.732  18.288  17.764  1.00  0.00    -0.156 SA
BRANCH  13  14
HETATM   14  C13 UNL     1       3.330  19.287  19.078  1.00  0.00     0.101 C 
BRANCH  14  15
HETATM   15  C14 UNL     1       3.009  20.722  18.928  1.00  0.00    -0.015 C 
HETATM   16  C15 UNL     1       2.227  21.392  19.785  1.00  0.00    -0.091 C 
HETATM   17  C16 UNL     1       1.973  22.828  19.535  1.00  0.00     0.042 C 
HETATM   18  C17 UNL     1       1.622  20.742  20.965  1.00  0.00     0.042 C 
ENDBRANCH  14  15
ENDBRANCH  13  14
ENDBRANCH  12  13
ENDBRANCH   9  12
ENDBRANCH   7   8
BRANCH   7  19
HETATM   19  C18 UNL     1       8.199  16.367  17.991  1.00  0.00     0.144 C 
BRANCH  19  20
HETATM   20  O4  UNL     1       7.878  15.102  17.937  1.00  0.00    -0.347 OA
ATOM     21  H4  UNL     1       8.431  14.622  17.333  1.00  0.00     0.219 HD
ENDBRANCH  19  20
BRANCH  19  22
HETATM   22  N2  UNL     1       9.351  16.671  17.271  1.00  0.00    -0.354 N 
HETATM   23  C19 UNL     1      10.700  17.133  17.669  1.00  0.00     0.152 C 
HETATM   24  C20 UNL     1      11.029  17.494  16.228  1.00  0.00     0.125 C 
HETATM   25  C26 UNL     1       9.875  16.651  15.921  1.00  0.00     0.114 C 
BRANCH  24  26
HETATM   26  N3  UNL     1      10.971  18.905  16.074  1.00  0.00    -0.351 N 
HETATM   27  C21 UNL     1      12.153  19.673  16.068  1.00  0.00     0.240 C 
HETATM   28  O5  UNL     1      13.257  19.055  16.212  1.00  0.00    -0.271 OA
ATOM     29  H3  UNL     1      10.068  19.366  15.966  1.00  0.00     0.163 HD
BRANCH  27  30
HETATM   30  C22 UNL     1      12.190  21.158  15.907  1.00  0.00     0.174 C 
HETATM   31  C23 UNL     1      11.500  21.904  16.988  1.00  0.00     0.042 C 
BRANCH  30  32
HETATM   32  N4  UNL     1      13.537  21.528  15.635  1.00  0.00    -0.324 N 
HETATM   33  C24 UNL     1      14.131  21.750  14.377  1.00  0.00     0.360 C 
HETATM   34  O6  UNL     1      13.459  21.627  13.324  1.00  0.00    -0.239 OA
ATOM     35  H4  UNL     1      14.144  21.648  16.446  1.00  0.00     0.165 HD
BRANCH  33  36
HETATM   36  O7  UNL     1      15.467  22.107  14.236  1.00  0.00    -0.309 OA
HETATM   37  C25 UNL     1      16.496  21.368  14.851  1.00  0.00     0.215 C 
ENDBRANCH  33  36
ENDBRANCH  30  32
ENDBRANCH  27  30
ENDBRANCH  24  26
BRANCH  25  38
HETATM   38  C27 UNL     1       9.101  16.955  14.719  1.00  0.00     0.002 C 
HETATM   39  C28 UNL     1       7.912  17.844  14.853  1.00  0.00     0.011 C 
HETATM   40  C29 UNL     1       8.572  15.598  14.191  1.00  0.00     0.011 C 
ENDBRANCH  25  38
ENDBRANCH  19  22
ENDBRANCH   7  19
BRANCH   1  41
HETATM   41  C3  UNL     1       8.237  19.399  19.477  1.00  0.00     0.266 C 
HETATM   42  O2  UNL     1       8.597  19.701  18.268  1.00  0.00    -0.265 OA
BRANCH  41  43
HETATM   43  O1  UNL     1       8.577  20.335  20.424  1.00  0.00    -0.321 OA
BRANCH  43  44
HETATM   44  C2  UNL     1       9.752  21.109  20.389  1.00  0.00     0.174 C 
HETATM   45  C1  UNL     1      10.937  20.169  20.555  1.00  0.00     0.034 C 
ENDBRANCH  43  44
ENDBRANCH  41  43
ENDBRANCH   1  41
TORSDOF 16
ENDMDL
MODEL 4
REMARK VINA RESULT: -7.608550006      1.330      2.321
REMARK  16 active torsions:
REMARK  status: ('A' for Active; 'I' for Inactive)
REMARK    1  A    between atoms: C2_2  and  O1_3 
REMARK    2  A    between atoms: O1_3  and  C3_4 
REMARK    3  A    between atoms: C3_4  and  C4_6 
REMARK    4  A    between atoms: C10_12  and  N1_13 
REMARK    5  A    between atoms: C10_12  and  C18_24 
REMARK       I    between atoms: N1_13  and  C11_15 
REMARK    6  A    between atoms: C11_15  and  C12_17 
REMARK    7  A    between atoms: C12_17  and  S1_18 
REMARK    8  A    between atoms: S1_18  and  C13_19 
REMARK    9  A    between atoms: C13_19  and  C14_20 
REMARK   10  A    between atoms: C18_24  and  O4_25 
REMARK   11  A    between atoms: C18_24  and  N2_27 
REMARK   12  A    between atoms: C20_29  and  N3_30 
REMARK       I    between atoms: N3_30  and  C21_32 
REMARK   13  A    between atoms: C21_32  and  C22_34 
REMARK   14  A    between atoms: C22_34  and  N4_36 
REMARK       I    between atoms: N4_36  and  C24_38 
REMARK   15  A    between atoms: C24_38  and  O7_40 
REMARK   16  A    between atoms: C26_42  and  C27_43 
ROOT
HETATM    1  C4  UNL     1       7.476  18.398  20.500  1.00  0.00     0.127 C 
HETATM    2  C5  UNL     1       8.196  17.212  21.046  1.00  0.00     0.018 A 
HETATM    3  C6  UNL     1       6.786  16.601  20.645  1.00  0.00     0.037 A 
HETATM    4  C7  UNL     1       7.638  15.983  21.590  1.00  0.00    -0.036 A 
HETATM    5  C8  UNL     1       7.434  16.113  23.121  1.00  0.00     0.015 C 
HETATM    6  C9  UNL     1       8.164  14.600  21.249  1.00  0.00     0.015 C 
HETATM    7  C10 UNL     1       7.087  17.487  19.404  1.00  0.00     0.115 C 
ENDROOT
BRANCH   7   8
HETATM    8  N1  UNL     1       5.805  17.765  18.724  1.00  0.00    -0.342 N 
HETATM    9  C11 UNL     1       4.695  16.973  18.605  1.00  0.00     0.228 C 
HETATM   10  O3  UNL     1       4.443  15.825  19.028  1.00  0.00    -0.273 OA
ATOM     11  H1  UNL     1       5.738  18.681  18.278  1.00  0.00     0.163 HD
BRANCH   9  12
HETATM   12  C12 UNL     1       3.539  17.613  17.798  1.00  0.00     0.176 C 
BRANCH  12  13
HETATM   13  S1  UNL     1       2.545  16.312  17.128  1.00  0.00    -0.156 SA
BRANCH  13  14
HETATM   14  C13 UNL     1       2.940  15.641  15.554  1.00  0.00     0.101 C 
BRANCH  14  15
HETATM   15  C14 UNL     1       4.387  15.423  15.346  1.00  0.00    -0.015 C 
HETATM   16  C15 UNL     1       4.971  14.222  15.459  1.00  0.00    -0.091 C 
HETATM   17  C16 UNL     1       6.429  14.121  15.230  1.00  0.00     0.042 C 
HETATM   18  C17 UNL     1       4.203  13.007  15.798  1.00  0.00     0.042 C 
ENDBRANCH  14  15
ENDBRANCH  13  14
ENDBRANCH  12  13
ENDBRANCH   9  12
ENDBRANCH   7   8
BRANCH   7  19
HETATM   19  C18 UNL     1       7.915  16.803  18.455  1.00  0.00     0.144 C 
BRANCH  19  20
HETATM   20  O4  UNL     1       7.392  15.667  18.082  1.00  0.00    -0.347 OA
ATOM     21  H4  UNL     1       7.971  14.935  18.259  1.00  0.00     0.219 HD
ENDBRANCH  19  20
BRANCH  19  22
HETATM   22  N2  UNL     1       9.137  17.071  17.842  1.00  0.00    -0.354 N 
HETATM   23  C19 UNL     1      10.454  17.506  18.360  1.00  0.00     0.152 C 
HETATM   24  C20 UNL     1      10.925  17.841  16.952  1.00  0.00     0.125 C 
HETATM   25  C26 UNL     1       9.784  17.021  16.548  1.00  0.00     0.114 C 
BRANCH  24  26
HETATM   26  N3  UNL     1      10.916  19.251  16.778  1.00  0.00    -0.351 N 
HETATM   27  C21 UNL     1      12.084  19.929  16.376  1.00  0.00     0.240 C 
HETATM   28  O5  UNL     1      13.133  19.232  16.186  1.00  0.00    -0.271 OA
ATOM     29  H3  UNL     1      10.058  19.776  16.945  1.00  0.00     0.163 HD
BRANCH  27  30
HETATM   30  C22 UNL     1      12.168  21.405  16.163  1.00  0.00     0.174 C 
HETATM   31  C23 UNL     1      11.416  22.207  17.159  1.00  0.00     0.042 C 
BRANCH  30  32
HETATM   32  N4  UNL     1      13.541  21.737  15.982  1.00  0.00    -0.324 N 
HETATM   33  C24 UNL     1      14.223  21.938  14.767  1.00  0.00     0.360 C 
HETATM   34  O6  UNL     1      13.620  21.831  13.671  1.00  0.00    -0.239 OA
ATOM     35  H4  UNL     1      14.094  21.842  16.832  1.00  0.00     0.165 HD
BRANCH  33  36
HETATM   36  O7  UNL     1      15.575  22.258  14.715  1.00  0.00    -0.309 OA
HETATM   37  C25 UNL     1      16.256  22.764  15.839  1.00  0.00     0.215 C 
ENDBRANCH  33  36
ENDBRANCH  30  32
ENDBRANCH  27  30
ENDBRANCH  24  26
BRANCH  25  38
HETATM   38  C27 UNL     1       9.133  17.328  15.275  1.00  0.00     0.002 C 
HETATM   39  C28 UNL     1       7.659  17.553  15.275  1.00  0.00     0.011 C 
HETATM   40  C29 UNL     1       9.386  16.108  14.355  1.00  0.00     0.011 C 
ENDBRANCH  25  38
ENDBRANCH  19  22
ENDBRANCH   7  19
BRANCH   1  41
HETATM   41  C3  UNL     1       8.218  19.612  20.304  1.00  0.00     0.266 C 
HETATM   42  O2  UNL     1       8.171  20.270  19.189  1.00  0.00    -0.265 OA
BRANCH  41  43
HETATM   43  O1  UNL     1       9.025  20.174  21.265  1.00  0.00    -0.321 OA
BRANCH  43  44
HETATM   44  C2  UNL     1       9.970  21.186  21.014  1.00  0.00     0.174 C 
HETATM   45  C1  UNL     1      11.204  20.534  20.408  1.00  0.00     0.034 C 
ENDBRANCH  43  44
ENDBRANCH  41  43
ENDBRANCH   1  41
TORSDOF 16
ENDMDL
MODEL 5
REMARK VINA RESULT: -7.544511233      1.146      1.450
REMARK  16 active torsions:
REMARK  status: ('A' for Active; 'I' for Inactive)
REMARK    1  A    between atoms: C2_2  and  O1_3 
REMARK    2  A    between atoms: O1_3  and  C3_4 
REMARK    3  A    between atoms: C3_4  and  C4_6 
REMARK    4  A    between atoms: C10_12  and  N1_13 
REMARK    5  A    between atoms: C10_12  and  C18_24 
REMARK       I    between atoms: N1_13  and  C11_15 
REMARK    6  A    between atoms: C11_15  and  C12_17 
REMARK    7  A    between atoms: C12_17  and  S1_18 
REMARK    8  A    between atoms: S1_18  and  C13_19 
REMARK    9  A    between atoms: C13_19  and  C14_20 
REMARK   10  A    between atoms: C18_24  and  O4_25 
REMARK   11  A    between atoms: C18_24  and  N2_27 
REMARK   12  A    between atoms: C20_29  and  N3_30 
REMARK       I    between atoms: N3_30  and  C21_32 
REMARK   13  A    between atoms: C21_32  and  C22_34 
REMARK   14  A    between atoms: C22_34  and  N4_36 
REMARK       I    between atoms: N4_36  and  C24_38 
REMARK   15  A    between atoms: C24_38  and  O7_40 
REMARK   16  A    between atoms: C26_42  and  C27_43 
ROOT
HETATM    1  C4  UNL     1       7.516  18.222  19.886  1.00  0.00     0.127 C 
HETATM    2  C5  UNL     1       8.238  17.120  20.585  1.00  0.00     0.018 A 
HETATM    3  C6  UNL     1       6.842  16.447  20.235  1.00  0.00     0.037 A 
HETATM    4  C7  UNL     1       7.681  15.959  21.264  1.00  0.00    -0.036 A 
HETATM    5  C8  UNL     1       7.445  16.270  22.764  1.00  0.00     0.015 C 
HETATM    6  C9  UNL     1       8.228  14.552  21.103  1.00  0.00     0.015 C 
HETATM    7  C10 UNL     1       7.158  17.180  18.902  1.00  0.00     0.115 C 
ENDROOT
BRANCH   7   8
HETATM    8  N1  UNL     1       5.888  17.358  18.169  1.00  0.00    -0.342 N 
HETATM    9  C11 UNL     1       4.761  16.580  18.183  1.00  0.00     0.228 C 
HETATM   10  O3  UNL     1       4.481  15.532  18.802  1.00  0.00    -0.273 OA
ATOM     11  H1  UNL     1       5.843  18.179  17.565  1.00  0.00     0.163 HD
BRANCH   9  12
HETATM   12  C12 UNL     1       3.625  17.087  17.261  1.00  0.00     0.176 C 
BRANCH  12  13
HETATM   13  S1  UNL     1       2.885  18.502  18.022  1.00  0.00    -0.156 SA
BRANCH  13  14
HETATM   14  C13 UNL     1       2.119  18.341  19.594  1.00  0.00     0.101 C 
BRANCH  14  15
HETATM   15  C14 UNL     1       3.061  18.442  20.728  1.00  0.00    -0.015 C 
HETATM   16  C15 UNL     1       3.153  17.512  21.689  1.00  0.00    -0.091 C 
HETATM   17  C16 UNL     1       4.133  17.717  22.778  1.00  0.00     0.042 C 
HETATM   18  C17 UNL     1       2.315  16.296  21.685  1.00  0.00     0.042 C 
ENDBRANCH  14  15
ENDBRANCH  13  14
ENDBRANCH  12  13
ENDBRANCH   9  12
ENDBRANCH   7   8
BRANCH   7  19
HETATM   19  C18 UNL     1       8.012  16.397  18.058  1.00  0.00     0.144 C 
BRANCH  19  20
HETATM   20  O4  UNL     1       7.604  15.160  17.966  1.00  0.00    -0.347 OA
ATOM     21  H4  UNL     1       8.001  14.710  17.230  1.00  0.00     0.219 HD
ENDBRANCH  19  20
BRANCH  19  22
HETATM   22  N2  UNL     1       9.165  16.651  17.319  1.00  0.00    -0.354 N 
HETATM   23  C19 UNL     1      10.526  17.101  17.690  1.00  0.00     0.152 C 
HETATM   24  C20 UNL     1      10.852  17.399  16.233  1.00  0.00     0.125 C 
HETATM   25  C26 UNL     1       9.679  16.567  15.967  1.00  0.00     0.114 C 
BRANCH  24  26
HETATM   26  N3  UNL     1      10.820  18.804  16.024  1.00  0.00    -0.351 N 
HETATM   27  C21 UNL     1      12.006  19.562  16.080  1.00  0.00     0.240 C 
HETATM   28  O5  UNL     1      13.090  18.941  16.329  1.00  0.00    -0.271 OA
ATOM     29  H3  UNL     1       9.932  19.267  15.832  1.00  0.00     0.163 HD
BRANCH  27  30
HETATM   30  C22 UNL     1      12.071  21.039  15.868  1.00  0.00     0.174 C 
HETATM   31  C23 UNL     1      11.360  21.833  16.901  1.00  0.00     0.042 C 
BRANCH  30  32
HETATM   32  N4  UNL     1      13.431  21.381  15.625  1.00  0.00    -0.324 N 
HETATM   33  C24 UNL     1      14.053  21.599  14.381  1.00  0.00     0.360 C 
HETATM   34  O6  UNL     1      13.398  21.500  13.314  1.00  0.00    -0.239 OA
ATOM     35  H4  UNL     1      14.024  21.480  16.449  1.00  0.00     0.165 HD
BRANCH  33  36
HETATM   36  O7  UNL     1      15.400  21.927  14.268  1.00  0.00    -0.309 OA
HETATM   37  C25 UNL     1      16.111  22.499  15.339  1.00  0.00     0.215 C 
ENDBRANCH  33  36
ENDBRANCH  30  32
ENDBRANCH  27  30
ENDBRANCH  24  26
BRANCH  25  38
HETATM   38  C27 UNL     1       8.902  16.839  14.759  1.00  0.00     0.002 C 
HETATM   39  C28 UNL     1       7.695  17.706  14.878  1.00  0.00     0.011 C 
HETATM   40  C29 UNL     1       8.402  15.465  14.249  1.00  0.00     0.011 C 
ENDBRANCH  25  38
ENDBRANCH  19  22
ENDBRANCH   7  19
BRANCH   1  41
HETATM   41  C3  UNL     1       8.249  19.413  19.559  1.00  0.00     0.266 C 
HETATM   42  O2  UNL     1       8.579  19.699  18.338  1.00  0.00    -0.265 OA
BRANCH  41  43
HETATM   43  O1  UNL     1       8.655  20.338  20.491  1.00  0.00    -0.321 OA
BRANCH  43  44
HETATM   44  C2  UNL     1       9.760  21.194  20.330  1.00  0.00     0.174 C 
HETATM   45  C1  UNL     1      11.023  20.355  20.458  1.00  0.00     0.034 C 
ENDBRANCH  43  44
ENDBRANCH  41  43
ENDBRANCH   1  41
TORSDOF 16
ENDMDL
