MODEL 1
REMARK VINA RESULT: -8.420023815      0.000      0.000
REMARK  15 active torsions:
REMARK  status: ('A' for Active; 'I' for Inactive)
REMARK    1  A    between atoms: C2_2  and  C3_3 
REMARK    2  A    between atoms: C3_3  and  C4_4 
REMARK    3  A    between atoms: C4_4  and  N1_5 
REMARK    4  A    between atoms: C4_4  and  C22_34 
REMARK       I    between atoms: N1_5  and  C5_7 
REMARK    5  A    between atoms: C5_7  and  C6_9 
REMARK       I    between atoms: C6_9  and  N2_11 
REMARK    6  A    between atoms: N2_11  and  C7_13 
REMARK    7  A    between atoms: C8_14  and  C9_15 
REMARK    8  A    between atoms: C11_19  and  C12_20 
REMARK    9  A    between atoms: C12_20  and  O6_22 
REMARK   10  A    between atoms: O6_22  and  C13_23 
REMARK   11  A    between atoms: C22_34  and  C23_36 
REMARK       I    between atoms: C23_36  and  N4_38 
REMARK   12  A    between atoms: N4_38  and  C24_39 
REMARK   13  A    between atoms: N4_38  and  C27_42 
REMARK   14  A    between atoms: C24_39  and  C25_40 
REMARK   15  A    between atoms: C27_42  and  C28_43 
ROOT
HETATM    1  C6  UNL     1       7.746  19.133  20.055  1.00  0.00     0.311 C 
HETATM    2  O2  UNL     1       8.482  19.657  20.915  1.00  0.00    -0.262 OA
HETATM    3  N2  UNL     1       8.302  18.756  18.808  1.00  0.00    -0.322 N 
ATOM      4  H2  UNL     1       7.670  18.322  18.136  1.00  0.00     0.165 HD
ENDROOT
BRANCH   3   5
HETATM    5  C7  UNL     1       9.662  18.924  18.396  1.00  0.00     0.341 C 
HETATM    6  C8  UNL     1       9.903  20.304  17.821  1.00  0.00     0.143 C 
HETATM    7  C10 UNL     1      10.333  20.102  16.409  1.00  0.00     0.073 C 
HETATM    8  C11 UNL     1      10.614  18.630  16.277  1.00  0.00     0.263 C 
HETATM    9  N3  UNL     1      10.164  17.979  17.466  1.00  0.00     0.140 N 
HETATM   10  C19 UNL     1       9.922  17.970  15.125  1.00  0.00     0.061 C 
HETATM   11  C17 UNL     1       9.308  16.895  17.114  1.00  0.00     0.355 C 
HETATM   12  C18 UNL     1       9.676  16.589  15.677  1.00  0.00     0.166 C 
HETATM   13  O7  UNL     1       9.745  15.508  15.138  1.00  0.00    -0.295 OA
HETATM   14  C20 UNL     1       8.558  18.533  14.812  1.00  0.00     0.026 C 
HETATM   15  C21 UNL     1      10.695  17.924  13.851  1.00  0.00     0.026 C 
BRANCH   6  16
HETATM   16  C9  UNL     1      10.937  21.042  18.584  1.00  0.00     0.181 C 
HETATM   17  O3  UNL     1      11.311  22.207  18.263  1.00  0.00    -0.648 OA
HETATM   18  O4  UNL     1      11.512  20.438  19.683  1.00  0.00    -0.648 OA
ENDBRANCH   6  16
BRANCH   8  19
HETATM   19  C12 UNL     1      12.080  18.383  16.132  1.00  0.00     0.300 C 
HETATM   20  O5  UNL     1      12.633  17.350  16.592  1.00  0.00    -0.262 OA
BRANCH  19  21
HETATM   21  O6  UNL     1      12.874  19.286  15.484  1.00  0.00    -0.309 OA
BRANCH  21  22
HETATM   22  C13 UNL     1      13.937  20.018  16.028  1.00  0.00     0.060 C 
HETATM   23  C14 UNL     1      14.119  19.855  17.500  1.00  0.00     0.045 C 
HETATM   24  C15 UNL     1      13.646  21.481  15.741  1.00  0.00     0.045 C 
HETATM   25  C16 UNL     1      15.254  19.699  15.344  1.00  0.00     0.045 C 
ENDBRANCH  21  22
ENDBRANCH  19  21
ENDBRANCH   8  19
ENDBRANCH   3   5
BRANCH   1  26
HETATM   26  C5  UNL     1       6.356  18.927  20.355  1.00  0.00     0.310 C 
HETATM   27  N1  UNL     1       5.407  18.820  19.324  1.00  0.00    -0.341 N 
ATOM     28  H1  UNL     1       5.730  18.899  18.360  1.00  0.00     0.163 HD
HETATM   29  O1  UNL     1       6.000  18.844  21.550  1.00  0.00    -0.262 OA
BRANCH  27  30
HETATM   30  C4  UNL     1       3.991  18.603  19.559  1.00  0.00     0.165 C 
BRANCH  30  31
HETATM   31  C3  UNL     1       3.262  19.473  18.547  1.00  0.00     0.033 C 
BRANCH  31  32
HETATM   32  C2  UNL     1       3.291  20.931  18.891  1.00  0.00    -0.002 C 
HETATM   33  C1  UNL     1       2.243  21.371  19.856  1.00  0.00     0.005 C 
ENDBRANCH  31  32
ENDBRANCH  30  31
BRANCH  30  34
HETATM   34  C22 UNL     1       3.701  17.185  19.120  1.00  0.00     0.239 C 
HETATM   35  O8  UNL     1       2.550  16.766  19.360  1.00  0.00    -0.285 OA
BRANCH  34  36
HETATM   36  C23 UNL     1       4.706  16.408  18.474  1.00  0.00     0.291 C 
HETATM   37  O9  UNL     1       5.571  15.841  19.239  1.00  0.00    -0.264 OA
HETATM   38  N4  UNL     1       4.814  16.221  17.086  1.00  0.00    -0.345 N 
BRANCH  38  39
HETATM   39  C24 UNL     1       5.927  15.364  16.661  1.00  0.00     0.126 C 
BRANCH  39  40
HETATM   40  C25 UNL     1       6.239  15.476  15.206  1.00  0.00     0.015 C 
HETATM   41  C26 UNL     1       6.507  14.155  14.560  1.00  0.00     0.006 C 
ENDBRANCH  39  40
ENDBRANCH  38  39
BRANCH  38  42
HETATM   42  C27 UNL     1       3.904  16.810  16.165  1.00  0.00     0.130 C 
BRANCH  42  43
HETATM   43  C28 UNL     1       2.579  16.103  16.017  1.00  0.00    -0.005 C 
HETATM   44  C29 UNL     1       2.651  15.251  14.744  1.00  0.00     0.011 C 
HETATM   45  C30 UNL     1       1.457  17.122  15.861  1.00  0.00     0.011 C 
ENDBRANCH  42  43
ENDBRANCH  38  42
ENDBRANCH  34  36
ENDBRANCH  30  34
ENDBRANCH  27  30
ENDBRANCH   1  26
TORSDOF 15
ENDMDL
MODEL 2
REMARK VINA RESULT: -7.909050335      1.443      2.075
REMARK  15 active torsions:
REMARK  status: ('A' for Active; 'I' for Inactive)
REMARK    1  A    between atoms: C2_2  and  C3_3 
REMARK    2  A    between atoms: C3_3  and  C4_4 
REMARK    3  A    between atoms: C4_4  and  N1_5 
REMARK    4  A    between atoms: C4_4  and  C22_34 
REMARK       I    between atoms: N1_5  and  C5_7 
REMARK    5  A    between atoms: C5_7  and  C6_9 
REMARK       I    between atoms: C6_9  and  N2_11 
REMARK    6  A    between atoms: N2_11  and  C7_13 
REMARK    7  A    between atoms: C8_14  and  C9_15 
REMARK    8  A    between atoms: C11_19  and  C12_20 
REMARK    9  A    between atoms: C12_20  and  O6_22 
REMARK   10  A    between atoms: O6_22  and  C13_23 
REMARK   11  A    between atoms: C22_34  and  C23_36 
REMARK       I    between atoms: C23_36  and  N4_38 
REMARK   12  A    between atoms: N4_38  and  C24_39 
REMARK   13  A    between atoms: N4_38  and  C27_42 
REMARK   14  A    between atoms: C24_39  and  C25_40 
REMARK   15  A    between atoms: C27_42  and  C28_43 
ROOT
HETATM    1  C6  UNL     1       7.244  17.350  19.428  1.00  0.00     0.311 C 
HETATM    2  O2  UNL     1       7.948  16.714  20.238  1.00  0.00    -0.262 OA
HETATM    3  N2  UNL     1       7.873  18.185  18.473  1.00  0.00    -0.322 N 
ATOM      4  H2  UNL     1       7.263  18.679  17.823  1.00  0.00     0.165 HD
ENDROOT
BRANCH   3   5
HETATM    5  C7  UNL     1       9.280  18.403  18.329  1.00  0.00     0.341 C 
HETATM    6  C8  UNL     1       9.588  19.851  18.009  1.00  0.00     0.143 C 
HETATM    7  C10 UNL     1      10.256  19.854  16.677  1.00  0.00     0.073 C 
HETATM    8  C11 UNL     1      10.584  18.416  16.384  1.00  0.00     0.263 C 
HETATM    9  N3  UNL     1       9.951  17.601  17.371  1.00  0.00     0.140 N 
HETATM   10  C19 UNL     1      10.110  17.935  15.046  1.00  0.00     0.061 C 
HETATM   11  C17 UNL     1       9.188  16.586  16.725  1.00  0.00     0.355 C 
HETATM   12  C18 UNL     1       9.801  16.490  15.342  1.00  0.00     0.166 C 
HETATM   13  O7  UNL     1       9.981  15.499  14.672  1.00  0.00    -0.295 OA
HETATM   14  C20 UNL     1       8.808  18.547  14.590  1.00  0.00     0.026 C 
HETATM   15  C21 UNL     1      11.089  18.072  13.930  1.00  0.00     0.026 C 
BRANCH   6  16
HETATM   16  C9  UNL     1      10.463  20.464  19.036  1.00  0.00     0.181 C 
HETATM   17  O3  UNL     1      10.535  21.715  19.205  1.00  0.00    -0.648 OA
HETATM   18  O4  UNL     1      11.227  19.640  19.838  1.00  0.00    -0.648 OA
ENDBRANCH   6  16
BRANCH   8  19
HETATM   19  C12 UNL     1      12.057  18.185  16.457  1.00  0.00     0.300 C 
HETATM   20  O5  UNL     1      12.569  17.389  17.287  1.00  0.00    -0.262 OA
BRANCH  19  21
HETATM   21  O6  UNL     1      12.905  18.840  15.609  1.00  0.00    -0.309 OA
BRANCH  21  22
HETATM   22  C13 UNL     1      13.727  19.932  15.916  1.00  0.00     0.060 C 
HETATM   23  C14 UNL     1      13.711  20.343  17.351  1.00  0.00     0.045 C 
HETATM   24  C15 UNL     1      13.230  21.097  15.078  1.00  0.00     0.045 C 
HETATM   25  C16 UNL     1      15.168  19.689  15.503  1.00  0.00     0.045 C 
ENDBRANCH  21  22
ENDBRANCH  19  21
ENDBRANCH   8  19
ENDBRANCH   3   5
BRANCH   1  26
HETATM   26  C5  UNL     1       5.814  17.216  19.490  1.00  0.00     0.310 C 
HETATM   27  N1  UNL     1       4.982  18.039  18.710  1.00  0.00    -0.341 N 
ATOM     28  H1  UNL     1       5.420  18.735  18.107  1.00  0.00     0.163 HD
HETATM   29  O1  UNL     1       5.318  16.356  20.248  1.00  0.00    -0.262 OA
BRANCH  27  30
HETATM   30  C4  UNL     1       3.534  17.949  18.719  1.00  0.00     0.165 C 
BRANCH  30  31
HETATM   31  C3  UNL     1       3.026  19.353  18.428  1.00  0.00     0.033 C 
BRANCH  31  32
HETATM   32  C2  UNL     1       3.699  20.407  19.254  1.00  0.00    -0.002 C 
HETATM   33  C1  UNL     1       3.385  21.810  18.860  1.00  0.00     0.005 C 
ENDBRANCH  31  32
ENDBRANCH  30  31
BRANCH  30  34
HETATM   34  C22 UNL     1       3.151  17.146  17.495  1.00  0.00     0.239 C 
HETATM   35  O8  UNL     1       3.093  17.782  16.423  1.00  0.00    -0.285 OA
BRANCH  34  36
HETATM   36  C23 UNL     1       2.884  15.750  17.601  1.00  0.00     0.291 C 
HETATM   37  O9  UNL     1       2.166  15.380  18.603  1.00  0.00    -0.264 OA
HETATM   38  N4  UNL     1       3.338  14.770  16.703  1.00  0.00    -0.345 N 
BRANCH  38  39
HETATM   39  C24 UNL     1       2.918  13.399  17.017  1.00  0.00     0.126 C 
BRANCH  39  40
HETATM   40  C25 UNL     1       3.081  12.452  15.875  1.00  0.00     0.015 C 
HETATM   41  C26 UNL     1       3.949  11.282  16.202  1.00  0.00     0.006 C 
ENDBRANCH  39  40
ENDBRANCH  38  39
BRANCH  38  42
HETATM   42  C27 UNL     1       4.136  15.087  15.569  1.00  0.00     0.130 C 
BRANCH  42  43
HETATM   43  C28 UNL     1       5.627  15.082  15.801  1.00  0.00    -0.005 C 
HETATM   44  C29 UNL     1       6.133  16.511  15.571  1.00  0.00     0.011 C 
HETATM   45  C30 UNL     1       6.309  14.155  14.802  1.00  0.00     0.011 C 
ENDBRANCH  42  43
ENDBRANCH  38  42
ENDBRANCH  34  36
ENDBRANCH  30  34
ENDBRANCH  27  30
ENDBRANCH   1  26
TORSDOF 15
ENDMDL
MODEL 3
REMARK VINA RESULT: -7.748742916      0.594      1.791
REMARK  15 active torsions:
REMARK  status: ('A' for Active; 'I' for Inactive)
REMARK    1  A    between atoms: C2_2  and  C3_3 
REMARK    2  A    between atoms: C3_3  and  C4_4 
REMARK    3  A    between atoms: C4_4  and  N1_5 
REMARK    4  A    between atoms: C4_4  and  C22_34 
REMARK       I    between atoms: N1_5  and  C5_7 
REMARK    5  A    between atoms: C5_7  and  C6_9 
REMARK       I    between atoms: C6_9  and  N2_11 
REMARK    6  A    between atoms: N2_11  and  C7_13 
REMARK    7  A    between atoms: C8_14  and  C9_15 
REMARK    8  A    between atoms: C11_19  and  C12_20 
REMARK    9  A    between atoms: C12_20  and  O6_22 
REMARK   10  A    between atoms: O6_22  and  C13_23 
REMARK   11  A    between atoms: C22_34  and  C23_36 
REMARK       I    between atoms: C23_36  and  N4_38 
REMARK   12  A    between atoms: N4_38  and  C24_39 
REMARK   13  A    between atoms: N4_38  and  C27_42 
REMARK   14  A    between atoms: C24_39  and  C25_40 
REMARK   15  A    between atoms: C27_42  and  C28_43 
ROOT
HETATM    1  C6  UNL     1       7.763  18.990  20.040  1.00  0.00     0.311 C 
HETATM    2  O2  UNL     1       8.505  19.448  20.933  1.00  0.00    -0.262 OA
HETATM    3  N2  UNL     1       8.312  18.702  18.767  1.00  0.00    -0.322 N 
ATOM      4  H2  UNL     1       7.675  18.320  18.069  1.00  0.00     0.165 HD
ENDROOT
BRANCH   3   5
HETATM    5  C7  UNL     1       9.671  18.893  18.362  1.00  0.00     0.341 C 
HETATM    6  C8  UNL     1       9.895  20.282  17.803  1.00  0.00     0.143 C 
HETATM    7  C10 UNL     1      10.332  20.102  16.391  1.00  0.00     0.073 C 
HETATM    8  C11 UNL     1      10.634  18.636  16.243  1.00  0.00     0.263 C 
HETATM    9  N3  UNL     1      10.188  17.965  17.423  1.00  0.00     0.140 N 
HETATM   10  C19 UNL     1       9.954  17.980  15.081  1.00  0.00     0.061 C 
HETATM   11  C17 UNL     1       9.348  16.874  17.056  1.00  0.00     0.355 C 
HETATM   12  C18 UNL     1       9.725  16.589  15.616  1.00  0.00     0.166 C 
HETATM   13  O7  UNL     1       9.810  15.516  15.065  1.00  0.00    -0.295 OA
HETATM   14  C20 UNL     1       8.583  18.529  14.770  1.00  0.00     0.026 C 
HETATM   15  C21 UNL     1      10.731  17.959  13.809  1.00  0.00     0.026 C 
BRANCH   6  16
HETATM   16  C9  UNL     1      10.916  21.026  18.578  1.00  0.00     0.181 C 
HETATM   17  O3  UNL     1      11.259  22.208  18.287  1.00  0.00    -0.648 OA
HETATM   18  O4  UNL     1      11.515  20.407  19.656  1.00  0.00    -0.648 OA
ENDBRANCH   6  16
BRANCH   8  19
HETATM   19  C12 UNL     1      12.103  18.410  16.100  1.00  0.00     0.300 C 
HETATM   20  O5  UNL     1      12.668  17.379  16.549  1.00  0.00    -0.262 OA
BRANCH  19  21
HETATM   21  O6  UNL     1      12.887  19.332  15.466  1.00  0.00    -0.309 OA
BRANCH  21  22
HETATM   22  C13 UNL     1      13.950  20.058  16.018  1.00  0.00     0.060 C 
HETATM   23  C14 UNL     1      14.148  19.860  17.484  1.00  0.00     0.045 C 
HETATM   24  C15 UNL     1      13.648  21.525  15.769  1.00  0.00     0.045 C 
HETATM   25  C16 UNL     1      15.263  19.764  15.314  1.00  0.00     0.045 C 
ENDBRANCH  21  22
ENDBRANCH  19  21
ENDBRANCH   8  19
ENDBRANCH   3   5
BRANCH   1  26
HETATM   26  C5  UNL     1       6.373  18.770  20.332  1.00  0.00     0.310 C 
HETATM   27  N1  UNL     1       5.435  18.631  19.295  1.00  0.00    -0.341 N 
ATOM     28  H1  UNL     1       5.767  18.697  18.332  1.00  0.00     0.163 HD
HETATM   29  O1  UNL     1       6.008  18.704  21.525  1.00  0.00    -0.262 OA
BRANCH  27  30
HETATM   30  C4  UNL     1       4.021  18.397  19.521  1.00  0.00     0.165 C 
BRANCH  30  31
HETATM   31  C3  UNL     1       3.287  19.317  18.557  1.00  0.00     0.033 C 
BRANCH  31  32
HETATM   32  C2  UNL     1       3.443  20.769  18.891  1.00  0.00    -0.002 C 
HETATM   33  C1  UNL     1       2.315  21.361  19.667  1.00  0.00     0.005 C 
ENDBRANCH  31  32
ENDBRANCH  30  31
BRANCH  30  34
HETATM   34  C22 UNL     1       3.734  17.003  19.009  1.00  0.00     0.239 C 
HETATM   35  O8  UNL     1       4.234  16.068  19.668  1.00  0.00    -0.285 OA
BRANCH  34  36
HETATM   36  C23 UNL     1       2.935  16.810  17.845  1.00  0.00     0.291 C 
HETATM   37  O9  UNL     1       1.664  16.738  18.029  1.00  0.00    -0.264 OA
HETATM   38  N4  UNL     1       3.431  16.697  16.535  1.00  0.00    -0.345 N 
BRANCH  38  39
HETATM   39  C24 UNL     1       2.407  16.518  15.499  1.00  0.00     0.126 C 
BRANCH  39  40
HETATM   40  C25 UNL     1       2.519  15.218  14.773  1.00  0.00     0.015 C 
HETATM   41  C26 UNL     1       2.170  14.040  15.622  1.00  0.00     0.006 C 
ENDBRANCH  39  40
ENDBRANCH  38  39
BRANCH  38  42
HETATM   42  C27 UNL     1       4.820  16.765  16.237  1.00  0.00     0.130 C 
BRANCH  42  43
HETATM   43  C28 UNL     1       5.573  15.463  16.351  1.00  0.00    -0.005 C 
HETATM   44  C29 UNL     1       6.642  15.643  17.435  1.00  0.00     0.011 C 
HETATM   45  C30 UNL     1       6.264  15.141  15.031  1.00  0.00     0.011 C 
ENDBRANCH  42  43
ENDBRANCH  38  42
ENDBRANCH  34  36
ENDBRANCH  30  34
ENDBRANCH  27  30
ENDBRANCH   1  26
TORSDOF 15
ENDMDL
MODEL 4
REMARK VINA RESULT: -7.715653930      1.501      1.807
REMARK  15 active torsions:
REMARK  status: ('A' for Active; 'I' for Inactive)
REMARK    1  A    between atoms: C2_2  and  C3_3 
REMARK    2  A    between atoms: C3_3  and  C4_4 
REMARK    3  A    between atoms: C4_4  and  N1_5 
REMARK    4  A    between atoms: C4_4  and  C22_34 
REMARK       I    between atoms: N1_5  and  C5_7 
REMARK    5  A    between atoms: C5_7  and  C6_9 
REMARK       I    between atoms: C6_9  and  N2_11 
REMARK    6  A    between atoms: N2_11  and  C7_13 
REMARK    7  A    between atoms: C8_14  and  C9_15 
REMARK    8  A    between atoms: C11_19  and  C12_20 
REMARK    9  A    between atoms: C12_20  and  O6_22 
REMARK   10  A    between atoms: O6_22  and  C13_23 
REMARK   11  A    between atoms: C22_34  and  C23_36 
REMARK       I    between atoms: C23_36  and  N4_38 
REMARK   12  A    between atoms: N4_38  and  C24_39 
REMARK   13  A    between atoms: N4_38  and  C27_42 
REMARK   14  A    between atoms: C24_39  and  C25_40 
REMARK   15  A    between atoms: C27_42  and  C28_43 
ROOT
HETATM    1  C6  UNL     1       7.216  17.148  19.453  1.00  0.00     0.311 C 
HETATM    2  O2  UNL     1       7.945  16.655  20.337  1.00  0.00    -0.262 OA
HETATM    3  N2  UNL     1       7.809  17.903  18.411  1.00  0.00    -0.322 N 
ATOM      4  H2  UNL     1       7.180  18.280  17.703  1.00  0.00     0.165 HD
ENDROOT
BRANCH   3   5
HETATM    5  C7  UNL     1       9.202  18.188  18.254  1.00  0.00     0.341 C 
HETATM    6  C8  UNL     1       9.440  19.656  17.966  1.00  0.00     0.143 C 
HETATM    7  C10 UNL     1      10.087  19.722  16.626  1.00  0.00     0.073 C 
HETATM    8  C11 UNL     1      10.475  18.308  16.292  1.00  0.00     0.263 C 
HETATM    9  N3  UNL     1       9.894  17.441  17.267  1.00  0.00     0.140 N 
HETATM   10  C19 UNL     1      10.004  17.840  14.949  1.00  0.00     0.061 C 
HETATM   11  C17 UNL     1       9.168  16.409  16.606  1.00  0.00     0.355 C 
HETATM   12  C18 UNL     1       9.764  16.375  15.213  1.00  0.00     0.166 C 
HETATM   13  O7  UNL     1       9.979  15.410  14.516  1.00  0.00    -0.295 OA
HETATM   14  C20 UNL     1       8.669  18.403  14.527  1.00  0.00     0.026 C 
HETATM   15  C21 UNL     1      10.959  18.048  13.824  1.00  0.00     0.026 C 
BRANCH   6  16
HETATM   16  C9  UNL     1      10.302  20.283  18.997  1.00  0.00     0.181 C 
HETATM   17  O3  UNL     1      10.362  21.535  19.158  1.00  0.00    -0.648 OA
HETATM   18  O4  UNL     1      11.066  19.471  19.810  1.00  0.00    -0.648 OA
ENDBRANCH   6  16
BRANCH   8  19
HETATM   19  C12 UNL     1      11.958  18.142  16.339  1.00  0.00     0.300 C 
HETATM   20  O5  UNL     1      12.516  17.330  17.123  1.00  0.00    -0.262 OA
BRANCH  19  21
HETATM   21  O6  UNL     1      12.765  18.878  15.518  1.00  0.00    -0.309 OA
BRANCH  21  22
HETATM   22  C13 UNL     1      13.600  19.941  15.887  1.00  0.00     0.060 C 
HETATM   23  C14 UNL     1      13.527  20.322  17.329  1.00  0.00     0.045 C 
HETATM   24  C15 UNL     1      13.173  21.137  15.054  1.00  0.00     0.045 C 
HETATM   25  C16 UNL     1      15.052  19.669  15.537  1.00  0.00     0.045 C 
ENDBRANCH  21  22
ENDBRANCH  19  21
ENDBRANCH   8  19
ENDBRANCH   3   5
BRANCH   1  26
HETATM   26  C5  UNL     1       5.796  16.936  19.519  1.00  0.00     0.310 C 
HETATM   27  N1  UNL     1       4.913  17.766  18.806  1.00  0.00    -0.341 N 
ATOM     28  H1  UNL     1       5.306  18.524  18.248  1.00  0.00     0.163 HD
HETATM   29  O1  UNL     1       5.355  16.001  20.220  1.00  0.00    -0.262 OA
BRANCH  27  30
HETATM   30  C4  UNL     1       3.471  17.599  18.822  1.00  0.00     0.165 C 
BRANCH  30  31
HETATM   31  C3  UNL     1       2.904  18.922  19.315  1.00  0.00     0.033 C 
BRANCH  31  32
HETATM   32  C2  UNL     1       3.913  20.029  19.329  1.00  0.00    -0.002 C 
HETATM   33  C1  UNL     1       3.385  21.368  18.938  1.00  0.00     0.005 C 
ENDBRANCH  31  32
ENDBRANCH  30  31
BRANCH  30  34
HETATM   34  C22 UNL     1       3.038  17.516  17.375  1.00  0.00     0.239 C 
HETATM   35  O8  UNL     1       2.006  18.151  17.078  1.00  0.00    -0.285 OA
BRANCH  34  36
HETATM   36  C23 UNL     1       3.790  16.750  16.438  1.00  0.00     0.291 C 
HETATM   37  O9  UNL     1       4.757  17.360  15.846  1.00  0.00    -0.264 OA
HETATM   38  N4  UNL     1       3.555  15.401  16.123  1.00  0.00    -0.345 N 
BRANCH  38  39
HETATM   39  C24 UNL     1       4.476  14.826  15.136  1.00  0.00     0.126 C 
BRANCH  39  40
HETATM   40  C25 UNL     1       5.758  14.344  15.730  1.00  0.00     0.015 C 
HETATM   41  C26 UNL     1       6.813  14.072  14.709  1.00  0.00     0.006 C 
ENDBRANCH  39  40
ENDBRANCH  38  39
BRANCH  38  42
HETATM   42  C27 UNL     1       2.510  14.649  16.726  1.00  0.00     0.130 C 
BRANCH  42  43
HETATM   43  C28 UNL     1       2.200  13.325  16.072  1.00  0.00    -0.005 C 
HETATM   44  C29 UNL     1       0.680  13.249  15.887  1.00  0.00     0.011 C 
HETATM   45  C30 UNL     1       2.641  12.180  16.974  1.00  0.00     0.011 C 
ENDBRANCH  42  43
ENDBRANCH  38  42
ENDBRANCH  34  36
ENDBRANCH  30  34
ENDBRANCH  27  30
ENDBRANCH   1  26
TORSDOF 15
ENDMDL
MODEL 5
REMARK VINA RESULT: -7.571662674      1.715      2.372
REMARK  15 active torsions:
REMARK  status: ('A' for Active; 'I' for Inactive)
REMARK    1  A    between atoms: C2_2  and  C3_3 
REMARK    2  A    between atoms: C3_3  and  C4_4 
REMARK    3  A    between atoms: C4_4  and  N1_5 
REMARK    4  A    between atoms: C4_4  and  C22_34 
REMARK       I    between atoms: N1_5  and  C5_7 
REMARK    5  A    between atoms: C5_7  and  C6_9 
REMARK       I    between atoms: C6_9  and  N2_11 
REMARK    6  A    between atoms: N2_11  and  C7_13 
REMARK    7  A    between atoms: C8_14  and  C9_15 
REMARK    8  A    between atoms: C11_19  and  C12_20 
REMARK    9  A    between atoms: C12_20  and  O6_22 
REMARK   10  A    between atoms: O6_22  and  C13_23 
REMARK   11  A    between atoms: C22_34  and  C23_36 
REMARK       I    between atoms: C23_36  and  N4_38 
REMARK   12  A    between atoms: N4_38  and  C24_39 
REMARK   13  A    between atoms: N4_38  and  C27_42 
REMARK   14  A    between atoms: C24_39  and  C25_40 
REMARK   15  A    between atoms: C27_42  and  C28_43 
ROOT
HETATM    1  C6  UNL     1       6.891  17.593  19.742  1.00  0.00     0.311 C 
HETATM    2  O2  UNL     1       7.153  17.631  20.961  1.00  0.00    -0.262 OA
HETATM    3  N2  UNL     1       7.893  17.953  18.808  1.00  0.00    -0.322 N 
ATOM      4  H2  UNL     1       7.642  17.899  17.822  1.00  0.00     0.165 HD
ENDROOT
BRANCH   3   5
HETATM    5  C7  UNL     1       9.223  18.386  19.111  1.00  0.00     0.341 C 
HETATM    6  C8  UNL     1       9.295  19.889  19.277  1.00  0.00     0.143 C 
HETATM    7  C10 UNL     1      10.224  20.385  18.224  1.00  0.00     0.073 C 
HETATM    8  C11 UNL     1      10.893  19.160  17.664  1.00  0.00     0.263 C 
HETATM    9  N3  UNL     1      10.236  18.008  18.194  1.00  0.00     0.140 N 
HETATM   10  C19 UNL     1      10.833  19.052  16.171  1.00  0.00     0.061 C 
HETATM   11  C17 UNL     1       9.857  17.148  17.124  1.00  0.00     0.355 C 
HETATM   12  C18 UNL     1      10.766  17.558  15.983  1.00  0.00     0.166 C 
HETATM   13  O7  UNL     1      11.286  16.850  15.151  1.00  0.00    -0.295 OA
HETATM   14  C20 UNL     1       9.568  19.599  15.558  1.00  0.00     0.026 C 
HETATM   15  C21 UNL     1      11.986  19.648  15.436  1.00  0.00     0.026 C 
BRANCH   6  16
HETATM   16  C9  UNL     1       9.779  20.268  20.626  1.00  0.00     0.181 C 
HETATM   17  O3  UNL     1      10.069  21.461  20.930  1.00  0.00    -0.648 OA
HETATM   18  O4  UNL     1       9.917  19.286  21.584  1.00  0.00    -0.648 OA
ENDBRANCH   6  16
BRANCH   8  19
HETATM   19  C12 UNL     1      12.330  19.110  18.068  1.00  0.00     0.300 C 
HETATM   20  O5  UNL     1      13.043  18.091  17.878  1.00  0.00    -0.262 OA
BRANCH  19  21
HETATM   21  O6  UNL     1      12.920  20.188  18.665  1.00  0.00    -0.309 OA
BRANCH  21  22
HETATM   22  C13 UNL     1      13.867  21.052  18.100  1.00  0.00     0.060 C 
HETATM   23  C14 UNL     1      14.776  20.416  17.101  1.00  0.00     0.045 C 
HETATM   24  C15 UNL     1      14.710  21.580  19.247  1.00  0.00     0.045 C 
HETATM   25  C16 UNL     1      13.216  22.262  17.452  1.00  0.00     0.045 C 
ENDBRANCH  21  22
ENDBRANCH  19  21
ENDBRANCH   8  19
ENDBRANCH   3   5
BRANCH   1  26
HETATM   26  C5  UNL     1       5.578  17.185  19.322  1.00  0.00     0.310 C 
HETATM   27  N1  UNL     1       4.866  17.931  18.367  1.00  0.00    -0.341 N 
ATOM     28  H1  UNL     1       5.302  18.771  17.987  1.00  0.00     0.163 HD
HETATM   29  O1  UNL     1       5.077  16.154  19.818  1.00  0.00    -0.262 OA
BRANCH  27  30
HETATM   30  C4  UNL     1       3.543  17.569  17.893  1.00  0.00     0.165 C 
BRANCH  30  31
HETATM   31  C3  UNL     1       2.775  18.875  17.760  1.00  0.00     0.033 C 
BRANCH  31  32
HETATM   32  C2  UNL     1       2.823  19.717  18.998  1.00  0.00    -0.002 C 
HETATM   33  C1  UNL     1       3.311  21.111  18.792  1.00  0.00     0.005 C 
ENDBRANCH  31  32
ENDBRANCH  30  31
BRANCH  30  34
HETATM   34  C22 UNL     1       3.719  17.085  16.471  1.00  0.00     0.239 C 
HETATM   35  O8  UNL     1       2.769  17.316  15.695  1.00  0.00    -0.285 OA
BRANCH  34  36
HETATM   36  C23 UNL     1       4.913  16.412  16.078  1.00  0.00     0.291 C 
HETATM   37  O9  UNL     1       5.878  17.156  15.663  1.00  0.00    -0.264 OA
HETATM   38  N4  UNL     1       5.106  15.021  16.114  1.00  0.00    -0.345 N 
BRANCH  38  39
HETATM   39  C24 UNL     1       6.430  14.568  15.673  1.00  0.00     0.126 C 
BRANCH  39  40
HETATM   40  C25 UNL     1       6.495  14.260  14.213  1.00  0.00     0.015 C 
HETATM   41  C26 UNL     1       7.754  14.739  13.568  1.00  0.00     0.006 C 
ENDBRANCH  39  40
ENDBRANCH  38  39
BRANCH  38  42
HETATM   42  C27 UNL     1       4.096  14.123  16.557  1.00  0.00     0.130 C 
BRANCH  42  43
HETATM   43  C28 UNL     1       3.321  13.427  15.466  1.00  0.00    -0.005 C 
HETATM   44  C29 UNL     1       1.869  13.912  15.552  1.00  0.00     0.011 C 
HETATM   45  C30 UNL     1       3.347  11.920  15.685  1.00  0.00     0.011 C 
ENDBRANCH  42  43
ENDBRANCH  38  42
ENDBRANCH  34  36
ENDBRANCH  30  34
ENDBRANCH  27  30
ENDBRANCH   1  26
TORSDOF 15
ENDMDL
