MODEL 1
REMARK VINA RESULT: -7.395238756      0.000      0.000
REMARK  5 active torsions:
REMARK  status: ('A' for Active; 'I' for Inactive)
REMARK    1  A    between atoms: C2_2  and  N1_3 
REMARK    2  A    between atoms: C2_2  and  C7_13 
REMARK    3  A    between atoms: C7_13  and  C8_14 
REMARK    4  A    between atoms: C7_13  and  N4_21 
REMARK    5  A    between atoms: C8_14  and  C9_15 
ROOT
HETATM    1  C1  UNL     1       3.509  11.102   8.883  1.00  0.00     0.035 C 
HETATM    2  C2  UNL     1       4.479  10.239   8.113  1.00  0.00     0.129 C 
ENDROOT
BRANCH   2   3
HETATM    3  N1  UNL     1       4.249   8.887   8.367  1.00  0.00    -0.220 N 
HETATM    4  C3  UNL     1       3.304   8.099   8.528  1.00  0.00     0.678 A 
HETATM    5  N2  UNL     1       3.666   6.791   8.763  1.00  0.00    -0.202 N 
HETATM    6  N3  UNL     1       1.986   8.337   8.507  1.00  0.00    -0.202 N 
HETATM    7  C4  UNL     1       2.808   5.812   8.958  1.00  0.00     0.107 A 
ATOM      8  H2  UNL     1       4.661   6.567   8.786  1.00  0.00     0.183 HD
HETATM    9  C5  UNL     1       1.456   6.108   8.926  1.00  0.00     0.035 A 
HETATM   10  C6  UNL     1       1.045   7.402   8.695  1.00  0.00     0.107 A 
ATOM     11  H3  UNL     1       1.678   9.294   8.336  1.00  0.00     0.183 HD
ATOM     12  H1  UNL     1       5.136   8.390   8.445  1.00  0.00     0.178 HD
ENDBRANCH   2   3
BRANCH   2  13
HETATM   13  C7  UNL     1       5.914  10.710   8.213  1.00  0.00     0.248 C 
BRANCH  13  14
HETATM   14  C8  UNL     1       6.861   9.759   8.842  1.00  0.00     0.076 C 
BRANCH  14  15
HETATM   15  C9  UNL     1       8.288  10.056   8.585  1.00  0.00    -0.056 A 
HETATM   16  C10 UNL     1       8.846  11.305   8.701  1.00  0.00     0.007 A 
HETATM   17  C11 UNL     1      10.191  11.548   8.460  1.00  0.00     0.001 A 
HETATM   18  C12 UNL     1      11.031  10.543   8.094  1.00  0.00     0.000 A 
HETATM   19  C13 UNL     1      10.512   9.263   7.963  1.00  0.00     0.001 A 
HETATM   20  C14 UNL     1       9.175   9.043   8.206  1.00  0.00     0.007 A 
ENDBRANCH  14  15
ENDBRANCH  13  14
BRANCH  13  21
HETATM   21  N4  UNL     1       6.359  11.335   6.998  1.00  0.00     0.086 N 
HETATM   22  C15 UNL     1       5.628  12.552   6.708  1.00  0.00     0.310 C 
HETATM   23  C16 UNL     1       6.428  10.457   5.867  1.00  0.00     0.310 C 
ENDBRANCH  13  21
ENDBRANCH   2  13
TORSDOF 5
ENDMDL
MODEL 2
REMARK VINA RESULT: -7.336136592      0.062      1.052
REMARK  5 active torsions:
REMARK  status: ('A' for Active; 'I' for Inactive)
REMARK    1  A    between atoms: C2_2  and  N1_3 
REMARK    2  A    between atoms: C2_2  and  C7_13 
REMARK    3  A    between atoms: C7_13  and  C8_14 
REMARK    4  A    between atoms: C7_13  and  N4_21 
REMARK    5  A    between atoms: C8_14  and  C9_15 
ROOT
HETATM    1  C1  UNL     1       3.559  11.112   8.832  1.00  0.00     0.035 C 
HETATM    2  C2  UNL     1       4.527  10.230   8.084  1.00  0.00     0.129 C 
ENDROOT
BRANCH   2   3
HETATM    3  N1  UNL     1       4.281   8.884   8.353  1.00  0.00    -0.220 N 
HETATM    4  C3  UNL     1       3.327   8.108   8.517  1.00  0.00     0.678 A 
HETATM    5  N2  UNL     1       3.673   6.799   8.770  1.00  0.00    -0.202 N 
HETATM    6  N3  UNL     1       2.011   8.360   8.485  1.00  0.00    -0.202 N 
HETATM    7  C4  UNL     1       2.803   5.832   8.971  1.00  0.00     0.107 A 
ATOM      8  H2  UNL     1       4.666   6.565   8.802  1.00  0.00     0.183 HD
HETATM    9  C5  UNL     1       1.455   6.142   8.927  1.00  0.00     0.035 A 
HETATM   10  C6  UNL     1       1.059   7.437   8.678  1.00  0.00     0.107 A 
ATOM     11  H3  UNL     1       1.714   9.318   8.300  1.00  0.00     0.183 HD
ATOM     12  H1  UNL     1       5.162   8.379   8.443  1.00  0.00     0.178 HD
ENDBRANCH   2   3
BRANCH   2  13
HETATM   13  C7  UNL     1       5.966  10.688   8.192  1.00  0.00     0.248 C 
BRANCH  13  14
HETATM   14  C8  UNL     1       6.900   9.729   8.828  1.00  0.00     0.076 C 
BRANCH  14  15
HETATM   15  C9  UNL     1       8.331  10.003   8.565  1.00  0.00    -0.056 A 
HETATM   16  C10 UNL     1       9.228   9.055   8.139  1.00  0.00     0.007 A 
HETATM   17  C11 UNL     1      10.562   9.348   7.892  1.00  0.00     0.001 A 
HETATM   18  C12 UNL     1      11.048  10.606   8.062  1.00  0.00     0.000 A 
HETATM   19  C13 UNL     1      10.178  11.598   8.492  1.00  0.00     0.001 A 
HETATM   20  C14 UNL     1       8.858  11.288   8.731  1.00  0.00     0.007 A 
ENDBRANCH  14  15
ENDBRANCH  13  14
BRANCH  13  21
HETATM   21  N4  UNL     1       6.424  11.307   6.980  1.00  0.00     0.086 N 
HETATM   22  C15 UNL     1       5.714  12.537   6.689  1.00  0.00     0.310 C 
HETATM   23  C16 UNL     1       6.483  10.431   5.847  1.00  0.00     0.310 C 
ENDBRANCH  13  21
ENDBRANCH   2  13
TORSDOF 5
ENDMDL
MODEL 3
REMARK VINA RESULT: -7.136435799      2.041      5.786
REMARK  5 active torsions:
REMARK  status: ('A' for Active; 'I' for Inactive)
REMARK    1  A    between atoms: C2_2  and  N1_3 
REMARK    2  A    between atoms: C2_2  and  C7_13 
REMARK    3  A    between atoms: C7_13  and  C8_14 
REMARK    4  A    between atoms: C7_13  and  N4_21 
REMARK    5  A    between atoms: C8_14  and  C9_15 
ROOT
HETATM    1  C1  UNL     1       5.131  12.528   7.000  1.00  0.00     0.035 C 
HETATM    2  C2  UNL     1       6.382  11.714   7.226  1.00  0.00     0.129 C 
ENDROOT
BRANCH   2   3
HETATM    3  N1  UNL     1       7.206  11.750   6.102  1.00  0.00    -0.220 N 
HETATM    4  C3  UNL     1       8.375  12.025   5.791  1.00  0.00     0.678 A 
HETATM    5  N2  UNL     1       8.676  11.875   4.455  1.00  0.00    -0.202 N 
HETATM    6  N3  UNL     1       9.384  12.446   6.565  1.00  0.00    -0.202 N 
HETATM    7  C4  UNL     1       9.861  12.118   3.935  1.00  0.00     0.107 A 
ATOM      8  H2  UNL     1       7.935  11.555   3.831  1.00  0.00     0.183 HD
HETATM    9  C5  UNL     1      10.871  12.550   4.775  1.00  0.00     0.035 A 
HETATM   10  C6  UNL     1      10.618  12.716   6.119  1.00  0.00     0.107 A 
ATOM     11  H3  UNL     1       9.201  12.569   7.561  1.00  0.00     0.183 HD
ATOM     12  H1  UNL     1       6.683  11.460   5.276  1.00  0.00     0.178 HD
ENDBRANCH   2   3
BRANCH   2  13
HETATM   13  C7  UNL     1       6.111  10.348   7.822  1.00  0.00     0.248 C 
BRANCH  13  14
HETATM   14  C8  UNL     1       6.921   9.994   9.011  1.00  0.00     0.076 C 
BRANCH  14  15
HETATM   15  C9  UNL     1       8.381   9.961   8.770  1.00  0.00    -0.056 A 
HETATM   16  C10 UNL     1       9.007   9.041   7.966  1.00  0.00     0.007 A 
HETATM   17  C11 UNL     1      10.378   9.045   7.754  1.00  0.00     0.001 A 
HETATM   18  C12 UNL     1      11.177   9.976   8.341  1.00  0.00     0.000 A 
HETATM   19  C13 UNL     1      10.589  10.927   9.163  1.00  0.00     0.001 A 
HETATM   20  C14 UNL     1       9.227  10.907   9.361  1.00  0.00     0.007 A 
ENDBRANCH  14  15
ENDBRANCH  13  14
BRANCH  13  21
HETATM   21  N4  UNL     1       4.705  10.070   7.908  1.00  0.00     0.086 N 
HETATM   22  C15 UNL     1       4.162  10.384   9.214  1.00  0.00     0.310 C 
HETATM   23  C16 UNL     1       4.327   8.762   7.459  1.00  0.00     0.310 C 
ENDBRANCH  13  21
ENDBRANCH   2  13
TORSDOF 5
ENDMDL
MODEL 4
REMARK VINA RESULT: -6.567946358      1.993      5.539
REMARK  5 active torsions:
REMARK  status: ('A' for Active; 'I' for Inactive)
REMARK    1  A    between atoms: C2_2  and  N1_3 
REMARK    2  A    between atoms: C2_2  and  C7_13 
REMARK    3  A    between atoms: C7_13  and  C8_14 
REMARK    4  A    between atoms: C7_13  and  N4_21 
REMARK    5  A    between atoms: C8_14  and  C9_15 
ROOT
HETATM    1  C1  UNL     1       5.147  12.289   6.462  1.00  0.00     0.035 C 
HETATM    2  C2  UNL     1       6.198  11.844   7.449  1.00  0.00     0.129 C 
ENDROOT
BRANCH   2   3
HETATM    3  N1  UNL     1       7.469  12.237   7.030  1.00  0.00    -0.220 N 
HETATM    4  C3  UNL     1       8.317  11.948   6.171  1.00  0.00     0.678 A 
HETATM    5  N2  UNL     1       9.468  12.704   6.208  1.00  0.00    -0.202 N 
HETATM    6  N3  UNL     1       8.274  11.010   5.215  1.00  0.00    -0.202 N 
HETATM    7  C4  UNL     1      10.480  12.547   5.380  1.00  0.00     0.107 A 
ATOM      8  H2  UNL     1       9.540  13.431   6.920  1.00  0.00     0.183 HD
HETATM    9  C5  UNL     1      10.387  11.565   4.409  1.00  0.00     0.035 A 
HETATM   10  C6  UNL     1       9.256  10.783   4.333  1.00  0.00     0.107 A 
ATOM     11  H3  UNL     1       7.437  10.430   5.155  1.00  0.00     0.183 HD
ATOM     12  H1  UNL     1       7.808  13.002   7.613  1.00  0.00     0.178 HD
ENDBRANCH   2   3
BRANCH   2  13
HETATM   13  C7  UNL     1       6.046  10.401   7.880  1.00  0.00     0.248 C 
BRANCH  13  14
HETATM   14  C8  UNL     1       6.883   9.981   9.029  1.00  0.00     0.076 C 
BRANCH  14  15
HETATM   15  C9  UNL     1       8.336   9.952   8.749  1.00  0.00    -0.056 A 
HETATM   16  C10 UNL     1       8.948   9.005   7.965  1.00  0.00     0.007 A 
HETATM   17  C11 UNL     1      10.313   9.012   7.715  1.00  0.00     0.001 A 
HETATM   18  C12 UNL     1      11.119   9.973   8.242  1.00  0.00     0.000 A 
HETATM   19  C13 UNL     1      10.544  10.951   9.041  1.00  0.00     0.001 A 
HETATM   20  C14 UNL     1       9.189  10.927   9.278  1.00  0.00     0.007 A 
ENDBRANCH  14  15
ENDBRANCH  13  14
BRANCH  13  21
HETATM   21  N4  UNL     1       4.668   9.996   7.920  1.00  0.00     0.086 N 
HETATM   22  C15 UNL     1       3.978  10.511   9.085  1.00  0.00     0.310 C 
HETATM   23  C16 UNL     1       4.454   8.591   7.735  1.00  0.00     0.310 C 
ENDBRANCH  13  21
ENDBRANCH   2  13
TORSDOF 5
ENDMDL
MODEL 5
REMARK VINA RESULT: -6.128467728      1.774      3.201
REMARK  5 active torsions:
REMARK  status: ('A' for Active; 'I' for Inactive)
REMARK    1  A    between atoms: C2_2  and  N1_3 
REMARK    2  A    between atoms: C2_2  and  C7_13 
REMARK    3  A    between atoms: C7_13  and  C8_14 
REMARK    4  A    between atoms: C7_13  and  N4_21 
REMARK    5  A    between atoms: C8_14  and  C9_15 
ROOT
HETATM    1  C1  UNL     1       6.259  11.959   6.716  1.00  0.00     0.035 C 
HETATM    2  C2  UNL     1       6.845  10.569   6.661  1.00  0.00     0.129 C 
ENDROOT
BRANCH   2   3
HETATM    3  N1  UNL     1       5.939   9.630   7.151  1.00  0.00    -0.220 N 
HETATM    4  C3  UNL     1       4.749   9.547   7.493  1.00  0.00     0.678 A 
HETATM    5  N2  UNL     1       4.349   8.301   7.924  1.00  0.00    -0.202 N 
HETATM    6  N3  UNL     1       3.800  10.492   7.503  1.00  0.00    -0.202 N 
HETATM    7  C4  UNL     1       3.128   8.018   8.327  1.00  0.00     0.107 A 
ATOM      8  H2  UNL     1       5.042   7.552   7.930  1.00  0.00     0.183 HD
HETATM    9  C5  UNL     1       2.183   9.028   8.318  1.00  0.00     0.035 A 
HETATM   10  C6  UNL     1       2.535  10.291   7.896  1.00  0.00     0.107 A 
ATOM     11  H3  UNL     1       4.057  11.428   7.190  1.00  0.00     0.183 HD
ATOM     12  H1  UNL     1       6.399   8.727   7.263  1.00  0.00     0.178 HD
ENDBRANCH   2   3
BRANCH   2  13
HETATM   13  C7  UNL     1       8.258  10.491   7.200  1.00  0.00     0.248 C 
BRANCH  13  14
HETATM   14  C8  UNL     1       8.915  11.790   7.474  1.00  0.00     0.076 C 
BRANCH  14  15
HETATM   15  C9  UNL     1      10.353  11.834   7.123  1.00  0.00    -0.056 A 
HETATM   16  C10 UNL     1      11.351  11.316   7.910  1.00  0.00     0.007 A 
HETATM   17  C11 UNL     1      12.690  11.366   7.546  1.00  0.00     0.001 A 
HETATM   18  C12 UNL     1      13.079  11.939   6.376  1.00  0.00     0.000 A 
HETATM   19  C13 UNL     1      12.104  12.478   5.549  1.00  0.00     0.001 A 
HETATM   20  C14 UNL     1      10.781  12.418   5.926  1.00  0.00     0.007 A 
ENDBRANCH  14  15
ENDBRANCH  13  14
BRANCH  13  21
HETATM   21  N4  UNL     1       8.386   9.489   8.221  1.00  0.00     0.086 N 
HETATM   22  C15 UNL     1       8.243  10.041   9.553  1.00  0.00     0.310 C 
HETATM   23  C16 UNL     1       9.546   8.656   8.097  1.00  0.00     0.310 C 
ENDBRANCH  13  21
ENDBRANCH   2  13
TORSDOF 5
ENDMDL
