MODEL 1
REMARK VINA RESULT: -7.496505146      0.000      0.000
REMARK  5 active torsions:
REMARK  status: ('A' for Active; 'I' for Inactive)
REMARK    1  A    between atoms: C3_3  and  C4_4 
REMARK    2  A    between atoms: C3_3  and  C10_16 
REMARK    3  A    between atoms: N1_5  and  C5_7 
REMARK    4  A    between atoms: C5_7  and  C6_8 
REMARK    5  A    between atoms: C6_8  and  N2_9 
ROOT
HETATM    1  C1  UNL     1       5.674  12.769   6.616  1.00  0.00     0.013 C 
HETATM    2  C2  UNL     1       5.727  11.839   7.376  1.00  0.00    -0.102 C 
HETATM    3  C3  UNL     1       5.806  10.717   8.305  1.00  0.00     0.135 C 
ENDROOT
BRANCH   3   4
HETATM    4  C4  UNL     1       7.037   9.877   8.052  1.00  0.00     0.082 C 
HETATM    5  N1  UNL     1       7.970   9.992   8.879  1.00  0.00    -0.379 N 
ATOM      6  H1  UNL     1       7.790  10.649   9.638  1.00  0.00     0.164 HD
BRANCH   5   7
HETATM    7  C5  UNL     1       9.225   9.364   8.931  1.00  0.00     0.080 C 
BRANCH   7   8
HETATM    8  C6  UNL     1       9.898   9.349   7.600  1.00  0.00     0.169 C 
BRANCH   8   9
HETATM    9  N2  UNL     1      10.771  10.500   7.427  1.00  0.00    -0.352 N 
HETATM   10  C7  UNL     1      11.914  10.810   8.266  1.00  0.00     0.145 C 
HETATM   11  C8  UNL     1      12.873  11.423   7.238  1.00  0.00     0.142 C 
HETATM   12  N3  UNL     1      11.991  12.196   6.391  1.00  0.00    -0.366 N 
HETATM   13  C9  UNL     1      10.730  11.540   6.457  1.00  0.00     0.170 C 
ATOM     14  H3  UNL     1      12.224  13.034   5.858  1.00  0.00     0.161 HD
HETATM   15  S1  UNL     1       9.409  11.906   5.560  1.00  0.00    -0.041 SA
ENDBRANCH   8   9
ENDBRANCH   7   8
ENDBRANCH   5   7
ENDBRANCH   3   4
BRANCH   3  16
HETATM   16  C10 UNL     1       4.574   9.899   8.240  1.00  0.00    -0.038 A 
HETATM   17  C11 UNL     1       3.331  10.530   8.191  1.00  0.00     0.009 A 
HETATM   18  C12 UNL     1       2.175   9.779   8.128  1.00  0.00     0.001 A 
HETATM   19  C13 UNL     1       2.229   8.387   8.113  1.00  0.00     0.000 A 
HETATM   20  C14 UNL     1       3.474   7.756   8.162  1.00  0.00     0.001 A 
HETATM   21  C15 UNL     1       4.625   8.521   8.225  1.00  0.00     0.009 A 
ENDBRANCH   3  16
TORSDOF 5
ENDMDL
MODEL 2
REMARK VINA RESULT: -7.206278972      1.136      1.590
REMARK  5 active torsions:
REMARK  status: ('A' for Active; 'I' for Inactive)
REMARK    1  A    between atoms: C3_3  and  C4_4 
REMARK    2  A    between atoms: C3_3  and  C10_16 
REMARK    3  A    between atoms: N1_5  and  C5_7 
REMARK    4  A    between atoms: C5_7  and  C6_8 
REMARK    5  A    between atoms: C6_8  and  N2_9 
ROOT
HETATM    1  C1  UNL     1       5.696  12.640   6.548  1.00  0.00     0.013 C 
HETATM    2  C2  UNL     1       5.698  11.763   7.371  1.00  0.00    -0.102 C 
HETATM    3  C3  UNL     1       5.715  10.706   8.376  1.00  0.00     0.135 C 
ENDROOT
BRANCH   3   4
HETATM    4  C4  UNL     1       6.962   9.859   8.265  1.00  0.00     0.082 C 
HETATM    5  N1  UNL     1       7.992  10.308   8.817  1.00  0.00    -0.379 N 
ATOM      6  H1  UNL     1       7.869  11.207   9.283  1.00  0.00     0.164 HD
BRANCH   5   7
HETATM    7  C5  UNL     1       9.289   9.777   8.898  1.00  0.00     0.080 C 
BRANCH   7   8
HETATM    8  C6  UNL     1       9.785   9.311   7.571  1.00  0.00     0.169 C 
BRANCH   8   9
HETATM    9  N2  UNL     1      10.060  10.427   6.678  1.00  0.00    -0.352 N 
HETATM   10  C7  UNL     1       9.247  10.794   5.533  1.00  0.00     0.145 C 
HETATM   11  C8  UNL     1       9.385  12.322   5.557  1.00  0.00     0.142 C 
HETATM   12  N3  UNL     1      10.770  12.518   5.929  1.00  0.00    -0.366 N 
HETATM   13  C9  UNL     1      11.120  11.375   6.700  1.00  0.00     0.170 C 
ATOM     14  H3  UNL     1      11.368  13.308   5.690  1.00  0.00     0.161 HD
HETATM   15  S1  UNL     1      12.530  11.155   7.507  1.00  0.00    -0.041 SA
ENDBRANCH   8   9
ENDBRANCH   7   8
ENDBRANCH   5   7
ENDBRANCH   3   4
BRANCH   3  16
HETATM   16  C10 UNL     1       4.491   9.877   8.281  1.00  0.00    -0.038 A 
HETATM   17  C11 UNL     1       3.249  10.497   8.153  1.00  0.00     0.009 A 
HETATM   18  C12 UNL     1       2.101   9.736   8.062  1.00  0.00     0.001 A 
HETATM   19  C13 UNL     1       2.164   8.345   8.096  1.00  0.00     0.000 A 
HETATM   20  C14 UNL     1       3.409   7.725   8.224  1.00  0.00     0.001 A 
HETATM   21  C15 UNL     1       4.551   8.500   8.315  1.00  0.00     0.009 A 
ENDBRANCH   3  16
TORSDOF 5
ENDMDL
MODEL 3
REMARK VINA RESULT: -7.147292218      1.137      1.933
REMARK  5 active torsions:
REMARK  status: ('A' for Active; 'I' for Inactive)
REMARK    1  A    between atoms: C3_3  and  C4_4 
REMARK    2  A    between atoms: C3_3  and  C10_16 
REMARK    3  A    between atoms: N1_5  and  C5_7 
REMARK    4  A    between atoms: C5_7  and  C6_8 
REMARK    5  A    between atoms: C6_8  and  N2_9 
ROOT
HETATM    1  C1  UNL     1       5.703  12.650   6.549  1.00  0.00     0.013 C 
HETATM    2  C2  UNL     1       5.693  11.775   7.375  1.00  0.00    -0.102 C 
HETATM    3  C3  UNL     1       5.695  10.722   8.384  1.00  0.00     0.135 C 
ENDROOT
BRANCH   3   4
HETATM    4  C4  UNL     1       6.936   9.865   8.285  1.00  0.00     0.082 C 
HETATM    5  N1  UNL     1       7.973  10.321   8.819  1.00  0.00    -0.379 N 
ATOM      6  H1  UNL     1       7.859  11.231   9.265  1.00  0.00     0.164 HD
BRANCH   5   7
HETATM    7  C5  UNL     1       9.267   9.783   8.903  1.00  0.00     0.080 C 
BRANCH   7   8
HETATM    8  C6  UNL     1       9.764   9.313   7.577  1.00  0.00     0.169 C 
BRANCH   8   9
HETATM    9  N2  UNL     1      10.048  10.427   6.685  1.00  0.00    -0.352 N 
HETATM   10  C7  UNL     1       9.240  10.800   5.539  1.00  0.00     0.145 C 
HETATM   11  C8  UNL     1       9.390  12.327   5.563  1.00  0.00     0.142 C 
HETATM   12  N3  UNL     1      10.775  12.513   5.937  1.00  0.00    -0.366 N 
HETATM   13  C9  UNL     1      11.116  11.367   6.709  1.00  0.00     0.170 C 
ATOM     14  H3  UNL     1      11.380  13.298   5.698  1.00  0.00     0.161 HD
HETATM   15  S1  UNL     1      12.522  11.137   7.518  1.00  0.00    -0.041 SA
ENDBRANCH   8   9
ENDBRANCH   7   8
ENDBRANCH   5   7
ENDBRANCH   3   4
BRANCH   3  16
HETATM   16  C10 UNL     1       4.466   9.902   8.284  1.00  0.00    -0.038 A 
HETATM   17  C11 UNL     1       4.561   8.511   8.327  1.00  0.00     0.009 A 
HETATM   18  C12 UNL     1       3.424   7.736   8.237  1.00  0.00     0.001 A 
HETATM   19  C13 UNL     1       2.168   8.325   8.100  1.00  0.00     0.000 A 
HETATM   20  C14 UNL     1       2.074   9.718   8.057  1.00  0.00     0.001 A 
HETATM   21  C15 UNL     1       3.223  10.482   8.148  1.00  0.00     0.009 A 
ENDBRANCH   3  16
TORSDOF 5
ENDMDL
MODEL 4
REMARK VINA RESULT: -6.654633543      3.868      7.487
REMARK  5 active torsions:
REMARK  status: ('A' for Active; 'I' for Inactive)
REMARK    1  A    between atoms: C3_3  and  C4_4 
REMARK    2  A    between atoms: C3_3  and  C10_16 
REMARK    3  A    between atoms: N1_5  and  C5_7 
REMARK    4  A    between atoms: C5_7  and  C6_8 
REMARK    5  A    between atoms: C6_8  and  N2_9 
ROOT
HETATM    1  C1  UNL     1       5.509  12.848   6.876  1.00  0.00     0.013 C 
HETATM    2  C2  UNL     1       5.843  11.693   6.899  1.00  0.00    -0.102 C 
HETATM    3  C3  UNL     1       6.232  10.287   6.920  1.00  0.00     0.135 C 
ENDROOT
BRANCH   3   4
HETATM    4  C4  UNL     1       5.350   9.484   7.848  1.00  0.00     0.082 C 
HETATM    5  N1  UNL     1       4.260  10.007   8.173  1.00  0.00    -0.379 N 
ATOM      6  H1  UNL     1       4.091  10.928   7.769  1.00  0.00     0.164 HD
BRANCH   5   7
HETATM    7  C5  UNL     1       3.233   9.533   9.004  1.00  0.00     0.080 C 
BRANCH   7   8
HETATM    8  C6  UNL     1       2.222   8.740   8.246  1.00  0.00     0.169 C 
BRANCH   8   9
HETATM    9  N2  UNL     1       2.258   7.332   8.613  1.00  0.00    -0.352 N 
HETATM   10  C7  UNL     1       3.373   6.437   8.365  1.00  0.00     0.145 C 
HETATM   11  C8  UNL     1       3.303   5.535   9.605  1.00  0.00     0.142 C 
HETATM   12  N3  UNL     1       1.880   5.362   9.801  1.00  0.00    -0.366 N 
HETATM   13  C9  UNL     1       1.277   6.533   9.265  1.00  0.00     0.170 C 
ATOM     14  H3  UNL     1       1.409   4.567  10.233  1.00  0.00     0.161 HD
HETATM   15  S1  UNL     1      -0.309   6.930   9.367  1.00  0.00    -0.041 SA
ENDBRANCH   8   9
ENDBRANCH   7   8
ENDBRANCH   5   7
ENDBRANCH   3   4
BRANCH   3  16
HETATM   16  C10 UNL     1       7.661  10.147   7.281  1.00  0.00    -0.038 A 
HETATM   17  C11 UNL     1       8.641  10.597   6.396  1.00  0.00     0.009 A 
HETATM   18  C12 UNL     1       9.976  10.475   6.721  1.00  0.00     0.001 A 
HETATM   19  C13 UNL     1      10.366   9.902   7.931  1.00  0.00     0.000 A 
HETATM   20  C14 UNL     1       9.383   9.452   8.816  1.00  0.00     0.001 A 
HETATM   21  C15 UNL     1       8.049   9.582   8.476  1.00  0.00     0.009 A 
ENDBRANCH   3  16
TORSDOF 5
ENDMDL
MODEL 5
REMARK VINA RESULT: -6.618396739      2.816      7.605
REMARK  5 active torsions:
REMARK  status: ('A' for Active; 'I' for Inactive)
REMARK    1  A    between atoms: C3_3  and  C4_4 
REMARK    2  A    between atoms: C3_3  and  C10_16 
REMARK    3  A    between atoms: N1_5  and  C5_7 
REMARK    4  A    between atoms: C5_7  and  C6_8 
REMARK    5  A    between atoms: C6_8  and  N2_9 
ROOT
HETATM    1  C1  UNL     1       9.633   8.653   9.409  1.00  0.00     0.013 C 
HETATM    2  C2  UNL     1       9.539   9.752   8.929  1.00  0.00    -0.102 C 
HETATM    3  C3  UNL     1       9.410  11.088   8.357  1.00  0.00     0.135 C 
ENDROOT
BRANCH   3   4
HETATM    4  C4  UNL     1       8.156  11.212   7.522  1.00  0.00     0.082 C 
HETATM    5  N1  UNL     1       7.409  10.208   7.486  1.00  0.00    -0.379 N 
ATOM      6  H1  UNL     1       7.737   9.411   8.031  1.00  0.00     0.164 HD
BRANCH   5   7
HETATM    7  C5  UNL     1       6.192  10.001   6.817  1.00  0.00     0.080 C 
BRANCH   7   8
HETATM    8  C6  UNL     1       5.440   8.839   7.371  1.00  0.00     0.169 C 
BRANCH   8   9
HETATM    9  N2  UNL     1       4.137   9.236   7.883  1.00  0.00    -0.352 N 
HETATM   10  C7  UNL     1       3.691  10.607   8.045  1.00  0.00     0.145 C 
HETATM   11  C8  UNL     1       2.199  10.468   7.717  1.00  0.00     0.142 C 
HETATM   12  N3  UNL     1       1.848   9.203   8.326  1.00  0.00    -0.366 N 
HETATM   13  C9  UNL     1       3.046   8.436   8.322  1.00  0.00     0.170 C 
ATOM     14  H3  UNL     1       0.935   8.921   8.683  1.00  0.00     0.161 HD
HETATM   15  S1  UNL     1       3.179   6.860   8.753  1.00  0.00    -0.041 SA
ENDBRANCH   8   9
ENDBRANCH   7   8
ENDBRANCH   5   7
ENDBRANCH   3   4
BRANCH   3  16
HETATM   16  C10 UNL     1      10.616  11.437   7.572  1.00  0.00    -0.038 A 
HETATM   17  C11 UNL     1      10.489  12.229   6.432  1.00  0.00     0.009 A 
HETATM   18  C12 UNL     1      11.605  12.563   5.692  1.00  0.00     0.001 A 
HETATM   19  C13 UNL     1      12.870  12.117   6.069  1.00  0.00     0.000 A 
HETATM   20  C14 UNL     1      12.996  11.323   7.212  1.00  0.00     0.001 A 
HETATM   21  C15 UNL     1      11.868  10.996   7.943  1.00  0.00     0.009 A 
ENDBRANCH   3  16
TORSDOF 5
ENDMDL
