MODEL 1
REMARK VINA RESULT: -9.115596389      0.000      0.000
REMARK  6 active torsions:
REMARK  status: ('A' for Active; 'I' for Inactive)
REMARK    1  A    between atoms: C2_2  and  C3_3 
REMARK    2  A    between atoms: C3_3  and  N1_4 
REMARK    3  A    between atoms: N1_4  and  O1_5 
REMARK    4  A    between atoms: N1_4  and  N2_7 
REMARK    5  A    between atoms: N2_7  and  S1_9 
REMARK    6  A    between atoms: S1_9  and  C4_12 
ROOT
HETATM    1  S1  UNL     1       9.044  11.552   6.176  1.00  0.00     0.277 S 
HETATM    2  O2  UNL     1       9.597  10.198   5.749  1.00  0.00    -0.199 OA
HETATM    3  O3  UNL     1       9.144  12.491   5.009  1.00  0.00    -0.199 OA
ENDROOT
BRANCH   1   4
HETATM    4  N2  UNL     1       9.968  12.076   7.506  1.00  0.00    -0.201 N 
ATOM      5  H2  UNL     1       9.563  12.636   8.256  1.00  0.00     0.202 HD
BRANCH   4   6
HETATM    6  N1  UNL     1      11.287  11.702   7.511  1.00  0.00    -0.189 N 
BRANCH   6   7
HETATM    7  C3  UNL     1      11.579  10.451   8.131  1.00  0.00     0.204 C 
BRANCH   7   8
HETATM    8  C2  UNL     1      10.580  10.062   9.160  1.00  0.00    -0.013 C 
HETATM    9  C1  UNL     1       9.802   9.010   8.974  1.00  0.00     0.008 C 
ENDBRANCH   7   8
ENDBRANCH   6   7
BRANCH   6  10
HETATM   10  O1  UNL     1      12.013  12.023   6.451  1.00  0.00    -0.271 OA
ATOM     11  H1  UNL     1      12.782  12.559   6.609  1.00  0.00     0.246 HD
ENDBRANCH   6  10
ENDBRANCH   4   6
ENDBRANCH   1   4
BRANCH   1  12
HETATM   12  C4  UNL     1       7.376  11.393   6.674  1.00  0.00     0.082 A 
HETATM   13  C5  UNL     1       6.517  12.482   6.783  1.00  0.00     0.026 A 
HETATM   14  C6  UNL     1       5.206  12.335   7.178  1.00  0.00     0.014 A 
HETATM   15  C7  UNL     1       4.704  11.091   7.479  1.00  0.00    -0.026 A 
HETATM   16  C8  UNL     1       3.403  10.877   7.879  1.00  0.00     0.012 A 
HETATM   17  C12 UNL     1       5.533   9.976   7.381  1.00  0.00    -0.025 A 
HETATM   18  C9  UNL     1       2.916   9.613   8.178  1.00  0.00     0.001 A 
HETATM   19  C10 UNL     1       3.750   8.544   8.072  1.00  0.00     0.001 A 
HETATM   20  C11 UNL     1       5.065   8.714   7.674  1.00  0.00     0.012 A 
HETATM   21  C13 UNL     1       6.843  10.160   6.981  1.00  0.00     0.037 A 
ENDBRANCH   1  12
TORSDOF 6
ENDMDL
MODEL 2
REMARK VINA RESULT: -9.093371628      3.987      6.488
REMARK  6 active torsions:
REMARK  status: ('A' for Active; 'I' for Inactive)
REMARK    1  A    between atoms: C2_2  and  C3_3 
REMARK    2  A    between atoms: C3_3  and  N1_4 
REMARK    3  A    between atoms: N1_4  and  O1_5 
REMARK    4  A    between atoms: N1_4  and  N2_7 
REMARK    5  A    between atoms: N2_7  and  S1_9 
REMARK    6  A    between atoms: S1_9  and  C4_12 
ROOT
HETATM    1  S1  UNL     1       4.754  10.531   8.187  1.00  0.00     0.277 S 
HETATM    2  O2  UNL     1       4.710  10.208   9.675  1.00  0.00    -0.199 OA
HETATM    3  O3  UNL     1       4.141  11.886   7.981  1.00  0.00    -0.199 OA
ENDROOT
BRANCH   1   4
HETATM    4  N2  UNL     1       3.893   9.305   7.379  1.00  0.00    -0.201 N 
ATOM      5  H2  UNL     1       4.346   8.675   6.717  1.00  0.00     0.202 HD
BRANCH   4   6
HETATM    6  N1  UNL     1       2.557   9.212   7.670  1.00  0.00    -0.189 N 
BRANCH   6   7
HETATM    7  C3  UNL     1       2.120   7.967   8.214  1.00  0.00     0.204 C 
BRANCH   7   8
HETATM    8  C2  UNL     1       3.216   7.194   8.855  1.00  0.00    -0.013 C 
HETATM    9  C1  UNL     1       3.041   5.925   9.178  1.00  0.00     0.008 C 
ENDBRANCH   7   8
ENDBRANCH   6   7
BRANCH   6  10
HETATM   10  O1  UNL     1       1.957  10.301   8.127  1.00  0.00    -0.271 OA
ATOM     11  H1  UNL     1       1.969  10.430   9.067  1.00  0.00     0.246 HD
ENDBRANCH   6  10
ENDBRANCH   4   6
ENDBRANCH   1   4
BRANCH   1  12
HETATM   12  C4  UNL     1       6.406  10.531   7.618  1.00  0.00     0.082 A 
HETATM   13  C5  UNL     1       6.755  10.893   6.321  1.00  0.00     0.026 A 
HETATM   14  C6  UNL     1       8.063  10.885   5.891  1.00  0.00     0.014 A 
HETATM   15  C7  UNL     1       9.075  10.515   6.746  1.00  0.00    -0.026 A 
HETATM   16  C8  UNL     1      10.403  10.487   6.379  1.00  0.00     0.012 A 
HETATM   17  C12 UNL     1       8.766  10.147   8.054  1.00  0.00    -0.025 A 
HETATM   18  C9  UNL     1      11.408  10.111   7.258  1.00  0.00     0.001 A 
HETATM   19  C10 UNL     1      11.075   9.757   8.528  1.00  0.00     0.001 A 
HETATM   20  C11 UNL     1       9.752   9.771   8.939  1.00  0.00     0.012 A 
HETATM   21  C13 UNL     1       7.442  10.167   8.451  1.00  0.00     0.037 A 
ENDBRANCH   1  12
TORSDOF 6
ENDMDL
MODEL 3
REMARK VINA RESULT: -9.052572847      1.392      1.814
REMARK  6 active torsions:
REMARK  status: ('A' for Active; 'I' for Inactive)
REMARK    1  A    between atoms: C2_2  and  C3_3 
REMARK    2  A    between atoms: C3_3  and  N1_4 
REMARK    3  A    between atoms: N1_4  and  O1_5 
REMARK    4  A    between atoms: N1_4  and  N2_7 
REMARK    5  A    between atoms: N2_7  and  S1_9 
REMARK    6  A    between atoms: S1_9  and  C4_12 
ROOT
HETATM    1  S1  UNL     1       8.660  11.229   6.482  1.00  0.00     0.277 S 
HETATM    2  O2  UNL     1       8.843  11.147   4.972  1.00  0.00    -0.199 OA
HETATM    3  O3  UNL     1       9.197  12.550   6.950  1.00  0.00    -0.199 OA
ENDROOT
BRANCH   1   4
HETATM    4  N2  UNL     1       9.498   9.914   7.164  1.00  0.00    -0.201 N 
ATOM      5  H2  UNL     1       9.674   9.058   6.640  1.00  0.00     0.202 HD
BRANCH   4   6
HETATM    6  N1  UNL     1       9.924  10.074   8.457  1.00  0.00    -0.189 N 
BRANCH   6   7
HETATM    7  C3  UNL     1      11.319  10.314   8.631  1.00  0.00     0.204 C 
BRANCH   7   8
HETATM    8  C2  UNL     1      12.054  10.441   7.345  1.00  0.00    -0.013 C 
HETATM    9  C1  UNL     1      12.810  11.498   7.107  1.00  0.00     0.008 C 
ENDBRANCH   7   8
ENDBRANCH   6   7
BRANCH   6  10
HETATM   10  O1  UNL     1       9.106  10.695   9.293  1.00  0.00    -0.271 OA
ATOM     11  H1  UNL     1       8.209  10.814   9.002  1.00  0.00     0.246 HD
ENDBRANCH   6  10
ENDBRANCH   4   6
ENDBRANCH   1   4
BRANCH   1  12
HETATM   12  C4  UNL     1       6.966  11.094   6.893  1.00  0.00     0.082 A 
HETATM   13  C5  UNL     1       6.109  12.190   6.920  1.00  0.00     0.026 A 
HETATM   14  C6  UNL     1       4.778  12.062   7.248  1.00  0.00     0.014 A 
HETATM   15  C7  UNL     1       4.252  10.830   7.560  1.00  0.00    -0.026 A 
HETATM   16  C8  UNL     1       2.930  10.636   7.894  1.00  0.00     0.012 A 
HETATM   17  C12 UNL     1       5.078   9.710   7.542  1.00  0.00    -0.025 A 
HETATM   18  C9  UNL     1       2.419   9.384   8.206  1.00  0.00     0.001 A 
HETATM   19  C10 UNL     1       3.251   8.309   8.180  1.00  0.00     0.001 A 
HETATM   20  C11 UNL     1       4.587   8.459   7.849  1.00  0.00     0.012 A 
HETATM   21  C13 UNL     1       6.409   9.874   7.209  1.00  0.00     0.037 A 
ENDBRANCH   1  12
TORSDOF 6
ENDMDL
MODEL 4
REMARK VINA RESULT: -8.919468478      4.769      6.936
REMARK  6 active torsions:
REMARK  status: ('A' for Active; 'I' for Inactive)
REMARK    1  A    between atoms: C2_2  and  C3_3 
REMARK    2  A    between atoms: C3_3  and  N1_4 
REMARK    3  A    between atoms: N1_4  and  O1_5 
REMARK    4  A    between atoms: N1_4  and  N2_7 
REMARK    5  A    between atoms: N2_7  and  S1_9 
REMARK    6  A    between atoms: S1_9  and  C4_12 
ROOT
HETATM    1  S1  UNL     1       3.529   9.796   8.297  1.00  0.00     0.277 S 
HETATM    2  O2  UNL     1       3.120  10.321   9.667  1.00  0.00    -0.199 OA
HETATM    3  O3  UNL     1       2.492  10.223   7.299  1.00  0.00    -0.199 OA
ENDROOT
BRANCH   1   4
HETATM    4  N2  UNL     1       3.645   8.102   8.420  1.00  0.00    -0.201 N 
ATOM      5  H2  UNL     1       4.541   7.618   8.371  1.00  0.00     0.202 HD
BRANCH   4   6
HETATM    6  N1  UNL     1       2.464   7.426   8.590  1.00  0.00    -0.189 N 
BRANCH   6   7
HETATM    7  C3  UNL     1       2.578   6.043   8.923  1.00  0.00     0.204 C 
BRANCH   7   8
HETATM    8  C2  UNL     1       1.275   5.328   8.899  1.00  0.00    -0.013 C 
HETATM    9  C1  UNL     1       1.177   4.136   8.339  1.00  0.00     0.008 C 
ENDBRANCH   7   8
ENDBRANCH   6   7
BRANCH   6  10
HETATM   10  O1  UNL     1       1.459   8.088   9.142  1.00  0.00    -0.271 OA
ATOM     11  H1  UNL     1       1.476   8.175  10.088  1.00  0.00     0.246 HD
ENDBRANCH   6  10
ENDBRANCH   4   6
ENDBRANCH   1   4
BRANCH   1  12
HETATM   12  C4  UNL     1       5.091  10.438   7.847  1.00  0.00     0.082 A 
HETATM   13  C5  UNL     1       5.238  11.586   7.074  1.00  0.00     0.026 A 
HETATM   14  C6  UNL     1       6.478  12.075   6.729  1.00  0.00     0.014 A 
HETATM   15  C7  UNL     1       7.621  11.433   7.146  1.00  0.00    -0.026 A 
HETATM   16  C8  UNL     1       8.890  11.872   6.836  1.00  0.00     0.012 A 
HETATM   17  C12 UNL     1       7.514  10.282   7.922  1.00  0.00    -0.025 A 
HETATM   18  C9  UNL     1      10.030  11.209   7.267  1.00  0.00     0.001 A 
HETATM   19  C10 UNL     1       9.893  10.088   8.023  1.00  0.00     0.001 A 
HETATM   20  C11 UNL     1       8.637   9.612   8.358  1.00  0.00     0.012 A 
HETATM   21  C13 UNL     1       6.254   9.819   8.250  1.00  0.00     0.037 A 
ENDBRANCH   1  12
TORSDOF 6
ENDMDL
MODEL 5
REMARK VINA RESULT: -8.848075899      3.547      6.659
REMARK  6 active torsions:
REMARK  status: ('A' for Active; 'I' for Inactive)
REMARK    1  A    between atoms: C2_2  and  C3_3 
REMARK    2  A    between atoms: C3_3  and  N1_4 
REMARK    3  A    between atoms: N1_4  and  O1_5 
REMARK    4  A    between atoms: N1_4  and  N2_7 
REMARK    5  A    between atoms: N2_7  and  S1_9 
REMARK    6  A    between atoms: S1_9  and  C4_12 
ROOT
HETATM    1  S1  UNL     1       5.592  10.636   7.573  1.00  0.00     0.277 S 
HETATM    2  O2  UNL     1       4.970  11.108   8.880  1.00  0.00    -0.199 OA
HETATM    3  O3  UNL     1       5.252  11.633   6.503  1.00  0.00    -0.199 OA
ENDROOT
BRANCH   1   4
HETATM    4  N2  UNL     1       4.957   9.093   7.240  1.00  0.00    -0.201 N 
ATOM      5  H2  UNL     1       5.535   8.343   6.861  1.00  0.00     0.202 HD
BRANCH   4   6
HETATM    6  N1  UNL     1       3.625   8.915   7.511  1.00  0.00    -0.189 N 
BRANCH   6   7
HETATM    7  C3  UNL     1       3.320   8.222   8.720  1.00  0.00     0.204 C 
BRANCH   7   8
HETATM    8  C2  UNL     1       2.188   7.269   8.577  1.00  0.00    -0.013 C 
HETATM    9  C1  UNL     1       2.336   5.999   8.908  1.00  0.00     0.008 C 
ENDBRANCH   7   8
ENDBRANCH   6   7
BRANCH   6  10
HETATM   10  O1  UNL     1       2.799   9.890   7.163  1.00  0.00    -0.271 OA
ATOM     11  H1  UNL     1       3.123  10.778   7.261  1.00  0.00     0.246 HD
ENDBRANCH   6  10
ENDBRANCH   4   6
ENDBRANCH   1   4
BRANCH   1  12
HETATM   12  C4  UNL     1       7.327  10.510   7.741  1.00  0.00     0.082 A 
HETATM   13  C5  UNL     1       7.935   9.592   8.592  1.00  0.00     0.026 A 
HETATM   14  C6  UNL     1       9.304   9.510   8.712  1.00  0.00     0.014 A 
HETATM   15  C7  UNL     1      10.119  10.342   7.981  1.00  0.00    -0.026 A 
HETATM   16  C8  UNL     1      11.495  10.309   8.054  1.00  0.00     0.012 A 
HETATM   17  C12 UNL     1       9.548  11.273   7.117  1.00  0.00    -0.025 A 
HETATM   18  C9  UNL     1      12.299  11.158   7.308  1.00  0.00     0.001 A 
HETATM   19  C10 UNL     1      11.711  12.056   6.473  1.00  0.00     0.001 A 
HETATM   20  C11 UNL     1      10.332  12.124   6.369  1.00  0.00     0.012 A 
HETATM   21  C13 UNL     1       8.170  11.329   7.022  1.00  0.00     0.037 A 
ENDBRANCH   1  12
TORSDOF 6
ENDMDL
