MODEL 1
REMARK VINA RESULT: -11.717013104      0.000      0.000
REMARK  7 active torsions:
REMARK  status: ('A' for Active; 'I' for Inactive)
REMARK       I    between atoms: C1_2  and  N1_3 
REMARK       I    between atoms: C1_2  and  N2_17 
REMARK    1  A    between atoms: N1_3  and  C2_5 
REMARK    2  A    between atoms: C5_8  and  C6_9 
REMARK    3  A    between atoms: N2_17  and  C14_19 
REMARK    4  A    between atoms: C17_22  and  C18_23 
REMARK       I    between atoms: C18_23  and  N3_25 
REMARK    5  A    between atoms: N3_25  and  C19_27 
REMARK    6  A    between atoms: C19_27  and  C20_28 
REMARK    7  A    between atoms: C20_28  and  C21_29 
ROOT
HETATM    1  O1  UNL     1     -14.235  25.700  -3.762  1.00  0.00    -0.247 OA
HETATM    2  C1  UNL     1     -15.106  25.598  -4.637  1.00  0.00     0.325 C 
HETATM    3  N1  UNL     1     -15.004  24.731  -5.718  1.00  0.00    -0.309 N 
ATOM      4  H1  UNL     1     -15.789  24.743  -6.370  1.00  0.00     0.170 HD
HETATM    5  N2  UNL     1     -16.272  26.426  -4.505  1.00  0.00    -0.303 N 
ATOM      6  H2  UNL     1     -17.023  26.385  -5.194  1.00  0.00     0.171 HD
ENDROOT
BRANCH   5   7
HETATM    7  C14 UNL     1     -16.354  27.317  -3.375  1.00  0.00     0.078 A 
HETATM    8  C15 UNL     1     -16.189  28.672  -3.343  1.00  0.00     0.039 A 
HETATM    9  C16 UNL     1     -16.315  29.283  -2.163  1.00  0.00     0.027 A 
HETATM   10  C17 UNL     1     -16.600  28.509  -1.070  1.00  0.00     0.074 A 
HETATM   11  S1  UNL     1     -16.685  26.941  -1.730  1.00  0.00    -0.067 SA
BRANCH  10  12
HETATM   12  C18 UNL     1     -16.788  28.917   0.317  1.00  0.00     0.258 C 
HETATM   13  O2  UNL     1     -17.871  29.439   0.668  1.00  0.00    -0.267 OA
HETATM   14  N3  UNL     1     -15.762  28.735   1.278  1.00  0.00    -0.356 N 
ATOM     15  H3  UNL     1     -14.882  28.309   0.987  1.00  0.00     0.162 HD
BRANCH  14  16
HETATM   16  C19 UNL     1     -15.927  29.131   2.647  1.00  0.00     0.127 C 
BRANCH  16  17
HETATM   17  C20 UNL     1     -15.508  28.082   3.624  1.00  0.00     0.058 C 
BRANCH  17  18
HETATM   18  C21 UNL     1     -15.204  28.668   4.944  1.00  0.00    -0.057 A 
HETATM   19  C22 UNL     1     -14.643  29.915   5.057  1.00  0.00     0.007 A 
HETATM   20  C23 UNL     1     -14.370  30.405   6.331  1.00  0.00     0.001 A 
HETATM   21  C24 UNL     1     -14.651  29.672   7.455  1.00  0.00     0.000 A 
HETATM   22  C25 UNL     1     -15.215  28.424   7.313  1.00  0.00     0.001 A 
HETATM   23  C26 UNL     1     -15.492  27.920   6.071  1.00  0.00     0.007 A 
ENDBRANCH  17  18
ENDBRANCH  16  17
ENDBRANCH  14  16
ENDBRANCH  10  12
ENDBRANCH   5   7
BRANCH   3  24
HETATM   24  C2  UNL     1     -13.958  23.834  -6.035  1.00  0.00     0.036 A 
HETATM   25  C3  UNL     1     -14.124  22.475  -5.736  1.00  0.00     0.030 A 
HETATM   26  C4  UNL     1     -13.118  21.609  -6.022  1.00  0.00     0.014 A 
HETATM   27  C5  UNL     1     -11.934  22.017  -6.598  1.00  0.00    -0.026 A 
HETATM   28  C12 UNL     1     -11.772  23.326  -6.887  1.00  0.00     0.014 A 
HETATM   29  C13 UNL     1     -12.789  24.241  -6.604  1.00  0.00     0.030 A 
BRANCH  27  30
HETATM   30  C6  UNL     1     -10.868  21.034  -6.888  1.00  0.00    -0.026 A 
HETATM   31  C7  UNL     1     -10.293  20.929  -8.139  1.00  0.00     0.012 A 
HETATM   32  C8  UNL     1      -9.292  20.010  -8.412  1.00  0.00     0.001 A 
HETATM   33  C9  UNL     1      -8.872  19.183  -7.390  1.00  0.00     0.000 A 
HETATM   34  C10 UNL     1      -9.450  19.290  -6.143  1.00  0.00     0.001 A 
HETATM   35  C11 UNL     1     -10.460  20.216  -5.858  1.00  0.00     0.012 A 
ENDBRANCH  27  30
ENDBRANCH   3  24
TORSDOF 7
ENDMDL
MODEL 2
REMARK VINA RESULT: -11.277453750      1.853     12.114
REMARK  7 active torsions:
REMARK  status: ('A' for Active; 'I' for Inactive)
REMARK       I    between atoms: C1_2  and  N1_3 
REMARK       I    between atoms: C1_2  and  N2_17 
REMARK    1  A    between atoms: N1_3  and  C2_5 
REMARK    2  A    between atoms: C5_8  and  C6_9 
REMARK    3  A    between atoms: N2_17  and  C14_19 
REMARK    4  A    between atoms: C17_22  and  C18_23 
REMARK       I    between atoms: C18_23  and  N3_25 
REMARK    5  A    between atoms: N3_25  and  C19_27 
REMARK    6  A    between atoms: C19_27  and  C20_28 
REMARK    7  A    between atoms: C20_28  and  C21_29 
ROOT
HETATM    1  O1  UNL     1     -15.295  25.738  -1.036  1.00  0.00    -0.247 OA
HETATM    2  C1  UNL     1     -16.209  26.483  -1.415  1.00  0.00     0.325 C 
HETATM    3  N1  UNL     1     -16.740  27.500  -0.632  1.00  0.00    -0.309 N 
ATOM      4  H1  UNL     1     -17.492  28.041  -1.060  1.00  0.00     0.170 HD
HETATM    5  N2  UNL     1     -16.730  26.267  -2.737  1.00  0.00    -0.303 N 
ATOM      6  H2  UNL     1     -17.482  26.849  -3.104  1.00  0.00     0.171 HD
ENDROOT
BRANCH   5   7
HETATM    7  C14 UNL     1     -16.162  25.206  -3.530  1.00  0.00     0.078 A 
HETATM    8  C15 UNL     1     -16.582  23.912  -3.650  1.00  0.00     0.039 A 
HETATM    9  C16 UNL     1     -15.885  23.107  -4.455  1.00  0.00     0.027 A 
HETATM   10  C17 UNL     1     -14.800  23.635  -5.102  1.00  0.00     0.074 A 
HETATM   11  S1  UNL     1     -14.788  25.251  -4.562  1.00  0.00    -0.067 SA
BRANCH  10  12
HETATM   12  C18 UNL     1     -13.878  22.983  -6.026  1.00  0.00     0.258 C 
HETATM   13  O2  UNL     1     -14.130  21.829  -6.440  1.00  0.00    -0.267 OA
HETATM   14  N3  UNL     1     -12.699  23.636  -6.464  1.00  0.00    -0.356 N 
ATOM     15  H3  UNL     1     -12.499  24.576  -6.124  1.00  0.00     0.162 HD
BRANCH  14  16
HETATM   16  C19 UNL     1     -11.780  23.012  -7.371  1.00  0.00     0.127 C 
BRANCH  16  17
HETATM   17  C20 UNL     1     -10.378  22.969  -6.861  1.00  0.00     0.058 C 
BRANCH  17  18
HETATM   18  C21 UNL     1     -10.029  21.624  -6.360  1.00  0.00    -0.057 A 
HETATM   19  C22 UNL     1      -9.709  20.606  -7.221  1.00  0.00     0.007 A 
HETATM   20  C23 UNL     1      -9.402  19.358  -6.685  1.00  0.00     0.001 A 
HETATM   21  C24 UNL     1      -9.414  19.138  -5.333  1.00  0.00     0.000 A 
HETATM   22  C25 UNL     1      -9.737  20.178  -4.491  1.00  0.00     0.001 A 
HETATM   23  C26 UNL     1     -10.044  21.414  -4.993  1.00  0.00     0.007 A 
ENDBRANCH  17  18
ENDBRANCH  16  17
ENDBRANCH  14  16
ENDBRANCH  10  12
ENDBRANCH   5   7
BRANCH   3  24
HETATM   24  C2  UNL     1     -16.378  27.886   0.679  1.00  0.00     0.036 A 
HETATM   25  C3  UNL     1     -16.596  26.985   1.729  1.00  0.00     0.030 A 
HETATM   26  C4  UNL     1     -16.266  27.353   2.995  1.00  0.00     0.014 A 
HETATM   27  C5  UNL     1     -15.723  28.586   3.286  1.00  0.00    -0.026 A 
HETATM   28  C12 UNL     1     -15.512  29.457   2.275  1.00  0.00     0.014 A 
HETATM   29  C13 UNL     1     -15.841  29.106   0.964  1.00  0.00     0.030 A 
BRANCH  27  30
HETATM   30  C6  UNL     1     -15.382  28.940   4.681  1.00  0.00    -0.026 A 
HETATM   31  C7  UNL     1     -14.648  30.067   4.990  1.00  0.00     0.012 A 
HETATM   32  C8  UNL     1     -14.330  30.402   6.296  1.00  0.00     0.001 A 
HETATM   33  C9  UNL     1     -14.769  29.569   7.305  1.00  0.00     0.000 A 
HETATM   34  C10 UNL     1     -15.501  28.444   6.993  1.00  0.00     0.001 A 
HETATM   35  C11 UNL     1     -15.828  28.100   5.677  1.00  0.00     0.012 A 
ENDBRANCH  27  30
ENDBRANCH   3  24
TORSDOF 7
ENDMDL
MODEL 3
REMARK VINA RESULT: -11.241579676      1.780     12.167
REMARK  7 active torsions:
REMARK  status: ('A' for Active; 'I' for Inactive)
REMARK       I    between atoms: C1_2  and  N1_3 
REMARK       I    between atoms: C1_2  and  N2_17 
REMARK    1  A    between atoms: N1_3  and  C2_5 
REMARK    2  A    between atoms: C5_8  and  C6_9 
REMARK    3  A    between atoms: N2_17  and  C14_19 
REMARK    4  A    between atoms: C17_22  and  C18_23 
REMARK       I    between atoms: C18_23  and  N3_25 
REMARK    5  A    between atoms: N3_25  and  C19_27 
REMARK    6  A    between atoms: C19_27  and  C20_28 
REMARK    7  A    between atoms: C20_28  and  C21_29 
ROOT
HETATM    1  O1  UNL     1     -15.235  26.203  -1.130  1.00  0.00    -0.247 OA
HETATM    2  C1  UNL     1     -16.268  26.832  -1.399  1.00  0.00     0.325 C 
HETATM    3  N1  UNL     1     -16.923  27.651  -0.488  1.00  0.00    -0.309 N 
ATOM      4  H1  UNL     1     -17.765  28.112  -0.833  1.00  0.00     0.170 HD
HETATM    5  N2  UNL     1     -16.795  26.696  -2.729  1.00  0.00    -0.303 N 
ATOM      6  H2  UNL     1     -17.642  27.190  -3.009  1.00  0.00     0.171 HD
ENDROOT
BRANCH   5   7
HETATM    7  C14 UNL     1     -16.097  25.842  -3.657  1.00  0.00     0.078 A 
HETATM    8  C15 UNL     1     -16.264  24.504  -3.876  1.00  0.00     0.039 A 
HETATM    9  C16 UNL     1     -15.490  23.927  -4.798  1.00  0.00     0.027 A 
HETATM   10  C17 UNL     1     -14.586  24.716  -5.458  1.00  0.00     0.074 A 
HETATM   11  S1  UNL     1     -14.847  26.250  -4.764  1.00  0.00    -0.067 SA
BRANCH  10  12
HETATM   12  C18 UNL     1     -13.634  24.344  -6.497  1.00  0.00     0.258 C 
HETATM   13  O2  UNL     1     -13.462  25.101  -7.480  1.00  0.00    -0.267 OA
HETATM   14  N3  UNL     1     -12.898  23.136  -6.416  1.00  0.00    -0.356 N 
ATOM     15  H3  UNL     1     -13.040  22.522  -5.614  1.00  0.00     0.162 HD
BRANCH  14  16
HETATM   16  C19 UNL     1     -11.957  22.751  -7.428  1.00  0.00     0.127 C 
BRANCH  16  17
HETATM   17  C20 UNL     1     -10.534  22.841  -6.983  1.00  0.00     0.058 C 
BRANCH  17  18
HETATM   18  C21 UNL     1     -10.068  21.561  -6.413  1.00  0.00    -0.057 A 
HETATM   19  C22 UNL     1      -9.752  20.497  -7.218  1.00  0.00     0.007 A 
HETATM   20  C23 UNL     1      -9.331  19.314  -6.616  1.00  0.00     0.001 A 
HETATM   21  C24 UNL     1      -9.229  19.202  -5.254  1.00  0.00     0.000 A 
HETATM   22  C25 UNL     1      -9.551  20.286  -4.469  1.00  0.00     0.001 A 
HETATM   23  C26 UNL     1      -9.969  21.459  -5.037  1.00  0.00     0.007 A 
ENDBRANCH  17  18
ENDBRANCH  16  17
ENDBRANCH  14  16
ENDBRANCH  10  12
ENDBRANCH   5   7
BRANCH   3  24
HETATM   24  C2  UNL     1     -16.579  27.929   0.855  1.00  0.00     0.036 A 
HETATM   25  C3  UNL     1     -15.888  29.114   1.140  1.00  0.00     0.030 A 
HETATM   26  C4  UNL     1     -15.539  29.382   2.426  1.00  0.00     0.014 A 
HETATM   27  C5  UNL     1     -15.839  28.528   3.465  1.00  0.00    -0.026 A 
HETATM   28  C12 UNL     1     -16.505  27.385   3.193  1.00  0.00     0.014 A 
HETATM   29  C13 UNL     1     -16.877  27.082   1.880  1.00  0.00     0.030 A 
BRANCH  27  30
HETATM   30  C6  UNL     1     -15.436  28.864   4.847  1.00  0.00    -0.026 A 
HETATM   31  C7  UNL     1     -15.709  28.029   5.911  1.00  0.00     0.012 A 
HETATM   32  C8  UNL     1     -15.329  28.341   7.207  1.00  0.00     0.001 A 
HETATM   33  C9  UNL     1     -14.659  29.529   7.419  1.00  0.00     0.000 A 
HETATM   34  C10 UNL     1     -14.388  30.361   6.354  1.00  0.00     0.001 A 
HETATM   35  C11 UNL     1     -14.767  30.052   5.043  1.00  0.00     0.012 A 
ENDBRANCH  27  30
ENDBRANCH   3  24
TORSDOF 7
ENDMDL
MODEL 4
REMARK VINA RESULT: -11.198500828      1.785     12.129
REMARK  7 active torsions:
REMARK  status: ('A' for Active; 'I' for Inactive)
REMARK       I    between atoms: C1_2  and  N1_3 
REMARK       I    between atoms: C1_2  and  N2_17 
REMARK    1  A    between atoms: N1_3  and  C2_5 
REMARK    2  A    between atoms: C5_8  and  C6_9 
REMARK    3  A    between atoms: N2_17  and  C14_19 
REMARK    4  A    between atoms: C17_22  and  C18_23 
REMARK       I    between atoms: C18_23  and  N3_25 
REMARK    5  A    between atoms: N3_25  and  C19_27 
REMARK    6  A    between atoms: C19_27  and  C20_28 
REMARK    7  A    between atoms: C20_28  and  C21_29 
ROOT
HETATM    1  O1  UNL     1     -15.453  26.004  -1.159  1.00  0.00    -0.247 OA
HETATM    2  C1  UNL     1     -16.317  26.823  -1.503  1.00  0.00     0.325 C 
HETATM    3  N1  UNL     1     -16.833  27.792  -0.652  1.00  0.00    -0.309 N 
ATOM      4  H1  UNL     1     -17.542  28.404  -1.056  1.00  0.00     0.170 HD
HETATM    5  N2  UNL     1     -16.794  26.747  -2.856  1.00  0.00    -0.303 N 
ATOM      6  H2  UNL     1     -17.505  27.395  -3.197  1.00  0.00     0.171 HD
ENDROOT
BRANCH   5   7
HETATM    7  C14 UNL     1     -16.243  25.733  -3.720  1.00  0.00     0.078 A 
HETATM    8  C15 UNL     1     -16.632  24.433  -3.864  1.00  0.00     0.039 A 
HETATM    9  C16 UNL     1     -15.961  23.678  -4.737  1.00  0.00     0.027 A 
HETATM   10  C17 UNL     1     -14.930  24.262  -5.424  1.00  0.00     0.074 A 
HETATM   11  S1  UNL     1     -14.933  25.857  -4.825  1.00  0.00    -0.067 SA
BRANCH  10  12
HETATM   12  C18 UNL     1     -14.046  23.673  -6.423  1.00  0.00     0.258 C 
HETATM   13  O2  UNL     1     -14.528  23.221  -7.487  1.00  0.00    -0.267 OA
HETATM   14  N3  UNL     1     -12.647  23.601  -6.209  1.00  0.00    -0.356 N 
ATOM     15  H3  UNL     1     -12.260  23.971  -5.341  1.00  0.00     0.162 HD
BRANCH  14  16
HETATM   16  C19 UNL     1     -11.760  23.025  -7.178  1.00  0.00     0.127 C 
BRANCH  16  17
HETATM   17  C20 UNL     1     -10.338  22.975  -6.728  1.00  0.00     0.058 C 
BRANCH  17  18
HETATM   18  C21 UNL     1      -9.975  21.628  -6.244  1.00  0.00    -0.057 A 
HETATM   19  C22 UNL     1      -9.939  21.341  -4.903  1.00  0.00     0.007 A 
HETATM   20  C23 UNL     1      -9.576  20.055  -4.512  1.00  0.00     0.001 A 
HETATM   21  C24 UNL     1      -9.261  19.089  -5.432  1.00  0.00     0.000 A 
HETATM   22  C25 UNL     1      -9.306  19.404  -6.771  1.00  0.00     0.001 A 
HETATM   23  C26 UNL     1      -9.659  20.662  -7.181  1.00  0.00     0.007 A 
ENDBRANCH  17  18
ENDBRANCH  16  17
ENDBRANCH  14  16
ENDBRANCH  10  12
ENDBRANCH   5   7
BRANCH   3  24
HETATM   24  C2  UNL     1     -16.506  28.044   0.701  1.00  0.00     0.036 A 
HETATM   25  C3  UNL     1     -15.890  29.259   1.028  1.00  0.00     0.030 A 
HETATM   26  C4  UNL     1     -15.557  29.503   2.323  1.00  0.00     0.014 A 
HETATM   27  C5  UNL     1     -15.803  28.596   3.331  1.00  0.00    -0.026 A 
HETATM   28  C12 UNL     1     -16.396  27.423   3.018  1.00  0.00     0.014 A 
HETATM   29  C13 UNL     1     -16.750  27.145   1.695  1.00  0.00     0.030 A 
BRANCH  27  30
HETATM   30  C6  UNL     1     -15.420  28.908   4.724  1.00  0.00    -0.026 A 
HETATM   31  C7  UNL     1     -14.752  30.071   5.055  1.00  0.00     0.012 A 
HETATM   32  C8  UNL     1     -14.395  30.366   6.361  1.00  0.00     0.001 A 
HETATM   33  C9  UNL     1     -14.724  29.457   7.346  1.00  0.00     0.000 A 
HETATM   34  C10 UNL     1     -15.390  28.298   7.012  1.00  0.00     0.001 A 
HETATM   35  C11 UNL     1     -15.756  27.992   5.696  1.00  0.00     0.012 A 
ENDBRANCH  27  30
ENDBRANCH   3  24
TORSDOF 7
ENDMDL
MODEL 5
REMARK VINA RESULT: -11.114226254      1.798     11.919
REMARK  7 active torsions:
REMARK  status: ('A' for Active; 'I' for Inactive)
REMARK       I    between atoms: C1_2  and  N1_3 
REMARK       I    between atoms: C1_2  and  N2_17 
REMARK    1  A    between atoms: N1_3  and  C2_5 
REMARK    2  A    between atoms: C5_8  and  C6_9 
REMARK    3  A    between atoms: N2_17  and  C14_19 
REMARK    4  A    between atoms: C17_22  and  C18_23 
REMARK       I    between atoms: C18_23  and  N3_25 
REMARK    5  A    between atoms: N3_25  and  C19_27 
REMARK    6  A    between atoms: C19_27  and  C20_28 
REMARK    7  A    between atoms: C20_28  and  C21_29 
ROOT
HETATM    1  O1  UNL     1     -15.830  26.311  -1.972  1.00  0.00    -0.247 OA
HETATM    2  C1  UNL     1     -16.446  27.340  -2.285  1.00  0.00     0.325 C 
HETATM    3  N1  UNL     1     -16.810  28.320  -1.370  1.00  0.00    -0.309 N 
ATOM      4  H1  UNL     1     -17.316  29.118  -1.754  1.00  0.00     0.170 HD
HETATM    5  N2  UNL     1     -16.789  27.507  -3.670  1.00  0.00    -0.303 N 
ATOM      6  H2  UNL     1     -17.295  28.334  -3.987  1.00  0.00     0.171 HD
ENDROOT
BRANCH   5   7
HETATM    7  C14 UNL     1     -16.400  26.476  -4.600  1.00  0.00     0.078 A 
HETATM    8  C15 UNL     1     -17.191  25.732  -5.427  1.00  0.00     0.039 A 
HETATM    9  C16 UNL     1     -16.593  24.828  -6.206  1.00  0.00     0.027 A 
HETATM   10  C17 UNL     1     -15.232  24.711  -6.119  1.00  0.00     0.074 A 
HETATM   11  S1  UNL     1     -14.827  25.876  -4.945  1.00  0.00    -0.067 SA
BRANCH  10  12
HETATM   12  C18 UNL     1     -14.342  23.814  -6.848  1.00  0.00     0.258 C 
HETATM   13  O2  UNL     1     -14.813  23.044  -7.715  1.00  0.00    -0.267 OA
HETATM   14  N3  UNL     1     -12.948  23.800  -6.591  1.00  0.00    -0.356 N 
ATOM     15  H3  UNL     1     -12.569  24.430  -5.885  1.00  0.00     0.162 HD
BRANCH  14  16
HETATM   16  C19 UNL     1     -12.056  22.925  -7.296  1.00  0.00     0.127 C 
BRANCH  16  17
HETATM   17  C20 UNL     1     -10.647  22.993  -6.808  1.00  0.00     0.058 C 
BRANCH  17  18
HETATM   18  C21 UNL     1     -10.160  21.665  -6.386  1.00  0.00    -0.057 A 
HETATM   19  C22 UNL     1      -9.920  20.672  -7.301  1.00  0.00     0.007 A 
HETATM   20  C23 UNL     1      -9.474  19.438  -6.836  1.00  0.00     0.001 A 
HETATM   21  C24 UNL     1      -9.273  19.207  -5.500  1.00  0.00     0.000 A 
HETATM   22  C25 UNL     1      -9.519  20.222  -4.603  1.00  0.00     0.001 A 
HETATM   23  C26 UNL     1      -9.960  21.444  -5.035  1.00  0.00     0.007 A 
ENDBRANCH  17  18
ENDBRANCH  16  17
ENDBRANCH  14  16
ENDBRANCH  10  12
ENDBRANCH   5   7
BRANCH   3  24
HETATM   24  C2  UNL     1     -16.572  28.360   0.023  1.00  0.00     0.036 A 
HETATM   25  C3  UNL     1     -15.862  29.445   0.554  1.00  0.00     0.030 A 
HETATM   26  C4  UNL     1     -15.614  29.483   1.889  1.00  0.00     0.014 A 
HETATM   27  C5  UNL     1     -16.036  28.489   2.746  1.00  0.00    -0.026 A 
HETATM   28  C12 UNL     1     -16.720  27.441   2.237  1.00  0.00     0.014 A 
HETATM   29  C13 UNL     1     -16.989  27.375   0.868  1.00  0.00     0.030 A 
BRANCH  27  30
HETATM   30  C6  UNL     1     -15.739  28.577   4.192  1.00  0.00    -0.026 A 
HETATM   31  C7  UNL     1     -16.136  29.657   4.955  1.00  0.00     0.012 A 
HETATM   32  C8  UNL     1     -15.861  29.739   6.311  1.00  0.00     0.001 A 
HETATM   33  C9  UNL     1     -15.168  28.700   6.897  1.00  0.00     0.000 A 
HETATM   34  C10 UNL     1     -14.773  27.623   6.132  1.00  0.00     0.001 A 
HETATM   35  C11 UNL     1     -15.048  27.532   4.763  1.00  0.00     0.012 A 
ENDBRANCH  27  30
ENDBRANCH   3  24
TORSDOF 7
ENDMDL
