MODEL 1
REMARK VINA RESULT: -11.000156716      0.000      0.000
REMARK  7 active torsions:
REMARK  status: ('A' for Active; 'I' for Inactive)
REMARK       I    between atoms: C1_2  and  N1_3 
REMARK       I    between atoms: C1_2  and  N2_10 
REMARK    1  A    between atoms: N1_3  and  C2_4 
REMARK    2  A    between atoms: N2_10  and  C8_12 
REMARK    3  A    between atoms: C13_17  and  C14_18 
REMARK    4  A    between atoms: C14_18  and  N3_19 
REMARK       I    between atoms: N3_19  and  C15_21 
REMARK    5  A    between atoms: C15_21  and  C16_23 
REMARK    6  A    between atoms: C19_26  and  O3_27 
REMARK    7  A    between atoms: O3_27  and  C20_28 
ROOT
HETATM    1  C14 UNL     1     -15.786  28.462  -3.354  1.00  0.00     0.163 C 
ENDROOT
BRANCH   1   2
HETATM    2  C13 UNL     1     -16.188  28.219  -1.943  1.00  0.00    -0.014 A 
HETATM    3  C8  UNL     1     -16.370  26.856  -1.573  1.00  0.00     0.045 A 
HETATM    4  C9  UNL     1     -16.737  26.696  -0.265  1.00  0.00     0.030 A 
HETATM    5  C10 UNL     1     -16.923  27.751   0.642  1.00  0.00     0.002 A 
HETATM    6  C11 UNL     1     -16.735  29.034   0.239  1.00  0.00     0.001 A 
HETATM    7  C12 UNL     1     -16.364  29.252  -1.067  1.00  0.00     0.011 A 
BRANCH   3   8
HETATM    8  N2  UNL     1     -16.120  25.864  -2.527  1.00  0.00    -0.296 N 
HETATM    9  C1  UNL     1     -17.121  25.285  -3.395  1.00  0.00     0.398 C 
HETATM   10  O1  UNL     1     -18.317  25.734  -3.283  1.00  0.00    -0.230 OA
HETATM   11  N1  UNL     1     -16.709  24.324  -4.241  1.00  0.00    -0.352 NA
ATOM     12  H2  UNL     1     -15.162  25.525  -2.618  1.00  0.00     0.172 HD
BRANCH  11  13
HETATM   13  C2  UNL     1     -16.291  23.351  -5.100  1.00  0.00     0.112 A 
HETATM   14  C3  UNL     1     -15.459  22.292  -4.815  1.00  0.00     0.045 A 
HETATM   15  C4  UNL     1     -15.094  21.357  -5.758  1.00  0.00     0.003 A 
HETATM   16  C5  UNL     1     -15.554  21.443  -7.050  1.00  0.00     0.000 A 
HETATM   17  C6  UNL     1     -16.386  22.494  -7.353  1.00  0.00     0.003 A 
HETATM   18  C7  UNL     1     -16.754  23.415  -6.450  1.00  0.00     0.045 A 
ENDBRANCH  11  13
ENDBRANCH   3   8
ENDBRANCH   1   2
BRANCH   1  19
HETATM   19  N3  UNL     1     -15.057  27.412  -3.969  1.00  0.00    -0.353 N 
HETATM   20  C15 UNL     1     -14.913  27.257  -5.377  1.00  0.00     0.251 C 
HETATM   21  O2  UNL     1     -15.457  28.052  -6.178  1.00  0.00    -0.268 OA
ATOM     22  H3  UNL     1     -14.608  26.724  -3.365  1.00  0.00     0.163 HD
BRANCH  20  23
HETATM   23  C16 UNL     1     -14.126  26.176  -5.953  1.00  0.00     0.032 A 
HETATM   24  C17 UNL     1     -14.116  25.809  -7.273  1.00  0.00     0.020 A 
HETATM   25  C18 UNL     1     -13.353  24.730  -7.728  1.00  0.00     0.038 A 
HETATM   26  C19 UNL     1     -12.596  24.020  -6.831  1.00  0.00     0.076 A 
HETATM   27  C26 UNL     1     -12.593  24.376  -5.499  1.00  0.00     0.038 A 
HETATM   28  C27 UNL     1     -13.343  25.432  -5.071  1.00  0.00     0.020 A 
BRANCH  26  29
HETATM   29  O3  UNL     1     -11.841  22.966  -7.220  1.00  0.00    -0.311 OA
BRANCH  29  30
HETATM   30  C20 UNL     1     -11.176  22.039  -6.474  1.00  0.00     0.076 A 
HETATM   31  C21 UNL     1     -11.849  20.943  -5.964  1.00  0.00     0.037 A 
HETATM   32  C22 UNL     1     -11.212  19.984  -5.206  1.00  0.00     0.003 A 
HETATM   33  C23 UNL     1      -9.871  20.104  -4.938  1.00  0.00     0.000 A 
HETATM   34  C24 UNL     1      -9.197  21.186  -5.437  1.00  0.00     0.003 A 
HETATM   35  C25 UNL     1      -9.840  22.156  -6.204  1.00  0.00     0.037 A 
ENDBRANCH  29  30
ENDBRANCH  26  29
ENDBRANCH  20  23
ENDBRANCH   1  19
TORSDOF 7
ENDMDL
MODEL 2
REMARK VINA RESULT: -10.877043436      1.013      1.326
REMARK  7 active torsions:
REMARK  status: ('A' for Active; 'I' for Inactive)
REMARK       I    between atoms: C1_2  and  N1_3 
REMARK       I    between atoms: C1_2  and  N2_10 
REMARK    1  A    between atoms: N1_3  and  C2_4 
REMARK    2  A    between atoms: N2_10  and  C8_12 
REMARK    3  A    between atoms: C13_17  and  C14_18 
REMARK    4  A    between atoms: C14_18  and  N3_19 
REMARK       I    between atoms: N3_19  and  C15_21 
REMARK    5  A    between atoms: C15_21  and  C16_23 
REMARK    6  A    between atoms: C19_26  and  O3_27 
REMARK    7  A    between atoms: O3_27  and  C20_28 
ROOT
HETATM    1  C14 UNL     1     -16.017  28.500  -2.967  1.00  0.00     0.163 C 
ENDROOT
BRANCH   1   2
HETATM    2  C13 UNL     1     -16.206  28.287  -1.507  1.00  0.00    -0.014 A 
HETATM    3  C8  UNL     1     -16.532  26.959  -1.108  1.00  0.00     0.045 A 
HETATM    4  C9  UNL     1     -16.692  26.826   0.244  1.00  0.00     0.030 A 
HETATM    5  C10 UNL     1     -16.553  27.874   1.166  1.00  0.00     0.002 A 
HETATM    6  C11 UNL     1     -16.239  29.122   0.734  1.00  0.00     0.001 A 
HETATM    7  C12 UNL     1     -16.067  29.313  -0.617  1.00  0.00     0.011 A 
BRANCH   3   8
HETATM    8  N2  UNL     1     -16.606  25.964  -2.089  1.00  0.00    -0.296 N 
HETATM    9  C1  UNL     1     -15.562  25.002  -2.367  1.00  0.00     0.398 C 
HETATM   10  O1  UNL     1     -14.506  25.065  -1.642  1.00  0.00    -0.230 OA
HETATM   11  N1  UNL     1     -15.793  24.127  -3.362  1.00  0.00    -0.352 NA
ATOM     12  H2  UNL     1     -17.457  25.914  -2.650  1.00  0.00     0.172 HD
BRANCH  11  13
HETATM   13  C2  UNL     1     -16.026  23.239  -4.370  1.00  0.00     0.112 A 
HETATM   14  C3  UNL     1     -15.193  22.232  -4.800  1.00  0.00     0.045 A 
HETATM   15  C4  UNL     1     -15.522  21.383  -5.835  1.00  0.00     0.003 A 
HETATM   16  C5  UNL     1     -16.720  21.510  -6.495  1.00  0.00     0.000 A 
HETATM   17  C6  UNL     1     -17.565  22.511  -6.079  1.00  0.00     0.003 A 
HETATM   18  C7  UNL     1     -17.264  23.348  -5.074  1.00  0.00     0.045 A 
ENDBRANCH  11  13
ENDBRANCH   3   8
ENDBRANCH   1   2
BRANCH   1  19
HETATM   19  N3  UNL     1     -15.315  27.472  -3.647  1.00  0.00    -0.353 N 
HETATM   20  C15 UNL     1     -15.155  27.412  -5.060  1.00  0.00     0.251 C 
HETATM   21  O2  UNL     1     -15.661  28.280  -5.809  1.00  0.00    -0.268 OA
ATOM     22  H3  UNL     1     -14.898  26.728  -3.087  1.00  0.00     0.163 HD
BRANCH  20  23
HETATM   23  C16 UNL     1     -14.396  26.349  -5.702  1.00  0.00     0.032 A 
HETATM   24  C17 UNL     1     -14.636  25.834  -6.949  1.00  0.00     0.020 A 
HETATM   25  C18 UNL     1     -13.873  24.784  -7.468  1.00  0.00     0.038 A 
HETATM   26  C19 UNL     1     -12.859  24.255  -6.711  1.00  0.00     0.076 A 
HETATM   27  C26 UNL     1     -12.602  24.762  -5.455  1.00  0.00     0.038 A 
HETATM   28  C27 UNL     1     -13.356  25.787  -4.962  1.00  0.00     0.020 A 
BRANCH  26  29
HETATM   29  O3  UNL     1     -12.092  23.237  -7.167  1.00  0.00    -0.311 OA
BRANCH  29  30
HETATM   30  C20 UNL     1     -11.420  22.268  -6.481  1.00  0.00     0.076 A 
HETATM   31  C21 UNL     1     -10.069  22.410  -6.223  1.00  0.00     0.037 A 
HETATM   32  C22 UNL     1      -9.354  21.454  -5.532  1.00  0.00     0.003 A 
HETATM   33  C23 UNL     1      -9.986  20.322  -5.082  1.00  0.00     0.000 A 
HETATM   34  C24 UNL     1     -11.323  20.174  -5.334  1.00  0.00     0.003 A 
HETATM   35  C25 UNL     1     -12.047  21.140  -6.032  1.00  0.00     0.037 A 
ENDBRANCH  29  30
ENDBRANCH  26  29
ENDBRANCH  20  23
ENDBRANCH   1  19
TORSDOF 7
ENDMDL
MODEL 3
REMARK VINA RESULT: -10.781023746      1.935      7.526
REMARK  7 active torsions:
REMARK  status: ('A' for Active; 'I' for Inactive)
REMARK       I    between atoms: C1_2  and  N1_3 
REMARK       I    between atoms: C1_2  and  N2_10 
REMARK    1  A    between atoms: N1_3  and  C2_4 
REMARK    2  A    between atoms: N2_10  and  C8_12 
REMARK    3  A    between atoms: C13_17  and  C14_18 
REMARK    4  A    between atoms: C14_18  and  N3_19 
REMARK       I    between atoms: N3_19  and  C15_21 
REMARK    5  A    between atoms: C15_21  and  C16_23 
REMARK    6  A    between atoms: C19_26  and  O3_27 
REMARK    7  A    between atoms: O3_27  and  C20_28 
ROOT
HETATM    1  C14 UNL     1     -11.701  23.422  -7.371  1.00  0.00     0.163 C 
ENDROOT
BRANCH   1   2
HETATM    2  C13 UNL     1     -11.254  22.041  -7.044  1.00  0.00    -0.014 A 
HETATM    3  C8  UNL     1     -12.085  21.315  -6.143  1.00  0.00     0.045 A 
HETATM    4  C9  UNL     1     -11.624  20.053  -5.883  1.00  0.00     0.030 A 
HETATM    5  C10 UNL     1     -10.456  19.505  -6.434  1.00  0.00     0.002 A 
HETATM    6  C11 UNL     1      -9.700  20.239  -7.291  1.00  0.00     0.001 A 
HETATM    7  C12 UNL     1     -10.118  21.515  -7.588  1.00  0.00     0.011 A 
BRANCH   3   8
HETATM    8  N2  UNL     1     -13.256  21.921  -5.676  1.00  0.00    -0.296 N 
HETATM    9  C1  UNL     1     -14.545  21.834  -6.326  1.00  0.00     0.398 C 
HETATM   10  O1  UNL     1     -14.608  21.134  -7.398  1.00  0.00    -0.230 OA
HETATM   11  N1  UNL     1     -15.562  22.498  -5.749  1.00  0.00    -0.352 NA
ATOM     12  H2  UNL     1     -13.197  22.463  -4.813  1.00  0.00     0.172 HD
BRANCH  11  13
HETATM   13  C2  UNL     1     -16.594  23.170  -5.163  1.00  0.00     0.112 A 
HETATM   14  C3  UNL     1     -17.095  22.983  -3.896  1.00  0.00     0.045 A 
HETATM   15  C4  UNL     1     -18.147  23.718  -3.394  1.00  0.00     0.003 A 
HETATM   16  C5  UNL     1     -18.753  24.688  -4.155  1.00  0.00     0.000 A 
HETATM   17  C6  UNL     1     -18.266  24.890  -5.424  1.00  0.00     0.003 A 
HETATM   18  C7  UNL     1     -17.242  24.185  -5.931  1.00  0.00     0.045 A 
ENDBRANCH  11  13
ENDBRANCH   3   8
ENDBRANCH   1   2
BRANCH   1  19
HETATM   19  N3  UNL     1     -12.435  24.082  -6.353  1.00  0.00    -0.353 N 
HETATM   20  C15 UNL     1     -13.331  25.163  -6.586  1.00  0.00     0.251 C 
HETATM   21  O2  UNL     1     -13.511  25.621  -7.738  1.00  0.00    -0.268 OA
ATOM     22  H3  UNL     1     -12.313  23.762  -5.392  1.00  0.00     0.163 HD
BRANCH  20  23
HETATM   23  C16 UNL     1     -14.083  25.783  -5.505  1.00  0.00     0.032 A 
HETATM   24  C17 UNL     1     -14.100  25.367  -4.200  1.00  0.00     0.020 A 
HETATM   25  C18 UNL     1     -14.886  26.007  -3.237  1.00  0.00     0.038 A 
HETATM   26  C19 UNL     1     -15.660  27.076  -3.607  1.00  0.00     0.076 A 
HETATM   27  C26 UNL     1     -15.655  27.509  -4.916  1.00  0.00     0.038 A 
HETATM   28  C27 UNL     1     -14.883  26.875  -5.845  1.00  0.00     0.020 A 
BRANCH  26  29
HETATM   29  O3  UNL     1     -16.441  27.728  -2.713  1.00  0.00    -0.311 OA
BRANCH  29  30
HETATM   30  C20 UNL     1     -16.315  27.849  -1.361  1.00  0.00     0.076 A 
HETATM   31  C21 UNL     1     -16.450  26.739  -0.547  1.00  0.00     0.037 A 
HETATM   32  C22 UNL     1     -16.329  26.821   0.824  1.00  0.00     0.003 A 
HETATM   33  C23 UNL     1     -16.067  28.031   1.416  1.00  0.00     0.000 A 
HETATM   34  C24 UNL     1     -15.933  29.135   0.618  1.00  0.00     0.003 A 
HETATM   35  C25 UNL     1     -16.055  29.054  -0.768  1.00  0.00     0.037 A 
ENDBRANCH  29  30
ENDBRANCH  26  29
ENDBRANCH  20  23
ENDBRANCH   1  19
TORSDOF 7
ENDMDL
MODEL 4
REMARK VINA RESULT: -10.730571759      1.888      7.589
REMARK  7 active torsions:
REMARK  status: ('A' for Active; 'I' for Inactive)
REMARK       I    between atoms: C1_2  and  N1_3 
REMARK       I    between atoms: C1_2  and  N2_10 
REMARK    1  A    between atoms: N1_3  and  C2_4 
REMARK    2  A    between atoms: N2_10  and  C8_12 
REMARK    3  A    between atoms: C13_17  and  C14_18 
REMARK    4  A    between atoms: C14_18  and  N3_19 
REMARK       I    between atoms: N3_19  and  C15_21 
REMARK    5  A    between atoms: C15_21  and  C16_23 
REMARK    6  A    between atoms: C19_26  and  O3_27 
REMARK    7  A    between atoms: O3_27  and  C20_28 
ROOT
HETATM    1  C14 UNL     1     -11.561  23.086  -7.370  1.00  0.00     0.163 C 
ENDROOT
BRANCH   1   2
HETATM    2  C13 UNL     1     -11.153  21.733  -6.906  1.00  0.00    -0.014 A 
HETATM    3  C8  UNL     1     -12.014  21.114  -5.956  1.00  0.00     0.045 A 
HETATM    4  C9  UNL     1     -11.588  19.873  -5.570  1.00  0.00     0.030 A 
HETATM    5  C10 UNL     1     -10.425  19.249  -6.046  1.00  0.00     0.002 A 
HETATM    6  C11 UNL     1      -9.638  19.882  -6.954  1.00  0.00     0.001 A 
HETATM    7  C12 UNL     1     -10.020  21.133  -7.377  1.00  0.00     0.011 A 
BRANCH   3   8
HETATM    8  N2  UNL     1     -13.178  21.787  -5.569  1.00  0.00    -0.296 N 
HETATM    9  C1  UNL     1     -14.428  21.755  -6.295  1.00  0.00     0.398 C 
HETATM   10  O1  UNL     1     -14.464  21.041  -7.359  1.00  0.00    -0.230 OA
HETATM   11  N1  UNL     1     -15.442  22.480  -5.789  1.00  0.00    -0.352 NA
ATOM     12  H2  UNL     1     -13.142  22.340  -4.712  1.00  0.00     0.172 HD
BRANCH  11  13
HETATM   13  C2  UNL     1     -16.471  23.215  -5.277  1.00  0.00     0.112 A 
HETATM   14  C3  UNL     1     -17.206  24.180  -5.926  1.00  0.00     0.045 A 
HETATM   15  C4  UNL     1     -18.231  24.871  -5.316  1.00  0.00     0.003 A 
HETATM   16  C5  UNL     1     -18.569  24.619  -4.009  1.00  0.00     0.000 A 
HETATM   17  C6  UNL     1     -17.846  23.658  -3.345  1.00  0.00     0.003 A 
HETATM   18  C7  UNL     1     -16.844  22.974  -3.919  1.00  0.00     0.045 A 
ENDBRANCH  11  13
ENDBRANCH   3   8
ENDBRANCH   1   2
BRANCH   1  19
HETATM   19  N3  UNL     1     -12.286  23.859  -6.428  1.00  0.00    -0.353 N 
HETATM   20  C15 UNL     1     -13.132  24.952  -6.772  1.00  0.00     0.251 C 
HETATM   21  O2  UNL     1     -13.271  25.316  -7.963  1.00  0.00    -0.268 OA
ATOM     22  H3  UNL     1     -12.196  23.619  -5.441  1.00  0.00     0.163 HD
BRANCH  20  23
HETATM   23  C16 UNL     1     -13.879  25.691  -5.765  1.00  0.00     0.032 A 
HETATM   24  C17 UNL     1     -13.881  25.433  -4.420  1.00  0.00     0.020 A 
HETATM   25  C18 UNL     1     -14.663  26.177  -3.531  1.00  0.00     0.038 A 
HETATM   26  C19 UNL     1     -15.448  27.191  -4.018  1.00  0.00     0.076 A 
HETATM   27  C26 UNL     1     -15.457  27.466  -5.369  1.00  0.00     0.038 A 
HETATM   28  C27 UNL     1     -14.689  26.730  -6.223  1.00  0.00     0.020 A 
BRANCH  26  29
HETATM   29  O3  UNL     1     -16.224  27.940  -3.200  1.00  0.00    -0.311 OA
BRANCH  29  30
HETATM   30  C20 UNL     1     -16.362  27.904  -1.844  1.00  0.00     0.076 A 
HETATM   31  C21 UNL     1     -16.517  29.078  -1.130  1.00  0.00     0.037 A 
HETATM   32  C22 UNL     1     -16.660  29.084   0.242  1.00  0.00     0.003 A 
HETATM   33  C23 UNL     1     -16.650  27.900   0.935  1.00  0.00     0.000 A 
HETATM   34  C24 UNL     1     -16.496  26.733   0.236  1.00  0.00     0.003 A 
HETATM   35  C25 UNL     1     -16.351  26.726  -1.151  1.00  0.00     0.037 A 
ENDBRANCH  29  30
ENDBRANCH  26  29
ENDBRANCH  20  23
ENDBRANCH   1  19
TORSDOF 7
ENDMDL
MODEL 5
REMARK VINA RESULT: -10.603698924      3.145      8.759
REMARK  7 active torsions:
REMARK  status: ('A' for Active; 'I' for Inactive)
REMARK       I    between atoms: C1_2  and  N1_3 
REMARK       I    between atoms: C1_2  and  N2_10 
REMARK    1  A    between atoms: N1_3  and  C2_4 
REMARK    2  A    between atoms: N2_10  and  C8_12 
REMARK    3  A    between atoms: C13_17  and  C14_18 
REMARK    4  A    between atoms: C14_18  and  N3_19 
REMARK       I    between atoms: N3_19  and  C15_21 
REMARK    5  A    between atoms: C15_21  and  C16_23 
REMARK    6  A    between atoms: C19_26  and  O3_27 
REMARK    7  A    between atoms: O3_27  and  C20_28 
ROOT
HETATM    1  C14 UNL     1     -14.988  25.393  -3.440  1.00  0.00     0.163 C 
ENDROOT
BRANCH   1   2
HETATM    2  C13 UNL     1     -15.006  26.258  -4.651  1.00  0.00    -0.014 A 
HETATM    3  C8  UNL     1     -14.072  25.920  -5.672  1.00  0.00     0.045 A 
HETATM    4  C9  UNL     1     -14.138  26.748  -6.759  1.00  0.00     0.030 A 
HETATM    5  C10 UNL     1     -15.026  27.827  -6.881  1.00  0.00     0.002 A 
HETATM    6  C11 UNL     1     -15.899  28.106  -5.879  1.00  0.00     0.001 A 
HETATM    7  C12 UNL     1     -15.876  27.304  -4.763  1.00  0.00     0.011 A 
BRANCH   3   8
HETATM    8  N2  UNL     1     -13.254  24.800  -5.487  1.00  0.00    -0.296 N 
HETATM    9  C1  UNL     1     -12.699  24.000  -6.556  1.00  0.00     0.398 C 
HETATM   10  O1  UNL     1     -12.969  24.365  -7.755  1.00  0.00    -0.230 OA
HETATM   11  N1  UNL     1     -11.948  22.943  -6.197  1.00  0.00    -0.352 NA
ATOM     12  H2  UNL     1     -13.033  24.528  -4.529  1.00  0.00     0.172 HD
BRANCH  11  13
HETATM   13  C2  UNL     1     -11.188  21.872  -5.833  1.00  0.00     0.112 A 
HETATM   14  C3  UNL     1      -9.818  21.830  -5.704  1.00  0.00     0.045 A 
HETATM   15  C4  UNL     1      -9.140  20.691  -5.328  1.00  0.00     0.003 A 
HETATM   16  C5  UNL     1      -9.815  19.525  -5.063  1.00  0.00     0.000 A 
HETATM   17  C6  UNL     1     -11.183  19.547  -5.187  1.00  0.00     0.003 A 
HETATM   18  C7  UNL     1     -11.864  20.645  -5.550  1.00  0.00     0.045 A 
ENDBRANCH  11  13
ENDBRANCH   3   8
ENDBRANCH   1   2
BRANCH   1  19
HETATM   19  N3  UNL     1     -15.064  26.079  -2.201  1.00  0.00    -0.353 N 
HETATM   20  C15 UNL     1     -16.267  26.264  -1.463  1.00  0.00     0.251 C 
HETATM   21  O2  UNL     1     -17.365  25.837  -1.891  1.00  0.00    -0.268 OA
ATOM     22  H3  UNL     1     -14.203  26.464  -1.814  1.00  0.00     0.163 HD
BRANCH  20  23
HETATM   23  C16 UNL     1     -16.282  26.949  -0.179  1.00  0.00     0.032 A 
HETATM   24  C17 UNL     1     -16.739  26.427   1.002  1.00  0.00     0.020 A 
HETATM   25  C18 UNL     1     -16.748  27.178   2.181  1.00  0.00     0.038 A 
HETATM   26  C19 UNL     1     -16.287  28.469   2.156  1.00  0.00     0.076 A 
HETATM   27  C26 UNL     1     -15.822  29.011   0.977  1.00  0.00     0.038 A 
HETATM   28  C27 UNL     1     -15.820  28.266  -0.166  1.00  0.00     0.020 A 
BRANCH  26  29
HETATM   29  O3  UNL     1     -16.276  29.239   3.270  1.00  0.00    -0.311 OA
BRANCH  29  30
HETATM   30  C20 UNL     1     -15.845  28.952   4.532  1.00  0.00     0.076 A 
HETATM   31  C21 UNL     1     -16.094  29.833   5.568  1.00  0.00     0.037 A 
HETATM   32  C22 UNL     1     -15.676  29.579   6.857  1.00  0.00     0.003 A 
HETATM   33  C23 UNL     1     -14.990  28.423   7.139  1.00  0.00     0.000 A 
HETATM   34  C24 UNL     1     -14.739  27.546   6.118  1.00  0.00     0.003 A 
HETATM   35  C25 UNL     1     -15.162  27.802   4.814  1.00  0.00     0.037 A 
ENDBRANCH  29  30
ENDBRANCH  26  29
ENDBRANCH  20  23
ENDBRANCH   1  19
TORSDOF 7
ENDMDL
