MODEL 1
REMARK VINA RESULT: -7.630700130      0.000      0.000
REMARK  2 active torsions:
REMARK  status: ('A' for Active; 'I' for Inactive)
REMARK    1  A    between atoms: C7_8  and  C8_9 
REMARK    2  A    between atoms: C8_9  and  C9_10 
REMARK       I    between atoms: C9_10  and  N1_12 
ROOT
HETATM    1  C9  UNL     1       4.604  15.556 -33.972  1.00  0.00     0.220 C 
HETATM    2  O1  UNL     1       4.907  14.769 -33.052  1.00  0.00    -0.273 OA
HETATM    3  N1  UNL     1       3.887  15.036 -35.073  1.00  0.00    -0.348 N 
HETATM    4  C10 UNL     1       3.531  15.954 -36.138  1.00  0.00     0.145 C 
HETATM    5  C11 UNL     1       2.063  16.032 -36.437  1.00  0.00     0.141 C 
HETATM    6  N2  UNL     1       1.599  14.976 -37.257  1.00  0.00    -0.389 N 
HETATM    7  C12 UNL     1       0.234  14.894 -37.517  1.00  0.00     0.058 C 
HETATM    8  C13 UNL     1      -0.669  14.390 -36.441  1.00  0.00     0.046 C 
HETATM    9  C14 UNL     1      -0.614  12.911 -36.203  1.00  0.00     0.031 C 
HETATM   10  C15 UNL     1       0.251  12.480 -35.073  1.00  0.00     0.168 C 
HETATM   11  O2  UNL     1       1.581  12.284 -35.357  1.00  0.00    -0.383 OA
HETATM   12  C16 UNL     1       2.199  13.475 -35.537  1.00  0.00     0.157 C 
HETATM   13  C17 UNL     1       2.294  13.753 -37.024  1.00  0.00     0.155 C 
HETATM   14  C18 UNL     1       3.597  13.599 -34.987  1.00  0.00     0.159 C 
ENDROOT
BRANCH   1  15
HETATM   15  C8  UNL     1       4.994  16.973 -33.886  1.00  0.00     0.109 C 
BRANCH  15  16
HETATM   16  C7  UNL     1       4.075  17.841 -33.073  1.00  0.00     0.011 C 
HETATM   17  C2  UNL     1       4.684  18.119 -31.689  1.00  0.00    -0.042 C 
HETATM   18  C1  UNL     1       4.366  17.033 -30.702  1.00  0.00     0.015 C 
HETATM   19  C3  UNL     1       6.216  18.124 -31.825  1.00  0.00     0.015 C 
HETATM   20  C4  UNL     1       4.315  19.468 -31.176  1.00  0.00     0.019 C 
HETATM   21  C5  UNL     1       2.875  19.802 -31.206  1.00  0.00     0.074 C 
HETATM   22  S1  UNL     1       1.798  18.549 -31.860  1.00  0.00    -0.169 SA
HETATM   23  C6  UNL     1       2.724  17.274 -32.806  1.00  0.00     0.079 C 
ENDBRANCH  15  16
ENDBRANCH   1  15
TORSDOF 2
ENDMDL
MODEL 2
REMARK VINA RESULT: -7.237249207      3.381      5.648
REMARK  2 active torsions:
REMARK  status: ('A' for Active; 'I' for Inactive)
REMARK    1  A    between atoms: C7_8  and  C8_9 
REMARK    2  A    between atoms: C8_9  and  C9_10 
REMARK       I    between atoms: C9_10  and  N1_12 
ROOT
HETATM    1  C9  UNL     1       3.621  17.053 -34.641  1.00  0.00     0.220 C 
HETATM    2  O1  UNL     1       2.568  17.227 -35.288  1.00  0.00    -0.273 OA
HETATM    3  N1  UNL     1       4.843  17.091 -35.352  1.00  0.00    -0.348 N 
HETATM    4  C10 UNL     1       6.066  16.895 -34.597  1.00  0.00     0.145 C 
HETATM    5  C11 UNL     1       7.062  18.010 -34.712  1.00  0.00     0.141 C 
HETATM    6  N2  UNL     1       7.839  17.952 -35.894  1.00  0.00    -0.389 N 
HETATM    7  C12 UNL     1       8.727  18.991 -36.151  1.00  0.00     0.058 C 
HETATM    8  C13 UNL     1       8.182  20.294 -36.633  1.00  0.00     0.046 C 
HETATM    9  C14 UNL     1       7.732  20.308 -38.063  1.00  0.00     0.031 C 
HETATM   10  C15 UNL     1       6.273  20.118 -38.274  1.00  0.00     0.168 C 
HETATM   11  O2  UNL     1       5.826  18.822 -38.354  1.00  0.00    -0.383 OA
HETATM   12  C16 UNL     1       5.848  18.246 -37.128  1.00  0.00     0.157 C 
HETATM   13  C17 UNL     1       7.114  17.422 -37.002  1.00  0.00     0.155 C 
HETATM   14  C18 UNL     1       4.702  17.327 -36.795  1.00  0.00     0.159 C 
ENDROOT
BRANCH   1  15
HETATM   15  C8  UNL     1       3.563  16.818 -33.190  1.00  0.00     0.109 C 
BRANCH  15  16
HETATM   16  C7  UNL     1       3.564  18.058 -32.340  1.00  0.00     0.011 C 
HETATM   17  C2  UNL     1       4.432  17.851 -31.088  1.00  0.00    -0.042 C 
HETATM   18  C1  UNL     1       3.665  17.206 -29.969  1.00  0.00     0.015 C 
HETATM   19  C3  UNL     1       5.563  16.869 -31.439  1.00  0.00     0.015 C 
HETATM   20  C4  UNL     1       5.101  19.109 -30.657  1.00  0.00     0.019 C 
HETATM   21  C5  UNL     1       4.227  20.293 -30.514  1.00  0.00     0.074 C 
HETATM   22  S1  UNL     1       2.509  20.043 -30.890  1.00  0.00    -0.169 SA
HETATM   23  C6  UNL     1       2.232  18.490 -31.833  1.00  0.00     0.079 C 
ENDBRANCH  15  16
ENDBRANCH   1  15
TORSDOF 2
ENDMDL
MODEL 3
REMARK VINA RESULT: -7.117777739      6.009      7.458
REMARK  2 active torsions:
REMARK  status: ('A' for Active; 'I' for Inactive)
REMARK    1  A    between atoms: C7_8  and  C8_9 
REMARK    2  A    between atoms: C8_9  and  C9_10 
REMARK       I    between atoms: C9_10  and  N1_12 
ROOT
HETATM    1  C9  UNL     1       2.393  21.076 -34.966  1.00  0.00     0.220 C 
HETATM    2  O1  UNL     1       3.171  20.827 -35.910  1.00  0.00    -0.273 OA
HETATM    3  N1  UNL     1       1.448  22.112 -35.149  1.00  0.00    -0.348 N 
HETATM    4  C10 UNL     1       0.540  22.395 -34.054  1.00  0.00     0.145 C 
HETATM    5  C11 UNL     1      -0.915  22.300 -34.403  1.00  0.00     0.141 C 
HETATM    6  N2  UNL     1      -1.415  23.455 -35.052  1.00  0.00    -0.389 N 
HETATM    7  C12 UNL     1      -2.729  23.438 -35.508  1.00  0.00     0.058 C 
HETATM    8  C13 UNL     1      -3.046  22.665 -36.745  1.00  0.00     0.046 C 
HETATM    9  C14 UNL     1      -2.597  23.300 -38.027  1.00  0.00     0.031 C 
HETATM   10  C15 UNL     1      -1.307  22.797 -38.569  1.00  0.00     0.168 C 
HETATM   11  O2  UNL     1      -0.166  23.401 -38.100  1.00  0.00    -0.383 OA
HETATM   12  C16 UNL     1       0.077  23.012 -36.827  1.00  0.00     0.157 C 
HETATM   13  C17 UNL     1      -0.442  24.081 -35.885  1.00  0.00     0.155 C 
HETATM   14  C18 UNL     1       1.519  22.777 -36.457  1.00  0.00     0.159 C 
ENDROOT
BRANCH   1  15
HETATM   15  C8  UNL     1       2.478  20.302 -33.718  1.00  0.00     0.109 C 
BRANCH  15  16
HETATM   16  C7  UNL     1       2.424  18.809 -33.885  1.00  0.00     0.011 C 
HETATM   17  C2  UNL     1       2.280  18.120 -32.518  1.00  0.00    -0.042 C 
HETATM   18  C1  UNL     1       3.609  17.897 -31.854  1.00  0.00     0.015 C 
HETATM   19  C3  UNL     1       1.499  19.059 -31.581  1.00  0.00     0.015 C 
HETATM   20  C4  UNL     1       1.478  16.869 -32.604  1.00  0.00     0.019 C 
HETATM   21  C5  UNL     1       1.887  15.906 -33.649  1.00  0.00     0.074 C 
HETATM   22  S1  UNL     1       3.268  16.391 -34.656  1.00  0.00    -0.169 SA
HETATM   23  C6  UNL     1       3.621  18.189 -34.517  1.00  0.00     0.079 C 
ENDBRANCH  15  16
ENDBRANCH   1  15
TORSDOF 2
ENDMDL
MODEL 4
REMARK VINA RESULT: -7.063397259      3.150      7.006
REMARK  2 active torsions:
REMARK  status: ('A' for Active; 'I' for Inactive)
REMARK    1  A    between atoms: C7_8  and  C8_9 
REMARK    2  A    between atoms: C8_9  and  C9_10 
REMARK       I    between atoms: C9_10  and  N1_12 
ROOT
HETATM    1  C9  UNL     1       2.792  14.746 -35.224  1.00  0.00     0.220 C 
HETATM    2  O1  UNL     1       2.822  14.406 -34.023  1.00  0.00    -0.273 OA
HETATM    3  N1  UNL     1       3.349  15.999 -35.567  1.00  0.00    -0.348 N 
HETATM    4  C10 UNL     1       3.318  16.389 -36.963  1.00  0.00     0.145 C 
HETATM    5  C11 UNL     1       4.659  16.700 -37.559  1.00  0.00     0.141 C 
HETATM    6  N2  UNL     1       5.122  18.003 -37.255  1.00  0.00    -0.389 N 
HETATM    7  C12 UNL     1       6.398  18.364 -37.675  1.00  0.00     0.058 C 
HETATM    8  C13 UNL     1       7.574  17.826 -36.931  1.00  0.00     0.046 C 
HETATM    9  C14 UNL     1       7.824  18.453 -35.592  1.00  0.00     0.031 C 
HETATM   10  C15 UNL     1       7.294  17.699 -34.426  1.00  0.00     0.168 C 
HETATM   11  O2  UNL     1       5.989  17.945 -34.077  1.00  0.00    -0.383 OA
HETATM   12  C16 UNL     1       5.151  17.381 -34.978  1.00  0.00     0.157 C 
HETATM   13  C17 UNL     1       4.710  18.445 -35.964  1.00  0.00     0.155 C 
HETATM   14  C18 UNL     1       3.894  16.754 -34.431  1.00  0.00     0.159 C 
ENDROOT
BRANCH   1  15
HETATM   15  C8  UNL     1       2.190  13.853 -36.226  1.00  0.00     0.109 C 
BRANCH  15  16
HETATM   16  C7  UNL     1       2.705  12.441 -36.217  1.00  0.00     0.011 C 
HETATM   17  C2  UNL     1       1.572  11.458 -35.879  1.00  0.00    -0.042 C 
HETATM   18  C1  UNL     1       1.388  11.294 -34.398  1.00  0.00     0.015 C 
HETATM   19  C3  UNL     1       0.249  12.045 -36.401  1.00  0.00     0.015 C 
HETATM   20  C4  UNL     1       1.740  10.151 -36.571  1.00  0.00     0.019 C 
HETATM   21  C5  UNL     1       3.066   9.509 -36.434  1.00  0.00     0.074 C 
HETATM   22  S1  UNL     1       4.265  10.400 -35.473  1.00  0.00    -0.169 SA
HETATM   23  C6  UNL     1       3.784  12.157 -35.231  1.00  0.00     0.079 C 
ENDBRANCH  15  16
ENDBRANCH   1  15
TORSDOF 2
ENDMDL
MODEL 5
REMARK VINA RESULT: -6.979830510      4.561      6.847
REMARK  2 active torsions:
REMARK  status: ('A' for Active; 'I' for Inactive)
REMARK    1  A    between atoms: C7_8  and  C8_9 
REMARK    2  A    between atoms: C8_9  and  C9_10 
REMARK       I    between atoms: C9_10  and  N1_12 
ROOT
HETATM    1  C9  UNL     1       2.716  20.689 -34.992  1.00  0.00     0.220 C 
HETATM    2  O1  UNL     1       3.167  20.610 -36.153  1.00  0.00    -0.273 OA
HETATM    3  N1  UNL     1       2.721  19.515 -34.203  1.00  0.00    -0.348 N 
HETATM    4  C10 UNL     1       2.202  19.610 -32.853  1.00  0.00     0.145 C 
HETATM    5  C11 UNL     1       3.163  19.193 -31.779  1.00  0.00     0.141 C 
HETATM    6  N2  UNL     1       3.234  17.790 -31.602  1.00  0.00    -0.389 N 
HETATM    7  C12 UNL     1       4.165  17.287 -30.699  1.00  0.00     0.058 C 
HETATM    8  C13 UNL     1       5.603  17.259 -31.097  1.00  0.00     0.046 C 
HETATM    9  C14 UNL     1       5.971  16.196 -32.088  1.00  0.00     0.031 C 
HETATM   10  C15 UNL     1       6.040  16.643 -33.505  1.00  0.00     0.168 C 
HETATM   11  O2  UNL     1       4.864  16.620 -34.215  1.00  0.00    -0.383 OA
HETATM   12  C16 UNL     1       4.055  17.627 -33.808  1.00  0.00     0.157 C 
HETATM   13  C17 UNL     1       3.049  17.072 -32.819  1.00  0.00     0.155 C 
HETATM   14  C18 UNL     1       3.262  18.329 -34.880  1.00  0.00     0.159 C 
ENDROOT
BRANCH   1  15
HETATM   15  C8  UNL     1       2.203  21.972 -34.487  1.00  0.00     0.109 C 
BRANCH  15  16
HETATM   16  C7  UNL     1       0.876  22.398 -35.050  1.00  0.00     0.011 C 
HETATM   17  C2  UNL     1       1.018  23.721 -35.819  1.00  0.00    -0.042 C 
HETATM   18  C1  UNL     1       0.904  24.915 -34.915  1.00  0.00     0.015 C 
HETATM   19  C3  UNL     1       2.434  23.785 -36.418  1.00  0.00     0.015 C 
HETATM   20  C4  UNL     1       0.082  23.801 -36.974  1.00  0.00     0.019 C 
HETATM   21  C5  UNL     1      -1.336  23.499 -36.682  1.00  0.00     0.074 C 
HETATM   22  S1  UNL     1      -1.711  23.075 -34.998  1.00  0.00    -0.169 SA
HETATM   23  C6  UNL     1      -0.201  22.634 -34.049  1.00  0.00     0.079 C 
ENDBRANCH  15  16
ENDBRANCH   1  15
TORSDOF 2
ENDMDL
