MODEL 1
REMARK VINA RESULT: -5.369087758      0.000      0.000
REMARK  0 active torsions:
REMARK  status: ('A' for Active; 'I' for Inactive)
ROOT
HETATM    1  N1  UNL     1      25.052   5.851  31.095  1.00  0.00    -0.373 N 
ATOM      2  H11 UNL     1      25.720   6.503  30.687  1.00  0.00     0.158 HD
ATOM      3  H12 UNL     1      24.568   6.202  31.921  1.00  0.00     0.158 HD
HETATM    4  C1  UNL     1      24.849   4.695  30.599  1.00  0.00     0.232 C 
HETATM    5  N2  UNL     1      23.919   3.787  31.168  1.00  0.00    -0.274 N 
ATOM      6  H2  UNL     1      23.276   4.170  31.861  1.00  0.00     0.189 HD
HETATM    7  N3  UNL     1      23.791   2.461  30.889  1.00  0.00    -0.293 N 
ATOM      8  H3  UNL     1      23.214   1.857  31.477  1.00  0.00     0.187 HD
HETATM    9  C2  UNL     1      24.468   1.943  29.779  1.00  0.00     0.208 C 
HETATM   10  N4  UNL     1      24.605   2.809  28.646  1.00  0.00    -0.273 N 
ATOM     11  H4  UNL     1      24.169   2.705  27.730  1.00  0.00     0.179 HD
HETATM   12  S1  UNL     1      25.684   4.087  29.172  1.00  0.00     0.296 S 
HETATM   13  O1  UNL     1      25.839   5.127  28.127  1.00  0.00    -0.197 OA
HETATM   14  O2  UNL     1      26.964   3.473  29.610  1.00  0.00    -0.197 OA
ENDROOT
TORSDOF 0
ENDMDL
MODEL 2
REMARK VINA RESULT: -5.290124356      2.028      2.949
REMARK  0 active torsions:
REMARK  status: ('A' for Active; 'I' for Inactive)
ROOT
HETATM    1  N1  UNL     1      23.853   2.397  30.780  1.00  0.00    -0.373 N 
ATOM      2  H11 UNL     1      23.687   2.694  31.741  1.00  0.00     0.158 HD
ATOM      3  H12 UNL     1      23.576   1.436  30.579  1.00  0.00     0.158 HD
HETATM    4  C1  UNL     1      24.366   3.177  29.913  1.00  0.00     0.232 C 
HETATM    5  N2  UNL     1      24.597   2.763  28.575  1.00  0.00    -0.274 N 
ATOM      6  H2  UNL     1      24.152   1.892  28.285  1.00  0.00     0.189 HD
HETATM    7  N3  UNL     1      25.348   3.402  27.636  1.00  0.00    -0.293 N 
ATOM      8  H3  UNL     1      25.597   2.937  26.763  1.00  0.00     0.187 HD
HETATM    9  C2  UNL     1      25.769   4.712  27.897  1.00  0.00     0.208 C 
HETATM   10  N4  UNL     1      24.876   5.539  28.651  1.00  0.00    -0.273 N 
ATOM     11  H4  UNL     1      24.367   6.360  28.324  1.00  0.00     0.179 HD
HETATM   12  S1  UNL     1      24.845   4.836  30.258  1.00  0.00     0.296 S 
HETATM   13  O1  UNL     1      23.871   5.532  31.132  1.00  0.00    -0.197 OA
HETATM   14  O2  UNL     1      26.231   4.817  30.790  1.00  0.00    -0.197 OA
ENDROOT
TORSDOF 0
ENDMDL
MODEL 3
REMARK VINA RESULT: -5.114728987      1.882      2.936
REMARK  0 active torsions:
REMARK  status: ('A' for Active; 'I' for Inactive)
ROOT
HETATM    1  N1  UNL     1      25.163   4.039  27.390  1.00  0.00    -0.373 N 
ATOM      2  H11 UNL     1      25.239   3.141  26.913  1.00  0.00     0.158 HD
ATOM      3  H12 UNL     1      25.312   4.850  26.791  1.00  0.00     0.158 HD
HETATM    4  C1  UNL     1      24.902   4.121  28.634  1.00  0.00     0.232 C 
HETATM    5  N2  UNL     1      24.797   5.371  29.298  1.00  0.00    -0.274 N 
ATOM      6  H2  UNL     1      24.736   6.198  28.703  1.00  0.00     0.189 HD
HETATM    7  N3  UNL     1      24.768   5.587  30.641  1.00  0.00    -0.293 N 
ATOM      8  H3  UNL     1      24.870   6.529  31.020  1.00  0.00     0.187 HD
HETATM    9  C2  UNL     1      24.596   4.488  31.491  1.00  0.00     0.208 C 
HETATM   10  N4  UNL     1      23.763   3.426  31.011  1.00  0.00    -0.273 N 
ATOM     11  H4  UNL     1      22.853   3.142  31.372  1.00  0.00     0.179 HD
HETATM   12  S1  UNL     1      24.645   2.720  29.670  1.00  0.00     0.296 S 
HETATM   13  O1  UNL     1      23.851   1.663  29.000  1.00  0.00    -0.197 OA
HETATM   14  O2  UNL     1      25.968   2.261  30.166  1.00  0.00    -0.197 OA
ENDROOT
TORSDOF 0
ENDMDL
MODEL 4
REMARK VINA RESULT: -5.011098189      1.077      1.347
REMARK  0 active torsions:
REMARK  status: ('A' for Active; 'I' for Inactive)
ROOT
HETATM    1  N1  UNL     1      23.971   4.431  31.291  1.00  0.00    -0.373 N 
ATOM      2  H11 UNL     1      24.256   5.409  31.348  1.00  0.00     0.158 HD
ATOM      3  H12 UNL     1      23.356   4.125  32.044  1.00  0.00     0.158 HD
HETATM    4  C1  UNL     1      24.364   3.669  30.349  1.00  0.00     0.232 C 
HETATM    5  N2  UNL     1      23.968   2.308  30.270  1.00  0.00    -0.274 N 
ATOM      6  H2  UNL     1      23.201   2.022  30.879  1.00  0.00     0.189 HD
HETATM    7  N3  UNL     1      24.501   1.343  29.472  1.00  0.00    -0.293 N 
ATOM      8  H3  UNL     1      24.269   0.360  29.616  1.00  0.00     0.187 HD
HETATM    9  C2  UNL     1      25.374   1.730  28.449  1.00  0.00     0.208 C 
HETATM   10  N4  UNL     1      25.110   2.988  27.817  1.00  0.00    -0.273 N 
ATOM     11  H4  UNL     1      24.804   3.147  26.857  1.00  0.00     0.179 HD
HETATM   12  S1  UNL     1      25.428   4.197  29.048  1.00  0.00     0.296 S 
HETATM   13  O1  UNL     1      25.093   5.558  28.565  1.00  0.00    -0.197 OA
HETATM   14  O2  UNL     1      26.832   4.044  29.507  1.00  0.00    -0.197 OA
ENDROOT
TORSDOF 0
ENDMDL
MODEL 5
REMARK VINA RESULT: -4.946309815      1.622      1.804
REMARK  0 active torsions:
REMARK  status: ('A' for Active; 'I' for Inactive)
ROOT
HETATM    1  N1  UNL     1      25.676   5.754  28.435  1.00  0.00    -0.373 N 
ATOM      2  H11 UNL     1      26.289   5.511  27.656  1.00  0.00     0.158 HD
ATOM      3  H12 UNL     1      25.512   6.754  28.548  1.00  0.00     0.158 HD
HETATM    4  C1  UNL     1      25.168   4.867  29.195  1.00  0.00     0.232 C 
HETATM    5  N2  UNL     1      24.316   5.205  30.278  1.00  0.00    -0.274 N 
ATOM      6  H2  UNL     1      23.967   6.163  30.300  1.00  0.00     0.189 HD
HETATM    7  N3  UNL     1      23.915   4.390  31.292  1.00  0.00    -0.293 N 
ATOM      8  H3  UNL     1      23.449   4.773  32.116  1.00  0.00     0.187 HD
HETATM    9  C2  UNL     1      24.156   3.016  31.179  1.00  0.00     0.208 C 
HETATM   10  N4  UNL     1      24.087   2.455  29.863  1.00  0.00    -0.273 N 
ATOM     11  H4  UNL     1      23.394   1.798  29.505  1.00  0.00     0.179 HD
HETATM   12  S1  UNL     1      25.452   3.139  29.000  1.00  0.00     0.296 S 
HETATM   13  O1  UNL     1      25.452   2.726  27.577  1.00  0.00    -0.197 OA
HETATM   14  O2  UNL     1      26.696   2.789  29.733  1.00  0.00    -0.197 OA
ENDROOT
TORSDOF 0
ENDMDL
