MODEL 1
REMARK VINA RESULT: -7.355372061      0.000      0.000
REMARK  4 active torsions:
REMARK  status: ('A' for Active; 'I' for Inactive)
REMARK    1  A    between atoms: C5_9  and  C6_10 
REMARK    2  A    between atoms: C9_15  and  N4_16 
REMARK    3  A    between atoms: N4_16  and  C10_18 
REMARK    4  A    between atoms: C10_18  and  C11_19 
ROOT
HETATM    1  C6  UNL     1      38.700 -46.294  -6.969  1.00  0.00     0.061 A 
HETATM    2  C7  UNL     1      40.047 -46.268  -7.130  1.00  0.00     0.118 A 
HETATM    3  N3  UNL     1      40.707 -45.087  -7.084  1.00  0.00    -0.370 N 
ATOM      4  H3  UNL     1      41.720 -45.068  -7.202  1.00  0.00     0.164 HD
HETATM    5  C8  UNL     1      40.040 -43.946  -6.884  1.00  0.00     0.136 A 
HETATM    6  C9  UNL     1      38.664 -43.934  -6.718  1.00  0.00     0.117 A 
HETATM    7  N5  UNL     1      38.043 -45.111  -6.766  1.00  0.00    -0.340 N 
ATOM      8  H5  UNL     1      37.030 -45.132  -6.647  1.00  0.00     0.167 HD
ENDROOT
BRANCH   1   9
HETATM    9  C5  UNL     1      37.853 -47.491  -7.054  1.00  0.00     0.021 A 
HETATM   10  C4  UNL     1      37.444 -48.260  -5.964  1.00  0.00     0.104 A 
HETATM   11  N2  UNL     1      36.725 -49.309  -6.340  1.00  0.00    -0.351 N 
HETATM   12  C3  UNL     1      36.649 -49.249  -7.690  1.00  0.00     0.116 A 
ATOM     13  H2  UNL     1      36.312 -50.018  -5.734  1.00  0.00     0.166 HD
HETATM   14  N1  UNL     1      36.038 -50.104  -8.533  1.00  0.00    -0.352 N 
HETATM   15  C14 UNL     1      37.348 -48.125  -8.149  1.00  0.00     0.022 A 
HETATM   16  C2  UNL     1      36.076 -49.908  -9.861  1.00  0.00     0.090 A 
ATOM     17  H1  UNL     1      35.539 -50.911  -8.158  1.00  0.00     0.166 HD
HETATM   18  C1  UNL     1      36.750 -48.819 -10.365  1.00  0.00     0.018 A 
HETATM   19  C15 UNL     1      37.391 -47.919  -9.517  1.00  0.00     0.017 A 
ENDBRANCH   1   9
BRANCH   6  20
HETATM   20  N4  UNL     1      38.025 -42.825  -6.525  1.00  0.00    -0.375 N 
ATOM     21  H4  UNL     1      38.496 -42.057  -6.046  1.00  0.00     0.161 HD
BRANCH  20  22
HETATM   22  C10 UNL     1      36.690 -42.649  -6.959  1.00  0.00     0.126 C 
BRANCH  22  23
HETATM   23  C11 UNL     1      36.552 -42.118  -8.372  1.00  0.00     0.003 A 
HETATM   24  C12 UNL     1      35.171 -42.296  -8.955  1.00  0.00     0.007 A 
HETATM   25  C13 UNL     1      36.319 -43.062  -9.493  1.00  0.00     0.007 A 
ENDBRANCH  22  23
ENDBRANCH  20  22
ENDBRANCH   6  20
TORSDOF 4
ENDMDL
MODEL 2
REMARK VINA RESULT: -7.313702523      1.128      1.929
REMARK  4 active torsions:
REMARK  status: ('A' for Active; 'I' for Inactive)
REMARK    1  A    between atoms: C5_9  and  C6_10 
REMARK    2  A    between atoms: C9_15  and  N4_16 
REMARK    3  A    between atoms: N4_16  and  C10_18 
REMARK    4  A    between atoms: C10_18  and  C11_19 
ROOT
HETATM    1  C6  UNL     1      39.247 -45.592  -7.435  1.00  0.00     0.061 A 
HETATM    2  C7  UNL     1      40.497 -45.611  -6.906  1.00  0.00     0.118 A 
HETATM    3  N3  UNL     1      40.998 -44.497  -6.323  1.00  0.00    -0.370 N 
ATOM      4  H3  UNL     1      41.936 -44.512  -5.923  1.00  0.00     0.164 HD
HETATM    5  C8  UNL     1      40.269 -43.378  -6.266  1.00  0.00     0.136 A 
HETATM    6  C9  UNL     1      38.990 -43.321  -6.796  1.00  0.00     0.117 A 
HETATM    7  N5  UNL     1      38.524 -44.433  -7.363  1.00  0.00    -0.340 N 
ATOM      8  H5  UNL     1      37.585 -44.420  -7.761  1.00  0.00     0.167 HD
ENDROOT
BRANCH   1   9
HETATM    9  C5  UNL     1      38.604 -46.705  -8.146  1.00  0.00     0.021 A 
HETATM   10  C4  UNL     1      38.793 -47.009  -9.495  1.00  0.00     0.104 A 
HETATM   11  N2  UNL     1      38.049 -48.037  -9.880  1.00  0.00    -0.351 N 
HETATM   12  C3  UNL     1      37.353 -48.428  -8.786  1.00  0.00     0.116 A 
ATOM     13  H2  UNL     1      38.009 -48.449 -10.812  1.00  0.00     0.166 HD
HETATM   14  N1  UNL     1      36.451 -49.424  -8.680  1.00  0.00    -0.352 N 
HETATM   15  C14 UNL     1      37.686 -47.608  -7.701  1.00  0.00     0.022 A 
HETATM   16  C2  UNL     1      35.830 -49.669  -7.516  1.00  0.00     0.090 A 
ATOM     17  H1  UNL     1      36.237 -49.999  -9.495  1.00  0.00     0.166 HD
HETATM   18  C1  UNL     1      36.119 -48.891  -6.417  1.00  0.00     0.018 A 
HETATM   19  C15 UNL     1      37.047 -47.857  -6.498  1.00  0.00     0.017 A 
ENDBRANCH   1   9
BRANCH   6  20
HETATM   20  N4  UNL     1      38.291 -42.233  -6.738  1.00  0.00    -0.375 N 
ATOM     21  H4  UNL     1      38.752 -41.359  -6.484  1.00  0.00     0.161 HD
BRANCH  20  22
HETATM   22  C10 UNL     1      36.903 -42.223  -7.016  1.00  0.00     0.126 C 
BRANCH  22  23
HETATM   23  C11 UNL     1      36.551 -41.861  -8.445  1.00  0.00     0.003 A 
HETATM   24  C12 UNL     1      35.123 -42.182  -8.818  1.00  0.00     0.007 A 
HETATM   25  C13 UNL     1      36.246 -42.936  -9.423  1.00  0.00     0.007 A 
ENDBRANCH  22  23
ENDBRANCH  20  22
ENDBRANCH   6  20
TORSDOF 4
ENDMDL
MODEL 3
REMARK VINA RESULT: -7.264333569      2.593      6.081
REMARK  4 active torsions:
REMARK  status: ('A' for Active; 'I' for Inactive)
REMARK    1  A    between atoms: C5_9  and  C6_10 
REMARK    2  A    between atoms: C9_15  and  N4_16 
REMARK    3  A    between atoms: N4_16  and  C10_18 
REMARK    4  A    between atoms: C10_18  and  C11_19 
ROOT
HETATM    1  C6  UNL     1      37.681 -47.779  -7.878  1.00  0.00     0.061 A 
HETATM    2  C7  UNL     1      37.384 -48.684  -6.912  1.00  0.00     0.118 A 
HETATM    3  N3  UNL     1      36.347 -49.537  -7.084  1.00  0.00    -0.370 N 
ATOM      4  H3  UNL     1      36.125 -50.218  -6.359  1.00  0.00     0.164 HD
HETATM    5  C8  UNL     1      35.612 -49.491  -8.200  1.00  0.00     0.136 A 
HETATM    6  C9  UNL     1      35.885 -48.579  -9.208  1.00  0.00     0.117 A 
HETATM    7  N5  UNL     1      36.912 -47.755  -9.010  1.00  0.00    -0.340 N 
ATOM      8  H5  UNL     1      37.135 -47.073  -9.735  1.00  0.00     0.167 HD
ENDROOT
BRANCH   1   9
HETATM    9  C5  UNL     1      38.736 -46.760  -7.799  1.00  0.00     0.021 A 
HETATM   10  C4  UNL     1      39.666 -46.492  -8.804  1.00  0.00     0.104 A 
HETATM   11  N2  UNL     1      40.531 -45.554  -8.441  1.00  0.00    -0.351 N 
HETATM   12  C3  UNL     1      40.184 -45.188  -7.185  1.00  0.00     0.116 A 
ATOM     13  H2  UNL     1      41.302 -45.183  -8.996  1.00  0.00     0.166 HD
HETATM   14  N1  UNL     1      40.774 -44.278  -6.384  1.00  0.00    -0.352 N 
HETATM   15  C14 UNL     1      39.070 -45.931  -6.771  1.00  0.00     0.022 A 
HETATM   16  C2  UNL     1      40.311 -44.048  -5.145  1.00  0.00     0.090 A 
ATOM     17  H1  UNL     1      41.583 -43.758  -6.724  1.00  0.00     0.166 HD
HETATM   18  C1  UNL     1      39.220 -44.753  -4.688  1.00  0.00     0.018 A 
HETATM   19  C15 UNL     1      38.590 -45.698  -5.494  1.00  0.00     0.017 A 
ENDBRANCH   1   9
BRANCH   6  20
HETATM   20  N4  UNL     1      35.168 -48.541 -10.285  1.00  0.00    -0.375 N 
ATOM     21  H4  UNL     1      35.358 -47.821 -10.982  1.00  0.00     0.161 HD
BRANCH  20  22
HETATM   22  C10 UNL     1      34.129 -49.471 -10.522  1.00  0.00     0.126 C 
BRANCH  22  23
HETATM   23  C11 UNL     1      32.735 -48.875 -10.510  1.00  0.00     0.003 A 
HETATM   24  C12 UNL     1      32.163 -48.643 -11.887  1.00  0.00     0.007 A 
HETATM   25  C13 UNL     1      32.520 -47.498 -11.018  1.00  0.00     0.007 A 
ENDBRANCH  22  23
ENDBRANCH  20  22
ENDBRANCH   6  20
TORSDOF 4
ENDMDL
MODEL 4
REMARK VINA RESULT: -7.192379295      1.776      6.033
REMARK  4 active torsions:
REMARK  status: ('A' for Active; 'I' for Inactive)
REMARK    1  A    between atoms: C5_9  and  C6_10 
REMARK    2  A    between atoms: C9_15  and  N4_16 
REMARK    3  A    between atoms: N4_16  and  C10_18 
REMARK    4  A    between atoms: C10_18  and  C11_19 
ROOT
HETATM    1  C6  UNL     1      38.387 -45.926  -6.156  1.00  0.00     0.061 A 
HETATM    2  C7  UNL     1      37.629 -46.123  -5.047  1.00  0.00     0.118 A 
HETATM    3  N3  UNL     1      36.755 -47.156  -5.005  1.00  0.00    -0.370 N 
ATOM      4  H3  UNL     1      36.188 -47.304  -4.171  1.00  0.00     0.164 HD
HETATM    5  C8  UNL     1      36.633 -47.982  -6.048  1.00  0.00     0.136 A 
HETATM    6  C9  UNL     1      37.389 -47.811  -7.197  1.00  0.00     0.117 A 
HETATM    7  N5  UNL     1      38.241 -46.787  -7.209  1.00  0.00    -0.340 N 
ATOM      8  H5  UNL     1      38.811 -46.638  -8.042  1.00  0.00     0.167 HD
ENDROOT
BRANCH   1   9
HETATM    9  C5  UNL     1      39.329 -44.818  -6.361  1.00  0.00     0.021 A 
HETATM   10  C4  UNL     1      40.524 -44.643  -5.662  1.00  0.00     0.104 A 
HETATM   11  N2  UNL     1      41.149 -43.530  -6.022  1.00  0.00    -0.351 N 
HETATM   12  C3  UNL     1      40.373 -42.950  -6.967  1.00  0.00     0.116 A 
ATOM     13  H2  UNL     1      42.037 -43.181  -5.659  1.00  0.00     0.166 HD
HETATM   14  N1  UNL     1      40.578 -41.791  -7.624  1.00  0.00    -0.352 N 
HETATM   15  C14 UNL     1      39.236 -43.738  -7.187  1.00  0.00     0.022 A 
HETATM   16  C2  UNL     1      39.689 -41.344  -8.525  1.00  0.00     0.090 A 
ATOM     17  H1  UNL     1      41.419 -41.247  -7.434  1.00  0.00     0.166 HD
HETATM   18  C1  UNL     1      38.553 -42.079  -8.778  1.00  0.00     0.018 A 
HETATM   19  C15 UNL     1      38.316 -43.280  -8.115  1.00  0.00     0.017 A 
ENDBRANCH   1   9
BRANCH   6  20
HETATM   20  N4  UNL     1      37.264 -48.615  -8.204  1.00  0.00    -0.375 N 
ATOM     21  H4  UNL     1      37.695 -49.539  -8.157  1.00  0.00     0.161 HD
BRANCH  20  22
HETATM   22  C10 UNL     1      36.547 -48.248  -9.367  1.00  0.00     0.126 C 
BRANCH  22  23
HETATM   23  C11 UNL     1      35.478 -49.237  -9.786  1.00  0.00     0.003 A 
HETATM   24  C12 UNL     1      35.606 -49.698 -11.218  1.00  0.00     0.007 A 
HETATM   25  C13 UNL     1      34.470 -48.843 -10.803  1.00  0.00     0.007 A 
ENDBRANCH  22  23
ENDBRANCH  20  22
ENDBRANCH   6  20
TORSDOF 4
ENDMDL
MODEL 5
REMARK VINA RESULT: -7.133102871      3.377      6.491
REMARK  4 active torsions:
REMARK  status: ('A' for Active; 'I' for Inactive)
REMARK    1  A    between atoms: C5_9  and  C6_10 
REMARK    2  A    between atoms: C9_15  and  N4_16 
REMARK    3  A    between atoms: N4_16  and  C10_18 
REMARK    4  A    between atoms: C10_18  and  C11_19 
ROOT
HETATM    1  C6  UNL     1      34.903 -49.103  -8.246  1.00  0.00     0.061 A 
HETATM    2  C7  UNL     1      33.789 -49.340  -7.508  1.00  0.00     0.118 A 
HETATM    3  N3  UNL     1      32.588 -49.455  -8.121  1.00  0.00    -0.370 N 
ATOM      4  H3  UNL     1      31.752 -49.635  -7.567  1.00  0.00     0.164 HD
HETATM    5  C8  UNL     1      32.492 -49.334  -9.449  1.00  0.00     0.136 A 
HETATM    6  C9  UNL     1      33.607 -49.089 -10.235  1.00  0.00     0.117 A 
HETATM    7  N5  UNL     1      34.775 -48.983  -9.603  1.00  0.00    -0.340 N 
ATOM      8  H5  UNL     1      35.613 -48.804 -10.156  1.00  0.00     0.167 HD
ENDROOT
BRANCH   1   9
HETATM    9  C5  UNL     1      36.255 -48.899  -7.710  1.00  0.00     0.021 A 
HETATM   10  C4  UNL     1      36.673 -49.266  -6.430  1.00  0.00     0.104 A 
HETATM   11  N2  UNL     1      37.932 -48.918  -6.200  1.00  0.00    -0.351 N 
HETATM   12  C3  UNL     1      38.367 -48.311  -7.330  1.00  0.00     0.116 A 
ATOM     13  H2  UNL     1      38.465 -49.075  -5.345  1.00  0.00     0.166 HD
HETATM   14  N1  UNL     1      39.576 -47.770  -7.578  1.00  0.00    -0.352 N 
HETATM   15  C14 UNL     1      37.334 -48.290  -8.277  1.00  0.00     0.022 A 
HETATM   16  C2  UNL     1      39.839 -47.182  -8.756  1.00  0.00     0.090 A 
ATOM     17  H1  UNL     1      40.300 -47.806  -6.861  1.00  0.00     0.166 HD
HETATM   18  C1  UNL     1      38.859 -47.133  -9.721  1.00  0.00     0.018 A 
HETATM   19  C15 UNL     1      37.601 -47.684  -9.493  1.00  0.00     0.017 A 
ENDBRANCH   1   9
BRANCH   6  20
HETATM   20  N4  UNL     1      33.506 -48.973 -11.520  1.00  0.00    -0.375 N 
ATOM     21  H4  UNL     1      34.282 -49.276 -12.108  1.00  0.00     0.161 HD
BRANCH  20  22
HETATM   22  C10 UNL     1      32.348 -48.437 -12.130  1.00  0.00     0.126 C 
BRANCH  22  23
HETATM   23  C11 UNL     1      31.779 -49.281 -13.253  1.00  0.00     0.003 A 
HETATM   24  C12 UNL     1      31.630 -48.536 -14.557  1.00  0.00     0.007 A 
HETATM   25  C13 UNL     1      30.434 -48.970 -13.798  1.00  0.00     0.007 A 
ENDBRANCH  22  23
ENDBRANCH  20  22
ENDBRANCH   6  20
TORSDOF 4
ENDMDL
