MODEL 1
REMARK VINA RESULT: -8.057035445      0.000      0.000
REMARK  7 active torsions:
REMARK  status: ('A' for Active; 'I' for Inactive)
REMARK    1  A    between atoms: C2_2  and  N1_3 
REMARK    2  A    between atoms: N1_3  and  S1_5 
REMARK    3  A    between atoms: S1_5  and  N2_8 
REMARK       I    between atoms: N2_8  and  C3_10 
REMARK    4  A    between atoms: C3_10  and  C4_12 
REMARK       I    between atoms: N3_14  and  C6_15 
REMARK    5  A    between atoms: C6_15  and  C7_17 
REMARK    6  A    between atoms: C7_17  and  C8_19 
REMARK    7  A    between atoms: C16_27  and  N5_28 
ROOT
HETATM    1  C4  UNL     1     -37.879  -1.592 189.245  1.00  0.00     0.115 C 
HETATM    2  C5  UNL     1     -36.401  -1.381 189.022  1.00  0.00     0.141 C 
HETATM    3  N3  UNL     1     -36.149  -2.800 189.314  1.00  0.00    -0.346 N 
HETATM    4  C6  UNL     1     -35.022  -3.587 189.612  1.00  0.00     0.264 C 
HETATM    5  O4  UNL     1     -33.921  -2.995 189.621  1.00  0.00    -0.267 OA
HETATM    6  C17 UNL     1     -37.554  -3.062 189.135  1.00  0.00     0.141 C 
ENDROOT
BRANCH   4   7
HETATM    7  C7  UNL     1     -35.113  -5.008 189.894  1.00  0.00     0.098 C 
HETATM    8  N4  UNL     1     -35.827  -5.820 188.956  1.00  0.00    -0.101 NA
BRANCH   7   9
HETATM    9  C8  UNL     1     -35.454  -5.345 191.364  1.00  0.00     0.069 C 
HETATM   10  C9  UNL     1     -36.906  -5.816 191.459  1.00  0.00     0.013 C 
HETATM   11  C10 UNL     1     -37.702  -5.013 192.459  1.00  0.00     0.001 C 
HETATM   12  C11 UNL     1     -37.948  -5.575 193.783  1.00  0.00     0.000 C 
HETATM   13  C12 UNL     1     -37.352  -6.879 194.152  1.00  0.00     0.000 C 
HETATM   14  C13 UNL     1     -36.032  -6.790 194.873  1.00  0.00     0.000 C 
HETATM   15  C14 UNL     1     -35.090  -5.749 194.349  1.00  0.00     0.002 C 
HETATM   16  C15 UNL     1     -34.097  -6.179 193.351  1.00  0.00     0.033 C 
HETATM   17  C16 UNL     1     -34.471  -6.331 191.934  1.00  0.00     0.193 C 
BRANCH  17  18
HETATM   18  N5  UNL     1     -34.688  -7.696 191.620  1.00  0.00    -0.074 N 
ATOM     19  H53 UNL     1     -34.258  -8.285 192.333  1.00  0.00     0.274 HD
ATOM     20  H52 UNL     1     -35.672  -7.927 191.755  1.00  0.00     0.274 HD
ATOM     21  H51 UNL     1     -34.387  -8.004 190.695  1.00  0.00     0.274 HD
ENDBRANCH  17  18
ENDBRANCH   7   9
ENDBRANCH   4   7
BRANCH   1  22
HETATM   22  C3  UNL     1     -38.667  -1.029 188.144  1.00  0.00     0.239 C 
HETATM   23  N2  UNL     1     -40.031  -0.659 188.310  1.00  0.00    -0.237 N 
ATOM     24  H2  UNL     1     -40.494  -0.786 189.210  1.00  0.00     0.183 HD
HETATM   25  O3  UNL     1     -38.128  -0.860 187.012  1.00  0.00    -0.272 OA
BRANCH  23  26
HETATM   26  S1  UNL     1     -40.885   0.004 186.981  1.00  0.00     0.321 S 
HETATM   27  O1  UNL     1     -42.236   0.467 187.408  1.00  0.00    -0.182 OA
HETATM   28  O2  UNL     1     -40.975  -1.012 185.873  1.00  0.00    -0.182 OA
BRANCH  26  29
HETATM   29  N1  UNL     1     -39.997   1.365 186.378  1.00  0.00    -0.303 N 
ATOM     30  H1  UNL     1     -39.253   1.318 185.682  1.00  0.00     0.173 HD
BRANCH  29  31
HETATM   31  C2  UNL     1     -40.472   2.580 187.014  1.00  0.00     0.129 C 
HETATM   32  C1  UNL     1     -40.281   3.721 186.032  1.00  0.00     0.027 C 
ENDBRANCH  29  31
ENDBRANCH  26  29
ENDBRANCH  23  26
ENDBRANCH   1  22
TORSDOF 7
ENDMDL
MODEL 2
REMARK VINA RESULT: -7.542953144      1.318      1.496
REMARK  7 active torsions:
REMARK  status: ('A' for Active; 'I' for Inactive)
REMARK    1  A    between atoms: C2_2  and  N1_3 
REMARK    2  A    between atoms: N1_3  and  S1_5 
REMARK    3  A    between atoms: S1_5  and  N2_8 
REMARK       I    between atoms: N2_8  and  C3_10 
REMARK    4  A    between atoms: C3_10  and  C4_12 
REMARK       I    between atoms: N3_14  and  C6_15 
REMARK    5  A    between atoms: C6_15  and  C7_17 
REMARK    6  A    between atoms: C7_17  and  C8_19 
REMARK    7  A    between atoms: C16_27  and  N5_28 
ROOT
HETATM    1  C4  UNL     1     -37.668  -1.500 188.026  1.00  0.00     0.115 C 
HETATM    2  C5  UNL     1     -38.223  -2.900 188.142  1.00  0.00     0.141 C 
HETATM    3  N3  UNL     1     -37.087  -3.284 188.993  1.00  0.00    -0.346 N 
HETATM    4  C6  UNL     1     -36.530  -4.491 189.451  1.00  0.00     0.264 C 
HETATM    5  O4  UNL     1     -37.117  -5.539 189.103  1.00  0.00    -0.267 OA
HETATM    6  C17 UNL     1     -36.794  -1.888 189.194  1.00  0.00     0.141 C 
ENDROOT
BRANCH   4   7
HETATM    7  C7  UNL     1     -35.341  -4.538 190.283  1.00  0.00     0.098 C 
HETATM    8  N4  UNL     1     -34.134  -5.016 189.678  1.00  0.00    -0.101 NA
BRANCH   7   9
HETATM    9  C8  UNL     1     -35.575  -5.117 191.697  1.00  0.00     0.069 C 
HETATM   10  C9  UNL     1     -36.975  -5.727 191.778  1.00  0.00     0.013 C 
HETATM   11  C10 UNL     1     -37.783  -5.155 192.917  1.00  0.00     0.001 C 
HETATM   12  C11 UNL     1     -37.911  -5.925 194.150  1.00  0.00     0.000 C 
HETATM   13  C12 UNL     1     -37.188  -7.210 194.294  1.00  0.00     0.000 C 
HETATM   14  C13 UNL     1     -35.845  -7.107 194.968  1.00  0.00     0.000 C 
HETATM   15  C14 UNL     1     -35.022  -5.919 194.571  1.00  0.00     0.002 C 
HETATM   16  C15 UNL     1     -34.050  -6.105 193.482  1.00  0.00     0.033 C 
HETATM   17  C16 UNL     1     -34.483  -6.082 192.074  1.00  0.00     0.193 C 
BRANCH  17  18
HETATM   18  N5  UNL     1     -34.601  -7.400 191.566  1.00  0.00    -0.074 N 
ATOM     19  H53 UNL     1     -35.332  -7.430 190.856  1.00  0.00     0.274 HD
ATOM     20  H52 UNL     1     -33.782  -7.624 191.000  1.00  0.00     0.274 HD
ATOM     21  H51 UNL     1     -34.758  -8.140 192.250  1.00  0.00     0.274 HD
ENDBRANCH  17  18
ENDBRANCH   7   9
ENDBRANCH   4   7
BRANCH   1  22
HETATM   22  C3  UNL     1     -38.699  -0.496 188.307  1.00  0.00     0.239 C 
HETATM   23  N2  UNL     1     -40.017  -0.607 187.781  1.00  0.00    -0.237 N 
ATOM     24  H2  UNL     1     -40.270  -1.394 187.185  1.00  0.00     0.183 HD
HETATM   25  O3  UNL     1     -38.421   0.498 189.039  1.00  0.00    -0.272 OA
BRANCH  23  26
HETATM   26  S1  UNL     1     -41.172   0.599 188.163  1.00  0.00     0.321 S 
HETATM   27  O1  UNL     1     -41.531   0.539 189.608  1.00  0.00    -0.182 OA
HETATM   28  O2  UNL     1     -42.387   0.440 187.287  1.00  0.00    -0.182 OA
BRANCH  26  29
HETATM   29  N1  UNL     1     -40.481   2.152 187.826  1.00  0.00    -0.303 N 
ATOM     30  H1  UNL     1     -40.246   2.855 188.527  1.00  0.00     0.173 HD
BRANCH  29  31
HETATM   31  C2  UNL     1     -40.286   2.302 186.395  1.00  0.00     0.129 C 
HETATM   32  C1  UNL     1     -40.286   3.786 186.081  1.00  0.00     0.027 C 
ENDBRANCH  29  31
ENDBRANCH  26  29
ENDBRANCH  23  26
ENDBRANCH   1  22
TORSDOF 7
ENDMDL
MODEL 3
REMARK VINA RESULT: -7.387702406      2.007      2.668
REMARK  7 active torsions:
REMARK  status: ('A' for Active; 'I' for Inactive)
REMARK    1  A    between atoms: C2_2  and  N1_3 
REMARK    2  A    between atoms: N1_3  and  S1_5 
REMARK    3  A    between atoms: S1_5  and  N2_8 
REMARK       I    between atoms: N2_8  and  C3_10 
REMARK    4  A    between atoms: C3_10  and  C4_12 
REMARK       I    between atoms: N3_14  and  C6_15 
REMARK    5  A    between atoms: C6_15  and  C7_17 
REMARK    6  A    between atoms: C7_17  and  C8_19 
REMARK    7  A    between atoms: C16_27  and  N5_28 
ROOT
HETATM    1  C4  UNL     1     -37.856  -2.871 188.890  1.00  0.00     0.115 C 
HETATM    2  C5  UNL     1     -38.375  -3.566 190.126  1.00  0.00     0.141 C 
HETATM    3  N3  UNL     1     -37.020  -4.056 190.424  1.00  0.00    -0.346 N 
HETATM    4  C6  UNL     1     -36.461  -5.029 191.272  1.00  0.00     0.264 C 
HETATM    5  O4  UNL     1     -37.262  -5.653 192.002  1.00  0.00    -0.267 OA
HETATM    6  C17 UNL     1     -36.491  -3.089 189.498  1.00  0.00     0.141 C 
ENDROOT
BRANCH   4   7
HETATM    7  C7  UNL     1     -35.037  -5.306 191.312  1.00  0.00     0.098 C 
HETATM    8  N4  UNL     1     -34.498  -6.125 190.269  1.00  0.00    -0.101 NA
BRANCH   7   9
HETATM    9  C8  UNL     1     -34.501  -5.684 192.712  1.00  0.00     0.069 C 
HETATM   10  C9  UNL     1     -34.575  -7.199 192.900  1.00  0.00     0.013 C 
HETATM   11  C10 UNL     1     -35.344  -7.584 194.141  1.00  0.00     0.001 C 
HETATM   12  C11 UNL     1     -34.605  -7.965 195.340  1.00  0.00     0.000 C 
HETATM   13  C12 UNL     1     -33.126  -7.894 195.348  1.00  0.00     0.000 C 
HETATM   14  C13 UNL     1     -32.558  -6.609 195.890  1.00  0.00     0.000 C 
HETATM   15  C14 UNL     1     -33.283  -5.366 195.473  1.00  0.00     0.002 C 
HETATM   16  C15 UNL     1     -32.780  -4.657 194.285  1.00  0.00     0.033 C 
HETATM   17  C16 UNL     1     -33.120  -5.125 192.930  1.00  0.00     0.193 C 
BRANCH  17  18
HETATM   18  N5  UNL     1     -32.045  -5.859 192.371  1.00  0.00    -0.074 N 
ATOM     19  H53 UNL     1     -31.162  -5.402 192.599  1.00  0.00     0.274 HD
ATOM     20  H52 UNL     1     -31.933  -6.740 192.874  1.00  0.00     0.274 HD
ATOM     21  H51 UNL     1     -32.088  -6.039 191.368  1.00  0.00     0.274 HD
ENDBRANCH  17  18
ENDBRANCH   7   9
ENDBRANCH   4   7
BRANCH   1  22
HETATM   22  C3  UNL     1     -38.313  -1.479 188.833  1.00  0.00     0.239 C 
HETATM   23  N2  UNL     1     -39.694  -1.145 188.751  1.00  0.00    -0.237 N 
ATOM     24  H2  UNL     1     -40.401  -1.880 188.722  1.00  0.00     0.183 HD
HETATM   25  O3  UNL     1     -37.465  -0.540 188.862  1.00  0.00    -0.272 OA
BRANCH  23  26
HETATM   26  S1  UNL     1     -40.154   0.504 188.700  1.00  0.00     0.321 S 
HETATM   27  O1  UNL     1     -39.851   1.170 189.999  1.00  0.00    -0.182 OA
HETATM   28  O2  UNL     1     -41.614   0.618 188.351  1.00  0.00    -0.182 OA
BRANCH  26  29
HETATM   29  N1  UNL     1     -39.249   1.291 187.449  1.00  0.00    -0.303 N 
ATOM     30  H1  UNL     1     -38.232   1.356 187.412  1.00  0.00     0.173 HD
BRANCH  29  31
HETATM   31  C2  UNL     1     -40.159   1.842 186.460  1.00  0.00     0.129 C 
HETATM   32  C1  UNL     1     -40.246   3.338 186.695  1.00  0.00     0.027 C 
ENDBRANCH  29  31
ENDBRANCH  26  29
ENDBRANCH  23  26
ENDBRANCH   1  22
TORSDOF 7
ENDMDL
MODEL 4
REMARK VINA RESULT: -7.266071463      9.746     12.097
REMARK  7 active torsions:
REMARK  status: ('A' for Active; 'I' for Inactive)
REMARK    1  A    between atoms: C2_2  and  N1_3 
REMARK    2  A    between atoms: N1_3  and  S1_5 
REMARK    3  A    between atoms: S1_5  and  N2_8 
REMARK       I    between atoms: N2_8  and  C3_10 
REMARK    4  A    between atoms: C3_10  and  C4_12 
REMARK       I    between atoms: N3_14  and  C6_15 
REMARK    5  A    between atoms: C6_15  and  C7_17 
REMARK    6  A    between atoms: C7_17  and  C8_19 
REMARK    7  A    between atoms: C16_27  and  N5_28 
ROOT
HETATM    1  C4  UNL     1     -33.427   3.761 180.486  1.00  0.00     0.115 C 
HETATM    2  C5  UNL     1     -32.131   4.350 180.990  1.00  0.00     0.141 C 
HETATM    3  N3  UNL     1     -32.842   4.948 182.131  1.00  0.00    -0.346 N 
HETATM    4  C6  UNL     1     -32.557   5.929 183.098  1.00  0.00     0.264 C 
HETATM    5  O4  UNL     1     -31.419   6.445 183.045  1.00  0.00    -0.267 OA
HETATM    6  C17 UNL     1     -33.956   4.076 181.865  1.00  0.00     0.141 C 
ENDROOT
BRANCH   4   7
HETATM    7  C7  UNL     1     -33.518   6.333 184.109  1.00  0.00     0.098 C 
HETATM    8  N4  UNL     1     -33.785   7.733 184.238  1.00  0.00    -0.101 NA
BRANCH   7   9
HETATM    9  C8  UNL     1     -33.344   5.625 185.472  1.00  0.00     0.069 C 
HETATM   10  C9  UNL     1     -32.397   4.434 185.315  1.00  0.00     0.013 C 
HETATM   11  C10 UNL     1     -33.015   3.146 185.803  1.00  0.00     0.001 C 
HETATM   12  C11 UNL     1     -32.645   2.639 187.121  1.00  0.00     0.000 C 
HETATM   13  C12 UNL     1     -31.738   3.428 187.986  1.00  0.00     0.000 C 
HETATM   14  C13 UNL     1     -32.432   4.333 188.969  1.00  0.00     0.000 C 
HETATM   15  C14 UNL     1     -33.636   5.048 188.436  1.00  0.00     0.002 C 
HETATM   16  C15 UNL     1     -33.433   6.402 187.896  1.00  0.00     0.033 C 
HETATM   17  C16 UNL     1     -32.906   6.597 186.534  1.00  0.00     0.193 C 
BRANCH  17  18
HETATM   18  N5  UNL     1     -31.524   6.911 186.573  1.00  0.00    -0.074 N 
ATOM     19  H53 UNL     1     -31.192   6.875 187.537  1.00  0.00     0.274 HD
ATOM     20  H52 UNL     1     -30.987   6.147 186.163  1.00  0.00     0.274 HD
ATOM     21  H51 UNL     1     -31.245   7.795 186.148  1.00  0.00     0.274 HD
ENDBRANCH  17  18
ENDBRANCH   7   9
ENDBRANCH   4   7
BRANCH   1  22
HETATM   22  C3  UNL     1     -33.275   2.337 180.172  1.00  0.00     0.239 C 
HETATM   23  N2  UNL     1     -32.962   1.377 181.174  1.00  0.00    -0.237 N 
ATOM     24  H2  UNL     1     -32.828   1.667 182.143  1.00  0.00     0.183 HD
HETATM   25  O3  UNL     1     -33.430   1.940 178.980  1.00  0.00    -0.272 OA
BRANCH  23  26
HETATM   26  S1  UNL     1     -32.812  -0.272 180.734  1.00  0.00     0.321 S 
HETATM   27  O1  UNL     1     -34.154  -0.866 180.476  1.00  0.00    -0.182 OA
HETATM   28  O2  UNL     1     -32.074  -1.024 181.810  1.00  0.00    -0.182 OA
BRANCH  26  29
HETATM   29  N1  UNL     1     -31.871  -0.372 179.282  1.00  0.00    -0.303 N 
ATOM     30  H1  UNL     1     -31.558   0.425 178.729  1.00  0.00     0.173 HD
BRANCH  29  31
HETATM   31  C2  UNL     1     -31.596  -1.764 178.972  1.00  0.00     0.129 C 
HETATM   32  C1  UNL     1     -30.091  -1.951 178.979  1.00  0.00     0.027 C 
ENDBRANCH  29  31
ENDBRANCH  26  29
ENDBRANCH  23  26
ENDBRANCH   1  22
TORSDOF 7
ENDMDL
MODEL 5
REMARK VINA RESULT: -7.164547417      1.277      2.091
REMARK  7 active torsions:
REMARK  status: ('A' for Active; 'I' for Inactive)
REMARK    1  A    between atoms: C2_2  and  N1_3 
REMARK    2  A    between atoms: N1_3  and  S1_5 
REMARK    3  A    between atoms: S1_5  and  N2_8 
REMARK       I    between atoms: N2_8  and  C3_10 
REMARK    4  A    between atoms: C3_10  and  C4_12 
REMARK       I    between atoms: N3_14  and  C6_15 
REMARK    5  A    between atoms: C6_15  and  C7_17 
REMARK    6  A    between atoms: C7_17  and  C8_19 
REMARK    7  A    between atoms: C16_27  and  N5_28 
ROOT
HETATM    1  C4  UNL     1     -38.006  -1.737 189.459  1.00  0.00     0.115 C 
HETATM    2  C5  UNL     1     -36.694  -2.162 188.845  1.00  0.00     0.141 C 
HETATM    3  N3  UNL     1     -36.938  -3.548 189.272  1.00  0.00    -0.346 N 
HETATM    4  C6  UNL     1     -36.169  -4.719 189.391  1.00  0.00     0.264 C 
HETATM    5  O4  UNL     1     -34.972  -4.635 189.036  1.00  0.00    -0.267 OA
HETATM    6  C17 UNL     1     -38.321  -3.214 189.490  1.00  0.00     0.141 C 
ENDROOT
BRANCH   4   7
HETATM    7  C7  UNL     1     -36.715  -5.967 189.894  1.00  0.00     0.098 C 
HETATM    8  N4  UNL     1     -38.076  -6.267 189.566  1.00  0.00    -0.101 NA
BRANCH   7   9
HETATM    9  C8  UNL     1     -36.374  -6.261 191.373  1.00  0.00     0.069 C 
HETATM   10  C9  UNL     1     -35.097  -5.517 191.764  1.00  0.00     0.013 C 
HETATM   11  C10 UNL     1     -34.047  -6.442 192.331  1.00  0.00     0.001 C 
HETATM   12  C11 UNL     1     -33.868  -6.505 193.778  1.00  0.00     0.000 C 
HETATM   13  C12 UNL     1     -34.762  -5.727 194.666  1.00  0.00     0.000 C 
HETATM   14  C13 UNL     1     -35.957  -6.486 195.182  1.00  0.00     0.000 C 
HETATM   15  C14 UNL     1     -36.622  -7.381 194.182  1.00  0.00     0.002 C 
HETATM   16  C15 UNL     1     -37.761  -6.827 193.433  1.00  0.00     0.033 C 
HETATM   17  C16 UNL     1     -37.542  -5.950 192.270  1.00  0.00     0.193 C 
BRANCH  17  18
HETATM   18  N5  UNL     1     -37.718  -4.590 192.630  1.00  0.00    -0.074 N 
ATOM     19  H53 UNL     1     -38.346  -4.527 193.431  1.00  0.00     0.274 HD
ATOM     20  H52 UNL     1     -36.856  -4.230 193.039  1.00  0.00     0.274 HD
ATOM     21  H51 UNL     1     -38.038  -3.962 191.893  1.00  0.00     0.274 HD
ENDBRANCH  17  18
ENDBRANCH   7   9
ENDBRANCH   4   7
BRANCH   1  22
HETATM   22  C3  UNL     1     -38.797  -0.937 188.519  1.00  0.00     0.239 C 
HETATM   23  N2  UNL     1     -40.211  -0.823 188.635  1.00  0.00    -0.237 N 
ATOM     24  H2  UNL     1     -40.708  -1.309 189.382  1.00  0.00     0.183 HD
HETATM   25  O3  UNL     1     -38.216  -0.322 187.577  1.00  0.00    -0.272 OA
BRANCH  23  26
HETATM   26  S1  UNL     1     -41.067   0.140 187.507  1.00  0.00     0.321 S 
HETATM   27  O1  UNL     1     -42.473   0.346 187.958  1.00  0.00    -0.182 OA
HETATM   28  O2  UNL     1     -41.014  -0.498 186.144  1.00  0.00    -0.182 OA
BRANCH  26  29
HETATM   29  N1  UNL     1     -40.288   1.685 187.396  1.00  0.00    -0.303 N 
ATOM     30  H1  UNL     1     -39.877   2.193 188.179  1.00  0.00     0.173 HD
BRANCH  29  31
HETATM   31  C2  UNL     1     -40.308   2.145 186.020  1.00  0.00     0.129 C 
HETATM   32  C1  UNL     1     -40.275   3.662 186.038  1.00  0.00     0.027 C 
ENDBRANCH  29  31
ENDBRANCH  26  29
ENDBRANCH  23  26
ENDBRANCH   1  22
TORSDOF 7
ENDMDL
