MODEL 1
REMARK VINA RESULT: -7.759824752      0.000      0.000
REMARK  9 active torsions:
REMARK  status: ('A' for Active; 'I' for Inactive)
REMARK       I    between atoms: N1_2  and  C2_4 
REMARK    1  A    between atoms: C2_4  and  C3_6 
REMARK    2  A    between atoms: C3_6  and  C4_7 
REMARK    3  A    between atoms: C4_7  and  C5_8 
REMARK    4  A    between atoms: C5_8  and  N2_9 
REMARK    5  A    between atoms: C5_8  and  C17_29 
REMARK    6  A    between atoms: N2_9  and  C6_11 
REMARK    7  A    between atoms: C6_11  and  O2_12 
REMARK    8  A    between atoms: C6_11  and  N3_14 
REMARK    9  A    between atoms: C15_25  and  C16_26 
ROOT
HETATM    1  C6  UNL     1     -38.370  -1.183 188.050  1.00  0.00     0.218 C 
ENDROOT
BRANCH   1   2
HETATM    2  N2  UNL     1     -39.128  -0.007 188.093  1.00  0.00    -0.342 N 
ATOM      3  H2  UNL     1     -38.703   0.870 187.792  1.00  0.00     0.164 HD
BRANCH   2   4
HETATM    4  C5  UNL     1     -40.501  -0.007 188.555  1.00  0.00     0.186 C 
BRANCH   4   5
HETATM    5  C4  UNL     1     -41.359   0.941 187.744  1.00  0.00     0.045 C 
BRANCH   5   6
HETATM    6  C3  UNL     1     -40.595   1.440 186.562  1.00  0.00     0.105 C 
BRANCH   6   7
HETATM    7  C2  UNL     1     -40.459   2.912 186.594  1.00  0.00     0.217 C 
HETATM    8  N1  UNL     1     -40.515   3.637 185.397  1.00  0.00    -0.365 N 
HETATM    9  C1  UNL     1     -40.385   5.069 185.416  1.00  0.00     0.149 C 
ATOM     10  H1  UNL     1     -40.649   3.148 184.511  1.00  0.00     0.161 HD
HETATM   11  O1  UNL     1     -40.299   3.480 187.691  1.00  0.00    -0.274 OA
ENDBRANCH   6   7
ENDBRANCH   5   6
ENDBRANCH   4   5
BRANCH   4  12
HETATM   12  C17 UNL     1     -40.585   0.277 190.012  1.00  0.00     0.196 C 
HETATM   13  O6  UNL     1     -40.422   1.428 190.494  1.00  0.00    -0.646 OA
HETATM   14  O7  UNL     1     -40.853  -0.750 190.909  1.00  0.00    -0.646 OA
ENDBRANCH   4  12
ENDBRANCH   2   4
ENDBRANCH   1   2
BRANCH   1  15
HETATM   15  O2  UNL     1     -38.617  -1.951 187.016  1.00  0.00    -0.333 OA
ATOM     16  H2  UNL     1     -38.111  -2.754 186.993  1.00  0.00     0.220 HD
ENDBRANCH   1  15
BRANCH   1  17
HETATM   17  N3  UNL     1     -37.395  -1.661 188.928  1.00  0.00    -0.308 N 
HETATM   18  C7  UNL     1     -37.754  -2.761 189.893  1.00  0.00     0.171 C 
HETATM   19  C8  UNL     1     -36.721  -3.827 189.541  1.00  0.00     0.112 C 
HETATM   20  C9  UNL     1     -37.514  -5.094 189.280  1.00  0.00     0.043 C 
HETATM   21  C14 UNL     1     -35.750  -4.121 190.626  1.00  0.00     0.043 C 
HETATM   22  O3  UNL     1     -36.040  -3.423 188.402  1.00  0.00    -0.225 OA
HETATM   23  C10 UNL     1     -38.192  -5.522 190.552  1.00  0.00     0.003 C 
HETATM   24  C11 UNL     1     -37.251  -6.239 191.491  1.00  0.00     0.000 C 
HETATM   25  C12 UNL     1     -35.967  -6.627 190.826  1.00  0.00     0.000 C 
HETATM   26  C13 UNL     1     -35.132  -5.496 190.341  1.00  0.00     0.003 C 
HETATM   27  O4  UNL     1     -35.300  -2.381 188.584  1.00  0.00    -0.204 OA
HETATM   28  C15 UNL     1     -36.021  -1.288 189.092  1.00  0.00     0.354 C 
BRANCH  28  29
HETATM   29  C16 UNL     1     -35.587   0.014 188.651  1.00  0.00     0.283 C 
HETATM   30  N4  UNL     1     -34.170   0.277 188.629  1.00  0.00    -0.058 NA
HETATM   31  O5  UNL     1     -36.331   0.962 188.273  1.00  0.00    -0.272 OA
ENDBRANCH  28  29
ENDBRANCH   1  17
TORSDOF 9
ENDMDL
MODEL 2
REMARK VINA RESULT: -7.365307115      2.503      7.865
REMARK  9 active torsions:
REMARK  status: ('A' for Active; 'I' for Inactive)
REMARK       I    between atoms: N1_2  and  C2_4 
REMARK    1  A    between atoms: C2_4  and  C3_6 
REMARK    2  A    between atoms: C3_6  and  C4_7 
REMARK    3  A    between atoms: C4_7  and  C5_8 
REMARK    4  A    between atoms: C5_8  and  N2_9 
REMARK    5  A    between atoms: C5_8  and  C17_29 
REMARK    6  A    between atoms: N2_9  and  C6_11 
REMARK    7  A    between atoms: C6_11  and  O2_12 
REMARK    8  A    between atoms: C6_11  and  N3_14 
REMARK    9  A    between atoms: C15_25  and  C16_26 
ROOT
HETATM    1  C6  UNL     1     -38.181  -2.823 189.106  1.00  0.00     0.218 C 
ENDROOT
BRANCH   1   2
HETATM    2  N2  UNL     1     -37.501  -4.044 189.033  1.00  0.00    -0.342 N 
ATOM      3  H2  UNL     1     -36.896  -4.231 188.233  1.00  0.00     0.164 HD
BRANCH   2   4
HETATM    4  C5  UNL     1     -37.636  -5.049 190.068  1.00  0.00     0.186 C 
BRANCH   4   5
HETATM    5  C4  UNL     1     -36.934  -4.630 191.342  1.00  0.00     0.045 C 
BRANCH   5   6
HETATM    6  C3  UNL     1     -37.410  -5.462 192.488  1.00  0.00     0.105 C 
BRANCH   6   7
HETATM    7  C2  UNL     1     -36.275  -6.029 193.248  1.00  0.00     0.217 C 
HETATM    8  N1  UNL     1     -35.388  -6.907 192.611  1.00  0.00    -0.365 N 
HETATM    9  C1  UNL     1     -34.281  -7.463 193.340  1.00  0.00     0.149 C 
ATOM     10  H1  UNL     1     -35.528  -7.151 191.631  1.00  0.00     0.161 HD
HETATM   11  O1  UNL     1     -36.129  -5.711 194.443  1.00  0.00    -0.274 OA
ENDBRANCH   6   7
ENDBRANCH   5   6
ENDBRANCH   4   5
BRANCH   4  12
HETATM   12  C17 UNL     1     -37.178  -6.383 189.595  1.00  0.00     0.196 C 
HETATM   13  O6  UNL     1     -37.975  -7.309 189.291  1.00  0.00    -0.646 OA
HETATM   14  O7  UNL     1     -35.821  -6.651 189.472  1.00  0.00    -0.646 OA
ENDBRANCH   4  12
ENDBRANCH   2   4
ENDBRANCH   1   2
BRANCH   1  15
HETATM   15  O2  UNL     1     -39.148  -2.793 189.991  1.00  0.00    -0.333 OA
ATOM     16  H2  UNL     1     -39.588  -1.954 190.064  1.00  0.00     0.220 HD
ENDBRANCH   1  15
BRANCH   1  17
HETATM   17  N3  UNL     1     -37.989  -1.640 188.391  1.00  0.00    -0.308 N 
HETATM   18  C7  UNL     1     -39.025  -1.217 187.382  1.00  0.00     0.171 C 
HETATM   19  C8  UNL     1     -39.401   0.171 187.891  1.00  0.00     0.112 C 
HETATM   20  C9  UNL     1     -40.912   0.162 188.025  1.00  0.00     0.043 C 
HETATM   21  C14 UNL     1     -39.039   1.280 186.971  1.00  0.00     0.043 C 
HETATM   22  O3  UNL     1     -38.794   0.370 189.122  1.00  0.00    -0.225 OA
HETATM   23  C10 UNL     1     -41.527  -0.004 186.663  1.00  0.00     0.003 C 
HETATM   24  C11 UNL     1     -41.550   1.289 185.882  1.00  0.00     0.000 C 
HETATM   25  C12 UNL     1     -41.247   2.479 186.740  1.00  0.00     0.000 C 
HETATM   26  C13 UNL     1     -39.891   2.498 187.349  1.00  0.00     0.003 C 
HETATM   27  O4  UNL     1     -37.507   0.446 189.058  1.00  0.00    -0.204 OA
HETATM   28  C15 UNL     1     -36.929  -0.677 188.444  1.00  0.00     0.354 C 
BRANCH  28  29
HETATM   29  C16 UNL     1     -35.639  -1.077 188.947  1.00  0.00     0.283 C 
HETATM   30  N4  UNL     1     -34.564  -0.118 188.877  1.00  0.00    -0.058 NA
HETATM   31  O5  UNL     1     -35.348  -2.197 189.453  1.00  0.00    -0.272 OA
ENDBRANCH  28  29
ENDBRANCH   1  17
TORSDOF 9
ENDMDL
MODEL 3
REMARK VINA RESULT: -7.125082893     10.164     13.314
REMARK  9 active torsions:
REMARK  status: ('A' for Active; 'I' for Inactive)
REMARK       I    between atoms: N1_2  and  C2_4 
REMARK    1  A    between atoms: C2_4  and  C3_6 
REMARK    2  A    between atoms: C3_6  and  C4_7 
REMARK    3  A    between atoms: C4_7  and  C5_8 
REMARK    4  A    between atoms: C5_8  and  N2_9 
REMARK    5  A    between atoms: C5_8  and  C17_29 
REMARK    6  A    between atoms: N2_9  and  C6_11 
REMARK    7  A    between atoms: C6_11  and  O2_12 
REMARK    8  A    between atoms: C6_11  and  N3_14 
REMARK    9  A    between atoms: C15_25  and  C16_26 
ROOT
HETATM    1  C6  UNL     1     -31.595   5.819 181.484  1.00  0.00     0.218 C 
ENDROOT
BRANCH   1   2
HETATM    2  N2  UNL     1     -31.143   7.109 181.183  1.00  0.00    -0.342 N 
ATOM      3  H2  UNL     1     -31.813   7.813 180.871  1.00  0.00     0.164 HD
BRANCH   2   4
HETATM    4  C5  UNL     1     -29.744   7.469 181.305  1.00  0.00     0.186 C 
BRANCH   4   5
HETATM    5  C4  UNL     1     -29.573   8.799 182.009  1.00  0.00     0.045 C 
BRANCH   5   6
HETATM    6  C3  UNL     1     -28.808   8.612 183.277  1.00  0.00     0.105 C 
BRANCH   6   7
HETATM    7  C2  UNL     1     -27.602   9.469 183.307  1.00  0.00     0.217 C 
HETATM    8  N1  UNL     1     -27.096   9.906 184.537  1.00  0.00    -0.365 N 
HETATM    9  C1  UNL     1     -25.924  10.739 184.577  1.00  0.00     0.149 C 
ATOM     10  H1  UNL     1     -27.558   9.633 185.405  1.00  0.00     0.161 HD
HETATM   11  O1  UNL     1     -27.059   9.784 182.231  1.00  0.00    -0.274 OA
ENDBRANCH   6   7
ENDBRANCH   5   6
ENDBRANCH   4   5
BRANCH   4  12
HETATM   12  C17 UNL     1     -29.060   7.448 179.985  1.00  0.00     0.196 C 
HETATM   13  O6  UNL     1     -28.553   8.475 179.462  1.00  0.00    -0.646 OA
HETATM   14  O7  UNL     1     -28.959   6.262 179.270  1.00  0.00    -0.646 OA
ENDBRANCH   4  12
ENDBRANCH   2   4
ENDBRANCH   1   2
BRANCH   1  15
HETATM   15  O2  UNL     1     -31.338   4.925 180.560  1.00  0.00    -0.333 OA
ATOM     16  H2  UNL     1     -31.315   5.270 179.675  1.00  0.00     0.220 HD
ENDBRANCH   1  15
BRANCH   1  17
HETATM   17  N3  UNL     1     -32.268   5.339 182.609  1.00  0.00    -0.308 N 
HETATM   18  C7  UNL     1     -31.537   5.266 183.924  1.00  0.00     0.171 C 
HETATM   19  C8  UNL     1     -32.435   6.113 184.821  1.00  0.00     0.112 C 
HETATM   20  C9  UNL     1     -31.522   7.145 185.456  1.00  0.00     0.043 C 
HETATM   21  C14 UNL     1     -33.090   5.358 185.920  1.00  0.00     0.043 C 
HETATM   22  O3  UNL     1     -33.400   6.721 184.033  1.00  0.00    -0.225 OA
HETATM   23  C10 UNL     1     -30.526   6.446 186.340  1.00  0.00     0.003 C 
HETATM   24  C11 UNL     1     -31.115   6.065 187.678  1.00  0.00     0.000 C 
HETATM   25  C12 UNL     1     -32.432   6.731 187.933  1.00  0.00     0.000 C 
HETATM   26  C13 UNL     1     -33.523   6.369 186.990  1.00  0.00     0.003 C 
HETATM   27  O4  UNL     1     -34.243   5.891 183.516  1.00  0.00    -0.204 OA
HETATM   28  C15 UNL     1     -33.617   4.882 182.766  1.00  0.00     0.354 C 
BRANCH  28  29
HETATM   29  C16 UNL     1     -34.341   4.412 181.612  1.00  0.00     0.283 C 
HETATM   30  N4  UNL     1     -35.761   4.657 181.564  1.00  0.00    -0.058 NA
HETATM   31  O5  UNL     1     -33.852   3.800 180.621  1.00  0.00    -0.272 OA
ENDBRANCH  28  29
ENDBRANCH   1  17
TORSDOF 9
ENDMDL
MODEL 4
REMARK VINA RESULT: -7.108987214      2.533      7.808
REMARK  9 active torsions:
REMARK  status: ('A' for Active; 'I' for Inactive)
REMARK       I    between atoms: N1_2  and  C2_4 
REMARK    1  A    between atoms: C2_4  and  C3_6 
REMARK    2  A    between atoms: C3_6  and  C4_7 
REMARK    3  A    between atoms: C4_7  and  C5_8 
REMARK    4  A    between atoms: C5_8  and  N2_9 
REMARK    5  A    between atoms: C5_8  and  C17_29 
REMARK    6  A    between atoms: N2_9  and  C6_11 
REMARK    7  A    between atoms: C6_11  and  O2_12 
REMARK    8  A    between atoms: C6_11  and  N3_14 
REMARK    9  A    between atoms: C15_25  and  C16_26 
ROOT
HETATM    1  C6  UNL     1     -37.633  -2.778 188.855  1.00  0.00     0.218 C 
ENDROOT
BRANCH   1   2
HETATM    2  N2  UNL     1     -37.419  -3.131 190.192  1.00  0.00    -0.342 N 
ATOM      3  H2  UNL     1     -37.379  -2.399 190.902  1.00  0.00     0.164 HD
BRANCH   2   4
HETATM    4  C5  UNL     1     -37.252  -4.514 190.593  1.00  0.00     0.186 C 
BRANCH   4   5
HETATM    5  C4  UNL     1     -37.719  -4.739 192.016  1.00  0.00     0.045 C 
BRANCH   5   6
HETATM    6  C3  UNL     1     -38.035  -6.183 192.230  1.00  0.00     0.105 C 
BRANCH   6   7
HETATM    7  C2  UNL     1     -37.451  -6.677 193.496  1.00  0.00     0.217 C 
HETATM    8  N1  UNL     1     -36.113  -6.396 193.795  1.00  0.00    -0.365 N 
HETATM    9  C1  UNL     1     -35.535  -6.871 195.023  1.00  0.00     0.149 C 
ATOM     10  H1  UNL     1     -35.547  -5.853 193.142  1.00  0.00     0.161 HD
HETATM   11  O1  UNL     1     -38.166  -7.336 194.274  1.00  0.00    -0.274 OA
ENDBRANCH   6   7
ENDBRANCH   5   6
ENDBRANCH   4   5
BRANCH   4  12
HETATM   12  C17 UNL     1     -35.854  -4.976 190.388  1.00  0.00     0.196 C 
HETATM   13  O6  UNL     1     -35.440  -5.433 189.290  1.00  0.00    -0.646 OA
HETATM   14  O7  UNL     1     -34.939  -4.914 191.431  1.00  0.00    -0.646 OA
ENDBRANCH   4  12
ENDBRANCH   2   4
ENDBRANCH   1   2
BRANCH   1  15
HETATM   15  O2  UNL     1     -37.910  -3.787 188.065  1.00  0.00    -0.333 OA
ATOM     16  H2  UNL     1     -38.836  -3.985 187.989  1.00  0.00     0.220 HD
ENDBRANCH   1  15
BRANCH   1  17
HETATM   17  N3  UNL     1     -37.603  -1.527 188.237  1.00  0.00    -0.308 N 
HETATM   18  C7  UNL     1     -38.691  -1.166 187.259  1.00  0.00     0.171 C 
HETATM   19  C8  UNL     1     -39.245   0.115 187.874  1.00  0.00     0.112 C 
HETATM   20  C9  UNL     1     -40.741  -0.105 187.998  1.00  0.00     0.043 C 
HETATM   21  C14 UNL     1     -39.037   1.331 187.047  1.00  0.00     0.043 C 
HETATM   22  O3  UNL     1     -38.664   0.294 189.120  1.00  0.00    -0.225 OA
HETATM   23  C10 UNL     1     -41.334  -0.242 186.623  1.00  0.00     0.003 C 
HETATM   24  C11 UNL     1     -41.532   1.094 185.947  1.00  0.00     0.000 C 
HETATM   25  C12 UNL     1     -41.386   2.242 186.898  1.00  0.00     0.000 C 
HETATM   26  C13 UNL     1     -40.041   2.392 187.515  1.00  0.00     0.003 C 
HETATM   27  O4  UNL     1     -37.399   0.545 189.071  1.00  0.00    -0.204 OA
HETATM   28  C15 UNL     1     -36.679  -0.439 188.373  1.00  0.00     0.354 C 
BRANCH  28  29
HETATM   29  C16 UNL     1     -35.345  -0.703 188.851  1.00  0.00     0.283 C 
HETATM   30  N4  UNL     1     -34.367   0.349 188.726  1.00  0.00    -0.058 NA
HETATM   31  O5  UNL     1     -34.939  -1.776 189.378  1.00  0.00    -0.272 OA
ENDBRANCH  28  29
ENDBRANCH   1  17
TORSDOF 9
ENDMDL
MODEL 5
REMARK VINA RESULT: -7.010194039      2.686      6.572
REMARK  9 active torsions:
REMARK  status: ('A' for Active; 'I' for Inactive)
REMARK       I    between atoms: N1_2  and  C2_4 
REMARK    1  A    between atoms: C2_4  and  C3_6 
REMARK    2  A    between atoms: C3_6  and  C4_7 
REMARK    3  A    between atoms: C4_7  and  C5_8 
REMARK    4  A    between atoms: C5_8  and  N2_9 
REMARK    5  A    between atoms: C5_8  and  C17_29 
REMARK    6  A    between atoms: N2_9  and  C6_11 
REMARK    7  A    between atoms: C6_11  and  O2_12 
REMARK    8  A    between atoms: C6_11  and  N3_14 
REMARK    9  A    between atoms: C15_25  and  C16_26 
ROOT
HETATM    1  C6  UNL     1     -37.732  -2.797 188.820  1.00  0.00     0.218 C 
ENDROOT
BRANCH   1   2
HETATM    2  N2  UNL     1     -37.710  -3.140 190.176  1.00  0.00    -0.342 N 
ATOM      3  H2  UNL     1     -36.976  -2.760 190.775  1.00  0.00     0.164 HD
BRANCH   2   4
HETATM    4  C5  UNL     1     -38.705  -4.022 190.751  1.00  0.00     0.186 C 
BRANCH   4   5
HETATM    5  C4  UNL     1     -39.253  -3.469 192.050  1.00  0.00     0.045 C 
BRANCH   5   6
HETATM    6  C3  UNL     1     -40.536  -2.747 191.798  1.00  0.00     0.105 C 
BRANCH   6   7
HETATM    7  C2  UNL     1     -41.144  -2.279 193.063  1.00  0.00     0.217 C 
HETATM    8  N1  UNL     1     -42.524  -2.417 193.258  1.00  0.00    -0.365 N 
HETATM    9  C1  UNL     1     -43.126  -1.966 194.484  1.00  0.00     0.149 C 
ATOM     10  H1  UNL     1     -43.102  -2.838 192.530  1.00  0.00     0.161 HD
HETATM   11  O1  UNL     1     -40.413  -1.770 193.933  1.00  0.00    -0.274 OA
ENDBRANCH   6   7
ENDBRANCH   5   6
ENDBRANCH   4   5
BRANCH   4  12
HETATM   12  C17 UNL     1     -38.179  -5.403 190.915  1.00  0.00     0.196 C 
HETATM   13  O6  UNL     1     -38.127  -5.986 192.029  1.00  0.00    -0.646 OA
HETATM   14  O7  UNL     1     -37.718  -6.109 189.811  1.00  0.00    -0.646 OA
ENDBRANCH   4  12
ENDBRANCH   2   4
ENDBRANCH   1   2
BRANCH   1  15
HETATM   15  O2  UNL     1     -37.822  -3.820 188.003  1.00  0.00    -0.333 OA
ATOM     16  H2  UNL     1     -38.157  -3.605 187.140  1.00  0.00     0.220 HD
ENDBRANCH   1  15
BRANCH   1  17
HETATM   17  N3  UNL     1     -37.678  -1.545 188.205  1.00  0.00    -0.308 N 
HETATM   18  C7  UNL     1     -38.767  -1.155 187.240  1.00  0.00     0.171 C 
HETATM   19  C8  UNL     1     -39.283   0.137 187.864  1.00  0.00     0.112 C 
HETATM   20  C9  UNL     1     -40.782  -0.047 188.005  1.00  0.00     0.043 C 
HETATM   21  C14 UNL     1     -39.055   1.350 187.038  1.00  0.00     0.043 C 
HETATM   22  O3  UNL     1     -38.684   0.298 189.104  1.00  0.00    -0.225 OA
HETATM   23  C10 UNL     1     -41.395  -0.165 186.636  1.00  0.00     0.003 C 
HETATM   24  C11 UNL     1     -41.567   1.178 185.966  1.00  0.00     0.000 C 
HETATM   25  C12 UNL     1     -41.382   2.319 186.918  1.00  0.00     0.000 C 
HETATM   26  C13 UNL     1     -40.027   2.435 187.520  1.00  0.00     0.003 C 
HETATM   27  O4  UNL     1     -37.413   0.519 189.041  1.00  0.00    -0.204 OA
HETATM   28  C15 UNL     1     -36.726  -0.481 188.333  1.00  0.00     0.354 C 
BRANCH  28  29
HETATM   29  C16 UNL     1     -35.394  -0.779 188.794  1.00  0.00     0.283 C 
HETATM   30  N4  UNL     1     -35.056  -2.163 189.019  1.00  0.00    -0.058 NA
HETATM   31  O5  UNL     1     -34.476   0.058 189.023  1.00  0.00    -0.272 OA
ENDBRANCH  28  29
ENDBRANCH   1  17
TORSDOF 9
ENDMDL
