MODEL 1
REMARK VINA RESULT: -5.995981938      0.000      0.000
REMARK  2 active torsions:
REMARK  status: ('A' for Active; 'I' for Inactive)
REMARK    1  A    between atoms: O1_2  and  C2_3 
REMARK    2  A    between atoms: C7_8  and  O2_9 
ROOT
HETATM    1  C2  UNL     1      29.466 -24.699 -30.784  1.00  0.00     0.102 A 
HETATM    2  C3  UNL     1      29.489 -24.659 -29.416  1.00  0.00     0.055 A 
HETATM    3  C4  UNL     1      29.975 -25.765 -28.707  1.00  0.00     0.023 A 
HETATM    4  C5  UNL     1      30.429 -26.887 -29.364  1.00  0.00    -0.001 A 
HETATM    5  C6  UNL     1      30.401 -26.917 -30.743  1.00  0.00     0.051 A 
HETATM    6  C7  UNL     1      29.919 -25.823 -31.464  1.00  0.00     0.102 A 
HETATM    7  C9  UNL     1      30.928 -28.016 -28.539  1.00  0.00     0.274 C 
HETATM    8  F1  UNL     1      29.816 -28.664 -28.001  1.00  0.00    -0.236 F 
HETATM    9  C10 UNL     1      31.684 -27.437 -27.405  1.00  0.00     0.176 C 
HETATM   10  O3  UNL     1      32.846 -27.772 -27.239  1.00  0.00    -0.294 OA
HETATM   11  C11 UNL     1      31.008 -26.471 -26.511  1.00  0.00     0.129 C 
HETATM   12  C12 UNL     1      32.027 -25.459 -25.977  1.00  0.00     0.026 C 
HETATM   13  C13 UNL     1      29.985 -25.688 -27.253  1.00  0.00     0.171 C 
HETATM   14  O4  UNL     1      29.138 -24.967 -26.641  1.00  0.00    -0.291 OA
ENDROOT
BRANCH   1  15
HETATM   15  O1  UNL     1      29.000 -23.642 -31.513  1.00  0.00    -0.353 OA
HETATM   16  C1  UNL     1      29.745 -22.562 -31.976  1.00  0.00     0.210 C 
ENDBRANCH   1  15
BRANCH   6  17
HETATM   17  O2  UNL     1      29.876 -25.816 -32.853  1.00  0.00    -0.353 OA
HETATM   18  C8  UNL     1      30.451 -26.924 -33.523  1.00  0.00     0.210 C 
ENDBRANCH   6  17
TORSDOF 2
ENDMDL
MODEL 2
REMARK VINA RESULT: -5.820865247      1.608      3.089
REMARK  2 active torsions:
REMARK  status: ('A' for Active; 'I' for Inactive)
REMARK    1  A    between atoms: O1_2  and  C2_3 
REMARK    2  A    between atoms: C7_8  and  O2_9 
ROOT
HETATM    1  C2  UNL     1      30.465 -26.391 -31.107  1.00  0.00     0.102 A 
HETATM    2  C3  UNL     1      31.209 -26.928 -30.091  1.00  0.00     0.055 A 
HETATM    3  C4  UNL     1      30.795 -26.739 -28.767  1.00  0.00     0.023 A 
HETATM    4  C5  UNL     1      29.656 -26.023 -28.472  1.00  0.00    -0.001 A 
HETATM    5  C6  UNL     1      28.914 -25.486 -29.504  1.00  0.00     0.051 A 
HETATM    6  C7  UNL     1      29.313 -25.665 -30.830  1.00  0.00     0.102 A 
HETATM    7  C9  UNL     1      29.286 -25.868 -27.043  1.00  0.00     0.274 C 
HETATM    8  F1  UNL     1      30.141 -24.915 -26.491  1.00  0.00    -0.236 F 
HETATM    9  C10 UNL     1      29.575 -27.154 -26.368  1.00  0.00     0.176 C 
HETATM   10  O3  UNL     1      28.674 -27.723 -25.773  1.00  0.00    -0.294 OA
HETATM   11  C11 UNL     1      30.946 -27.708 -26.437  1.00  0.00     0.129 C 
HETATM   12  C12 UNL     1      30.887 -29.239 -26.422  1.00  0.00     0.026 C 
HETATM   13  C13 UNL     1      31.609 -27.324 -27.711  1.00  0.00     0.171 C 
HETATM   14  O4  UNL     1      32.855 -27.500 -27.882  1.00  0.00    -0.291 OA
ENDROOT
BRANCH   1  15
HETATM   15  O1  UNL     1      30.834 -26.552 -32.412  1.00  0.00    -0.353 OA
HETATM   16  C1  UNL     1      30.170 -27.308 -33.373  1.00  0.00     0.210 C 
ENDBRANCH   1  15
BRANCH   6  17
HETATM   17  O2  UNL     1      28.592 -25.139 -31.895  1.00  0.00    -0.353 OA
HETATM   18  C8  UNL     1      28.993 -23.873 -32.385  1.00  0.00     0.210 C 
ENDBRANCH   6  17
TORSDOF 2
ENDMDL
MODEL 3
REMARK VINA RESULT: -5.178235793      1.873      5.677
REMARK  2 active torsions:
REMARK  status: ('A' for Active; 'I' for Inactive)
REMARK    1  A    between atoms: O1_2  and  C2_3 
REMARK    2  A    between atoms: C7_8  and  O2_9 
ROOT
HETATM    1  C2  UNL     1      30.594 -27.222 -28.360  1.00  0.00     0.102 A 
HETATM    2  C3  UNL     1      30.296 -27.608 -29.638  1.00  0.00     0.055 A 
HETATM    3  C4  UNL     1      29.722 -26.679 -30.516  1.00  0.00     0.023 A 
HETATM    4  C5  UNL     1      29.454 -25.390 -30.114  1.00  0.00    -0.001 A 
HETATM    5  C6  UNL     1      29.759 -25.012 -28.822  1.00  0.00     0.051 A 
HETATM    6  C7  UNL     1      30.332 -25.925 -27.934  1.00  0.00     0.102 A 
HETATM    7  C9  UNL     1      28.845 -24.468 -31.105  1.00  0.00     0.274 C 
HETATM    8  F1  UNL     1      27.498 -24.811 -31.222  1.00  0.00    -0.236 F 
HETATM    9  C10 UNL     1      29.479 -24.743 -32.414  1.00  0.00     0.176 C 
HETATM   10  O3  UNL     1      30.029 -23.828 -33.006  1.00  0.00    -0.294 OA
HETATM   11  C11 UNL     1      29.427 -26.116 -32.963  1.00  0.00     0.129 C 
HETATM   12  C12 UNL     1      30.684 -26.390 -33.795  1.00  0.00     0.026 C 
HETATM   13  C13 UNL     1      29.417 -27.123 -31.869  1.00  0.00     0.171 C 
HETATM   14  O4  UNL     1      29.152 -28.343 -32.102  1.00  0.00    -0.291 OA
ENDROOT
BRANCH   1  15
HETATM   15  O1  UNL     1      31.155 -28.096 -27.472  1.00  0.00    -0.353 OA
HETATM   16  C1  UNL     1      30.509 -29.139 -26.816  1.00  0.00     0.210 C 
ENDBRANCH   1  15
BRANCH   6  17
HETATM   17  O2  UNL     1      30.652 -25.581 -26.627  1.00  0.00    -0.353 OA
HETATM   18  C8  UNL     1      31.965 -25.875 -26.185  1.00  0.00     0.210 C 
ENDBRANCH   6  17
TORSDOF 2
ENDMDL
MODEL 4
REMARK VINA RESULT: -4.415662612      8.836     11.594
REMARK  2 active torsions:
REMARK  status: ('A' for Active; 'I' for Inactive)
REMARK    1  A    between atoms: O1_2  and  C2_3 
REMARK    2  A    between atoms: C7_8  and  O2_9 
ROOT
HETATM    1  C2  UNL     1      25.342 -34.295 -38.133  1.00  0.00     0.102 A 
HETATM    2  C3  UNL     1      24.904 -33.012 -37.948  1.00  0.00     0.055 A 
HETATM    3  C4  UNL     1      25.337 -32.297 -36.825  1.00  0.00     0.023 A 
HETATM    4  C5  UNL     1      26.194 -32.863 -35.908  1.00  0.00    -0.001 A 
HETATM    5  C6  UNL     1      26.630 -34.157 -36.103  1.00  0.00     0.051 A 
HETATM    6  C7  UNL     1      26.207 -34.884 -37.219  1.00  0.00     0.102 A 
HETATM    7  C9  UNL     1      26.605 -32.037 -34.744  1.00  0.00     0.274 C 
HETATM    8  F1  UNL     1      25.530 -32.000 -33.857  1.00  0.00    -0.236 F 
HETATM    9  C10 UNL     1      26.815 -30.656 -35.232  1.00  0.00     0.176 C 
HETATM   10  O3  UNL     1      27.899 -30.124 -35.051  1.00  0.00    -0.294 OA
HETATM   11  C11 UNL     1      25.705 -29.963 -35.925  1.00  0.00     0.129 C 
HETATM   12  C12 UNL     1      26.269 -29.000 -36.974  1.00  0.00     0.026 C 
HETATM   13  C13 UNL     1      24.851 -30.934 -36.659  1.00  0.00     0.171 C 
HETATM   14  O4  UNL     1      23.724 -30.590 -37.134  1.00  0.00    -0.291 OA
ENDROOT
BRANCH   1  15
HETATM   15  O1  UNL     1      24.944 -35.028 -39.215  1.00  0.00    -0.353 OA
HETATM   16  C1  UNL     1      23.682 -35.022 -39.801  1.00  0.00     0.210 C 
ENDBRANCH   1  15
BRANCH   6  17
HETATM   17  O2  UNL     1      26.624 -36.189 -37.450  1.00  0.00    -0.353 OA
HETATM   18  C8  UNL     1      28.020 -36.432 -37.446  1.00  0.00     0.210 C 
ENDBRANCH   6  17
TORSDOF 2
ENDMDL
MODEL 5
REMARK VINA RESULT: -4.374453455      8.898     11.227
REMARK  2 active torsions:
REMARK  status: ('A' for Active; 'I' for Inactive)
REMARK    1  A    between atoms: O1_2  and  C2_3 
REMARK    2  A    between atoms: C7_8  and  O2_9 
ROOT
HETATM    1  C2  UNL     1      25.354 -34.265 -35.839  1.00  0.00     0.102 A 
HETATM    2  C3  UNL     1      25.319 -33.346 -34.826  1.00  0.00     0.055 A 
HETATM    3  C4  UNL     1      25.229 -31.984 -35.141  1.00  0.00     0.023 A 
HETATM    4  C5  UNL     1      25.176 -31.558 -36.449  1.00  0.00    -0.001 A 
HETATM    5  C6  UNL     1      25.212 -32.493 -37.463  1.00  0.00     0.051 A 
HETATM    6  C7  UNL     1      25.301 -33.855 -37.166  1.00  0.00     0.102 A 
HETATM    7  C9  UNL     1      25.082 -30.097 -36.698  1.00  0.00     0.274 C 
HETATM    8  F1  UNL     1      26.346 -29.553 -36.473  1.00  0.00    -0.236 F 
HETATM    9  C10 UNL     1      24.176 -29.530 -35.673  1.00  0.00     0.176 C 
HETATM   10  O3  UNL     1      23.192 -28.906 -36.036  1.00  0.00    -0.294 OA
HETATM   11  C11 UNL     1      24.491 -29.739 -34.242  1.00  0.00     0.129 C 
HETATM   12  C12 UNL     1      23.194 -29.817 -33.432  1.00  0.00     0.026 C 
HETATM   13  C13 UNL     1      25.195 -31.033 -34.038  1.00  0.00     0.171 C 
HETATM   14  O4  UNL     1      25.753 -31.310 -32.932  1.00  0.00    -0.291 OA
ENDROOT
BRANCH   1  15
HETATM   15  O1  UNL     1      25.441 -35.602 -35.575  1.00  0.00    -0.353 OA
HETATM   16  C1  UNL     1      24.681 -36.316 -34.654  1.00  0.00     0.210 C 
ENDBRANCH   1  15
BRANCH   6  17
HETATM   17  O2  UNL     1      25.339 -34.826 -38.159  1.00  0.00    -0.353 OA
HETATM   18  C8  UNL     1      25.125 -34.396 -39.491  1.00  0.00     0.210 C 
ENDBRANCH   6  17
TORSDOF 2
ENDMDL
