MODEL 1
REMARK VINA RESULT: -5.857060460      0.000      0.000
REMARK  5 active torsions:
REMARK  status: ('A' for Active; 'I' for Inactive)
REMARK    1  A    between atoms: S1_2  and  C2_3 
REMARK    2  A    between atoms: C3_6  and  C4_7 
REMARK    3  A    between atoms: C4_7  and  N2_8 
REMARK    4  A    between atoms: N2_8  and  C6_10 
REMARK    5  A    between atoms: C6_10  and  C8_12 
ROOT
HETATM    1  C2  UNL     1      58.523 -14.704 -24.999  1.00  0.00     0.141 A 
HETATM    2  N1  UNL     1      59.047 -14.352 -26.110  1.00  0.00    -0.358 N 
ATOM      3  H1  UNL     1      59.530 -14.995 -26.738  1.00  0.00     0.162 HD
HETATM    4  C3  UNL     1      58.880 -12.956 -26.375  1.00  0.00     0.176 A 
HETATM    5  C9  UNL     1      58.129 -12.505 -25.167  1.00  0.00     0.119 A 
HETATM    6  N3  UNL     1      57.672 -11.205 -24.844  1.00  0.00    -0.085 NA
HETATM    7  N4  UNL     1      57.957 -13.529 -24.434  1.00  0.00    -0.327 N 
ATOM      8  H4  UNL     1      57.467 -13.510 -23.539  1.00  0.00     0.169 HD
ENDROOT
BRANCH   4   9
HETATM    9  C4  UNL     1      57.986 -12.651 -27.557  1.00  0.00     0.304 C 
BRANCH   9  10
HETATM   10  N2  UNL     1      56.884 -13.586 -27.697  1.00  0.00     0.091 N 
HETATM   11  C5  UNL     1      55.612 -12.928 -27.478  1.00  0.00     0.310 C 
BRANCH  10  12
HETATM   12  C6  UNL     1      56.972 -14.186 -29.014  1.00  0.00     0.232 C 
HETATM   13  C7  UNL     1      57.764 -13.357 -29.999  1.00  0.00     0.044 C 
BRANCH  12  14
HETATM   14  C8  UNL     1      55.612 -14.551 -29.546  1.00  0.00     0.150 C 
HETATM   15 CL1  UNL     1      55.543 -14.180 -31.302  1.00  0.00    -0.128 Cl
ENDBRANCH  12  14
ENDBRANCH  10  12
ENDBRANCH   9  10
ENDBRANCH   4   9
BRANCH   1  16
HETATM   16  S1  UNL     1      58.540 -16.366 -24.355  1.00  0.00    -0.099 SA
HETATM   17  C1  UNL     1      58.204 -16.305 -22.593  1.00  0.00     0.099 C 
ENDBRANCH   1  16
TORSDOF 5
ENDMDL
MODEL 2
REMARK VINA RESULT: -5.762740045      0.857      1.221
REMARK  5 active torsions:
REMARK  status: ('A' for Active; 'I' for Inactive)
REMARK    1  A    between atoms: S1_2  and  C2_3 
REMARK    2  A    between atoms: C3_6  and  C4_7 
REMARK    3  A    between atoms: C4_7  and  N2_8 
REMARK    4  A    between atoms: N2_8  and  C6_10 
REMARK    5  A    between atoms: C6_10  and  C8_12 
ROOT
HETATM    1  C2  UNL     1      58.501 -14.626 -25.120  1.00  0.00     0.141 A 
HETATM    2  N1  UNL     1      59.010 -14.232 -26.224  1.00  0.00    -0.358 N 
ATOM      3  H1  UNL     1      59.479 -14.851 -26.885  1.00  0.00     0.162 HD
HETATM    4  C3  UNL     1      58.848 -12.825 -26.427  1.00  0.00     0.176 A 
HETATM    5  C9  UNL     1      58.119 -12.420 -25.190  1.00  0.00     0.119 A 
HETATM    6  N3  UNL     1      57.674 -11.133 -24.807  1.00  0.00    -0.085 NA
HETATM    7  N4  UNL     1      57.952 -13.473 -24.497  1.00  0.00    -0.327 N 
ATOM      8  H4  UNL     1      57.476 -13.488 -23.595  1.00  0.00     0.169 HD
ENDROOT
BRANCH   4   9
HETATM    9  C4  UNL     1      57.936 -12.467 -27.582  1.00  0.00     0.304 C 
BRANCH   9  10
HETATM   10  N2  UNL     1      56.881 -13.439 -27.801  1.00  0.00     0.091 N 
HETATM   11  C5  UNL     1      55.625 -12.979 -27.245  1.00  0.00     0.310 C 
BRANCH  10  12
HETATM   12  C6  UNL     1      56.792 -13.687 -29.227  1.00  0.00     0.232 C 
HETATM   13  C7  UNL     1      55.579 -14.497 -29.620  1.00  0.00     0.044 C 
BRANCH  12  14
HETATM   14  C8  UNL     1      58.068 -14.281 -29.764  1.00  0.00     0.150 C 
HETATM   15 CL1  UNL     1      58.516 -13.444 -31.288  1.00  0.00    -0.128 Cl
ENDBRANCH  12  14
ENDBRANCH  10  12
ENDBRANCH   9  10
ENDBRANCH   4   9
BRANCH   1  16
HETATM   16  S1  UNL     1      58.519 -16.314 -24.545  1.00  0.00    -0.099 SA
HETATM   17  C1  UNL     1      58.242 -16.322 -22.772  1.00  0.00     0.099 C 
ENDBRANCH   1  16
TORSDOF 5
ENDMDL
MODEL 3
REMARK VINA RESULT: -5.712461289      1.169      1.562
REMARK  5 active torsions:
REMARK  status: ('A' for Active; 'I' for Inactive)
REMARK    1  A    between atoms: S1_2  and  C2_3 
REMARK    2  A    between atoms: C3_6  and  C4_7 
REMARK    3  A    between atoms: C4_7  and  N2_8 
REMARK    4  A    between atoms: N2_8  and  C6_10 
REMARK    5  A    between atoms: C6_10  and  C8_12 
ROOT
HETATM    1  C2  UNL     1      58.060 -14.657 -24.001  1.00  0.00     0.141 A 
HETATM    2  N1  UNL     1      58.390 -14.725 -25.235  1.00  0.00    -0.358 N 
ATOM      3  H1  UNL     1      58.703 -15.582 -25.691  1.00  0.00     0.162 HD
HETATM    4  C3  UNL     1      58.268 -13.466 -25.902  1.00  0.00     0.176 A 
HETATM    5  C9  UNL     1      57.787 -12.582 -24.801  1.00  0.00     0.119 A 
HETATM    6  N3  UNL     1      57.485 -11.200 -24.844  1.00  0.00    -0.085 NA
HETATM    7  N4  UNL     1      57.689 -13.307 -23.761  1.00  0.00    -0.327 N 
ATOM      8  H4  UNL     1      57.377 -12.958 -22.854  1.00  0.00     0.169 HD
ENDROOT
BRANCH   4   9
HETATM    9  C4  UNL     1      57.190 -13.429 -26.964  1.00  0.00     0.304 C 
BRANCH   9  10
HETATM   10  N2  UNL     1      57.710 -13.561 -28.313  1.00  0.00     0.091 N 
HETATM   11  C5  UNL     1      58.021 -14.943 -28.618  1.00  0.00     0.310 C 
BRANCH  10  12
HETATM   12  C6  UNL     1      56.730 -13.005 -29.226  1.00  0.00     0.232 C 
HETATM   13  C7  UNL     1      55.392 -12.736 -28.578  1.00  0.00     0.044 C 
BRANCH  12  14
HETATM   14  C8  UNL     1      56.598 -13.843 -30.470  1.00  0.00     0.150 C 
HETATM   15 CL1  UNL     1      54.937 -14.522 -30.554  1.00  0.00    -0.128 Cl
ENDBRANCH  12  14
ENDBRANCH  10  12
ENDBRANCH   9  10
ENDBRANCH   4   9
BRANCH   1  16
HETATM   16  S1  UNL     1      58.089 -16.034 -22.869  1.00  0.00    -0.099 SA
HETATM   17  C1  UNL     1      58.095 -17.558 -23.817  1.00  0.00     0.099 C 
ENDBRANCH   1  16
TORSDOF 5
ENDMDL
MODEL 4
REMARK VINA RESULT: -5.347193104      3.492      5.670
REMARK  5 active torsions:
REMARK  status: ('A' for Active; 'I' for Inactive)
REMARK    1  A    between atoms: S1_2  and  C2_3 
REMARK    2  A    between atoms: C3_6  and  C4_7 
REMARK    3  A    between atoms: C4_7  and  N2_8 
REMARK    4  A    between atoms: N2_8  and  C6_10 
REMARK    5  A    between atoms: C6_10  and  C8_12 
ROOT
HETATM    1  C2  UNL     1      55.883 -13.770 -30.354  1.00  0.00     0.141 A 
HETATM    2  N1  UNL     1      56.298 -13.191 -29.293  1.00  0.00    -0.358 N 
ATOM      3  H1  UNL     1      55.688 -12.905 -28.527  1.00  0.00     0.162 HD
HETATM    4  C3  UNL     1      57.714 -12.989 -29.300  1.00  0.00     0.176 A 
HETATM    5  C9  UNL     1      58.099 -13.574 -30.617  1.00  0.00     0.119 A 
HETATM    6  N3  UNL     1      59.384 -13.667 -31.202  1.00  0.00    -0.085 NA
HETATM    7  N4  UNL     1      57.031 -13.997 -31.161  1.00  0.00    -0.327 N 
ATOM      8  H4  UNL     1      57.000 -14.449 -32.075  1.00  0.00     0.169 HD
ENDROOT
BRANCH   4   9
HETATM    9  C4  UNL     1      58.460 -13.792 -28.256  1.00  0.00     0.304 C 
BRANCH   9  10
HETATM   10  N2  UNL     1      57.810 -13.790 -26.958  1.00  0.00     0.091 N 
HETATM   11  C5  UNL     1      58.560 -14.574 -25.998  1.00  0.00     0.310 C 
BRANCH  10  12
HETATM   12  C6  UNL     1      57.654 -12.410 -26.539  1.00  0.00     0.232 C 
HETATM   13  C7  UNL     1      58.961 -11.739 -26.187  1.00  0.00     0.044 C 
BRANCH  12  14
HETATM   14  C8  UNL     1      56.636 -12.280 -25.437  1.00  0.00     0.150 C 
HETATM   15 CL1  UNL     1      57.444 -11.671 -23.953  1.00  0.00    -0.128 Cl
ENDBRANCH  12  14
ENDBRANCH  10  12
ENDBRANCH   9  10
ENDBRANCH   4   9
BRANCH   1  16
HETATM   16  S1  UNL     1      54.179 -14.180 -30.681  1.00  0.00    -0.099 SA
HETATM   17  C1  UNL     1      53.141 -12.837 -30.097  1.00  0.00     0.099 C 
ENDBRANCH   1  16
TORSDOF 5
ENDMDL
MODEL 5
REMARK VINA RESULT: -5.241873249      3.091      5.373
REMARK  5 active torsions:
REMARK  status: ('A' for Active; 'I' for Inactive)
REMARK    1  A    between atoms: S1_2  and  C2_3 
REMARK    2  A    between atoms: C3_6  and  C4_7 
REMARK    3  A    between atoms: C4_7  and  N2_8 
REMARK    4  A    between atoms: N2_8  and  C6_10 
REMARK    5  A    between atoms: C6_10  and  C8_12 
ROOT
HETATM    1  C2  UNL     1      57.740 -13.610 -29.980  1.00  0.00     0.141 A 
HETATM    2  N1  UNL     1      57.888 -13.899 -28.744  1.00  0.00    -0.358 N 
ATOM      3  H1  UNL     1      58.775 -14.190 -28.331  1.00  0.00     0.162 HD
HETATM    4  C3  UNL     1      56.670 -13.770 -28.004  1.00  0.00     0.176 A 
HETATM    5  C9  UNL     1      55.715 -13.333 -29.064  1.00  0.00     0.119 A 
HETATM    6  N3  UNL     1      54.335 -13.043 -28.946  1.00  0.00    -0.085 NA
HETATM    7  N4  UNL     1      56.374 -13.260 -30.149  1.00  0.00    -0.327 N 
ATOM      8  H4  UNL     1      55.966 -12.980 -31.042  1.00  0.00     0.169 HD
ENDROOT
BRANCH   4   9
HETATM    9  C4  UNL     1      56.684 -12.659 -26.976  1.00  0.00     0.304 C 
BRANCH   9  10
HETATM   10  N2  UNL     1      57.794 -12.755 -26.045  1.00  0.00     0.091 N 
HETATM   11  C5  UNL     1      58.669 -11.606 -26.158  1.00  0.00     0.310 C 
BRANCH  10  12
HETATM   12  C6  UNL     1      57.246 -12.898 -24.710  1.00  0.00     0.232 C 
HETATM   13  C7  UNL     1      57.379 -11.650 -23.870  1.00  0.00     0.044 C 
BRANCH  12  14
HETATM   14  C8  UNL     1      57.802 -14.112 -24.013  1.00  0.00     0.150 C 
HETATM   15 CL1  UNL     1      58.578 -15.187 -25.225  1.00  0.00    -0.128 Cl
ENDBRANCH  12  14
ENDBRANCH  10  12
ENDBRANCH   9  10
ENDBRANCH   4   9
BRANCH   1  16
HETATM   16  S1  UNL     1      59.047 -13.660 -31.193  1.00  0.00    -0.099 SA
HETATM   17  C1  UNL     1      59.335 -15.369 -31.659  1.00  0.00     0.099 C 
ENDBRANCH   1  16
TORSDOF 5
ENDMDL
