MODEL 1
REMARK VINA RESULT: -4.242692705      0.000      0.000
REMARK  4 active torsions:
REMARK  status: ('A' for Active; 'I' for Inactive)
REMARK    1  A    between atoms: C2_2  and  O1_3 
REMARK    2  A    between atoms: O1_3  and  C3_4 
REMARK    3  A    between atoms: C7_9  and  O2_10 
REMARK    4  A    between atoms: C11_15  and  O4_16 
ROOT
HETATM    1  C3  UNL     1      59.289 -22.654 -33.452  1.00  0.00     0.129 C 
HETATM    2  C4  UNL     1      59.933 -23.151 -34.731  1.00  0.00     0.035 C 
HETATM    3  C5  UNL     1      61.171 -22.336 -35.051  1.00  0.00     0.043 C 
HETATM    4  C6  UNL     1      62.132 -22.346 -33.885  1.00  0.00     0.212 C 
HETATM    5  F1  UNL     1      63.323 -21.788 -34.194  1.00  0.00    -0.246 F 
HETATM    6  C7  UNL     1      61.478 -21.802 -32.636  1.00  0.00     0.157 C 
HETATM    7  C9  UNL     1      62.411 -21.982 -31.513  1.00  0.00     0.167 C 
HETATM    8  O3  UNL     1      63.325 -21.227 -31.296  1.00  0.00    -0.294 OA
HETATM    9  C10 UNL     1      62.216 -23.138 -30.612  1.00  0.00     0.113 C 
HETATM   10  C11 UNL     1      60.844 -23.008 -29.992  1.00  0.00     0.125 C 
HETATM   11  C12 UNL     1      59.780 -22.612 -30.986  1.00  0.00     0.043 C 
HETATM   12  C13 UNL     1      60.318 -22.780 -32.370  1.00  0.00     0.062 C 
ENDROOT
BRANCH   1  13
HETATM   13  O1  UNL     1      58.866 -21.368 -33.676  1.00  0.00    -0.386 OA
BRANCH  13  14
HETATM   14  C2  UNL     1      57.522 -21.240 -33.920  1.00  0.00     0.163 C 
HETATM   15  C1  UNL     1      56.640 -22.031 -33.010  1.00  0.00     0.033 C 
ENDBRANCH  13  14
ENDBRANCH   1  13
BRANCH   6  16
HETATM   16  O2  UNL     1      60.922 -20.575 -32.777  1.00  0.00    -0.374 OA
HETATM   17  C8  UNL     1      61.482 -19.517 -32.140  1.00  0.00     0.203 C 
ENDBRANCH   6  16
BRANCH  10  18
HETATM   18  O4  UNL     1      60.933 -22.011 -29.020  1.00  0.00    -0.395 OA
ATOM     19  H4  UNL     1      60.068 -21.923 -28.636  1.00  0.00     0.210 HD
ENDBRANCH  10  18
TORSDOF 4
ENDMDL
MODEL 2
REMARK VINA RESULT: -3.976109574      1.991      3.441
REMARK  4 active torsions:
REMARK  status: ('A' for Active; 'I' for Inactive)
REMARK    1  A    between atoms: C2_2  and  O1_3 
REMARK    2  A    between atoms: O1_3  and  C3_4 
REMARK    3  A    between atoms: C7_9  and  O2_10 
REMARK    4  A    between atoms: C11_15  and  O4_16 
ROOT
HETATM    1  C3  UNL     1      59.224 -20.817 -33.294  1.00  0.00     0.129 C 
HETATM    2  C4  UNL     1      58.912 -19.348 -33.086  1.00  0.00     0.035 C 
HETATM    3  C5  UNL     1      59.885 -18.736 -32.099  1.00  0.00     0.043 C 
HETATM    4  C6  UNL     1      61.312 -18.961 -32.545  1.00  0.00     0.212 C 
HETATM    5  F1  UNL     1      62.200 -18.276 -31.793  1.00  0.00    -0.246 F 
HETATM    6  C7  UNL     1      61.608 -20.434 -32.699  1.00  0.00     0.157 C 
HETATM    7  C9  UNL     1      62.952 -20.575 -33.278  1.00  0.00     0.167 C 
HETATM    8  O3  UNL     1      63.959 -20.498 -32.619  1.00  0.00    -0.294 OA
HETATM    9  C10 UNL     1      63.071 -20.823 -34.730  1.00  0.00     0.113 C 
HETATM   10  C11 UNL     1      62.354 -22.118 -35.034  1.00  0.00     0.125 C 
HETATM   11  C12 UNL     1      61.022 -22.235 -34.334  1.00  0.00     0.043 C 
HETATM   12  C13 UNL     1      60.633 -20.896 -33.798  1.00  0.00     0.062 C 
ENDROOT
BRANCH   1  13
HETATM   13  O1  UNL     1      59.021 -21.455 -32.097  1.00  0.00    -0.386 OA
BRANCH  13  14
HETATM   14  C2  UNL     1      57.707 -21.713 -31.798  1.00  0.00     0.163 C 
HETATM   15  C1  UNL     1      56.913 -22.303 -32.918  1.00  0.00     0.033 C 
ENDBRANCH  13  14
ENDBRANCH   1  13
BRANCH   6  16
HETATM   16  O2  UNL     1      61.334 -21.184 -31.604  1.00  0.00    -0.374 OA
HETATM   17  C8  UNL     1      62.238 -22.104 -31.188  1.00  0.00     0.203 C 
ENDBRANCH   6  16
BRANCH  10  18
HETATM   18  O4  UNL     1      63.179 -23.151 -34.587  1.00  0.00    -0.395 OA
ATOM     19  H4  UNL     1      62.991 -23.908 -35.131  1.00  0.00     0.210 HD
ENDBRANCH  10  18
TORSDOF 4
ENDMDL
MODEL 3
REMARK VINA RESULT: -3.951754446      2.026      4.159
REMARK  4 active torsions:
REMARK  status: ('A' for Active; 'I' for Inactive)
REMARK    1  A    between atoms: C2_2  and  O1_3 
REMARK    2  A    between atoms: O1_3  and  C3_4 
REMARK    3  A    between atoms: C7_9  and  O2_10 
REMARK    4  A    between atoms: C11_15  and  O4_16 
ROOT
HETATM    1  C3  UNL     1      61.278 -22.647 -33.676  1.00  0.00     0.129 C 
HETATM    2  C4  UNL     1      62.214 -23.151 -32.596  1.00  0.00     0.035 C 
HETATM    3  C5  UNL     1      62.123 -22.271 -31.365  1.00  0.00     0.043 C 
HETATM    4  C6  UNL     1      60.693 -22.171 -30.884  1.00  0.00     0.212 C 
HETATM    5  F1  UNL     1      60.594 -21.550 -29.689  1.00  0.00    -0.246 F 
HETATM    6  C7  UNL     1      59.792 -21.623 -31.965  1.00  0.00     0.157 C 
HETATM    7  C9  UNL     1      58.403 -21.697 -31.488  1.00  0.00     0.167 C 
HETATM    8  O3  UNL     1      57.923 -20.875 -30.747  1.00  0.00    -0.294 OA
HETATM    9  C10 UNL     1      57.562 -22.826 -31.937  1.00  0.00     0.113 C 
HETATM   10  C11 UNL     1      57.477 -22.762 -33.444  1.00  0.00     0.125 C 
HETATM   11  C12 UNL     1      58.805 -22.475 -34.101  1.00  0.00     0.043 C 
HETATM   12  C13 UNL     1      59.896 -22.662 -33.097  1.00  0.00     0.062 C 
ENDROOT
BRANCH   1  13
HETATM   13  O1  UNL     1      61.714 -21.401 -34.051  1.00  0.00    -0.386 OA
BRANCH  13  14
HETATM   14  C2  UNL     1      62.563 -21.390 -35.130  1.00  0.00     0.163 C 
HETATM   15  C1  UNL     1      63.949 -20.918 -34.833  1.00  0.00     0.033 C 
ENDBRANCH  13  14
ENDBRANCH   1  13
BRANCH   6  16
HETATM   16  O2  UNL     1      60.195 -20.441 -32.491  1.00  0.00    -0.374 OA
HETATM   17  C8  UNL     1      60.212 -19.337 -31.704  1.00  0.00     0.203 C 
ENDBRANCH   6  16
BRANCH  10  18
HETATM   18  O4  UNL     1      56.598 -21.722 -33.754  1.00  0.00    -0.395 OA
ATOM     19  H4  UNL     1      56.212 -21.931 -34.598  1.00  0.00     0.210 HD
ENDBRANCH  10  18
TORSDOF 4
ENDMDL
MODEL 4
REMARK VINA RESULT: -3.919513715      2.086      4.277
REMARK  4 active torsions:
REMARK  status: ('A' for Active; 'I' for Inactive)
REMARK    1  A    between atoms: C2_2  and  O1_3 
REMARK    2  A    between atoms: O1_3  and  C3_4 
REMARK    3  A    between atoms: C7_9  and  O2_10 
REMARK    4  A    between atoms: C11_15  and  O4_16 
ROOT
HETATM    1  C3  UNL     1      62.649 -21.583 -34.016  1.00  0.00     0.129 C 
HETATM    2  C4  UNL     1      62.239 -22.227 -35.326  1.00  0.00     0.035 C 
HETATM    3  C5  UNL     1      61.057 -23.151 -35.113  1.00  0.00     0.043 C 
HETATM    4  C6  UNL     1      59.914 -22.413 -34.455  1.00  0.00     0.212 C 
HETATM    5  F1  UNL     1      58.782 -23.148 -34.415  1.00  0.00    -0.246 F 
HETATM    6  C7  UNL     1      60.338 -21.822 -33.131  1.00  0.00     0.157 C 
HETATM    7  C9  UNL     1      59.234 -20.995 -32.622  1.00  0.00     0.167 C 
HETATM    8  O3  UNL     1      58.281 -21.459 -32.047  1.00  0.00    -0.294 OA
HETATM    9  C10 UNL     1      59.297 -19.532 -32.824  1.00  0.00     0.113 C 
HETATM   10  C11 UNL     1      60.542 -19.028 -32.132  1.00  0.00     0.125 C 
HETATM   11  C12 UNL     1      61.751 -19.898 -32.380  1.00  0.00     0.043 C 
HETATM   12  C13 UNL     1      61.456 -20.832 -33.508  1.00  0.00     0.062 C 
ENDROOT
BRANCH   1  13
HETATM   13  O1  UNL     1      63.079 -22.584 -33.182  1.00  0.00    -0.386 OA
BRANCH  13  14
HETATM   14  C2  UNL     1      64.437 -22.629 -32.991  1.00  0.00     0.163 C 
HETATM   15  C1  UNL     1      65.144 -21.329 -33.195  1.00  0.00     0.033 C 
ENDBRANCH  13  14
ENDBRANCH   1  13
BRANCH   6  16
HETATM   16  O2  UNL     1      60.885 -22.709 -32.265  1.00  0.00    -0.374 OA
HETATM   17  C8  UNL     1      60.208 -23.038 -31.138  1.00  0.00     0.203 C 
ENDBRANCH   6  16
BRANCH  10  18
HETATM   18  O4  UNL     1      60.271 -19.029 -30.763  1.00  0.00    -0.395 OA
ATOM     19  H4  UNL     1      60.940 -19.564 -30.351  1.00  0.00     0.210 HD
ENDBRANCH  10  18
TORSDOF 4
ENDMDL
MODEL 5
REMARK VINA RESULT: -3.913774191      1.653      3.399
REMARK  4 active torsions:
REMARK  status: ('A' for Active; 'I' for Inactive)
REMARK    1  A    between atoms: C2_2  and  O1_3 
REMARK    2  A    between atoms: O1_3  and  C3_4 
REMARK    3  A    between atoms: C7_9  and  O2_10 
REMARK    4  A    between atoms: C11_15  and  O4_16 
ROOT
HETATM    1  C3  UNL     1      59.610 -22.060 -30.710  1.00  0.00     0.129 C 
HETATM    2  C4  UNL     1      60.651 -22.745 -29.846  1.00  0.00     0.035 C 
HETATM    3  C5  UNL     1      61.848 -23.151 -30.682  1.00  0.00     0.043 C 
HETATM    4  C6  UNL     1      62.412 -21.959 -31.421  1.00  0.00     0.212 C 
HETATM    5  F1  UNL     1      63.584 -22.239 -32.030  1.00  0.00    -0.246 F 
HETATM    6  C7  UNL     1      61.367 -21.325 -32.309  1.00  0.00     0.157 C 
HETATM    7  C9  UNL     1      61.932 -20.092 -32.876  1.00  0.00     0.167 C 
HETATM    8  O3  UNL     1      62.667 -20.089 -33.832  1.00  0.00    -0.294 OA
HETATM    9  C10 UNL     1      61.582 -18.801 -32.246  1.00  0.00     0.113 C 
HETATM   10  C11 UNL     1      60.082 -18.643 -32.329  1.00  0.00     0.125 C 
HETATM   11  C12 UNL     1      59.333 -19.906 -31.978  1.00  0.00     0.043 C 
HETATM   12  C13 UNL     1      60.274 -20.866 -31.326  1.00  0.00     0.062 C 
ENDROOT
BRANCH   1  13
HETATM   13  O1  UNL     1      59.159 -22.982 -31.620  1.00  0.00    -0.386 OA
BRANCH  13  14
HETATM   14  C2  UNL     1      57.797 -23.151 -31.639  1.00  0.00     0.163 C 
HETATM   15  C1  UNL     1      57.120 -22.653 -32.874  1.00  0.00     0.033 C 
ENDBRANCH  13  14
ENDBRANCH   1  13
BRANCH   6  16
HETATM   16  O2  UNL     1      60.770 -22.177 -33.177  1.00  0.00    -0.374 OA
HETATM   17  C8  UNL     1      61.438 -22.565 -34.291  1.00  0.00     0.203 C 
ENDBRANCH   6  16
BRANCH  10  18
HETATM   18  O4  UNL     1      59.784 -18.307 -33.651  1.00  0.00    -0.395 OA
ATOM     19  H4  UNL     1      58.855 -18.467 -33.773  1.00  0.00     0.210 HD
ENDBRANCH  10  18
TORSDOF 4
ENDMDL
