MODEL 1
REMARK VINA RESULT: -5.931628984      0.000      0.000
REMARK  3 active torsions:
REMARK  status: ('A' for Active; 'I' for Inactive)
REMARK    1  A    between atoms: C2_2  and  S1_5 
REMARK    2  A    between atoms: S1_5  and  C4_6 
REMARK       I    between atoms: C4_6  and  N2_8 
REMARK       I    between atoms: N2_8  and  C5_10 
REMARK    3  A    between atoms: C5_10  and  C6_12 
ROOT
HETATM    1  C1  UNL     1       5.163  16.749  13.801  1.00  0.00     0.037 C 
HETATM    2  C2  UNL     1       4.230  17.931  13.837  1.00  0.00     0.159 C 
HETATM    3  C3  UNL     1       2.868  17.455  14.074  1.00  0.00     0.074 C 
HETATM    4  N1  UNL     1       1.782  17.085  14.263  1.00  0.00    -0.196 NA
ENDROOT
BRANCH   2   5
HETATM    5  S1  UNL     1       4.651  19.127  15.130  1.00  0.00    -0.050 SA
BRANCH   5   6
HETATM    6  C4  UNL     1       4.060  20.728  14.607  1.00  0.00     0.287 C 
HETATM    7  O1  UNL     1       4.948  21.601  14.453  1.00  0.00    -0.260 OA
HETATM    8  N2  UNL     1       2.702  20.969  14.390  1.00  0.00    -0.287 N 
HETATM    9  C5  UNL     1       2.207  22.202  13.974  1.00  0.00     0.238 C 
ATOM     10  H2  UNL     1       2.042  20.207  14.543  1.00  0.00     0.172 HD
HETATM   11  O2  UNL     1       0.978  22.360  13.786  1.00  0.00    -0.272 OA
BRANCH   9  12
HETATM   12  C6  UNL     1       3.098  23.349  13.744  1.00  0.00     0.217 C 
HETATM   13 CL1  UNL     1       2.804  24.642  14.941  1.00  0.00    -0.121 Cl
ENDBRANCH   9  12
ENDBRANCH   5   6
ENDBRANCH   2   5
TORSDOF 3
ENDMDL
MODEL 2
REMARK VINA RESULT: -5.905743106      2.012      2.202
REMARK  3 active torsions:
REMARK  status: ('A' for Active; 'I' for Inactive)
REMARK    1  A    between atoms: C2_2  and  S1_5 
REMARK    2  A    between atoms: S1_5  and  C4_6 
REMARK       I    between atoms: C4_6  and  N2_8 
REMARK       I    between atoms: N2_8  and  C5_10 
REMARK    3  A    between atoms: C5_10  and  C6_12 
ROOT
HETATM    1  C1  UNL     1       3.457  16.822  14.301  1.00  0.00     0.037 C 
HETATM    2  C2  UNL     1       3.630  18.264  14.700  1.00  0.00     0.159 C 
HETATM    3  C3  UNL     1       5.057  18.583  14.726  1.00  0.00     0.074 C 
HETATM    4  N1  UNL     1       6.189  18.845  14.749  1.00  0.00    -0.196 NA
ENDROOT
BRANCH   2   5
HETATM    5  S1  UNL     1       2.807  19.415  13.570  1.00  0.00    -0.050 SA
BRANCH   5   6
HETATM    6  C4  UNL     1       2.804  21.027  14.339  1.00  0.00     0.287 C 
HETATM    7  O1  UNL     1       3.881  21.664  14.248  1.00  0.00    -0.260 OA
HETATM    8  N2  UNL     1       1.672  21.523  14.991  1.00  0.00    -0.287 N 
HETATM    9  C5  UNL     1       1.633  22.777  15.593  1.00  0.00     0.238 C 
ATOM     10  H2  UNL     1       0.837  20.940  15.026  1.00  0.00     0.172 HD
HETATM   11  O2  UNL     1       0.587  23.176  16.156  1.00  0.00    -0.272 OA
BRANCH   9  12
HETATM   12  C6  UNL     1       2.803  23.667  15.590  1.00  0.00     0.217 C 
HETATM   13 CL1  UNL     1       2.841  24.675  14.115  1.00  0.00    -0.121 Cl
ENDBRANCH   9  12
ENDBRANCH   5   6
ENDBRANCH   2   5
TORSDOF 3
ENDMDL
MODEL 3
REMARK VINA RESULT: -5.560170725      3.255      5.465
REMARK  3 active torsions:
REMARK  status: ('A' for Active; 'I' for Inactive)
REMARK    1  A    between atoms: C2_2  and  S1_5 
REMARK    2  A    between atoms: S1_5  and  C4_6 
REMARK       I    between atoms: C4_6  and  N2_8 
REMARK       I    between atoms: N2_8  and  C5_10 
REMARK    3  A    between atoms: C5_10  and  C6_12 
ROOT
HETATM    1  C1  UNL     1       2.335  23.113  16.205  1.00  0.00     0.037 C 
HETATM    2  C2  UNL     1       2.177  23.422  14.739  1.00  0.00     0.159 C 
HETATM    3  C3  UNL     1       3.498  23.661  14.158  1.00  0.00     0.074 C 
HETATM    4  N1  UNL     1       4.543  23.853  13.688  1.00  0.00    -0.196 NA
ENDROOT
BRANCH   2   5
HETATM    5  S1  UNL     1       1.380  22.084  13.815  1.00  0.00    -0.050 SA
BRANCH   5   6
HETATM    6  C4  UNL     1       2.372  20.614  14.019  1.00  0.00     0.287 C 
HETATM    7  O1  UNL     1       1.769  19.531  13.823  1.00  0.00    -0.260 OA
HETATM    8  N2  UNL     1       3.722  20.687  14.371  1.00  0.00    -0.287 N 
HETATM    9  C5  UNL     1       4.526  19.562  14.530  1.00  0.00     0.238 C 
ATOM     10  H2  UNL     1       4.137  21.607  14.518  1.00  0.00     0.172 HD
HETATM   11  O2  UNL     1       5.735  19.687  14.838  1.00  0.00    -0.272 OA
BRANCH   9  12
HETATM   12  C6  UNL     1       3.994  18.205  14.344  1.00  0.00     0.217 C 
HETATM   13 CL1  UNL     1       5.298  17.051  13.945  1.00  0.00    -0.121 Cl
ENDBRANCH   9  12
ENDBRANCH   5   6
ENDBRANCH   2   5
TORSDOF 3
ENDMDL
MODEL 4
REMARK VINA RESULT: -5.546640661      3.393      5.331
REMARK  3 active torsions:
REMARK  status: ('A' for Active; 'I' for Inactive)
REMARK    1  A    between atoms: C2_2  and  S1_5 
REMARK    2  A    between atoms: S1_5  and  C4_6 
REMARK       I    between atoms: C4_6  and  N2_8 
REMARK       I    between atoms: N2_8  and  C5_10 
REMARK    3  A    between atoms: C5_10  and  C6_12 
ROOT
HETATM    1  C1  UNL     1       2.762  25.012  15.037  1.00  0.00     0.037 C 
HETATM    2  C2  UNL     1       2.920  23.530  15.255  1.00  0.00     0.159 C 
HETATM    3  C3  UNL     1       1.849  23.061  16.134  1.00  0.00     0.074 C 
HETATM    4  N1  UNL     1       1.001  22.681  16.832  1.00  0.00    -0.196 NA
ENDROOT
BRANCH   2   5
HETATM    5  S1  UNL     1       2.856  22.576  13.717  1.00  0.00    -0.050 SA
BRANCH   5   6
HETATM    6  C4  UNL     1       3.303  20.891  14.101  1.00  0.00     0.287 C 
HETATM    7  O1  UNL     1       4.386  20.753  14.720  1.00  0.00    -0.260 OA
HETATM    8  N2  UNL     1       2.491  19.817  13.729  1.00  0.00    -0.287 N 
HETATM    9  C5  UNL     1       2.805  18.492  14.018  1.00  0.00     0.238 C 
ATOM     10  H2  UNL     1       1.629  20.013  13.221  1.00  0.00     0.172 HD
HETATM   11  O2  UNL     1       2.034  17.568  13.668  1.00  0.00    -0.272 OA
BRANCH   9  12
HETATM   12  C6  UNL     1       4.037  18.134  14.736  1.00  0.00     0.217 C 
HETATM   13 CL1  UNL     1       4.892  16.795  13.920  1.00  0.00    -0.121 Cl
ENDBRANCH   9  12
ENDBRANCH   5   6
ENDBRANCH   2   5
TORSDOF 3
ENDMDL
MODEL 5
REMARK VINA RESULT: -5.531470559      3.489      5.614
REMARK  3 active torsions:
REMARK  status: ('A' for Active; 'I' for Inactive)
REMARK    1  A    between atoms: C2_2  and  S1_5 
REMARK    2  A    between atoms: S1_5  and  C4_6 
REMARK       I    between atoms: C4_6  and  N2_8 
REMARK       I    between atoms: N2_8  and  C5_10 
REMARK    3  A    between atoms: C5_10  and  C6_12 
ROOT
HETATM    1  C1  UNL     1       2.782  23.866  13.216  1.00  0.00     0.037 C 
HETATM    2  C2  UNL     1       2.981  22.734  14.190  1.00  0.00     0.159 C 
HETATM    3  C3  UNL     1       2.602  23.185  15.529  1.00  0.00     0.074 C 
HETATM    4  N1  UNL     1       2.303  23.535  16.595  1.00  0.00    -0.196 NA
ENDROOT
BRANCH   2   5
HETATM    5  S1  UNL     1       2.001  21.267  13.781  1.00  0.00    -0.050 SA
BRANCH   5   6
HETATM    6  C4  UNL     1       3.048  19.836  13.986  1.00  0.00     0.287 C 
HETATM    7  O1  UNL     1       2.506  18.735  13.722  1.00  0.00    -0.260 OA
HETATM    8  N2  UNL     1       4.373  19.955  14.411  1.00  0.00    -0.287 N 
HETATM    9  C5  UNL     1       5.219  18.863  14.574  1.00  0.00     0.238 C 
ATOM     10  H2  UNL     1       4.737  20.887  14.611  1.00  0.00     0.172 HD
HETATM   11  O2  UNL     1       6.404  19.029  14.948  1.00  0.00    -0.272 OA
BRANCH   9  12
HETATM   12  C6  UNL     1       4.760  17.491  14.314  1.00  0.00     0.217 C 
HETATM   13 CL1  UNL     1       6.122  16.335  14.363  1.00  0.00    -0.121 Cl
ENDBRANCH   9  12
ENDBRANCH   5   6
ENDBRANCH   2   5
TORSDOF 3
ENDMDL
