MODEL 1
REMARK VINA RESULT: -4.802580149      0.000      0.000
REMARK  2 active torsions:
REMARK  status: ('A' for Active; 'I' for Inactive)
REMARK    1  A    between atoms: C2_2  and  N1_3 
REMARK    2  A    between atoms: C2_2  and  C4_7 
ROOT
HETATM    1  N1  UNL     1     -19.930  -0.332  24.707  1.00  0.00    -0.319 N 
ATOM      2  H1  UNL     1     -19.094  -0.916  24.716  1.00  0.00     0.172 HD
HETATM    3  C3  UNL     1     -20.129   0.665  25.669  1.00  0.00     0.178 C 
HETATM    4  N2  UNL     1     -20.308   1.491  26.458  1.00  0.00    -0.172 NA
ENDROOT
BRANCH   1   5
HETATM    5  C2  UNL     1     -20.948  -0.503  23.705  1.00  0.00     0.137 C 
HETATM    6  C1  UNL     1     -21.794   0.745  23.584  1.00  0.00     0.039 C 
BRANCH   5   7
HETATM    7  C4  UNL     1     -21.856  -1.636  24.018  1.00  0.00     0.054 C 
HETATM    8  N3  UNL     1     -22.443  -1.952  25.105  1.00  0.00    -0.270 N 
HETATM    9  O1  UNL     1     -23.202  -3.094  24.953  1.00  0.00    -0.268 OA
ATOM     10  H3  UNL     1     -22.362  -1.427  25.976  1.00  0.00     0.194 HD
HETATM   11  C5  UNL     1     -22.542  -3.822  23.918  1.00  0.00     0.103 C 
HETATM   12  C6  UNL     1     -23.391  -4.851  23.280  1.00  0.00     0.050 C 
HETATM   13  C7  UNL     1     -21.243  -4.314  24.466  1.00  0.00     0.050 C 
HETATM   14  C8  UNL     1     -22.225  -2.649  22.980  1.00  0.00     0.168 C 
HETATM   15 CL1  UNL     1     -20.869  -3.020  21.918  1.00  0.00    -0.115 Cl
ENDBRANCH   5   7
ENDBRANCH   1   5
TORSDOF 2
ENDMDL
MODEL 2
REMARK VINA RESULT: -4.581027903      2.155      2.530
REMARK  2 active torsions:
REMARK  status: ('A' for Active; 'I' for Inactive)
REMARK    1  A    between atoms: C2_2  and  N1_3 
REMARK    2  A    between atoms: C2_2  and  C4_7 
ROOT
HETATM    1  N1  UNL     1     -22.512  -0.133  24.549  1.00  0.00    -0.319 N 
ATOM      2  H1  UNL     1     -23.282  -0.210  23.883  1.00  0.00     0.172 HD
HETATM    3  C3  UNL     1     -22.219   1.079  25.182  1.00  0.00     0.178 C 
HETATM    4  N2  UNL     1     -21.962   2.074  25.712  1.00  0.00    -0.172 NA
ENDROOT
BRANCH   1   5
HETATM    5  C2  UNL     1     -21.690  -1.269  24.870  1.00  0.00     0.137 C 
HETATM    6  C1  UNL     1     -20.297  -0.828  25.260  1.00  0.00     0.039 C 
BRANCH   5   7
HETATM    7  C4  UNL     1     -21.564  -2.209  23.727  1.00  0.00     0.054 C 
HETATM    8  N3  UNL     1     -21.164  -2.012  22.532  1.00  0.00    -0.270 N 
HETATM    9  O1  UNL     1     -21.207  -3.174  21.790  1.00  0.00    -0.268 OA
ATOM     10  H3  UNL     1     -20.852  -1.111  22.172  1.00  0.00     0.194 HD
HETATM   11  C5  UNL     1     -22.254  -3.938  22.388  1.00  0.00     0.103 C 
HETATM   12  C6  UNL     1     -22.202  -5.379  22.059  1.00  0.00     0.050 C 
HETATM   13  C7  UNL     1     -23.546  -3.257  22.077  1.00  0.00     0.050 C 
HETATM   14  C8  UNL     1     -21.932  -3.654  23.861  1.00  0.00     0.168 C 
HETATM   15 CL1  UNL     1     -23.348  -3.874  24.886  1.00  0.00    -0.115 Cl
ENDBRANCH   5   7
ENDBRANCH   1   5
TORSDOF 2
ENDMDL
MODEL 3
REMARK VINA RESULT: -4.508366386      2.498      4.946
REMARK  2 active torsions:
REMARK  status: ('A' for Active; 'I' for Inactive)
REMARK    1  A    between atoms: C2_2  and  N1_3 
REMARK    2  A    between atoms: C2_2  and  C4_7 
ROOT
HETATM    1  N1  UNL     1     -21.533  -3.143  24.538  1.00  0.00    -0.319 N 
ATOM      2  H1  UNL     1     -21.138  -3.195  25.477  1.00  0.00     0.172 HD
HETATM    3  C3  UNL     1     -21.844  -4.300  23.816  1.00  0.00     0.178 C 
HETATM    4  N2  UNL     1     -22.104  -5.246  23.205  1.00  0.00    -0.172 NA
ENDROOT
BRANCH   1   5
HETATM    5  C2  UNL     1     -21.790  -1.875  23.909  1.00  0.00     0.137 C 
HETATM    6  C1  UNL     1     -21.368  -1.903  22.457  1.00  0.00     0.039 C 
BRANCH   5   7
HETATM    7  C4  UNL     1     -21.060  -0.764  24.571  1.00  0.00     0.054 C 
HETATM    8  N3  UNL     1     -20.182  -0.783  25.495  1.00  0.00    -0.270 N 
HETATM    9  O1  UNL     1     -19.761   0.490  25.816  1.00  0.00    -0.268 OA
ATOM     10  H3  UNL     1     -19.834  -1.633  25.939  1.00  0.00     0.194 HD
HETATM   11  C5  UNL     1     -20.881   1.320  25.510  1.00  0.00     0.103 C 
HETATM   12  C6  UNL     1     -20.537   2.751  25.355  1.00  0.00     0.050 C 
HETATM   13  C7  UNL     1     -21.951   1.025  26.509  1.00  0.00     0.050 C 
HETATM   14  C8  UNL     1     -21.298   0.664  24.187  1.00  0.00     0.168 C 
HETATM   15 CL1  UNL     1     -22.995   0.967  23.822  1.00  0.00    -0.115 Cl
ENDBRANCH   5   7
ENDBRANCH   1   5
TORSDOF 2
ENDMDL
MODEL 4
REMARK VINA RESULT: -4.410035700      2.408      3.328
REMARK  2 active torsions:
REMARK  status: ('A' for Active; 'I' for Inactive)
REMARK    1  A    between atoms: C2_2  and  N1_3 
REMARK    2  A    between atoms: C2_2  and  C4_7 
ROOT
HETATM    1  N1  UNL     1     -21.102  -1.542  22.749  1.00  0.00    -0.319 N 
ATOM      2  H1  UNL     1     -20.383  -0.828  22.636  1.00  0.00     0.172 HD
HETATM    3  C3  UNL     1     -21.352  -2.485  21.747  1.00  0.00     0.178 C 
HETATM    4  N2  UNL     1     -21.572  -3.270  20.927  1.00  0.00    -0.172 NA
ENDROOT
BRANCH   1   5
HETATM    5  C2  UNL     1     -21.897  -1.615  23.947  1.00  0.00     0.137 C 
HETATM    6  C1  UNL     1     -21.286  -0.775  25.046  1.00  0.00     0.039 C 
BRANCH   5   7
HETATM    7  C4  UNL     1     -22.018  -3.005  24.453  1.00  0.00     0.054 C 
HETATM    8  N3  UNL     1     -21.121  -3.875  24.708  1.00  0.00    -0.270 N 
HETATM    9  O1  UNL     1     -21.677  -5.052  25.166  1.00  0.00    -0.268 OA
ATOM     10  H3  UNL     1     -20.120  -3.721  24.589  1.00  0.00     0.194 HD
HETATM   11  C5  UNL     1     -22.972  -5.087  24.567  1.00  0.00     0.103 C 
HETATM   12  C6  UNL     1     -23.913  -6.010  25.238  1.00  0.00     0.050 C 
HETATM   13  C7  UNL     1     -22.788  -5.314  23.103  1.00  0.00     0.050 C 
HETATM   14  C8  UNL     1     -23.352  -3.612  24.755  1.00  0.00     0.168 C 
HETATM   15 CL1  UNL     1     -24.577  -3.107  23.593  1.00  0.00    -0.115 Cl
ENDBRANCH   5   7
ENDBRANCH   1   5
TORSDOF 2
ENDMDL
MODEL 5
REMARK VINA RESULT: -4.321522563      1.852      2.008
REMARK  2 active torsions:
REMARK  status: ('A' for Active; 'I' for Inactive)
REMARK    1  A    between atoms: C2_2  and  N1_3 
REMARK    2  A    between atoms: C2_2  and  C4_7 
ROOT
HETATM    1  N1  UNL     1     -20.652  -0.809  23.542  1.00  0.00    -0.319 N 
ATOM      2  H1  UNL     1     -20.306  -1.096  22.627  1.00  0.00     0.172 HD
HETATM    3  C3  UNL     1     -19.876  -0.016  24.395  1.00  0.00     0.178 C 
HETATM    4  N2  UNL     1     -19.246   0.637  25.112  1.00  0.00    -0.172 NA
ENDROOT
BRANCH   1   5
HETATM    5  C2  UNL     1     -21.956  -1.206  24.004  1.00  0.00     0.137 C 
HETATM    6  C1  UNL     1     -22.363  -0.396  25.215  1.00  0.00     0.039 C 
BRANCH   5   7
HETATM    7  C4  UNL     1     -22.003  -2.641  24.382  1.00  0.00     0.054 C 
HETATM    8  N3  UNL     1     -21.062  -3.459  24.647  1.00  0.00    -0.270 N 
HETATM    9  O1  UNL     1     -21.555  -4.710  24.953  1.00  0.00    -0.268 OA
ATOM     10  H3  UNL     1     -20.071  -3.219  24.634  1.00  0.00     0.194 HD
HETATM   11  C5  UNL     1     -22.787  -4.790  24.237  1.00  0.00     0.103 C 
HETATM   12  C6  UNL     1     -23.701  -5.839  24.740  1.00  0.00     0.050 C 
HETATM   13  C7  UNL     1     -22.459  -4.872  22.782  1.00  0.00     0.050 C 
HETATM   14  C8  UNL     1     -23.303  -3.371  24.509  1.00  0.00     0.168 C 
HETATM   15 CL1  UNL     1     -24.462  -2.860  23.284  1.00  0.00    -0.115 Cl
ENDBRANCH   5   7
ENDBRANCH   1   5
TORSDOF 2
ENDMDL
