MODEL 1
REMARK VINA RESULT: -4.917590946      0.000      0.000
REMARK  4 active torsions:
REMARK  status: ('A' for Active; 'I' for Inactive)
REMARK    1  A    between atoms: C2_2  and  C4_4 
REMARK    2  A    between atoms: C2_2  and  O1_6 
REMARK    3  A    between atoms: O1_6  and  C5_7 
REMARK    4  A    between atoms: N2_9  and  O2_11 
ROOT
HETATM    1  O1  UNL     1     -23.095  -3.702  22.186  1.00  0.00    -0.312 OA
ENDROOT
BRANCH   1   2
HETATM    2  C2  UNL     1     -22.527  -3.473  23.416  1.00  0.00     0.072 C 
HETATM    3  C1  UNL     1     -23.642  -3.254  24.431  1.00  0.00     0.047 C 
HETATM    4  C3  UNL     1     -21.617  -4.502  23.961  1.00  0.00     0.047 C 
BRANCH   2   5
HETATM    5  C4  UNL     1     -21.702  -2.181  23.262  1.00  0.00     0.123 C 
HETATM    6 BR1  UNL     1     -21.834  -1.084  24.833  1.00  0.00    -0.093 Br
ENDBRANCH   2   5
ENDBRANCH   1   2
BRANCH   1   7
HETATM    7  C5  UNL     1     -22.465  -4.497  21.248  1.00  0.00     0.252 C 
HETATM    8  N1  UNL     1     -21.432  -4.052  20.377  1.00  0.00    -0.054 NA
HETATM    9  N2  UNL     1     -22.907  -5.706  21.228  1.00  0.00    -0.235 N 
ATOM     10  H2  UNL     1     -23.650  -6.000  21.862  1.00  0.00     0.197 HD
BRANCH   9  11
HETATM   11  O2  UNL     1     -22.353  -6.590  20.333  1.00  0.00    -0.287 OA
ATOM     12  H2  UNL     1     -22.799  -7.415  20.178  1.00  0.00     0.244 HD
ENDBRANCH   9  11
ENDBRANCH   1   7
TORSDOF 4
ENDMDL
MODEL 2
REMARK VINA RESULT: -4.772835053      3.013      3.805
REMARK  4 active torsions:
REMARK  status: ('A' for Active; 'I' for Inactive)
REMARK    1  A    between atoms: C2_2  and  C4_4 
REMARK    2  A    between atoms: C2_2  and  O1_6 
REMARK    3  A    between atoms: O1_6  and  C5_7 
REMARK    4  A    between atoms: N2_9  and  O2_11 
ROOT
HETATM    1  O1  UNL     1     -22.122  -1.663  25.150  1.00  0.00    -0.312 OA
ENDROOT
BRANCH   1   2
HETATM    2  C2  UNL     1     -21.400  -0.618  24.626  1.00  0.00     0.072 C 
HETATM    3  C1  UNL     1     -20.084  -0.509  25.386  1.00  0.00     0.047 C 
HETATM    4  C3  UNL     1     -21.087  -0.647  23.182  1.00  0.00     0.047 C 
BRANCH   2   5
HETATM    5  C4  UNL     1     -22.251   0.643  24.874  1.00  0.00     0.123 C 
HETATM    6 BR1  UNL     1     -21.202   2.038  25.676  1.00  0.00    -0.093 Br
ENDBRANCH   2   5
ENDBRANCH   1   2
BRANCH   1   7
HETATM    7  C5  UNL     1     -22.368  -2.802  24.407  1.00  0.00     0.252 C 
HETATM    8  N1  UNL     1     -23.519  -3.002  23.596  1.00  0.00    -0.054 NA
HETATM    9  N2  UNL     1     -21.441  -3.689  24.516  1.00  0.00    -0.235 N 
ATOM     10  H2  UNL     1     -20.626  -3.522  25.105  1.00  0.00     0.197 HD
BRANCH   9  11
HETATM   11  O2  UNL     1     -21.578  -4.866  23.819  1.00  0.00    -0.287 OA
ATOM     12  H2  UNL     1     -21.917  -5.626  24.278  1.00  0.00     0.244 HD
ENDBRANCH   9  11
ENDBRANCH   1   7
TORSDOF 4
ENDMDL
MODEL 3
REMARK VINA RESULT: -4.757398606      0.904      1.361
REMARK  4 active torsions:
REMARK  status: ('A' for Active; 'I' for Inactive)
REMARK    1  A    between atoms: C2_2  and  C4_4 
REMARK    2  A    between atoms: C2_2  and  O1_6 
REMARK    3  A    between atoms: O1_6  and  C5_7 
REMARK    4  A    between atoms: N2_9  and  O2_11 
ROOT
HETATM    1  O1  UNL     1     -23.117  -3.869  22.272  1.00  0.00    -0.312 OA
ENDROOT
BRANCH   1   2
HETATM    2  C2  UNL     1     -22.538  -3.615  23.492  1.00  0.00     0.072 C 
HETATM    3  C1  UNL     1     -23.644  -3.387  24.514  1.00  0.00     0.047 C 
HETATM    4  C3  UNL     1     -21.613  -4.628  24.045  1.00  0.00     0.047 C 
BRANCH   2   5
HETATM    5  C4  UNL     1     -21.724  -2.320  23.307  1.00  0.00     0.123 C 
HETATM    6 BR1  UNL     1     -21.887  -1.175  24.840  1.00  0.00    -0.093 Br
ENDBRANCH   2   5
ENDBRANCH   1   2
BRANCH   1   7
HETATM    7  C5  UNL     1     -22.429  -4.549  21.285  1.00  0.00     0.252 C 
HETATM    8  N1  UNL     1     -22.466  -5.960  21.102  1.00  0.00    -0.054 NA
HETATM    9  N2  UNL     1     -21.732  -3.777  20.527  1.00  0.00    -0.235 N 
ATOM     10  H2  UNL     1     -21.721  -2.769  20.679  1.00  0.00     0.197 HD
BRANCH   9  11
HETATM   11  O2  UNL     1     -21.004  -4.343  19.508  1.00  0.00    -0.287 OA
ATOM     12  H2  UNL     1     -21.342  -5.129  19.093  1.00  0.00     0.244 HD
ENDBRANCH   9  11
ENDBRANCH   1   7
TORSDOF 4
ENDMDL
MODEL 4
REMARK VINA RESULT: -4.390173385      4.149      5.001
REMARK  4 active torsions:
REMARK  status: ('A' for Active; 'I' for Inactive)
REMARK    1  A    between atoms: C2_2  and  C4_4 
REMARK    2  A    between atoms: C2_2  and  O1_6 
REMARK    3  A    between atoms: O1_6  and  C5_7 
REMARK    4  A    between atoms: N2_9  and  O2_11 
ROOT
HETATM    1  O1  UNL     1     -21.933  -2.149  24.949  1.00  0.00    -0.312 OA
ENDROOT
BRANCH   1   2
HETATM    2  C2  UNL     1     -22.154  -2.728  23.723  1.00  0.00     0.072 C 
HETATM    3  C1  UNL     1     -23.654  -2.753  23.462  1.00  0.00     0.047 C 
HETATM    4  C3  UNL     1     -21.500  -2.123  22.542  1.00  0.00     0.047 C 
BRANCH   2   5
HETATM    5  C4  UNL     1     -21.621  -4.169  23.839  1.00  0.00     0.123 C 
HETATM    6 BR1  UNL     1     -22.371  -5.296  22.477  1.00  0.00    -0.093 Br
ENDBRANCH   2   5
ENDBRANCH   1   2
BRANCH   1   7
HETATM    7  C5  UNL     1     -21.501  -0.840  25.050  1.00  0.00     0.252 C 
HETATM    8  N1  UNL     1     -22.327   0.300  24.849  1.00  0.00    -0.054 NA
HETATM    9  N2  UNL     1     -20.253  -0.739  25.350  1.00  0.00    -0.235 N 
ATOM     10  H2  UNL     1     -19.680  -1.572  25.488  1.00  0.00     0.197 HD
BRANCH   9  11
HETATM   11  O2  UNL     1     -19.710   0.517  25.479  1.00  0.00    -0.287 OA
ATOM     12  H2  UNL     1     -19.618   0.883  26.351  1.00  0.00     0.244 HD
ENDBRANCH   9  11
ENDBRANCH   1   7
TORSDOF 4
ENDMDL
MODEL 5
REMARK VINA RESULT: -4.331632454      2.934      3.778
REMARK  4 active torsions:
REMARK  status: ('A' for Active; 'I' for Inactive)
REMARK    1  A    between atoms: C2_2  and  C4_4 
REMARK    2  A    between atoms: C2_2  and  O1_6 
REMARK    3  A    between atoms: O1_6  and  C5_7 
REMARK    4  A    between atoms: N2_9  and  O2_11 
ROOT
HETATM    1  O1  UNL     1     -22.054  -1.793  25.144  1.00  0.00    -0.312 OA
ENDROOT
BRANCH   1   2
HETATM    2  C2  UNL     1     -21.573  -0.635  24.581  1.00  0.00     0.072 C 
HETATM    3  C1  UNL     1     -21.044  -0.956  23.190  1.00  0.00     0.047 C 
HETATM    4  C3  UNL     1     -22.499   0.512  24.459  1.00  0.00     0.047 C 
BRANCH   2   5
HETATM    5  C4  UNL     1     -20.413  -0.179  25.488  1.00  0.00     0.123 C 
HETATM    6 BR1  UNL     1     -20.635   1.651  26.027  1.00  0.00    -0.093 Br
ENDBRANCH   2   5
ENDBRANCH   1   2
BRANCH   1   7
HETATM    7  C5  UNL     1     -22.344  -2.896  24.364  1.00  0.00     0.252 C 
HETATM    8  N1  UNL     1     -23.496  -3.019  23.538  1.00  0.00    -0.054 NA
HETATM    9  N2  UNL     1     -21.461  -3.828  24.454  1.00  0.00    -0.235 N 
ATOM     10  H2  UNL     1     -20.645  -3.717  25.055  1.00  0.00     0.197 HD
BRANCH   9  11
HETATM   11  O2  UNL     1     -21.645  -4.977  23.721  1.00  0.00    -0.287 OA
ATOM     12  H2  UNL     1     -21.889  -5.772  24.181  1.00  0.00     0.244 HD
ENDBRANCH   9  11
ENDBRANCH   1   7
TORSDOF 4
ENDMDL
