MODEL 1
REMARK VINA RESULT: -3.857262845      0.000      0.000
REMARK  2 active torsions:
REMARK  status: ('A' for Active; 'I' for Inactive)
REMARK    1  A    between atoms: S1_2  and  C2_3 
REMARK    2  A    between atoms: C2_3  and  C3_4 
ROOT
HETATM    1  C3  UNL     1     -21.944  -1.886  22.347  1.00  0.00     0.222 C 
HETATM    2  O1  UNL     1     -21.226  -2.840  21.673  1.00  0.00    -0.266 OA
HETATM    3  N1  UNL     1     -20.867  -3.829  22.470  1.00  0.00    -0.044 NA
HETATM    4  C4  UNL     1     -22.044  -4.468  23.024  1.00  0.00     0.260 C 
HETATM    5 CL1  UNL     1     -22.893  -5.476  21.844  1.00  0.00    -0.068 Cl
HETATM    6 CL2  UNL     1     -21.696  -5.310  24.537  1.00  0.00    -0.068 Cl
HETATM    7  S2  UNL     1     -22.993  -2.947  23.402  1.00  0.00    -0.073 SA
ENDROOT
BRANCH   1   8
HETATM    8  C2  UNL     1     -21.144  -0.927  23.156  1.00  0.00     0.118 C 
BRANCH   8   9
HETATM    9  S1  UNL     1     -21.785  -0.997  24.863  1.00  0.00    -0.170 SA
HETATM   10  C1  UNL     1     -21.880   0.648  25.602  1.00  0.00     0.089 C 
ENDBRANCH   8   9
ENDBRANCH   1   8
TORSDOF 2
ENDMDL
MODEL 2
REMARK VINA RESULT: -3.806951446      3.556      4.770
REMARK  2 active torsions:
REMARK  status: ('A' for Active; 'I' for Inactive)
REMARK    1  A    between atoms: S1_2  and  C2_3 
REMARK    2  A    between atoms: C2_3  and  C3_4 
ROOT
HETATM    1  C3  UNL     1     -22.230  -2.233  23.180  1.00  0.00     0.222 C 
HETATM    2  O1  UNL     1     -22.775  -2.047  24.425  1.00  0.00    -0.266 OA
HETATM    3  N1  UNL     1     -21.864  -1.661  25.298  1.00  0.00    -0.044 NA
HETATM    4  C4  UNL     1     -21.278  -0.404  24.878  1.00  0.00     0.260 C 
HETATM    5 CL1  UNL     1     -22.364   0.971  25.118  1.00  0.00    -0.068 Cl
HETATM    6 CL2  UNL     1     -19.673  -0.153  25.570  1.00  0.00    -0.068 Cl
HETATM    7  S2  UNL     1     -21.095  -0.803  23.099  1.00  0.00    -0.073 SA
ENDROOT
BRANCH   1   8
HETATM    8  C2  UNL     1     -21.508  -3.518  22.977  1.00  0.00     0.118 C 
BRANCH   8   9
HETATM    9  S1  UNL     1     -21.787  -4.024  21.246  1.00  0.00    -0.170 SA
HETATM   10  C1  UNL     1     -22.536  -5.664  21.148  1.00  0.00     0.089 C 
ENDBRANCH   8   9
ENDBRANCH   1   8
TORSDOF 2
ENDMDL
MODEL 3
REMARK VINA RESULT: -3.548167081      3.621      4.623
REMARK  2 active torsions:
REMARK  status: ('A' for Active; 'I' for Inactive)
REMARK    1  A    between atoms: S1_2  and  C2_3 
REMARK    2  A    between atoms: C2_3  and  C3_4 
ROOT
HETATM    1  C3  UNL     1     -22.103  -1.340  23.246  1.00  0.00     0.222 C 
HETATM    2  O1  UNL     1     -22.393  -1.665  24.547  1.00  0.00    -0.266 OA
HETATM    3  N1  UNL     1     -21.346  -1.497  25.332  1.00  0.00    -0.044 NA
HETATM    4  C4  UNL     1     -20.925  -0.110  25.305  1.00  0.00     0.260 C 
HETATM    5 CL1  UNL     1     -22.011   0.951  26.210  1.00  0.00    -0.068 Cl
HETATM    6 CL2  UNL     1     -19.228   0.080  25.757  1.00  0.00    -0.068 Cl
HETATM    7  S2  UNL     1     -21.086   0.157  23.499  1.00  0.00    -0.073 SA
ENDROOT
BRANCH   1   8
HETATM    8  C2  UNL     1     -21.370  -2.376  22.470  1.00  0.00     0.118 C 
BRANCH   8   9
HETATM    9  S1  UNL     1     -22.375  -3.898  22.522  1.00  0.00    -0.170 SA
HETATM   10  C1  UNL     1     -21.890  -4.964  23.896  1.00  0.00     0.089 C 
ENDBRANCH   8   9
ENDBRANCH   1   8
TORSDOF 2
ENDMDL
MODEL 4
REMARK VINA RESULT: -3.536416083      4.011      5.015
REMARK  2 active torsions:
REMARK  status: ('A' for Active; 'I' for Inactive)
REMARK    1  A    between atoms: S1_2  and  C2_3 
REMARK    2  A    between atoms: C2_3  and  C3_4 
ROOT
HETATM    1  C3  UNL     1     -22.302  -1.347  24.257  1.00  0.00     0.222 C 
HETATM    2  O1  UNL     1     -22.235  -0.736  25.483  1.00  0.00    -0.266 OA
HETATM    3  N1  UNL     1     -20.988  -0.478  25.828  1.00  0.00    -0.044 NA
HETATM    4  C4  UNL     1     -20.381   0.410  24.856  1.00  0.00     0.260 C 
HETATM    5 CL1  UNL     1     -20.963   2.074  24.993  1.00  0.00    -0.068 Cl
HETATM    6 CL2  UNL     1     -18.619   0.287  24.849  1.00  0.00    -0.068 Cl
HETATM    7  S2  UNL     1     -21.033  -0.399  23.346  1.00  0.00    -0.073 SA
ENDROOT
BRANCH   1   8
HETATM    8  C2  UNL     1     -22.010  -2.806  24.247  1.00  0.00     0.118 C 
BRANCH   8   9
HETATM    9  S1  UNL     1     -22.862  -3.515  22.797  1.00  0.00    -0.170 SA
HETATM   10  C1  UNL     1     -21.774  -3.582  21.358  1.00  0.00     0.089 C 
ENDBRANCH   8   9
ENDBRANCH   1   8
TORSDOF 2
ENDMDL
MODEL 5
REMARK VINA RESULT: -3.521724577      1.625      1.625
REMARK  2 active torsions:
REMARK  status: ('A' for Active; 'I' for Inactive)
REMARK    1  A    between atoms: S1_2  and  C2_3 
REMARK    2  A    between atoms: C2_3  and  C3_4 
ROOT
HETATM    1  C3  UNL     1     -22.074  -2.178  23.781  1.00  0.00     0.222 C 
HETATM    2  O1  UNL     1     -21.168  -3.208  23.750  1.00  0.00    -0.266 OA
HETATM    3  N1  UNL     1     -21.555  -4.215  24.509  1.00  0.00    -0.044 NA
HETATM    4  C4  UNL     1     -22.827  -4.728  24.039  1.00  0.00     0.260 C 
HETATM    5 CL1  UNL     1     -22.676  -5.664  22.547  1.00  0.00    -0.068 Cl
HETATM    6 CL2  UNL     1     -23.712  -5.579  25.309  1.00  0.00    -0.068 Cl
HETATM    7  S2  UNL     1     -23.641  -3.116  23.733  1.00  0.00    -0.073 SA
ENDROOT
BRANCH   1   8
HETATM    8  C2  UNL     1     -22.001  -1.291  24.973  1.00  0.00     0.118 C 
BRANCH   8   9
HETATM    9  S1  UNL     1     -21.189   0.255  24.445  1.00  0.00    -0.170 SA
HETATM   10  C1  UNL     1     -21.239   1.507  25.745  1.00  0.00     0.089 C 
ENDBRANCH   8   9
ENDBRANCH   1   8
TORSDOF 2
ENDMDL
