MODEL 1
REMARK VINA RESULT: -6.004046956      0.000      0.000
REMARK  7 active torsions:
REMARK  status: ('A' for Active; 'I' for Inactive)
REMARK    1  A    between atoms: N1_1  and  C1_4 
REMARK    2  A    between atoms: C3_9  and  N3_10 
REMARK    3  A    between atoms: C4_13  and  C5_14 
REMARK    4  A    between atoms: N4_15  and  N5_17 
REMARK    5  A    between atoms: N8_22  and  C7_23 
REMARK    6  A    between atoms: C8_27  and  O4_28 
REMARK    7  A    between atoms: C9_30  and  O5_31 
ROOT
HETATM    1  C1  UNL     1       1.755 -25.037 -15.418  1.00  0.00     0.685 A 
HETATM    2  N2  UNL     1       2.486 -23.893 -15.467  1.00  0.00    -0.154 N 
ATOM      3  H2  UNL     1       2.695 -23.369 -14.618  1.00  0.00     0.187 HD
HETATM    4  C2  UNL     1       2.917 -23.480 -16.644  1.00  0.00     0.295 A 
HETATM    5  O1  UNL     1       3.603 -22.413 -16.717  1.00  0.00    -0.265 OA
HETATM    6  C3  UNL     1       2.663 -24.156 -17.845  1.00  0.00     0.200 A 
HETATM    7  C4  UNL     1       1.917 -25.315 -17.772  1.00  0.00     0.111 A 
HETATM    8  N8  UNL     1       1.473 -25.736 -16.546  1.00  0.00    -0.126 N 
ENDROOT
BRANCH   8   9
HETATM    9  C7  UNL     1       0.698 -26.925 -16.460  1.00  0.00     0.456 C 
HETATM   10  N9  UNL     1       1.395 -28.057 -15.856  1.00  0.00     0.001 N 
HETATM   11  C8  UNL     1       0.314 -29.022 -15.780  1.00  0.00     0.379 C 
ATOM     12  H92 UNL     1       2.234 -28.370 -16.345  1.00  0.00     0.285 HD
ATOM     13  H91 UNL     1       1.876 -27.862 -14.978  1.00  0.00     0.285 HD
HETATM   14  C9  UNL     1      -0.861 -28.126 -15.447  1.00  0.00     0.318 C 
HETATM   15  O6  UNL     1      -0.387 -26.806 -15.543  1.00  0.00    -0.308 OA
BRANCH  11  16
HETATM   16  O4  UNL     1       0.534 -29.982 -14.799  1.00  0.00    -0.366 OA
ATOM     17  H4  UNL     1      -0.265 -30.433 -14.551  1.00  0.00     0.212 HD
ENDBRANCH  11  16
BRANCH  14  18
HETATM   18  O5  UNL     1      -1.255 -28.447 -14.148  1.00  0.00    -0.367 OA
ATOM     19  H5  UNL     1      -0.460 -28.556 -13.640  1.00  0.00     0.212 HD
ENDBRANCH  14  18
ENDBRANCH   8   9
BRANCH   1  20
HETATM   20  N1  UNL     1       1.365 -25.405 -14.264  1.00  0.00    -0.234 N 
ATOM     21  H12 UNL     1       1.679 -24.954 -13.405  1.00  0.00     0.174 HD
ATOM     22  H11 UNL     1       0.708 -26.185 -14.239  1.00  0.00     0.174 HD
ENDBRANCH   1  20
BRANCH   7  23
HETATM   23  C5  UNL     1       1.618 -26.001 -19.009  1.00  0.00     0.140 C 
HETATM   24  N4  UNL     1       0.805 -25.526 -19.882  1.00  0.00    -0.308 N 
ATOM     25  H4  UNL     1       0.364 -24.629 -19.676  1.00  0.00     0.186 HD
BRANCH  24  26
HETATM   26  N5  UNL     1       0.480 -26.133 -21.081  1.00  0.00    -0.276 N 
HETATM   27  C6  UNL     1      -0.716 -26.081 -21.537  1.00  0.00     0.215 C 
HETATM   28  N6  UNL     1      -1.085 -26.692 -22.762  1.00  0.00    -0.065 NA
HETATM   29  N7  UNL     1      -1.709 -25.395 -20.801  1.00  0.00    -0.065 NA
ATOM     30  H5  UNL     1       1.200 -26.628 -21.607  1.00  0.00     0.189 HD
ENDBRANCH  24  26
ENDBRANCH   7  23
BRANCH   6  31
HETATM   31  N3  UNL     1       3.222 -23.623 -19.034  1.00  0.00    -0.107 N 
HETATM   32  O2  UNL     1       2.565 -22.837 -19.730  1.00  0.00    -0.531 OA
HETATM   33  O3  UNL     1       4.487 -23.955 -19.435  1.00  0.00    -0.531 OA
ENDBRANCH   6  31
TORSDOF 7
ENDMDL
MODEL 2
REMARK VINA RESULT: -5.758003707      2.542      5.768
REMARK  7 active torsions:
REMARK  status: ('A' for Active; 'I' for Inactive)
REMARK    1  A    between atoms: N1_1  and  C1_4 
REMARK    2  A    between atoms: C3_9  and  N3_10 
REMARK    3  A    between atoms: C4_13  and  C5_14 
REMARK    4  A    between atoms: N4_15  and  N5_17 
REMARK    5  A    between atoms: N8_22  and  C7_23 
REMARK    6  A    between atoms: C8_27  and  O4_28 
REMARK    7  A    between atoms: C9_30  and  O5_31 
ROOT
HETATM    1  C1  UNL     1       1.870 -25.002 -17.535  1.00  0.00     0.685 A 
HETATM    2  N2  UNL     1       2.067 -24.439 -16.315  1.00  0.00    -0.154 N 
ATOM      3  H2  UNL     1       2.671 -23.625 -16.205  1.00  0.00     0.187 HD
HETATM    4  C2  UNL     1       1.455 -24.976 -15.276  1.00  0.00     0.295 A 
HETATM    5  O1  UNL     1       1.621 -24.469 -14.124  1.00  0.00    -0.265 OA
HETATM    6  C3  UNL     1       0.614 -26.093 -15.364  1.00  0.00     0.200 A 
HETATM    7  C4  UNL     1       0.429 -26.650 -16.613  1.00  0.00     0.111 A 
HETATM    8  N8  UNL     1       1.069 -26.086 -17.685  1.00  0.00    -0.126 N 
ENDROOT
BRANCH   8   9
HETATM    9  C7  UNL     1       0.893 -26.655 -18.976  1.00  0.00     0.456 C 
HETATM   10  N9  UNL     1       0.443 -25.711 -19.995  1.00  0.00     0.001 N 
HETATM   11  C8  UNL     1       0.512 -26.547 -21.179  1.00  0.00     0.379 C 
ATOM     12  H92 UNL     1      -0.459 -25.268 -19.820  1.00  0.00     0.285 HD
ATOM     13  H91 UNL     1       0.960 -24.833 -20.044  1.00  0.00     0.285 HD
HETATM   14  C9  UNL     1       1.749 -27.373 -20.888  1.00  0.00     0.318 C 
HETATM   15  O6  UNL     1       2.123 -27.064 -19.568  1.00  0.00    -0.308 OA
BRANCH  11  16
HETATM   16  O4  UNL     1       0.645 -25.801 -22.344  1.00  0.00    -0.366 OA
ATOM     17  H4  UNL     1       1.508 -25.890 -22.732  1.00  0.00     0.212 HD
ENDBRANCH  11  16
BRANCH  14  18
HETATM   18  O5  UNL     1       2.718 -26.984 -21.811  1.00  0.00    -0.367 OA
ATOM     19  H5  UNL     1       2.836 -27.713 -22.408  1.00  0.00     0.212 HD
ENDBRANCH  14  18
ENDBRANCH   8   9
BRANCH   1  20
HETATM   20  N1  UNL     1       2.472 -24.450 -18.512  1.00  0.00    -0.234 N 
ATOM     21  H12 UNL     1       3.016 -23.593 -18.411  1.00  0.00     0.174 HD
ATOM     22  H11 UNL     1       2.385 -24.916 -19.415  1.00  0.00     0.174 HD
ENDBRANCH   1  20
BRANCH   7  23
HETATM   23  C5  UNL     1      -0.407 -27.825 -16.709  1.00  0.00     0.140 C 
HETATM   24  N4  UNL     1      -0.164 -28.901 -16.052  1.00  0.00    -0.308 N 
ATOM     25  H4  UNL     1       0.656 -28.906 -15.445  1.00  0.00     0.186 HD
BRANCH  24  26
HETATM   26  N5  UNL     1      -0.925 -30.053 -16.101  1.00  0.00    -0.276 N 
HETATM   27  C6  UNL     1      -1.706 -30.364 -15.134  1.00  0.00     0.215 C 
HETATM   28  N6  UNL     1      -2.501 -31.537 -15.151  1.00  0.00    -0.065 NA
HETATM   29  N7  UNL     1      -1.783 -29.514 -14.007  1.00  0.00    -0.065 NA
ATOM     30  H5  UNL     1      -0.864 -30.664 -16.916  1.00  0.00     0.189 HD
ENDBRANCH  24  26
ENDBRANCH   7  23
BRANCH   6  31
HETATM   31  N3  UNL     1      -0.014 -26.542 -14.175  1.00  0.00    -0.107 N 
HETATM   32  O2  UNL     1      -1.159 -26.160 -13.896  1.00  0.00    -0.531 OA
HETATM   33  O3  UNL     1       0.618 -27.401 -13.317  1.00  0.00    -0.531 OA
ENDBRANCH   6  31
TORSDOF 7
ENDMDL
MODEL 3
REMARK VINA RESULT: -5.705353133      1.199      1.319
REMARK  7 active torsions:
REMARK  status: ('A' for Active; 'I' for Inactive)
REMARK    1  A    between atoms: N1_1  and  C1_4 
REMARK    2  A    between atoms: C3_9  and  N3_10 
REMARK    3  A    between atoms: C4_13  and  C5_14 
REMARK    4  A    between atoms: N4_15  and  N5_17 
REMARK    5  A    between atoms: N8_22  and  C7_23 
REMARK    6  A    between atoms: C8_27  and  O4_28 
REMARK    7  A    between atoms: C9_30  and  O5_31 
ROOT
HETATM    1  C1  UNL     1       1.157 -26.034 -15.069  1.00  0.00     0.685 A 
HETATM    2  N2  UNL     1       1.961 -24.942 -15.151  1.00  0.00    -0.154 N 
ATOM      3  H2  UNL     1       2.305 -24.481 -14.308  1.00  0.00     0.187 HD
HETATM    4  C2  UNL     1       2.283 -24.495 -16.350  1.00  0.00     0.295 A 
HETATM    5  O1  UNL     1       3.034 -23.476 -16.454  1.00  0.00    -0.265 OA
HETATM    6  C3  UNL     1       1.842 -25.084 -17.542  1.00  0.00     0.200 A 
HETATM    7  C4  UNL     1       1.025 -26.192 -17.435  1.00  0.00     0.111 A 
HETATM    8  N8  UNL     1       0.695 -26.648 -16.187  1.00  0.00    -0.126 N 
ENDROOT
BRANCH   8   9
HETATM    9  C7  UNL     1      -0.152 -27.784 -16.064  1.00  0.00     0.456 C 
HETATM   10  N9  UNL     1       0.543 -29.019 -15.712  1.00  0.00     0.001 N 
HETATM   11  C8  UNL     1      -0.586 -29.911 -15.521  1.00  0.00     0.379 C 
ATOM     12  H92 UNL     1       1.248 -29.335 -16.377  1.00  0.00     0.285 HD
ATOM     13  H91 UNL     1       1.191 -28.953 -14.927  1.00  0.00     0.285 HD
HETATM   14  C9  UNL     1      -1.598 -28.978 -14.889  1.00  0.00     0.318 C 
HETATM   15  O6  UNL     1      -1.036 -27.691 -14.951  1.00  0.00    -0.308 OA
BRANCH  11  16
HETATM   16  O4  UNL     1      -0.275 -30.983 -14.692  1.00  0.00    -0.366 OA
ATOM     17  H4  UNL     1      -1.044 -31.486 -14.451  1.00  0.00     0.212 HD
ENDBRANCH  11  16
BRANCH  14  18
HETATM   18  O5  UNL     1      -1.775 -29.408 -13.574  1.00  0.00    -0.367 OA
ATOM     19  H5  UNL     1      -2.712 -29.453 -13.425  1.00  0.00     0.212 HD
ENDBRANCH  14  18
ENDBRANCH   8   9
BRANCH   1  20
HETATM   20  N1  UNL     1       0.876 -26.438 -13.895  1.00  0.00    -0.234 N 
ATOM     21  H12 UNL     1      -0.058 -26.750 -13.627  1.00  0.00     0.174 HD
ATOM     22  H11 UNL     1       1.644 -26.440 -13.224  1.00  0.00     0.174 HD
ENDBRANCH   1  20
BRANCH   7  23
HETATM   23  C5  UNL     1       0.535 -26.786 -18.659  1.00  0.00     0.140 C 
HETATM   24  N4  UNL     1      -0.287 -26.180 -19.439  1.00  0.00    -0.308 N 
ATOM     25  H4  UNL     1      -0.592 -25.246 -19.166  1.00  0.00     0.186 HD
BRANCH  24  26
HETATM   26  N5  UNL     1      -0.789 -26.695 -20.619  1.00  0.00    -0.276 N 
HETATM   27  C6  UNL     1      -0.369 -26.266 -21.751  1.00  0.00     0.215 C 
HETATM   28  N6  UNL     1      -0.862 -26.771 -22.981  1.00  0.00    -0.065 NA
HETATM   29  N7  UNL     1       0.618 -25.255 -21.785  1.00  0.00    -0.065 NA
ATOM     30  H5  UNL     1      -1.502 -27.424 -20.589  1.00  0.00     0.189 HD
ENDBRANCH  24  26
ENDBRANCH   7  23
BRANCH   6  31
HETATM   31  N3  UNL     1       2.298 -24.526 -18.762  1.00  0.00    -0.107 N 
HETATM   32  O2  UNL     1       1.710 -23.555 -19.259  1.00  0.00    -0.531 OA
HETATM   33  O3  UNL     1       3.390 -25.035 -19.412  1.00  0.00    -0.531 OA
ENDBRANCH   6  31
TORSDOF 7
ENDMDL
MODEL 4
REMARK VINA RESULT: -5.684228344      2.480      4.741
REMARK  7 active torsions:
REMARK  status: ('A' for Active; 'I' for Inactive)
REMARK    1  A    between atoms: N1_1  and  C1_4 
REMARK    2  A    between atoms: C3_9  and  N3_10 
REMARK    3  A    between atoms: C4_13  and  C5_14 
REMARK    4  A    between atoms: N4_15  and  N5_17 
REMARK    5  A    between atoms: N8_22  and  C7_23 
REMARK    6  A    between atoms: C8_27  and  O4_28 
REMARK    7  A    between atoms: C9_30  and  O5_31 
ROOT
HETATM    1  C1  UNL     1       1.943 -24.031 -18.118  1.00  0.00     0.685 A 
HETATM    2  N2  UNL     1       1.589 -23.927 -19.425  1.00  0.00    -0.154 N 
ATOM      3  H2  UNL     1       1.796 -23.082 -19.958  1.00  0.00     0.187 HD
HETATM    4  C2  UNL     1       0.968 -24.948 -19.985  1.00  0.00     0.295 A 
HETATM    5  O1  UNL     1       0.627 -24.877 -21.207  1.00  0.00    -0.265 OA
HETATM    6  C3  UNL     1       0.656 -26.133 -19.306  1.00  0.00     0.200 A 
HETATM    7  C4  UNL     1       1.024 -26.217 -17.978  1.00  0.00     0.111 A 
HETATM    8  N8  UNL     1       1.666 -25.151 -17.406  1.00  0.00    -0.126 N 
ENDROOT
BRANCH   8   9
HETATM    9  C7  UNL     1       2.044 -25.223 -16.036  1.00  0.00     0.456 C 
HETATM   10  N9  UNL     1       0.971 -24.909 -15.097  1.00  0.00     0.001 N 
HETATM   11  C8  UNL     1       1.624 -25.217 -13.838  1.00  0.00     0.379 C 
ATOM     12  H92 UNL     1       0.578 -23.971 -15.174  1.00  0.00     0.285 HD
ATOM     13  H91 UNL     1       0.085 -25.385 -15.264  1.00  0.00     0.285 HD
HETATM   14  C9  UNL     1       2.456 -26.423 -14.222  1.00  0.00     0.318 C 
HETATM   15  O6  UNL     1       2.336 -26.553 -15.617  1.00  0.00    -0.308 OA
BRANCH  11  16
HETATM   16  O4  UNL     1       0.712 -25.511 -12.831  1.00  0.00    -0.366 OA
ATOM     17  H4  UNL     1       0.468 -24.741 -12.330  1.00  0.00     0.212 HD
ENDBRANCH  11  16
BRANCH  14  18
HETATM   18  O5  UNL     1       1.915 -27.516 -13.546  1.00  0.00    -0.367 OA
ATOM     19  H5  UNL     1       2.077 -27.372 -12.621  1.00  0.00     0.212 HD
ENDBRANCH  14  18
ENDBRANCH   8   9
BRANCH   1  20
HETATM   20  N1  UNL     1       2.545 -23.027 -17.618  1.00  0.00    -0.234 N 
ATOM     21  H12 UNL     1       3.321 -22.560 -18.087  1.00  0.00     0.174 HD
ATOM     22  H11 UNL     1       2.207 -22.705 -16.711  1.00  0.00     0.174 HD
ENDBRANCH   1  20
BRANCH   7  23
HETATM   23  C5  UNL     1       0.675 -27.421 -17.259  1.00  0.00     0.140 C 
HETATM   24  N4  UNL     1      -0.442 -27.554 -16.638  1.00  0.00    -0.308 N 
ATOM     25  H4  UNL     1      -1.092 -26.769 -16.666  1.00  0.00     0.186 HD
BRANCH  24  26
HETATM   26  N5  UNL     1      -0.832 -28.678 -15.934  1.00  0.00    -0.276 N 
HETATM   27  C6  UNL     1      -1.138 -28.599 -14.692  1.00  0.00     0.215 C 
HETATM   28  N6  UNL     1      -1.542 -29.730 -13.940  1.00  0.00    -0.065 NA
HETATM   29  N7  UNL     1      -1.072 -27.346 -14.041  1.00  0.00    -0.065 NA
ATOM     30  H5  UNL     1      -0.877 -29.580 -16.408  1.00  0.00     0.189 HD
ENDBRANCH  24  26
ENDBRANCH   7  23
BRANCH   6  31
HETATM   31  N3  UNL     1       0.025 -27.169 -20.040  1.00  0.00    -0.107 N 
HETATM   32  O2  UNL     1      -1.209 -27.194 -20.141  1.00  0.00    -0.531 OA
HETATM   33  O3  UNL     1       0.754 -28.151 -20.655  1.00  0.00    -0.531 OA
ENDBRANCH   6  31
TORSDOF 7
ENDMDL
MODEL 5
REMARK VINA RESULT: -5.670734981      2.028      5.852
REMARK  7 active torsions:
REMARK  status: ('A' for Active; 'I' for Inactive)
REMARK    1  A    between atoms: N1_1  and  C1_4 
REMARK    2  A    between atoms: C3_9  and  N3_10 
REMARK    3  A    between atoms: C4_13  and  C5_14 
REMARK    4  A    between atoms: N4_15  and  N5_17 
REMARK    5  A    between atoms: N8_22  and  C7_23 
REMARK    6  A    between atoms: C8_27  and  O4_28 
REMARK    7  A    between atoms: C9_30  and  O5_31 
ROOT
HETATM    1  C1  UNL     1       0.212 -28.845 -16.972  1.00  0.00     0.685 A 
HETATM    2  N2  UNL     1       0.154 -29.374 -15.723  1.00  0.00    -0.154 N 
ATOM      3  H2  UNL     1      -0.122 -30.345 -15.577  1.00  0.00     0.187 HD
HETATM    4  C2  UNL     1       0.463 -28.595 -14.702  1.00  0.00     0.295 A 
HETATM    5  O1  UNL     1       0.416 -29.066 -13.523  1.00  0.00    -0.265 OA
HETATM    6  C3  UNL     1       0.848 -27.256 -14.838  1.00  0.00     0.200 A 
HETATM    7  C4  UNL     1       0.900 -26.738 -16.117  1.00  0.00     0.111 A 
HETATM    8  N8  UNL     1       0.577 -27.553 -17.169  1.00  0.00    -0.126 N 
ENDROOT
BRANCH   8   9
HETATM    9  C7  UNL     1       0.619 -27.030 -18.490  1.00  0.00     0.456 C 
HETATM   10  N9  UNL     1      -0.546 -26.232 -18.861  1.00  0.00     0.001 N 
HETATM   11  C8  UNL     1      -0.126 -25.740 -20.161  1.00  0.00     0.379 C 
ATOM     12  H92 UNL     1      -1.441 -26.720 -18.842  1.00  0.00     0.285 HD
ATOM     13  H91 UNL     1      -0.824 -25.518 -18.188  1.00  0.00     0.285 HD
HETATM   14  C9  UNL     1       1.355 -25.518 -19.930  1.00  0.00     0.318 C 
HETATM   15  O6  UNL     1       1.636 -26.046 -18.658  1.00  0.00    -0.308 OA
BRANCH  11  16
HETATM   16  O4  UNL     1      -0.781 -24.567 -20.516  1.00  0.00    -0.366 OA
ATOM     17  H4  UNL     1      -0.195 -23.935 -20.916  1.00  0.00     0.212 HD
ENDBRANCH  11  16
BRANCH  14  18
HETATM   18  O5  UNL     1       1.567 -24.141 -19.983  1.00  0.00    -0.367 OA
ATOM     19  H5  UNL     1       1.518 -23.822 -19.089  1.00  0.00     0.212 HD
ENDBRANCH  14  18
ENDBRANCH   8   9
BRANCH   1  20
HETATM   20  N1  UNL     1      -0.086 -29.630 -17.929  1.00  0.00    -0.234 N 
ATOM     21  H12 UNL     1      -1.037 -29.959 -18.097  1.00  0.00     0.174 HD
ATOM     22  H11 UNL     1       0.685 -29.917 -18.532  1.00  0.00     0.174 HD
ENDBRANCH   1  20
BRANCH   7  23
HETATM   23  C5  UNL     1       1.262 -25.347 -16.265  1.00  0.00     0.140 C 
HETATM   24  N4  UNL     1       2.474 -24.935 -16.164  1.00  0.00    -0.308 N 
ATOM     25  H4  UNL     1       3.194 -25.632 -15.973  1.00  0.00     0.186 HD
BRANCH  24  26
HETATM   26  N5  UNL     1       2.881 -23.621 -16.296  1.00  0.00    -0.276 N 
HETATM   27  C6  UNL     1       3.718 -23.282 -17.206  1.00  0.00     0.215 C 
HETATM   28  N6  UNL     1       4.157 -21.945 -17.370  1.00  0.00    -0.065 NA
HETATM   29  N7  UNL     1       4.227 -24.271 -18.080  1.00  0.00    -0.065 NA
ATOM     30  H5  UNL     1       2.512 -22.912 -15.662  1.00  0.00     0.189 HD
ENDBRANCH  24  26
ENDBRANCH   7  23
BRANCH   6  31
HETATM   31  N3  UNL     1       1.194 -26.546 -13.661  1.00  0.00    -0.107 N 
HETATM   32  O2  UNL     1       0.310 -26.019 -12.971  1.00  0.00    -0.531 OA
HETATM   33  O3  UNL     1       2.496 -26.430 -13.257  1.00  0.00    -0.531 OA
ENDBRANCH   6  31
TORSDOF 7
ENDMDL
