MODEL 1
REMARK VINA RESULT: -8.336215659      0.000      0.000
REMARK  11 active torsions:
REMARK  status: ('A' for Active; 'I' for Inactive)
REMARK    1  A    between atoms: C5_5  and  N1_6 
REMARK    2  A    between atoms: N1_6  and  C6_8 
REMARK    3  A    between atoms: C6_8  and  N2_10 
REMARK    4  A    between atoms: N2_10  and  C7_12 
REMARK    5  A    between atoms: C7_12  and  C8_13 
REMARK    6  A    between atoms: C8_13  and  C9_14 
REMARK    7  A    between atoms: C9_14  and  C10_15 
REMARK    8  A    between atoms: C10_15  and  C11_16 
REMARK    9  A    between atoms: C11_16  and  C12_17 
REMARK   10  A    between atoms: C12_17  and  N3_18 
REMARK       I    between atoms: N3_18  and  C13_19 
REMARK       I    between atoms: C13_19  and  N5_21 
REMARK       I    between atoms: C14_23  and  N6_24 
REMARK       I    between atoms: C14_23  and  N7_30 
REMARK   11  A    between atoms: N6_24  and  C15_26 
ROOT
HETATM    1  C11 UNL     1      44.204   1.810  11.017  1.00  0.00     0.059 C 
ENDROOT
BRANCH   1   2
HETATM    2  C10 UNL     1      43.453   3.034  10.534  1.00  0.00     0.006 C 
BRANCH   2   3
HETATM    3  C9  UNL     1      44.249   4.022   9.745  1.00  0.00     0.002 C 
BRANCH   3   4
HETATM    4  C8  UNL     1      45.733   3.665  10.084  1.00  0.00     0.020 C 
BRANCH   4   5
HETATM    5  C7  UNL     1      46.649   4.816   9.991  1.00  0.00     0.122 C 
BRANCH   5   6
HETATM    6  N2  UNL     1      46.448   5.633   8.789  1.00  0.00    -0.367 N 
ATOM      7  H2  UNL     1      46.433   5.241   7.848  1.00  0.00     0.161 HD
BRANCH   6   8
HETATM    8  C6  UNL     1      46.274   7.046   9.057  1.00  0.00     0.172 C 
HETATM    9  S1  UNL     1      47.650   7.959   8.842  1.00  0.00    -0.041 SA
BRANCH   8  10
HETATM   10  N1  UNL     1      45.065   7.663   9.330  1.00  0.00    -0.333 N 
ATOM     11  H1  UNL     1      44.882   7.963  10.288  1.00  0.00     0.168 HD
BRANCH  10  12
HETATM   12  C5  UNL     1      44.067   7.901   8.354  1.00  0.00     0.040 A 
HETATM   13  C4  UNL     1      43.391   6.910   7.689  1.00  0.00     0.030 A 
HETATM   14  C3  UNL     1      42.485   7.229   6.687  1.00  0.00     0.009 A 
HETATM   15  C2  UNL     1      42.240   8.522   6.333  1.00  0.00    -0.061 A 
HETATM   16  C1  UNL     1      41.270   8.891   5.273  1.00  0.00     0.048 C 
HETATM   17  C25 UNL     1      42.910   9.554   6.987  1.00  0.00     0.015 A 
HETATM   18  C23 UNL     1      43.806   9.228   7.976  1.00  0.00    -0.035 A 
HETATM   19  C24 UNL     1      44.544  10.305   8.726  1.00  0.00     0.050 C 
ENDBRANCH  10  12
ENDBRANCH   8  10
ENDBRANCH   6   8
ENDBRANCH   5   6
ENDBRANCH   4   5
ENDBRANCH   3   4
ENDBRANCH   2   3
ENDBRANCH   1   2
BRANCH   1  20
HETATM   20  C12 UNL     1      43.223   0.604  10.960  1.00  0.00     0.158 C 
BRANCH  20  21
HETATM   21  N3  UNL     1      42.011   0.742  10.477  1.00  0.00    -0.390 NA
HETATM   22  C13 UNL     1      40.870   0.875  10.038  1.00  0.00     0.280 C 
HETATM   23  N4  UNL     1      39.821   1.333  10.869  1.00  0.00    -0.048 NA
HETATM   24  N5  UNL     1      40.584   0.542   8.689  1.00  0.00    -0.152 N 
HETATM   25  C14 UNL     1      40.652   1.107   7.597  1.00  0.00     0.680 C 
ATOM     26  H5  UNL     1      40.230  -0.410   8.602  1.00  0.00     0.188 HD
HETATM   27  N6  UNL     1      40.215   0.270   6.463  1.00  0.00    -0.218 N 
HETATM   28  N7  UNL     1      41.076   2.412   7.321  1.00  0.00    -0.214 N 
ATOM     29  H6  UNL     1      40.876   0.121   5.701  1.00  0.00     0.178 HD
HETATM   30  C19 UNL     1      42.024   2.623   6.211  1.00  0.00     0.167 C 
HETATM   31  C22 UNL     1      40.662   3.596   7.987  1.00  0.00     0.167 C 
HETATM   32  C20 UNL     1      41.424   3.755   5.385  1.00  0.00     0.188 C 
HETATM   33  O1  UNL     1      40.068   3.958   5.679  1.00  0.00    -0.388 OA
HETATM   34  C21 UNL     1      39.827   4.378   6.967  1.00  0.00     0.188 C 
BRANCH  27  35
HETATM   35  C15 UNL     1      38.944  -0.339   6.361  1.00  0.00     0.036 C 
HETATM   36  C16 UNL     1      38.994  -1.838   6.547  1.00  0.00     0.038 C 
HETATM   37  C17 UNL     1      38.406  -0.048   4.951  1.00  0.00     0.038 C 
HETATM   38  C18 UNL     1      37.944   0.240   7.339  1.00  0.00     0.038 C 
ENDBRANCH  27  35
ENDBRANCH  20  21
ENDBRANCH   1  20
TORSDOF 11
ENDMDL
MODEL 2
REMARK VINA RESULT: -8.136650511      3.436      9.189
REMARK  11 active torsions:
REMARK  status: ('A' for Active; 'I' for Inactive)
REMARK    1  A    between atoms: C5_5  and  N1_6 
REMARK    2  A    between atoms: N1_6  and  C6_8 
REMARK    3  A    between atoms: C6_8  and  N2_10 
REMARK    4  A    between atoms: N2_10  and  C7_12 
REMARK    5  A    between atoms: C7_12  and  C8_13 
REMARK    6  A    between atoms: C8_13  and  C9_14 
REMARK    7  A    between atoms: C9_14  and  C10_15 
REMARK    8  A    between atoms: C10_15  and  C11_16 
REMARK    9  A    between atoms: C11_16  and  C12_17 
REMARK   10  A    between atoms: C12_17  and  N3_18 
REMARK       I    between atoms: N3_18  and  C13_19 
REMARK       I    between atoms: C13_19  and  N5_21 
REMARK       I    between atoms: C14_23  and  N6_24 
REMARK       I    between atoms: C14_23  and  N7_30 
REMARK   11  A    between atoms: N6_24  and  C15_26 
ROOT
HETATM    1  C11 UNL     1      42.694   4.934   9.523  1.00  0.00     0.059 C 
ENDROOT
BRANCH   1   2
HETATM    2  C10 UNL     1      41.852   4.474   8.350  1.00  0.00     0.006 C 
BRANCH   2   3
HETATM    3  C9  UNL     1      42.562   4.357   7.041  1.00  0.00     0.002 C 
BRANCH   3   4
HETATM    4  C8  UNL     1      42.053   2.998   6.458  1.00  0.00     0.020 C 
BRANCH   4   5
HETATM    5  C7  UNL     1      40.746   3.102   5.784  1.00  0.00     0.122 C 
BRANCH   5   6
HETATM    6  N2  UNL     1      39.971   1.856   5.809  1.00  0.00    -0.367 N 
ATOM      7  H2  UNL     1      39.889   1.237   5.003  1.00  0.00     0.161 HD
BRANCH   6   8
HETATM    8  C6  UNL     1      39.330   1.583   7.080  1.00  0.00     0.172 C 
HETATM    9  S1  UNL     1      37.954   2.479   7.359  1.00  0.00    -0.041 SA
BRANCH   8  10
HETATM   10  N1  UNL     1      39.699   0.580   7.960  1.00  0.00    -0.333 N 
ATOM     11  H1  UNL     1      39.275  -0.340   7.846  1.00  0.00     0.168 HD
BRANCH  10  12
HETATM   12  C5  UNL     1      40.633   0.761   9.010  1.00  0.00     0.040 A 
HETATM   13  C4  UNL     1      40.401   1.532  10.120  1.00  0.00     0.030 A 
HETATM   14  C3  UNL     1      41.401   1.722  11.063  1.00  0.00     0.009 A 
HETATM   15  C2  UNL     1      42.632   1.156  10.920  1.00  0.00    -0.061 A 
HETATM   16  C1  UNL     1      43.716   1.335  11.918  1.00  0.00     0.048 C 
HETATM   17  C25 UNL     1      42.902   0.367   9.804  1.00  0.00     0.015 A 
HETATM   18  C23 UNL     1      41.907   0.187   8.874  1.00  0.00    -0.035 A 
HETATM   19  C24 UNL     1      42.141  -0.670   7.659  1.00  0.00     0.050 C 
ENDBRANCH  10  12
ENDBRANCH   8  10
ENDBRANCH   6   8
ENDBRANCH   5   6
ENDBRANCH   4   5
ENDBRANCH   3   4
ENDBRANCH   2   3
ENDBRANCH   1   2
BRANCH   1  20
HETATM   20  C12 UNL     1      44.049   4.174   9.455  1.00  0.00     0.158 C 
BRANCH  20  21
HETATM   21  N3  UNL     1      45.154   4.722   9.905  1.00  0.00    -0.390 NA
HETATM   22  C13 UNL     1      46.197   5.223  10.321  1.00  0.00     0.280 C 
HETATM   23  N4  UNL     1      47.452   4.647  10.013  1.00  0.00    -0.048 NA
HETATM   24  N5  UNL     1      46.153   6.378  11.142  1.00  0.00    -0.152 N 
HETATM   25  C14 UNL     1      46.094   7.596  10.967  1.00  0.00     0.680 C 
ATOM     26  H5  UNL     1      46.175   6.139  12.133  1.00  0.00     0.188 HD
HETATM   27  N6  UNL     1      46.068   8.379  12.217  1.00  0.00    -0.218 N 
HETATM   28  N7  UNL     1      46.059   8.297   9.756  1.00  0.00    -0.214 N 
ATOM     29  H6  UNL     1      45.283   9.014  12.364  1.00  0.00     0.178 HD
HETATM   30  C19 UNL     1      45.062   9.372   9.596  1.00  0.00     0.167 C 
HETATM   31  C22 UNL     1      46.917   8.106   8.641  1.00  0.00     0.167 C 
HETATM   32  C20 UNL     1      45.846  10.567   9.065  1.00  0.00     0.188 C 
HETATM   33  O1  UNL     1      47.227  10.415   9.260  1.00  0.00    -0.388 OA
HETATM   34  C21 UNL     1      47.784   9.368   8.563  1.00  0.00     0.188 C 
BRANCH  27  35
HETATM   35  C15 UNL     1      47.055   8.309  13.226  1.00  0.00     0.036 C 
HETATM   36  C16 UNL     1      46.843   7.155  14.177  1.00  0.00     0.038 C 
HETATM   37  C17 UNL     1      46.983   9.615  14.032  1.00  0.00     0.038 C 
HETATM   38  C18 UNL     1      48.457   8.222  12.660  1.00  0.00     0.038 C 
ENDBRANCH  27  35
ENDBRANCH  20  21
ENDBRANCH   1  20
TORSDOF 11
ENDMDL
MODEL 3
REMARK VINA RESULT: -8.132736960      1.928      4.216
REMARK  11 active torsions:
REMARK  status: ('A' for Active; 'I' for Inactive)
REMARK    1  A    between atoms: C5_5  and  N1_6 
REMARK    2  A    between atoms: N1_6  and  C6_8 
REMARK    3  A    between atoms: C6_8  and  N2_10 
REMARK    4  A    between atoms: N2_10  and  C7_12 
REMARK    5  A    between atoms: C7_12  and  C8_13 
REMARK    6  A    between atoms: C8_13  and  C9_14 
REMARK    7  A    between atoms: C9_14  and  C10_15 
REMARK    8  A    between atoms: C10_15  and  C11_16 
REMARK    9  A    between atoms: C11_16  and  C12_17 
REMARK   10  A    between atoms: C12_17  and  N3_18 
REMARK       I    between atoms: N3_18  and  C13_19 
REMARK       I    between atoms: C13_19  and  N5_21 
REMARK       I    between atoms: C14_23  and  N6_24 
REMARK       I    between atoms: C14_23  and  N7_30 
REMARK   11  A    between atoms: N6_24  and  C15_26 
ROOT
HETATM    1  C11 UNL     1      43.177  -0.378  10.238  1.00  0.00     0.059 C 
ENDROOT
BRANCH   1   2
HETATM    2  C10 UNL     1      43.209   0.684  11.318  1.00  0.00     0.006 C 
BRANCH   2   3
HETATM    3  C9  UNL     1      44.170   1.807  11.104  1.00  0.00     0.002 C 
BRANCH   3   4
HETATM    4  C8  UNL     1      43.261   2.997  10.655  1.00  0.00     0.020 C 
BRANCH   4   5
HETATM    5  C7  UNL     1      43.850   3.809   9.574  1.00  0.00     0.122 C 
BRANCH   5   6
HETATM    6  N2  UNL     1      44.444   5.068  10.040  1.00  0.00    -0.367 N 
ATOM      7  H2  UNL     1      44.008   5.659  10.748  1.00  0.00     0.161 HD
BRANCH   6   8
HETATM    8  C6  UNL     1      45.704   5.397   9.406  1.00  0.00     0.172 C 
HETATM    9  S1  UNL     1      46.976   4.425   9.864  1.00  0.00    -0.041 SA
BRANCH   8  10
HETATM   10  N1  UNL     1      45.869   6.330   8.396  1.00  0.00    -0.333 N 
ATOM     11  H1  UNL     1      45.577   6.076   7.453  1.00  0.00     0.168 HD
BRANCH  10  12
HETATM   12  C5  UNL     1      46.422   7.618   8.600  1.00  0.00     0.040 A 
HETATM   13  C4  UNL     1      47.763   7.866   8.744  1.00  0.00     0.030 A 
HETATM   14  C3  UNL     1      48.214   9.148   9.022  1.00  0.00     0.009 A 
HETATM   15  C2  UNL     1      47.350  10.193   9.161  1.00  0.00    -0.061 A 
HETATM   16  C1  UNL     1      47.807  11.575   9.450  1.00  0.00     0.048 C 
HETATM   17  C25 UNL     1      45.981   9.977   9.022  1.00  0.00     0.015 A 
HETATM   18  C23 UNL     1      45.544   8.704   8.749  1.00  0.00    -0.035 A 
HETATM   19  C24 UNL     1      44.076   8.421   8.572  1.00  0.00     0.050 C 
ENDBRANCH  10  12
ENDBRANCH   8  10
ENDBRANCH   6   8
ENDBRANCH   5   6
ENDBRANCH   4   5
ENDBRANCH   3   4
ENDBRANCH   2   3
ENDBRANCH   1   2
BRANCH   1  20
HETATM   20  C12 UNL     1      41.855  -0.194   9.438  1.00  0.00     0.158 C 
BRANCH  20  21
HETATM   21  N3  UNL     1      41.829   0.506   8.328  1.00  0.00    -0.390 NA
HETATM   22  C13 UNL     1      41.813   1.152   7.282  1.00  0.00     0.280 C 
HETATM   23  N4  UNL     1      42.409   0.641   6.105  1.00  0.00    -0.048 NA
HETATM   24  N5  UNL     1      41.216   2.438   7.249  1.00  0.00    -0.152 N 
HETATM   25  C14 UNL     1      40.082   2.891   7.090  1.00  0.00     0.680 C 
ATOM     26  H5  UNL     1      41.903   3.177   7.393  1.00  0.00     0.188 HD
HETATM   27  N6  UNL     1      40.013   4.364   7.154  1.00  0.00    -0.218 N 
HETATM   28  N7  UNL     1      38.893   2.190   6.857  1.00  0.00    -0.214 N 
ATOM     29  H6  UNL     1      39.384   4.781   7.840  1.00  0.00     0.178 HD
HETATM   30  C19 UNL     1      37.698   2.555   7.641  1.00  0.00     0.167 C 
HETATM   31  C22 UNL     1      38.690   1.159   5.903  1.00  0.00     0.167 C 
HETATM   32  C20 UNL     1      36.583   2.717   6.615  1.00  0.00     0.188 C 
HETATM   33  O1  UNL     1      37.085   2.858   5.313  1.00  0.00    -0.388 OA
HETATM   34  C21 UNL     1      37.753   1.750   4.843  1.00  0.00     0.188 C 
BRANCH  27  35
HETATM   35  C15 UNL     1      40.759   5.236   6.329  1.00  0.00     0.036 C 
HETATM   36  C16 UNL     1      42.083   5.633   6.939  1.00  0.00     0.038 C 
HETATM   37  C17 UNL     1      39.921   6.509   6.129  1.00  0.00     0.038 C 
HETATM   38  C18 UNL     1      41.011   4.658   4.952  1.00  0.00     0.038 C 
ENDBRANCH  27  35
ENDBRANCH  20  21
ENDBRANCH   1  20
TORSDOF 11
ENDMDL
MODEL 4
REMARK VINA RESULT: -8.074036931      2.020      5.316
REMARK  11 active torsions:
REMARK  status: ('A' for Active; 'I' for Inactive)
REMARK    1  A    between atoms: C5_5  and  N1_6 
REMARK    2  A    between atoms: N1_6  and  C6_8 
REMARK    3  A    between atoms: C6_8  and  N2_10 
REMARK    4  A    between atoms: N2_10  and  C7_12 
REMARK    5  A    between atoms: C7_12  and  C8_13 
REMARK    6  A    between atoms: C8_13  and  C9_14 
REMARK    7  A    between atoms: C9_14  and  C10_15 
REMARK    8  A    between atoms: C10_15  and  C11_16 
REMARK    9  A    between atoms: C11_16  and  C12_17 
REMARK   10  A    between atoms: C12_17  and  N3_18 
REMARK       I    between atoms: N3_18  and  C13_19 
REMARK       I    between atoms: C13_19  and  N5_21 
REMARK       I    between atoms: C14_23  and  N6_24 
REMARK       I    between atoms: C14_23  and  N7_30 
REMARK   11  A    between atoms: N6_24  and  C15_26 
ROOT
HETATM    1  C11 UNL     1      41.900   5.580   6.290  1.00  0.00     0.059 C 
ENDROOT
BRANCH   1   2
HETATM    2  C10 UNL     1      41.752   6.980   5.729  1.00  0.00     0.006 C 
BRANCH   2   3
HETATM    3  C9  UNL     1      41.564   8.071   6.732  1.00  0.00     0.002 C 
BRANCH   3   4
HETATM    4  C8  UNL     1      42.866   8.926   6.605  1.00  0.00     0.020 C 
BRANCH   4   5
HETATM    5  C7  UNL     1      43.614   9.048   7.870  1.00  0.00     0.122 C 
BRANCH   5   6
HETATM    6  N2  UNL     1      43.308   7.989   8.840  1.00  0.00    -0.367 N 
ATOM      7  H2  UNL     1      42.390   7.880   9.271  1.00  0.00     0.161 HD
BRANCH   6   8
HETATM    8  C6  UNL     1      44.425   7.113   9.131  1.00  0.00     0.172 C 
HETATM    9  S1  UNL     1      45.495   7.718  10.254  1.00  0.00    -0.041 SA
BRANCH   8  10
HETATM   10  N1  UNL     1      44.568   5.819   8.658  1.00  0.00    -0.333 N 
ATOM     11  H1  UNL     1      44.993   5.686   7.741  1.00  0.00     0.168 HD
BRANCH  10  12
HETATM   12  C5  UNL     1      44.156   4.671   9.378  1.00  0.00     0.040 A 
HETATM   13  C4  UNL     1      42.855   4.407   9.724  1.00  0.00     0.030 A 
HETATM   14  C3  UNL     1      42.547   3.299  10.501  1.00  0.00     0.009 A 
HETATM   15  C2  UNL     1      43.515   2.447  10.942  1.00  0.00    -0.061 A 
HETATM   16  C1  UNL     1      43.213   1.250  11.766  1.00  0.00     0.048 C 
HETATM   17  C25 UNL     1      44.847   2.686  10.610  1.00  0.00     0.015 A 
HETATM   18  C23 UNL     1      45.142   3.786   9.842  1.00  0.00    -0.035 A 
HETATM   19  C24 UNL     1      46.562   4.080   9.440  1.00  0.00     0.050 C 
ENDBRANCH  10  12
ENDBRANCH   8  10
ENDBRANCH   6   8
ENDBRANCH   5   6
ENDBRANCH   4   5
ENDBRANCH   3   4
ENDBRANCH   2   3
ENDBRANCH   1   2
BRANCH   1  20
HETATM   20  C12 UNL     1      40.521   5.160   6.873  1.00  0.00     0.158 C 
BRANCH  20  21
HETATM   21  N3  UNL     1      39.918   4.068   6.464  1.00  0.00    -0.390 NA
HETATM   22  C13 UNL     1      39.359   3.047   6.066  1.00  0.00     0.280 C 
HETATM   23  N4  UNL     1      39.529   2.598   4.735  1.00  0.00    -0.048 NA
HETATM   24  N5  UNL     1      38.509   2.318   6.935  1.00  0.00    -0.152 N 
HETATM   25  C14 UNL     1      38.647   1.442   7.790  1.00  0.00     0.680 C 
ATOM     26  H5  UNL     1      37.532   2.588   6.823  1.00  0.00     0.188 HD
HETATM   27  N6  UNL     1      37.383   1.021   8.423  1.00  0.00    -0.218 N 
HETATM   28  N7  UNL     1      39.828   0.817   8.208  1.00  0.00    -0.214 N 
ATOM     29  H6  UNL     1      37.312   1.094   9.438  1.00  0.00     0.178 HD
HETATM   30  C19 UNL     1      40.071   0.675   9.656  1.00  0.00     0.167 C 
HETATM   31  C22 UNL     1      40.834   0.261   7.375  1.00  0.00     0.167 C 
HETATM   32  C20 UNL     1      40.458  -0.787   9.853  1.00  0.00     0.188 C 
HETATM   33  O1  UNL     1      40.099  -1.577   8.751  1.00  0.00    -0.388 OA
HETATM   34  C21 UNL     1      40.759  -1.255   7.587  1.00  0.00     0.188 C 
BRANCH  27  35
HETATM   35  C15 UNL     1      36.262   0.522   7.719  1.00  0.00     0.036 C 
HETATM   36  C16 UNL     1      35.335   1.615   7.242  1.00  0.00     0.038 C 
HETATM   37  C17 UNL     1      35.480  -0.385   8.682  1.00  0.00     0.038 C 
HETATM   38  C18 UNL     1      36.656  -0.334   6.534  1.00  0.00     0.038 C 
ENDBRANCH  27  35
ENDBRANCH  20  21
ENDBRANCH   1  20
TORSDOF 11
ENDMDL
MODEL 5
REMARK VINA RESULT: -8.042214344      1.567      2.712
REMARK  11 active torsions:
REMARK  status: ('A' for Active; 'I' for Inactive)
REMARK    1  A    between atoms: C5_5  and  N1_6 
REMARK    2  A    between atoms: N1_6  and  C6_8 
REMARK    3  A    between atoms: C6_8  and  N2_10 
REMARK    4  A    between atoms: N2_10  and  C7_12 
REMARK    5  A    between atoms: C7_12  and  C8_13 
REMARK    6  A    between atoms: C8_13  and  C9_14 
REMARK    7  A    between atoms: C9_14  and  C10_15 
REMARK    8  A    between atoms: C10_15  and  C11_16 
REMARK    9  A    between atoms: C11_16  and  C12_17 
REMARK   10  A    between atoms: C12_17  and  N3_18 
REMARK       I    between atoms: N3_18  and  C13_19 
REMARK       I    between atoms: C13_19  and  N5_21 
REMARK       I    between atoms: C14_23  and  N6_24 
REMARK       I    between atoms: C14_23  and  N7_30 
REMARK   11  A    between atoms: N6_24  and  C15_26 
ROOT
HETATM    1  C11 UNL     1      43.646   1.473  11.787  1.00  0.00     0.059 C 
ENDROOT
BRANCH   1   2
HETATM    2  C10 UNL     1      43.816   2.681  10.888  1.00  0.00     0.006 C 
BRANCH   2   3
HETATM    3  C9  UNL     1      45.198   2.928  10.376  1.00  0.00     0.002 C 
BRANCH   3   4
HETATM    4  C8  UNL     1      45.128   4.377   9.793  1.00  0.00     0.020 C 
BRANCH   4   5
HETATM    5  C7  UNL     1      43.779   4.763   9.341  1.00  0.00     0.122 C 
BRANCH   5   6
HETATM    6  N2  UNL     1      43.738   5.244   7.954  1.00  0.00    -0.367 N 
ATOM      7  H2  UNL     1      43.860   4.629   7.150  1.00  0.00     0.161 HD
BRANCH   6   8
HETATM    8  C6  UNL     1      43.507   6.669   7.830  1.00  0.00     0.172 C 
HETATM    9  S1  UNL     1      42.548   7.096   6.537  1.00  0.00    -0.041 SA
BRANCH   8  10
HETATM   10  N1  UNL     1      43.900   7.624   8.751  1.00  0.00    -0.333 N 
ATOM     11  H1  UNL     1      43.264   7.847   9.516  1.00  0.00     0.168 HD
BRANCH  10  12
HETATM   12  C5  UNL     1      45.138   8.311   8.690  1.00  0.00     0.040 A 
HETATM   13  C4  UNL     1      46.359   7.708   8.848  1.00  0.00     0.030 A 
HETATM   14  C3  UNL     1      47.521   8.468   8.856  1.00  0.00     0.009 A 
HETATM   15  C2  UNL     1      47.487   9.822   8.710  1.00  0.00    -0.061 A 
HETATM   16  C1  UNL     1      48.714  10.657   8.706  1.00  0.00     0.048 C 
HETATM   17  C25 UNL     1      46.263  10.468   8.549  1.00  0.00     0.015 A 
HETATM   18  C23 UNL     1      45.119   9.707   8.545  1.00  0.00    -0.035 A 
HETATM   19  C24 UNL     1      43.772  10.353   8.357  1.00  0.00     0.050 C 
ENDBRANCH  10  12
ENDBRANCH   8  10
ENDBRANCH   6   8
ENDBRANCH   5   6
ENDBRANCH   4   5
ENDBRANCH   3   4
ENDBRANCH   2   3
ENDBRANCH   1   2
BRANCH   1  20
HETATM   20  C12 UNL     1      42.943   0.363  10.954  1.00  0.00     0.158 C 
BRANCH  20  21
HETATM   21  N3  UNL     1      41.751   0.557  10.442  1.00  0.00    -0.390 NA
HETATM   22  C13 UNL     1      40.627   0.742   9.976  1.00  0.00     0.280 C 
HETATM   23  N4  UNL     1      39.576   1.230  10.787  1.00  0.00    -0.048 NA
HETATM   24  N5  UNL     1      40.364   0.439   8.616  1.00  0.00    -0.152 N 
HETATM   25  C14 UNL     1      40.483   1.015   7.534  1.00  0.00     0.680 C 
ATOM     26  H5  UNL     1      39.975  -0.498   8.506  1.00  0.00     0.188 HD
HETATM   27  N6  UNL     1      40.043   0.212   6.378  1.00  0.00    -0.218 N 
HETATM   28  N7  UNL     1      40.965   2.306   7.289  1.00  0.00    -0.214 N 
ATOM     29  H6  UNL     1      40.717   0.046   5.630  1.00  0.00     0.178 HD
HETATM   30  C19 UNL     1      41.950   2.493   6.206  1.00  0.00     0.167 C 
HETATM   31  C22 UNL     1      40.583   3.496   7.961  1.00  0.00     0.167 C 
HETATM   32  C20 UNL     1      41.418   3.659   5.381  1.00  0.00     0.188 C 
HETATM   33  O1  UNL     1      40.064   3.913   5.644  1.00  0.00    -0.388 OA
HETATM   34  C21 UNL     1      39.806   4.325   6.931  1.00  0.00     0.188 C 
BRANCH  27  35
HETATM   35  C15 UNL     1      38.751  -0.344   6.234  1.00  0.00     0.036 C 
HETATM   36  C16 UNL     1      37.770   0.178   7.257  1.00  0.00     0.038 C 
HETATM   37  C17 UNL     1      38.880  -1.863   6.424  1.00  0.00     0.038 C 
HETATM   38  C18 UNL     1      38.176  -0.124   4.851  1.00  0.00     0.038 C 
ENDBRANCH  27  35
ENDBRANCH  20  21
ENDBRANCH   1  20
TORSDOF 11
ENDMDL
