MODEL 1
REMARK VINA RESULT: -8.798503098      0.000      0.000
REMARK  9 active torsions:
REMARK  status: ('A' for Active; 'I' for Inactive)
REMARK    1  A    between atoms: C2_2  and  C4_4 
REMARK    2  A    between atoms: C4_4  and  C5_5 
REMARK    3  A    between atoms: C5_5  and  N1_6 
REMARK    4  A    between atoms: C5_5  and  C12_16 
REMARK       I    between atoms: N1_6  and  C6_8 
REMARK       I    between atoms: C6_8  and  N2_10 
REMARK       I    between atoms: C12_16  and  N3_18 
REMARK    5  A    between atoms: N3_18  and  C13_20 
REMARK    6  A    between atoms: C13_20  and  C14_21 
REMARK       I    between atoms: C14_21  and  N4_23 
REMARK    7  A    between atoms: N4_23  and  C15_25 
REMARK    8  A    between atoms: C15_25  and  C16_26 
REMARK    9  A    between atoms: C15_25  and  C20_32 
ROOT
HETATM    1  C13 UNL     1      40.318   3.844   6.187  1.00  0.00     0.117 C 
HETATM    2  C23 UNL     1      38.975   4.081   6.903  1.00  0.00     0.046 C 
HETATM    3  C24 UNL     1      37.992   4.313   5.804  1.00  0.00    -0.011 C 
HETATM    4  C25 UNL     1      37.691   2.965   5.188  1.00  0.00     0.005 C 
HETATM    5  C26 UNL     1      38.957   2.642   4.399  1.00  0.00     0.008 C 
HETATM    6  C27 UNL     1      39.908   3.725   4.742  1.00  0.00     0.024 C 
HETATM    7  C28 UNL     1      38.902   4.914   4.718  1.00  0.00     0.012 C 
ENDROOT
BRANCH   1   8
HETATM    8  N3  UNL     1      41.116   5.069   6.252  1.00  0.00    -0.341 N 
HETATM    9  C12 UNL     1      41.865   5.513   7.337  1.00  0.00     0.241 C 
HETATM   10  O2  UNL     1      41.949   4.884   8.427  1.00  0.00    -0.271 OA
ATOM     11  H3  UNL     1      41.124   5.657   5.418  1.00  0.00     0.163 HD
BRANCH   9  12
HETATM   12  C5  UNL     1      42.625   6.796   7.249  1.00  0.00     0.178 C 
BRANCH  12  13
HETATM   13  C4  UNL     1      42.686   7.199   5.815  1.00  0.00     0.038 C 
BRANCH  13  14
HETATM   14  C2  UNL     1      42.277   8.627   5.560  1.00  0.00    -0.020 C 
HETATM   15  C1  UNL     1      40.747   8.666   5.433  1.00  0.00     0.009 C 
HETATM   16  C3  UNL     1      42.639   9.542   6.699  1.00  0.00     0.009 C 
ENDBRANCH  13  14
ENDBRANCH  12  13
BRANCH  12  17
HETATM   17  N1  UNL     1      43.940   6.682   7.849  1.00  0.00    -0.330 N 
HETATM   18  C6  UNL     1      44.230   7.094   9.163  1.00  0.00     0.319 C 
HETATM   19  O1  UNL     1      43.278   7.584   9.832  1.00  0.00    -0.247 OA
HETATM   20  N2  UNL     1      45.503   6.988   9.749  1.00  0.00    -0.334 N 
HETATM   21  C7  UNL     1      46.662   6.449   9.083  1.00  0.00     0.127 C 
HETATM   22  C11 UNL     1      45.716   7.443  11.127  1.00  0.00     0.127 C 
HETATM   23  C8  UNL     1      47.875   7.381   9.204  1.00  0.00     0.020 C 
HETATM   24  C9  UNL     1      48.110   7.812  10.615  1.00  0.00     0.003 C 
HETATM   25  C10 UNL     1      47.116   7.206  11.585  1.00  0.00     0.020 C 
ATOM     26  H1  UNL     1      44.693   6.283   7.289  1.00  0.00     0.165 HD
ENDBRANCH  12  17
ENDBRANCH   9  12
ENDBRANCH   1   8
BRANCH   1  27
HETATM   27  C14 UNL     1      41.063   2.733   6.747  1.00  0.00     0.247 C 
HETATM   28  O3  UNL     1      42.042   2.248   6.067  1.00  0.00    -0.271 OA
HETATM   29  N4  UNL     1      40.861   2.081   7.988  1.00  0.00    -0.348 N 
ATOM     30  H4  UNL     1      40.108   2.409   8.594  1.00  0.00     0.163 HD
BRANCH  29  31
HETATM   31  C15 UNL     1      41.686   0.958   8.440  1.00  0.00     0.138 C 
BRANCH  31  32
HETATM   32  C16 UNL     1      42.590   1.349   9.543  1.00  0.00     0.032 A 
HETATM   33  C17 UNL     1      42.777   0.692  10.746  1.00  0.00     0.028 A 
HETATM   34  C18 UNL     1      43.702   1.356  11.529  1.00  0.00     0.019 A 
HETATM   35  C19 UNL     1      44.084   2.457  10.761  1.00  0.00     0.088 A 
HETATM   36  N5  UNL     1      43.415   2.432   9.595  1.00  0.00    -0.367 N 
ATOM     37  H5  UNL     1      43.512   3.125   8.853  1.00  0.00     0.165 HD
ENDBRANCH  31  32
BRANCH  31  38
HETATM   38  C20 UNL     1      40.867  -0.268   8.728  1.00  0.00     0.006 C 
HETATM   39  C21 UNL     1      41.305  -1.495   8.008  1.00  0.00     0.012 C 
HETATM   40  C22 UNL     1      39.412   0.070   8.518  1.00  0.00     0.012 C 
ENDBRANCH  31  38
ENDBRANCH  29  31
ENDBRANCH   1  27
TORSDOF 9
ENDMDL
MODEL 2
REMARK VINA RESULT: -8.374895458      1.819      5.977
REMARK  9 active torsions:
REMARK  status: ('A' for Active; 'I' for Inactive)
REMARK    1  A    between atoms: C2_2  and  C4_4 
REMARK    2  A    between atoms: C4_4  and  C5_5 
REMARK    3  A    between atoms: C5_5  and  N1_6 
REMARK    4  A    between atoms: C5_5  and  C12_16 
REMARK       I    between atoms: N1_6  and  C6_8 
REMARK       I    between atoms: C6_8  and  N2_10 
REMARK       I    between atoms: C12_16  and  N3_18 
REMARK    5  A    between atoms: N3_18  and  C13_20 
REMARK    6  A    between atoms: C13_20  and  C14_21 
REMARK       I    between atoms: C14_21  and  N4_23 
REMARK    7  A    between atoms: N4_23  and  C15_25 
REMARK    8  A    between atoms: C15_25  and  C16_26 
REMARK    9  A    between atoms: C15_25  and  C20_32 
ROOT
HETATM    1  C13 UNL     1      40.355   3.909   6.769  1.00  0.00     0.117 C 
HETATM    2  C23 UNL     1      40.580   2.639   5.927  1.00  0.00     0.046 C 
HETATM    3  C24 UNL     1      39.379   1.790   6.188  1.00  0.00    -0.011 C 
HETATM    4  C25 UNL     1      38.235   2.390   5.402  1.00  0.00     0.005 C 
HETATM    5  C26 UNL     1      37.888   3.654   6.183  1.00  0.00     0.008 C 
HETATM    6  C27 UNL     1      38.929   3.753   7.232  1.00  0.00     0.024 C 
HETATM    7  C28 UNL     1      39.003   2.245   7.610  1.00  0.00     0.012 C 
ENDROOT
BRANCH   1   8
HETATM    8  N3  UNL     1      41.158   3.821   7.990  1.00  0.00    -0.341 N 
HETATM    9  C12 UNL     1      42.529   4.038   8.096  1.00  0.00     0.241 C 
HETATM   10  O2  UNL     1      43.261   4.352   7.118  1.00  0.00    -0.271 OA
ATOM     11  H3  UNL     1      40.665   3.577   8.848  1.00  0.00     0.163 HD
BRANCH   9  12
HETATM   12  C5  UNL     1      43.209   3.903   9.419  1.00  0.00     0.178 C 
BRANCH  12  13
HETATM   13  C4  UNL     1      42.177   3.540  10.433  1.00  0.00     0.038 C 
BRANCH  13  14
HETATM   14  C2  UNL     1      42.461   2.254  11.166  1.00  0.00    -0.020 C 
HETATM   15  C1  UNL     1      41.562   1.161  10.569  1.00  0.00     0.009 C 
HETATM   16  C3  UNL     1      43.882   1.790  10.986  1.00  0.00     0.009 C 
ENDBRANCH  13  14
ENDBRANCH  12  13
BRANCH  12  17
HETATM   17  N1  UNL     1      43.935   5.107   9.774  1.00  0.00    -0.330 N 
HETATM   18  C6  UNL     1      45.304   5.290   9.510  1.00  0.00     0.319 C 
HETATM   19  O1  UNL     1      45.908   4.343   8.934  1.00  0.00    -0.247 OA
HETATM   20  N2  UNL     1      46.014   6.454   9.854  1.00  0.00    -0.334 N 
HETATM   21  C7  UNL     1      45.432   7.596  10.514  1.00  0.00     0.127 C 
HETATM   22  C11 UNL     1      47.443   6.560   9.541  1.00  0.00     0.127 C 
HETATM   23  C8  UNL     1      46.260   8.035  11.729  1.00  0.00     0.020 C 
HETATM   24  C9  UNL     1      47.710   8.179  11.395  1.00  0.00     0.003 C 
HETATM   25  C10 UNL     1      48.007   7.883   9.940  1.00  0.00     0.020 C 
ATOM     26  H1  UNL     1      43.426   5.858  10.239  1.00  0.00     0.165 HD
ENDBRANCH  12  17
ENDBRANCH   9  12
ENDBRANCH   1   8
BRANCH   1  27
HETATM   27  C14 UNL     1      40.677   5.124   6.046  1.00  0.00     0.247 C 
HETATM   28  O3  UNL     1      40.951   5.036   4.792  1.00  0.00    -0.271 OA
HETATM   29  N4  UNL     1      40.731   6.450   6.543  1.00  0.00    -0.348 N 
ATOM     30  H4  UNL     1      40.520   6.610   7.529  1.00  0.00     0.163 HD
BRANCH  29  31
HETATM   31  C15 UNL     1      41.076   7.600   5.704  1.00  0.00     0.138 C 
BRANCH  31  32
HETATM   32  C16 UNL     1      39.883   8.400   5.352  1.00  0.00     0.032 A 
HETATM   33  C17 UNL     1      39.775   9.779   5.334  1.00  0.00     0.028 A 
HETATM   34  C18 UNL     1      38.503  10.167   4.955  1.00  0.00     0.019 A 
HETATM   35  C19 UNL     1      37.823   8.968   4.738  1.00  0.00     0.088 A 
HETATM   36  N5  UNL     1      38.656   7.941   4.978  1.00  0.00    -0.367 N 
ATOM     37  H5  UNL     1      38.406   6.955   4.893  1.00  0.00     0.165 HD
ENDBRANCH  31  32
BRANCH  31  38
HETATM   38  C20 UNL     1      42.203   8.407   6.283  1.00  0.00     0.006 C 
HETATM   39  C21 UNL     1      43.355   8.620   5.364  1.00  0.00     0.012 C 
HETATM   40  C22 UNL     1      42.591   7.802   7.609  1.00  0.00     0.012 C 
ENDBRANCH  31  38
ENDBRANCH  29  31
ENDBRANCH   1  27
TORSDOF 9
ENDMDL
MODEL 3
REMARK VINA RESULT: -8.308171361      3.115      4.674
REMARK  9 active torsions:
REMARK  status: ('A' for Active; 'I' for Inactive)
REMARK    1  A    between atoms: C2_2  and  C4_4 
REMARK    2  A    between atoms: C4_4  and  C5_5 
REMARK    3  A    between atoms: C5_5  and  N1_6 
REMARK    4  A    between atoms: C5_5  and  C12_16 
REMARK       I    between atoms: N1_6  and  C6_8 
REMARK       I    between atoms: C6_8  and  N2_10 
REMARK       I    between atoms: C12_16  and  N3_18 
REMARK    5  A    between atoms: N3_18  and  C13_20 
REMARK    6  A    between atoms: C13_20  and  C14_21 
REMARK       I    between atoms: C14_21  and  N4_23 
REMARK    7  A    between atoms: N4_23  and  C15_25 
REMARK    8  A    between atoms: C15_25  and  C16_26 
REMARK    9  A    between atoms: C15_25  and  C20_32 
ROOT
HETATM    1  C13 UNL     1      37.911   2.808   4.005  1.00  0.00     0.117 C 
HETATM    2  C23 UNL     1      36.406   3.136   3.999  1.00  0.00     0.046 C 
HETATM    3  C24 UNL     1      36.195   3.937   2.756  1.00  0.00    -0.011 C 
HETATM    4  C25 UNL     1      36.225   2.968   1.596  1.00  0.00     0.005 C 
HETATM    5  C26 UNL     1      37.702   2.603   1.474  1.00  0.00     0.008 C 
HETATM    6  C27 UNL     1      38.354   3.252   2.634  1.00  0.00     0.024 C 
HETATM    7  C28 UNL     1      37.575   4.599   2.596  1.00  0.00     0.012 C 
ENDROOT
BRANCH   1   8
HETATM    8  N3  UNL     1      38.593   3.712   4.932  1.00  0.00    -0.341 N 
HETATM    9  C12 UNL     1      39.965   3.928   5.018  1.00  0.00     0.241 C 
HETATM   10  O2  UNL     1      40.808   3.352   4.277  1.00  0.00    -0.271 OA
ATOM     11  H3  UNL     1      38.004   4.237   5.579  1.00  0.00     0.163 HD
BRANCH   9  12
HETATM   12  C5  UNL     1      40.511   4.885   6.027  1.00  0.00     0.178 C 
BRANCH  12  13
HETATM   13  C4  UNL     1      41.340   5.892   5.305  1.00  0.00     0.038 C 
BRANCH  13  14
HETATM   14  C2  UNL     1      41.456   7.216   6.017  1.00  0.00    -0.020 C 
HETATM   15  C1  UNL     1      42.795   7.854   5.616  1.00  0.00     0.009 C 
HETATM   16  C3  UNL     1      40.378   8.185   5.610  1.00  0.00     0.009 C 
ENDBRANCH  13  14
ENDBRANCH  12  13
BRANCH  12  17
HETATM   17  N1  UNL     1      41.253   4.201   7.068  1.00  0.00    -0.330 N 
HETATM   18  C6  UNL     1      40.684   3.229   7.912  1.00  0.00     0.319 C 
HETATM   19  O1  UNL     1      39.465   2.957   7.731  1.00  0.00    -0.247 OA
HETATM   20  N2  UNL     1      41.398   2.564   8.925  1.00  0.00    -0.334 N 
HETATM   21  C7  UNL     1      42.790   2.793   9.223  1.00  0.00     0.127 C 
HETATM   22  C11 UNL     1      40.725   1.563   9.759  1.00  0.00     0.127 C 
HETATM   23  C8  UNL     1      43.019   3.039  10.720  1.00  0.00     0.020 C 
HETATM   24  C9  UNL     1      42.363   1.994  11.565  1.00  0.00     0.003 C 
HETATM   25  C10 UNL     1      41.656   0.937  10.743  1.00  0.00     0.020 C 
ATOM     26  H1  UNL     1      42.237   4.437   7.195  1.00  0.00     0.165 HD
ENDBRANCH  12  17
ENDBRANCH   9  12
ENDBRANCH   1   8
BRANCH   1  27
HETATM   27  C14 UNL     1      38.182   1.429   4.363  1.00  0.00     0.247 C 
HETATM   28  O3  UNL     1      38.309   0.565   3.418  1.00  0.00    -0.271 OA
HETATM   29  N4  UNL     1      38.337   0.875   5.657  1.00  0.00    -0.348 N 
ATOM     30  H4  UNL     1      38.258   1.494   6.465  1.00  0.00     0.163 HD
BRANCH  29  31
HETATM   31  C15 UNL     1      38.605  -0.546   5.887  1.00  0.00     0.138 C 
BRANCH  31  32
HETATM   32  C16 UNL     1      39.903  -0.758   6.563  1.00  0.00     0.032 A 
HETATM   33  C17 UNL     1      40.165  -1.595   7.633  1.00  0.00     0.028 A 
HETATM   34  C18 UNL     1      41.496  -1.529   7.996  1.00  0.00     0.019 A 
HETATM   35  C19 UNL     1      42.056  -0.612   7.104  1.00  0.00     0.088 A 
HETATM   36  N5  UNL     1      41.097  -0.171   6.269  1.00  0.00    -0.367 N 
ATOM     37  H5  UNL     1      41.243   0.506   5.521  1.00  0.00     0.165 HD
ENDBRANCH  31  32
BRANCH  31  38
HETATM   38  C20 UNL     1      37.451  -1.242   6.551  1.00  0.00     0.006 C 
HETATM   39  C21 UNL     1      36.571  -2.012   5.629  1.00  0.00     0.012 C 
HETATM   40  C22 UNL     1      36.710  -0.236   7.396  1.00  0.00     0.012 C 
ENDBRANCH  31  38
ENDBRANCH  29  31
ENDBRANCH   1  27
TORSDOF 9
ENDMDL
MODEL 4
REMARK VINA RESULT: -8.255614878      1.763      4.585
REMARK  9 active torsions:
REMARK  status: ('A' for Active; 'I' for Inactive)
REMARK    1  A    between atoms: C2_2  and  C4_4 
REMARK    2  A    between atoms: C4_4  and  C5_5 
REMARK    3  A    between atoms: C5_5  and  N1_6 
REMARK    4  A    between atoms: C5_5  and  C12_16 
REMARK       I    between atoms: N1_6  and  C6_8 
REMARK       I    between atoms: C6_8  and  N2_10 
REMARK       I    between atoms: C12_16  and  N3_18 
REMARK    5  A    between atoms: N3_18  and  C13_20 
REMARK    6  A    between atoms: C13_20  and  C14_21 
REMARK       I    between atoms: C14_21  and  N4_23 
REMARK    7  A    between atoms: N4_23  and  C15_25 
REMARK    8  A    between atoms: C15_25  and  C16_26 
REMARK    9  A    between atoms: C15_25  and  C20_32 
ROOT
HETATM    1  C13 UNL     1      40.895   2.021   8.770  1.00  0.00     0.117 C 
HETATM    2  C23 UNL     1      42.090   1.094   8.481  1.00  0.00     0.046 C 
HETATM    3  C24 UNL     1      42.524   0.602   9.822  1.00  0.00    -0.011 C 
HETATM    4  C25 UNL     1      41.520  -0.444  10.254  1.00  0.00     0.005 C 
HETATM    5  C26 UNL     1      40.285   0.376  10.618  1.00  0.00     0.008 C 
HETATM    6  C27 UNL     1      40.620   1.765  10.230  1.00  0.00     0.024 C 
HETATM    7  C28 UNL     1      42.098   1.778  10.719  1.00  0.00     0.012 C 
ENDROOT
BRANCH   1   8
HETATM    8  N3  UNL     1      41.344   3.413   8.710  1.00  0.00    -0.341 N 
HETATM    9  C12 UNL     1      41.794   4.089   7.581  1.00  0.00     0.241 C 
HETATM   10  O2  UNL     1      41.865   3.563   6.437  1.00  0.00    -0.271 OA
ATOM     11  H3  UNL     1      41.324   3.940   9.583  1.00  0.00     0.163 HD
BRANCH   9  12
HETATM   12  C5  UNL     1      42.227   5.515   7.684  1.00  0.00     0.178 C 
BRANCH  12  13
HETATM   13  C4  UNL     1      42.090   6.137   6.335  1.00  0.00     0.038 C 
BRANCH  13  14
HETATM   14  C2  UNL     1      41.753   7.606   6.367  1.00  0.00    -0.020 C 
HETATM   15  C1  UNL     1      42.810   8.352   5.538  1.00  0.00     0.009 C 
HETATM   16  C3  UNL     1      40.420   7.906   5.737  1.00  0.00     0.009 C 
ENDBRANCH  13  14
ENDBRANCH  12  13
BRANCH  12  17
HETATM   17  N1  UNL     1      43.571   5.632   8.213  1.00  0.00    -0.330 N 
HETATM   18  C6  UNL     1      43.893   6.406   9.344  1.00  0.00     0.319 C 
HETATM   19  O1  UNL     1      42.944   7.019   9.906  1.00  0.00    -0.247 OA
HETATM   20  N2  UNL     1      45.195   6.524   9.861  1.00  0.00    -0.334 N 
HETATM   21  C7  UNL     1      46.353   5.872   9.303  1.00  0.00     0.127 C 
HETATM   22  C11 UNL     1      45.441   7.353  11.045  1.00  0.00     0.127 C 
HETATM   23  C8  UNL     1      47.513   6.855   9.091  1.00  0.00     0.020 C 
HETATM   24  C9  UNL     1      47.785   7.672  10.313  1.00  0.00     0.003 C 
HETATM   25  C10 UNL     1      46.871   7.317  11.468  1.00  0.00     0.020 C 
ATOM     26  H1  UNL     1      44.321   5.127   7.742  1.00  0.00     0.165 HD
ENDBRANCH  12  17
ENDBRANCH   9  12
ENDBRANCH   1   8
BRANCH   1  27
HETATM   27  C14 UNL     1      39.791   1.813   7.853  1.00  0.00     0.247 C 
HETATM   28  O3  UNL     1      38.635   2.280   8.170  1.00  0.00    -0.271 OA
HETATM   29  N4  UNL     1      39.805   1.144   6.604  1.00  0.00    -0.348 N 
ATOM     30  H4  UNL     1      40.685   0.748   6.273  1.00  0.00     0.163 HD
BRANCH  29  31
HETATM   31  C15 UNL     1      38.612   0.995   5.768  1.00  0.00     0.138 C 
BRANCH  31  32
HETATM   32  C16 UNL     1      38.640   1.907   4.604  1.00  0.00     0.032 A 
HETATM   33  C17 UNL     1      37.924   1.785   3.426  1.00  0.00     0.028 A 
HETATM   34  C18 UNL     1      38.211   2.829   2.567  1.00  0.00     0.019 A 
HETATM   35  C19 UNL     1      39.138   3.608   3.261  1.00  0.00     0.088 A 
HETATM   36  N5  UNL     1      39.375   3.045   4.459  1.00  0.00    -0.367 N 
ATOM     37  H5  UNL     1      40.015   3.417   5.161  1.00  0.00     0.165 HD
ENDBRANCH  31  32
BRANCH  31  38
HETATM   38  C20 UNL     1      38.342  -0.439   5.413  1.00  0.00     0.006 C 
HETATM   39  C21 UNL     1      36.904  -0.825   5.418  1.00  0.00     0.012 C 
HETATM   40  C22 UNL     1      39.207  -1.316   6.282  1.00  0.00     0.012 C 
ENDBRANCH  31  38
ENDBRANCH  29  31
ENDBRANCH   1  27
TORSDOF 9
ENDMDL
MODEL 5
REMARK VINA RESULT: -8.233622852      1.063      2.077
REMARK  9 active torsions:
REMARK  status: ('A' for Active; 'I' for Inactive)
REMARK    1  A    between atoms: C2_2  and  C4_4 
REMARK    2  A    between atoms: C4_4  and  C5_5 
REMARK    3  A    between atoms: C5_5  and  N1_6 
REMARK    4  A    between atoms: C5_5  and  C12_16 
REMARK       I    between atoms: N1_6  and  C6_8 
REMARK       I    between atoms: C6_8  and  N2_10 
REMARK       I    between atoms: C12_16  and  N3_18 
REMARK    5  A    between atoms: N3_18  and  C13_20 
REMARK    6  A    between atoms: C13_20  and  C14_21 
REMARK       I    between atoms: C14_21  and  N4_23 
REMARK    7  A    between atoms: N4_23  and  C15_25 
REMARK    8  A    between atoms: C15_25  and  C16_26 
REMARK    9  A    between atoms: C15_25  and  C20_32 
ROOT
HETATM    1  C13 UNL     1      39.964   4.174   6.876  1.00  0.00     0.117 C 
HETATM    2  C23 UNL     1      38.467   4.537   6.838  1.00  0.00     0.046 C 
HETATM    3  C24 UNL     1      38.087   4.442   5.398  1.00  0.00    -0.011 C 
HETATM    4  C25 UNL     1      37.977   2.970   5.067  1.00  0.00     0.005 C 
HETATM    5  C26 UNL     1      39.429   2.503   5.028  1.00  0.00     0.008 C 
HETATM    6  C27 UNL     1      40.219   3.672   5.478  1.00  0.00     0.024 C 
HETATM    7  C28 UNL     1      39.427   4.776   4.718  1.00  0.00     0.012 C 
ENDROOT
BRANCH   1   8
HETATM    8  N3  UNL     1      40.750   5.404   6.983  1.00  0.00    -0.341 N 
HETATM    9  C12 UNL     1      42.136   5.508   6.915  1.00  0.00     0.241 C 
HETATM   10  O2  UNL     1      42.900   4.520   6.740  1.00  0.00    -0.271 OA
ATOM     11  H3  UNL     1      40.231   6.271   7.122  1.00  0.00     0.163 HD
BRANCH   9  12
HETATM   12  C5  UNL     1      42.795   6.842   7.049  1.00  0.00     0.178 C 
BRANCH  12  13
HETATM   13  C4  UNL     1      42.903   7.442   5.688  1.00  0.00     0.038 C 
BRANCH  13  14
HETATM   14  C2  UNL     1      42.324   8.829   5.580  1.00  0.00    -0.020 C 
HETATM   15  C1  UNL     1      40.797   8.698   5.481  1.00  0.00     0.009 C 
HETATM   16  C3  UNL     1      42.607   9.668   6.798  1.00  0.00     0.009 C 
ENDBRANCH  13  14
ENDBRANCH  12  13
BRANCH  12  17
HETATM   17  N1  UNL     1      44.080   6.741   7.713  1.00  0.00    -0.330 N 
HETATM   18  C6  UNL     1      44.269   7.024   9.079  1.00  0.00     0.319 C 
HETATM   19  O1  UNL     1      43.251   7.380   9.736  1.00  0.00    -0.247 OA
HETATM   20  N2  UNL     1      45.512   6.930   9.728  1.00  0.00    -0.334 N 
HETATM   21  C7  UNL     1      46.739   6.535   9.082  1.00  0.00     0.127 C 
HETATM   22  C11 UNL     1      45.618   7.243  11.157  1.00  0.00     0.127 C 
HETATM   23  C8  UNL     1      47.879   7.519   9.376  1.00  0.00     0.020 C 
HETATM   24  C9  UNL     1      48.008   7.806  10.836  1.00  0.00     0.003 C 
HETATM   25  C10 UNL     1      47.004   7.041  11.674  1.00  0.00     0.020 C 
ATOM     26  H1  UNL     1      44.887   6.451   7.163  1.00  0.00     0.165 HD
ENDBRANCH  12  17
ENDBRANCH   9  12
ENDBRANCH   1   8
BRANCH   1  27
HETATM   27  C14 UNL     1      40.294   3.273   7.963  1.00  0.00     0.247 C 
HETATM   28  O3  UNL     1      39.534   2.255   8.167  1.00  0.00    -0.271 OA
HETATM   29  N4  UNL     1      41.381   3.355   8.868  1.00  0.00    -0.348 N 
ATOM     30  H4  UNL     1      42.038   4.130   8.772  1.00  0.00     0.163 HD
BRANCH  29  31
HETATM   31  C15 UNL     1      41.604   2.376   9.934  1.00  0.00     0.138 C 
BRANCH  31  32
HETATM   32  C16 UNL     1      41.765   1.007   9.398  1.00  0.00     0.032 A 
HETATM   33  C17 UNL     1      41.212  -0.159   9.896  1.00  0.00     0.028 A 
HETATM   34  C18 UNL     1      41.586  -1.247   9.131  1.00  0.00     0.019 A 
HETATM   35  C19 UNL     1      42.397  -0.708   8.131  1.00  0.00     0.088 A 
HETATM   36  N5  UNL     1      42.488   0.622   8.310  1.00  0.00    -0.367 N 
ATOM     37  H5  UNL     1      43.023   1.254   7.714  1.00  0.00     0.165 HD
ENDBRANCH  31  32
BRANCH  31  38
HETATM   38  C20 UNL     1      42.700   2.796  10.871  1.00  0.00     0.006 C 
HETATM   39  C21 UNL     1      43.858   3.467  10.218  1.00  0.00     0.012 C 
HETATM   40  C22 UNL     1      43.086   1.609  11.716  1.00  0.00     0.012 C 
ENDBRANCH  31  38
ENDBRANCH  29  31
ENDBRANCH   1  27
TORSDOF 9
ENDMDL
