MODEL 1
REMARK VINA RESULT: -7.787488135      0.000      0.000
REMARK  12 active torsions:
REMARK  status: ('A' for Active; 'I' for Inactive)
REMARK    1  A    between atoms: C2_2  and  C3_3 
REMARK    2  A    between atoms: C3_3  and  C4_4 
REMARK    3  A    between atoms: C4_4  and  C5_5 
REMARK    4  A    between atoms: C5_5  and  C6_6 
REMARK    5  A    between atoms: C6_6  and  C7_7 
REMARK    6  A    between atoms: C7_7  and  C8_8 
REMARK    7  A    between atoms: C8_8  and  C9_9 
REMARK    8  A    between atoms: C9_9  and  C10_10 
REMARK    9  A    between atoms: C10_10  and  O1_12 
REMARK   10  A    between atoms: C10_10  and  C12_14 
REMARK   11  A    between atoms: C21_23  and  O2_24 
REMARK   12  A    between atoms: C22_26  and  O3_27 
ROOT
HETATM    1  C12 UNL     1      28.495   5.988  60.443  1.00  0.00     0.024 C 
HETATM    2  C13 UNL     1      28.438   5.631  61.897  1.00  0.00     0.008 C 
HETATM    3  C14 UNL     1      27.806   4.236  61.845  1.00  0.00     0.006 C 
HETATM    4  C15 UNL     1      27.431   3.973  60.437  1.00  0.00    -0.005 C 
HETATM    5  C16 UNL     1      26.205   3.217  60.195  1.00  0.00    -0.003 C 
HETATM    6  C17 UNL     1      26.153   1.819  60.667  1.00  0.00     0.017 C 
HETATM    7  C18 UNL     1      24.706   1.570  60.991  1.00  0.00    -0.015 C 
HETATM    8  C19 UNL     1      24.562   1.503  62.494  1.00  0.00     0.018 C 
HETATM    9  C20 UNL     1      24.176   0.303  60.399  1.00  0.00     0.046 C 
HETATM   10  C21 UNL     1      22.686   0.242  60.414  1.00  0.00     0.149 C 
HETATM   11  C22 UNL     1      22.029   1.257  59.534  1.00  0.00     0.170 C 
HETATM   12  C23 UNL     1      22.970   1.937  58.601  1.00  0.00     0.202 C 
HETATM   13  O4  UNL     1      23.800   2.857  59.158  1.00  0.00    -0.382 OA
HETATM   14  C24 UNL     1      23.953   2.806  60.512  1.00  0.00     0.134 C 
HETATM   15  C25 UNL     1      25.002   3.851  60.868  1.00  0.00     0.020 C 
HETATM   16  C26 UNL     1      24.778   5.158  60.174  1.00  0.00     0.008 C 
HETATM   17  C27 UNL     1      25.986   6.031  60.311  1.00  0.00     0.006 C 
HETATM   18  C28 UNL     1      27.264   5.390  59.882  1.00  0.00    -0.003 C 
ENDROOT
BRANCH   1  19
HETATM   19  C10 UNL     1      28.813   7.389  60.146  1.00  0.00     0.058 C 
HETATM   20  C11 UNL     1      28.722   8.378  61.231  1.00  0.00     0.046 C 
BRANCH  19  21
HETATM   21  C9  UNL     1      27.975   7.869  58.973  1.00  0.00     0.038 C 
BRANCH  21  22
HETATM   22  C8  UNL     1      27.761   9.376  59.211  1.00  0.00     0.003 C 
BRANCH  22  23
HETATM   23  C7  UNL     1      26.330   9.729  58.974  1.00  0.00     0.000 C 
BRANCH  23  24
HETATM   24  C6  UNL     1      25.534   8.686  58.257  1.00  0.00     0.000 C 
BRANCH  24  25
HETATM   25  C5  UNL     1      24.138   9.290  57.919  1.00  0.00     0.000 C 
BRANCH  25  26
HETATM   26  C4  UNL     1      23.294   8.244  57.299  1.00  0.00     0.000 C 
BRANCH  26  27
HETATM   27  C3  UNL     1      23.970   7.008  56.898  1.00  0.00    -0.000 C 
BRANCH  27  28
HETATM   28  C2  UNL     1      23.213   5.740  56.977  1.00  0.00    -0.005 C 
HETATM   29  C1  UNL     1      21.814   5.779  56.455  1.00  0.00     0.005 C 
ENDBRANCH  27  28
ENDBRANCH  26  27
ENDBRANCH  25  26
ENDBRANCH  24  25
ENDBRANCH  23  24
ENDBRANCH  22  23
ENDBRANCH  21  22
ENDBRANCH  19  21
BRANCH  19  30
HETATM   30  O1  UNL     1      30.149   7.415  59.665  1.00  0.00    -0.390 OA
ATOM     31  H1  UNL     1      30.203   8.213  59.154  1.00  0.00     0.210 HD
ENDBRANCH  19  30
ENDBRANCH   1  19
BRANCH  10  32
HETATM   32  O2  UNL     1      22.240   0.332  61.728  1.00  0.00    -0.393 OA
ATOM     33  H2  UNL     1      22.626  -0.372  62.237  1.00  0.00     0.210 HD
ENDBRANCH  10  32
BRANCH  11  34
HETATM   34  O3  UNL     1      21.032   0.641  58.745  1.00  0.00    -0.391 OA
ATOM     35  H3  UNL     1      21.021  -0.295  58.908  1.00  0.00     0.210 HD
ENDBRANCH  11  34
TORSDOF 12
ENDMDL
MODEL 2
REMARK VINA RESULT: -7.568086091      1.874      4.571
REMARK  12 active torsions:
REMARK  status: ('A' for Active; 'I' for Inactive)
REMARK    1  A    between atoms: C2_2  and  C3_3 
REMARK    2  A    between atoms: C3_3  and  C4_4 
REMARK    3  A    between atoms: C4_4  and  C5_5 
REMARK    4  A    between atoms: C5_5  and  C6_6 
REMARK    5  A    between atoms: C6_6  and  C7_7 
REMARK    6  A    between atoms: C7_7  and  C8_8 
REMARK    7  A    between atoms: C8_8  and  C9_9 
REMARK    8  A    between atoms: C9_9  and  C10_10 
REMARK    9  A    between atoms: C10_10  and  O1_12 
REMARK   10  A    between atoms: C10_10  and  C12_14 
REMARK   11  A    between atoms: C21_23  and  O2_24 
REMARK   12  A    between atoms: C22_26  and  O3_27 
ROOT
HETATM    1  C12 UNL     1      28.346   6.088  60.247  1.00  0.00     0.024 C 
HETATM    2  C13 UNL     1      28.266   5.834  61.722  1.00  0.00     0.008 C 
HETATM    3  C14 UNL     1      27.674   4.421  61.756  1.00  0.00     0.006 C 
HETATM    4  C15 UNL     1      27.338   4.048  60.364  1.00  0.00    -0.005 C 
HETATM    5  C16 UNL     1      26.140   3.241  60.151  1.00  0.00    -0.003 C 
HETATM    6  C17 UNL     1      26.116   1.879  60.720  1.00  0.00     0.017 C 
HETATM    7  C18 UNL     1      24.669   1.611  61.031  1.00  0.00    -0.015 C 
HETATM    8  C19 UNL     1      24.493   1.646  62.532  1.00  0.00     0.018 C 
HETATM    9  C20 UNL     1      24.188   0.291  60.520  1.00  0.00     0.046 C 
HETATM   10  C21 UNL     1      22.701   0.187  60.509  1.00  0.00     0.149 C 
HETATM   11  C22 UNL     1      22.035   1.118  59.546  1.00  0.00     0.170 C 
HETATM   12  C23 UNL     1      22.978   1.758  58.586  1.00  0.00     0.202 C 
HETATM   13  O4  UNL     1      23.770   2.738  59.093  1.00  0.00    -0.382 OA
HETATM   14  C24 UNL     1      23.893   2.788  60.450  1.00  0.00     0.134 C 
HETATM   15  C25 UNL     1      24.905   3.886  60.752  1.00  0.00     0.020 C 
HETATM   16  C26 UNL     1      24.659   5.133  59.962  1.00  0.00     0.008 C 
HETATM   17  C27 UNL     1      25.840   6.049  60.062  1.00  0.00     0.006 C 
HETATM   18  C28 UNL     1      27.145   5.417  59.706  1.00  0.00    -0.003 C 
ENDROOT
BRANCH   1  19
HETATM   19  C10 UNL     1      28.631   7.474  59.859  1.00  0.00     0.058 C 
HETATM   20  C11 UNL     1      30.034   7.899  59.736  1.00  0.00     0.046 C 
BRANCH  19  21
HETATM   21  C9  UNL     1      27.908   8.429  60.794  1.00  0.00     0.038 C 
BRANCH  21  22
HETATM   22  C8  UNL     1      28.789   9.691  60.853  1.00  0.00     0.003 C 
BRANCH  22  23
HETATM   23  C7  UNL     1      28.889  10.175  62.262  1.00  0.00     0.000 C 
BRANCH  23  24
HETATM   24  C6  UNL     1      28.247   9.288  63.280  1.00  0.00     0.000 C 
BRANCH  24  25
HETATM   25  C5  UNL     1      29.341   8.847  64.297  1.00  0.00     0.000 C 
BRANCH  25  26
HETATM   26  C4  UNL     1      28.885   7.628  65.003  1.00  0.00     0.000 C 
BRANCH  26  27
HETATM   27  C3  UNL     1      29.844   6.526  65.098  1.00  0.00    -0.000 C 
BRANCH  27  28
HETATM   28  C2  UNL     1      31.264   6.855  65.347  1.00  0.00    -0.005 C 
HETATM   29  C1  UNL     1      31.914   6.136  66.484  1.00  0.00     0.005 C 
ENDBRANCH  27  28
ENDBRANCH  26  27
ENDBRANCH  25  26
ENDBRANCH  24  25
ENDBRANCH  23  24
ENDBRANCH  22  23
ENDBRANCH  21  22
ENDBRANCH  19  21
BRANCH  19  30
HETATM   30  O1  UNL     1      28.018   7.681  58.594  1.00  0.00    -0.390 OA
ATOM     31  H1  UNL     1      28.610   7.275  57.973  1.00  0.00     0.210 HD
ENDBRANCH  19  30
ENDBRANCH   1  19
BRANCH  10  32
HETATM   32  O2  UNL     1      22.223   0.356  61.804  1.00  0.00    -0.393 OA
ATOM     33  H2  UNL     1      21.282   0.488  61.773  1.00  0.00     0.210 HD
ENDBRANCH  10  32
BRANCH  11  34
HETATM   34  O3  UNL     1      21.074   0.419  58.783  1.00  0.00    -0.391 OA
ATOM     35  H3  UNL     1      20.389   1.013  58.499  1.00  0.00     0.210 HD
ENDBRANCH  11  34
TORSDOF 12
ENDMDL
MODEL 3
REMARK VINA RESULT: -7.398029371      4.413      8.136
REMARK  12 active torsions:
REMARK  status: ('A' for Active; 'I' for Inactive)
REMARK    1  A    between atoms: C2_2  and  C3_3 
REMARK    2  A    between atoms: C3_3  and  C4_4 
REMARK    3  A    between atoms: C4_4  and  C5_5 
REMARK    4  A    between atoms: C5_5  and  C6_6 
REMARK    5  A    between atoms: C6_6  and  C7_7 
REMARK    6  A    between atoms: C7_7  and  C8_8 
REMARK    7  A    between atoms: C8_8  and  C9_9 
REMARK    8  A    between atoms: C9_9  and  C10_10 
REMARK    9  A    between atoms: C10_10  and  O1_12 
REMARK   10  A    between atoms: C10_10  and  C12_14 
REMARK   11  A    between atoms: C21_23  and  O2_24 
REMARK   12  A    between atoms: C22_26  and  O3_27 
ROOT
HETATM    1  C12 UNL     1      22.205   0.102  60.155  1.00  0.00     0.024 C 
HETATM    2  C13 UNL     1      22.222   0.978  58.939  1.00  0.00     0.008 C 
HETATM    3  C14 UNL     1      20.789   0.813  58.424  1.00  0.00     0.006 C 
HETATM    4  C15 UNL     1      20.132  -0.214  59.263  1.00  0.00    -0.005 C 
HETATM    5  C16 UNL     1      19.185  -1.115  58.611  1.00  0.00    -0.003 C 
HETATM    6  C17 UNL     1      17.957  -0.527  58.040  1.00  0.00     0.017 C 
HETATM    7  C18 UNL     1      17.609  -1.408  56.871  1.00  0.00    -0.015 C 
HETATM    8  C19 UNL     1      17.905  -0.646  55.600  1.00  0.00     0.018 C 
HETATM    9  C20 UNL     1      16.176  -1.833  56.856  1.00  0.00     0.046 C 
HETATM   10  C21 UNL     1      15.925  -2.971  55.926  1.00  0.00     0.149 C 
HETATM   11  C22 UNL     1      16.591  -4.247  56.336  1.00  0.00     0.170 C 
HETATM   12  C23 UNL     1      17.131  -4.219  57.724  1.00  0.00     0.202 C 
HETATM   13  O4  UNL     1      18.262  -3.490  57.908  1.00  0.00    -0.382 OA
HETATM   14  C24 UNL     1      18.575  -2.586  56.936  1.00  0.00     0.134 C 
HETATM   15  C25 UNL     1      19.805  -1.833  57.427  1.00  0.00     0.020 C 
HETATM   16  C26 UNL     1      20.853  -2.740  57.991  1.00  0.00     0.008 C 
HETATM   17  C27 UNL     1      21.883  -1.943  58.729  1.00  0.00     0.006 C 
HETATM   18  C28 UNL     1      21.328  -1.025  59.768  1.00  0.00    -0.003 C 
ENDROOT
BRANCH   1  19
HETATM   19  C10 UNL     1      23.515  -0.180  60.751  1.00  0.00     0.058 C 
HETATM   20  C11 UNL     1      23.702  -1.442  61.483  1.00  0.00     0.046 C 
BRANCH  19  21
HETATM   21  C9  UNL     1      23.930   0.974  61.649  1.00  0.00     0.038 C 
BRANCH  21  22
HETATM   22  C8  UNL     1      25.384   1.297  61.257  1.00  0.00     0.003 C 
BRANCH  22  23
HETATM   23  C7  UNL     1      25.567   2.775  61.159  1.00  0.00     0.000 C 
BRANCH  23  24
HETATM   24  C6  UNL     1      24.351   3.534  60.734  1.00  0.00     0.000 C 
BRANCH  24  25
HETATM   25  C5  UNL     1      24.783   4.994  60.404  1.00  0.00     0.000 C 
BRANCH  25  26
HETATM   26  C4  UNL     1      24.363   5.324  59.024  1.00  0.00     0.000 C 
BRANCH  26  27
HETATM   27  C3  UNL     1      23.843   4.220  58.214  1.00  0.00    -0.000 C 
BRANCH  27  28
HETATM   28  C2  UNL     1      22.956   4.544  57.076  1.00  0.00    -0.005 C 
HETATM   29  C1  UNL     1      22.652   3.420  56.141  1.00  0.00     0.005 C 
ENDBRANCH  27  28
ENDBRANCH  26  27
ENDBRANCH  25  26
ENDBRANCH  24  25
ENDBRANCH  23  24
ENDBRANCH  22  23
ENDBRANCH  21  22
ENDBRANCH  19  21
BRANCH  19  30
HETATM   30  O1  UNL     1      24.460  -0.165  59.692  1.00  0.00    -0.390 OA
ATOM     31  H1  UNL     1      24.264  -0.945  59.186  1.00  0.00     0.210 HD
ENDBRANCH  19  30
ENDBRANCH   1  19
BRANCH  10  32
HETATM   32  O2  UNL     1      16.284  -2.594  54.637  1.00  0.00    -0.393 OA
ATOM     33  H2  UNL     1      15.704  -3.019  54.015  1.00  0.00     0.210 HD
ENDBRANCH  10  32
BRANCH  11  34
HETATM   34  O3  UNL     1      15.670  -5.316  56.268  1.00  0.00    -0.391 OA
ATOM     35  H3  UNL     1      15.033  -5.241  56.968  1.00  0.00     0.210 HD
ENDBRANCH  11  34
TORSDOF 12
ENDMDL
MODEL 4
REMARK VINA RESULT: -7.384532870      4.515      8.524
REMARK  12 active torsions:
REMARK  status: ('A' for Active; 'I' for Inactive)
REMARK    1  A    between atoms: C2_2  and  C3_3 
REMARK    2  A    between atoms: C3_3  and  C4_4 
REMARK    3  A    between atoms: C4_4  and  C5_5 
REMARK    4  A    between atoms: C5_5  and  C6_6 
REMARK    5  A    between atoms: C6_6  and  C7_7 
REMARK    6  A    between atoms: C7_7  and  C8_8 
REMARK    7  A    between atoms: C8_8  and  C9_9 
REMARK    8  A    between atoms: C9_9  and  C10_10 
REMARK    9  A    between atoms: C10_10  and  O1_12 
REMARK   10  A    between atoms: C10_10  and  C12_14 
REMARK   11  A    between atoms: C21_23  and  O2_24 
REMARK   12  A    between atoms: C22_26  and  O3_27 
ROOT
HETATM    1  C12 UNL     1      22.047  -0.118  60.211  1.00  0.00     0.024 C 
HETATM    2  C13 UNL     1      22.020   0.834  59.054  1.00  0.00     0.008 C 
HETATM    3  C14 UNL     1      20.585   0.657  58.547  1.00  0.00     0.006 C 
HETATM    4  C15 UNL     1      19.972  -0.441  59.327  1.00  0.00    -0.005 C 
HETATM    5  C16 UNL     1      19.042  -1.327  58.631  1.00  0.00    -0.003 C 
HETATM    6  C17 UNL     1      17.789  -0.742  58.115  1.00  0.00     0.017 C 
HETATM    7  C18 UNL     1      17.451  -1.557  56.896  1.00  0.00    -0.015 C 
HETATM    8  C19 UNL     1      17.705  -0.708  55.672  1.00  0.00     0.018 C 
HETATM    9  C20 UNL     1      16.031  -2.025  56.872  1.00  0.00     0.046 C 
HETATM   10  C21 UNL     1      15.801  -3.109  55.874  1.00  0.00     0.149 C 
HETATM   11  C22 UNL     1      16.510  -4.387  56.193  1.00  0.00     0.170 C 
HETATM   12  C23 UNL     1      17.070  -4.430  57.573  1.00  0.00     0.202 C 
HETATM   13  O4  UNL     1      18.181  -3.680  57.789  1.00  0.00    -0.382 OA
HETATM   14  C24 UNL     1      18.452  -2.707  56.873  1.00  0.00     0.134 C 
HETATM   15  C25 UNL     1      19.666  -1.949  57.395  1.00  0.00     0.020 C 
HETATM   16  C26 UNL     1      20.749  -2.857  57.887  1.00  0.00     0.008 C 
HETATM   17  C27 UNL     1      21.766  -2.077  58.661  1.00  0.00     0.006 C 
HETATM   18  C28 UNL     1      21.199  -1.245  59.764  1.00  0.00    -0.003 C 
ENDROOT
BRANCH   1  19
HETATM   19  C10 UNL     1      23.374  -0.396  60.771  1.00  0.00     0.058 C 
HETATM   20  C11 UNL     1      23.600  -1.683  61.446  1.00  0.00     0.046 C 
BRANCH  19  21
HETATM   21  C9  UNL     1      23.782   0.728  61.708  1.00  0.00     0.038 C 
BRANCH  21  22
HETATM   22  C8  UNL     1      25.261   1.014  61.387  1.00  0.00     0.003 C 
BRANCH  22  23
HETATM   23  C7  UNL     1      25.481   2.487  61.281  1.00  0.00     0.000 C 
BRANCH  23  24
HETATM   24  C6  UNL     1      24.246   3.293  61.032  1.00  0.00     0.000 C 
BRANCH  24  25
HETATM   25  C5  UNL     1      24.471   4.138  59.743  1.00  0.00     0.000 C 
BRANCH  25  26
HETATM   26  C4  UNL     1      24.800   5.530  60.127  1.00  0.00     0.000 C 
BRANCH  26  27
HETATM   27  C3  UNL     1      26.202   5.932  60.001  1.00  0.00    -0.000 C 
BRANCH  27  28
HETATM   28  C2  UNL     1      27.071   5.821  61.193  1.00  0.00    -0.005 C 
HETATM   29  C1  UNL     1      28.296   4.982  61.035  1.00  0.00     0.005 C 
ENDBRANCH  27  28
ENDBRANCH  26  27
ENDBRANCH  25  26
ENDBRANCH  24  25
ENDBRANCH  23  24
ENDBRANCH  22  23
ENDBRANCH  21  22
ENDBRANCH  19  21
BRANCH  19  30
HETATM   30  O1  UNL     1      24.298  -0.318  59.696  1.00  0.00    -0.390 OA
ATOM     31  H1  UNL     1      23.843   0.177  59.026  1.00  0.00     0.210 HD
ENDBRANCH  19  30
ENDBRANCH   1  19
BRANCH  10  32
HETATM   32  O2  UNL     1      16.129  -2.640  54.608  1.00  0.00    -0.393 OA
ATOM     33  H2  UNL     1      15.856  -1.733  54.531  1.00  0.00     0.210 HD
ENDBRANCH  10  32
BRANCH  11  34
HETATM   34  O3  UNL     1      15.621  -5.478  56.069  1.00  0.00    -0.391 OA
ATOM     35  H3  UNL     1      15.618  -5.794  55.174  1.00  0.00     0.210 HD
ENDBRANCH  11  34
TORSDOF 12
ENDMDL
MODEL 5
REMARK VINA RESULT: -7.317788260      4.546      8.593
REMARK  12 active torsions:
REMARK  status: ('A' for Active; 'I' for Inactive)
REMARK    1  A    between atoms: C2_2  and  C3_3 
REMARK    2  A    between atoms: C3_3  and  C4_4 
REMARK    3  A    between atoms: C4_4  and  C5_5 
REMARK    4  A    between atoms: C5_5  and  C6_6 
REMARK    5  A    between atoms: C6_6  and  C7_7 
REMARK    6  A    between atoms: C7_7  and  C8_8 
REMARK    7  A    between atoms: C8_8  and  C9_9 
REMARK    8  A    between atoms: C9_9  and  C10_10 
REMARK    9  A    between atoms: C10_10  and  O1_12 
REMARK   10  A    between atoms: C10_10  and  C12_14 
REMARK   11  A    between atoms: C21_23  and  O2_24 
REMARK   12  A    between atoms: C22_26  and  O3_27 
ROOT
HETATM    1  C12 UNL     1      22.490  -0.591  59.416  1.00  0.00     0.024 C 
HETATM    2  C13 UNL     1      22.606  -1.930  58.752  1.00  0.00     0.008 C 
HETATM    3  C14 UNL     1      21.243  -2.048  58.063  1.00  0.00     0.006 C 
HETATM    4  C15 UNL     1      20.431  -0.885  58.487  1.00  0.00    -0.005 C 
HETATM    5  C16 UNL     1      18.999  -1.096  58.682  1.00  0.00    -0.003 C 
HETATM    6  C17 UNL     1      18.191  -1.470  57.505  1.00  0.00     0.017 C 
HETATM    7  C18 UNL     1      17.074  -2.317  58.051  1.00  0.00    -0.015 C 
HETATM    8  C19 UNL     1      17.326  -3.751  57.645  1.00  0.00     0.018 C 
HETATM    9  C20 UNL     1      15.724  -1.907  57.559  1.00  0.00     0.046 C 
HETATM   10  C21 UNL     1      14.616  -2.497  58.363  1.00  0.00     0.149 C 
HETATM   11  C22 UNL     1      14.560  -2.002  59.774  1.00  0.00     0.170 C 
HETATM   12  C23 UNL     1      15.427  -0.817  60.024  1.00  0.00     0.202 C 
HETATM   13  O4  UNL     1      16.761  -1.059  60.089  1.00  0.00    -0.382 OA
HETATM   14  C24 UNL     1      17.198  -2.241  59.569  1.00  0.00     0.134 C 
HETATM   15  C25 UNL     1      18.718  -2.219  59.663  1.00  0.00     0.020 C 
HETATM   16  C26 UNL     1      19.210  -1.744  60.994  1.00  0.00     0.008 C 
HETATM   17  C27 UNL     1      20.676  -1.449  60.928  1.00  0.00     0.006 C 
HETATM   18  C28 UNL     1      21.072  -0.521  59.828  1.00  0.00    -0.003 C 
ENDROOT
BRANCH   1  19
HETATM   19  C10 UNL     1      23.539  -0.275  60.392  1.00  0.00     0.058 C 
HETATM   20  C11 UNL     1      23.789  -1.221  61.490  1.00  0.00     0.046 C 
BRANCH  19  21
HETATM   21  C9  UNL     1      23.297   1.105  60.978  1.00  0.00     0.038 C 
BRANCH  21  22
HETATM   22  C8  UNL     1      24.431   1.323  61.998  1.00  0.00     0.003 C 
BRANCH  22  23
HETATM   23  C7  UNL     1      25.316   2.436  61.542  1.00  0.00     0.000 C 
BRANCH  23  24
HETATM   24  C6  UNL     1      24.626   3.514  60.769  1.00  0.00     0.000 C 
BRANCH  24  25
HETATM   25  C5  UNL     1      25.704   4.290  59.954  1.00  0.00     0.000 C 
BRANCH  25  26
HETATM   26  C4  UNL     1      27.046   3.788  60.325  1.00  0.00     0.000 C 
BRANCH  26  27
HETATM   27  C3  UNL     1      28.016   4.784  60.786  1.00  0.00    -0.000 C 
BRANCH  27  28
HETATM   28  C2  UNL     1      27.507   6.095  61.244  1.00  0.00    -0.005 C 
HETATM   29  C1  UNL     1      28.164   6.665  62.458  1.00  0.00     0.005 C 
ENDBRANCH  27  28
ENDBRANCH  26  27
ENDBRANCH  25  26
ENDBRANCH  24  25
ENDBRANCH  23  24
ENDBRANCH  22  23
ENDBRANCH  21  22
ENDBRANCH  19  21
BRANCH  19  30
HETATM   30  O1  UNL     1      24.752  -0.147  59.664  1.00  0.00    -0.390 OA
ATOM     31  H1  UNL     1      25.096   0.701  59.921  1.00  0.00     0.210 HD
ENDBRANCH  19  30
ENDBRANCH   1  19
BRANCH  10  32
HETATM   32  O2  UNL     1      14.700  -3.884  58.306  1.00  0.00    -0.393 OA
ATOM     33  H2  UNL     1      13.936  -4.224  57.854  1.00  0.00     0.210 HD
ENDBRANCH  10  32
BRANCH  11  34
HETATM   34  O3  UNL     1      13.238  -1.630  60.104  1.00  0.00    -0.391 OA
ATOM     35  H3  UNL     1      13.234  -0.773  60.514  1.00  0.00     0.210 HD
ENDBRANCH  11  34
TORSDOF 12
ENDMDL
