MODEL 1
REMARK VINA RESULT: -7.772448631      0.000      0.000
REMARK  11 active torsions:
REMARK  status: ('A' for Active; 'I' for Inactive)
REMARK    1  A    between atoms: C2_2  and  C3_3 
REMARK    2  A    between atoms: C2_2  and  C10_12 
REMARK    3  A    between atoms: C3_3  and  C4_4 
REMARK    4  A    between atoms: C4_4  and  C5_5 
REMARK    5  A    between atoms: C5_5  and  C6_6 
REMARK    6  A    between atoms: C6_6  and  C7_7 
REMARK    7  A    between atoms: C7_7  and  S1_8 
REMARK    8  A    between atoms: S1_8  and  C8_9 
REMARK    9  A    between atoms: C8_9  and  C9_10 
REMARK   10  A    between atoms: C18_20  and  O1_21 
REMARK   11  A    between atoms: C22_26  and  O2_27 
ROOT
HETATM    1  C10 UNL     1      26.078   4.730  60.835  1.00  0.00    -0.006 C 
HETATM    2  C11 UNL     1      25.279   5.815  60.153  1.00  0.00     0.006 C 
HETATM    3  C12 UNL     1      26.201   6.549  59.236  1.00  0.00     0.006 C 
HETATM    4  C13 UNL     1      27.551   6.354  59.842  1.00  0.00    -0.003 C 
HETATM    5  C14 UNL     1      27.504   5.005  60.507  1.00  0.00    -0.005 C 
HETATM    6  C15 UNL     1      28.348   5.254  61.757  1.00  0.00     0.011 C 
HETATM    7  C16 UNL     1      27.868   6.635  62.199  1.00  0.00     0.001 C 
HETATM    8  C17 UNL     1      27.766   7.383  60.940  1.00  0.00     0.024 C 
HETATM    9  C18 UNL     1      28.938   8.219  60.560  1.00  0.00     0.123 C 
HETATM   10  C19 UNL     1      29.294   9.098  61.741  1.00  0.00     0.037 C 
HETATM   11  C20 UNL     1      29.789   8.138  62.801  1.00  0.00    -0.001 C 
HETATM   12  C21 UNL     1      30.419   8.832  63.968  1.00  0.00     0.037 C 
HETATM   13  C22 UNL     1      31.026   7.855  64.909  1.00  0.00     0.118 C 
HETATM   14  C23 UNL     1      30.216   6.648  65.199  1.00  0.00     0.032 C 
HETATM   15  C24 UNL     1      29.414   6.123  64.059  1.00  0.00     0.012 C 
HETATM   16  C25 UNL     1      28.707   7.214  63.278  1.00  0.00    -0.036 C 
HETATM   17  C26 UNL     1      27.790   7.913  64.286  1.00  0.00     0.016 C 
ENDROOT
BRANCH   1  18
HETATM   18  C2  UNL     1      25.569   3.398  60.302  1.00  0.00    -0.014 C 
HETATM   19  C1  UNL     1      24.124   3.546  59.958  1.00  0.00     0.010 C 
BRANCH  18  20
HETATM   20  C3  UNL     1      25.826   2.283  61.287  1.00  0.00     0.005 C 
BRANCH  20  21
HETATM   21  C4  UNL     1      24.602   1.822  61.997  1.00  0.00     0.000 C 
BRANCH  21  22
HETATM   22  C5  UNL     1      24.360   0.338  61.937  1.00  0.00     0.001 C 
BRANCH  22  23
HETATM   23  C6  UNL     1      23.103   0.115  61.152  1.00  0.00     0.010 C 
BRANCH  23  24
HETATM   24  C7  UNL     1      21.983   1.039  61.584  1.00  0.00     0.074 C 
BRANCH  24  25
HETATM   25  S1  UNL     1      20.379   0.409  60.990  1.00  0.00    -0.168 SA
BRANCH  25  26
HETATM   26  C8  UNL     1      19.852  -1.017  61.958  1.00  0.00     0.084 C 
BRANCH  26  27
HETATM   27  C9  UNL     1      20.179  -2.323  61.245  1.00  0.00     0.096 C 
HETATM   28  S2  UNL     1      20.355  -2.008  59.471  1.00  0.00    -0.097 SA
ENDBRANCH  26  27
ENDBRANCH  25  26
ENDBRANCH  24  25
ENDBRANCH  23  24
ENDBRANCH  22  23
ENDBRANCH  21  22
ENDBRANCH  20  21
ENDBRANCH  18  20
ENDBRANCH   1  18
BRANCH   9  29
HETATM   29  O1  UNL     1      30.074   7.449  60.284  1.00  0.00    -0.395 OA
ATOM     30  H1  UNL     1      30.513   7.156  61.074  1.00  0.00     0.210 HD
ENDBRANCH   9  29
BRANCH  13  31
HETATM   31  O2  UNL     1      32.328   7.511  64.491  1.00  0.00    -0.396 OA
ATOM     32  H2  UNL     1      32.651   6.769  64.988  1.00  0.00     0.210 HD
ENDBRANCH  13  31
TORSDOF 11
ENDMDL
MODEL 2
REMARK VINA RESULT: -7.715066548      5.056     10.757
REMARK  11 active torsions:
REMARK  status: ('A' for Active; 'I' for Inactive)
REMARK    1  A    between atoms: C2_2  and  C3_3 
REMARK    2  A    between atoms: C2_2  and  C10_12 
REMARK    3  A    between atoms: C3_3  and  C4_4 
REMARK    4  A    between atoms: C4_4  and  C5_5 
REMARK    5  A    between atoms: C5_5  and  C6_6 
REMARK    6  A    between atoms: C6_6  and  C7_7 
REMARK    7  A    between atoms: C7_7  and  S1_8 
REMARK    8  A    between atoms: S1_8  and  C8_9 
REMARK    9  A    between atoms: C8_9  and  C9_10 
REMARK   10  A    between atoms: C18_20  and  O1_21 
REMARK   11  A    between atoms: C22_26  and  O2_27 
ROOT
HETATM    1  C10 UNL     1      23.818   2.644  60.898  1.00  0.00    -0.006 C 
HETATM    2  C11 UNL     1      23.969   2.164  62.322  1.00  0.00     0.006 C 
HETATM    3  C12 UNL     1      24.495   0.767  62.275  1.00  0.00     0.006 C 
HETATM    4  C13 UNL     1      24.040   0.248  60.951  1.00  0.00    -0.003 C 
HETATM    5  C14 UNL     1      24.009   1.443  60.038  1.00  0.00    -0.005 C 
HETATM    6  C15 UNL     1      22.778   1.141  59.184  1.00  0.00     0.011 C 
HETATM    7  C16 UNL     1      21.788   0.616  60.222  1.00  0.00     0.001 C 
HETATM    8  C17 UNL     1      22.610  -0.256  61.071  1.00  0.00     0.024 C 
HETATM    9  C18 UNL     1      22.608  -1.708  60.742  1.00  0.00     0.123 C 
HETATM   10  C19 UNL     1      21.169  -2.168  60.643  1.00  0.00     0.037 C 
HETATM   11  C20 UNL     1      20.620  -1.460  59.423  1.00  0.00    -0.001 C 
HETATM   12  C21 UNL     1      19.274  -1.968  59.010  1.00  0.00     0.037 C 
HETATM   13  C22 UNL     1      18.841  -1.358  57.727  1.00  0.00     0.118 C 
HETATM   14  C23 UNL     1      19.084   0.098  57.588  1.00  0.00     0.032 C 
HETATM   15  C24 UNL     1      20.333   0.604  58.222  1.00  0.00     0.012 C 
HETATM   16  C25 UNL     1      20.572   0.029  59.605  1.00  0.00    -0.036 C 
HETATM   17  C26 UNL     1      19.355   0.443  60.439  1.00  0.00     0.016 C 
ENDROOT
BRANCH   1  18
HETATM   18  C2  UNL     1      24.862   3.731  60.680  1.00  0.00    -0.014 C 
HETATM   19  C1  UNL     1      24.591   4.392  59.371  1.00  0.00     0.010 C 
BRANCH  18  20
HETATM   20  C3  UNL     1      26.261   3.170  60.776  1.00  0.00     0.005 C 
BRANCH  20  21
HETATM   21  C4  UNL     1      27.289   4.020  60.118  1.00  0.00     0.000 C 
BRANCH  21  22
HETATM   22  C5  UNL     1      28.198   4.757  61.064  1.00  0.00     0.001 C 
BRANCH  22  23
HETATM   23  C6  UNL     1      27.580   6.094  61.339  1.00  0.00     0.010 C 
BRANCH  23  24
HETATM   24  C7  UNL     1      28.598   7.112  61.811  1.00  0.00     0.074 C 
BRANCH  24  25
HETATM   25  S1  UNL     1      28.363   7.466  63.584  1.00  0.00    -0.168 SA
BRANCH  25  26
HETATM   26  C8  UNL     1      29.505   6.497  64.586  1.00  0.00     0.084 C 
BRANCH  26  27
HETATM   27  C9  UNL     1      30.817   7.239  64.806  1.00  0.00     0.096 C 
HETATM   28  S2  UNL     1      31.703   6.489  66.196  1.00  0.00    -0.097 SA
ENDBRANCH  26  27
ENDBRANCH  25  26
ENDBRANCH  24  25
ENDBRANCH  23  24
ENDBRANCH  22  23
ENDBRANCH  21  22
ENDBRANCH  20  21
ENDBRANCH  18  20
ENDBRANCH   1  18
BRANCH   9  29
HETATM   29  O1  UNL     1      23.194  -1.973  59.498  1.00  0.00    -0.395 OA
ATOM     30  H1  UNL     1      24.066  -2.342  59.580  1.00  0.00     0.210 HD
ENDBRANCH   9  29
BRANCH  13  31
HETATM   31  O2  UNL     1      19.375  -2.074  56.635  1.00  0.00    -0.396 OA
ATOM     32  H2  UNL     1      18.842  -1.944  55.860  1.00  0.00     0.210 HD
ENDBRANCH  13  31
TORSDOF 11
ENDMDL
MODEL 3
REMARK VINA RESULT: -7.711308712      4.985     10.733
REMARK  11 active torsions:
REMARK  status: ('A' for Active; 'I' for Inactive)
REMARK    1  A    between atoms: C2_2  and  C3_3 
REMARK    2  A    between atoms: C2_2  and  C10_12 
REMARK    3  A    between atoms: C3_3  and  C4_4 
REMARK    4  A    between atoms: C4_4  and  C5_5 
REMARK    5  A    between atoms: C5_5  and  C6_6 
REMARK    6  A    between atoms: C6_6  and  C7_7 
REMARK    7  A    between atoms: C7_7  and  S1_8 
REMARK    8  A    between atoms: S1_8  and  C8_9 
REMARK    9  A    between atoms: C8_9  and  C9_10 
REMARK   10  A    between atoms: C18_20  and  O1_21 
REMARK   11  A    between atoms: C22_26  and  O2_27 
ROOT
HETATM    1  C10 UNL     1      23.781   2.623  60.899  1.00  0.00    -0.006 C 
HETATM    2  C11 UNL     1      23.944   2.169  62.330  1.00  0.00     0.006 C 
HETATM    3  C12 UNL     1      24.477   0.774  62.305  1.00  0.00     0.006 C 
HETATM    4  C13 UNL     1      24.015   0.229  60.994  1.00  0.00    -0.003 C 
HETATM    5  C14 UNL     1      23.972   1.408  60.059  1.00  0.00    -0.005 C 
HETATM    6  C15 UNL     1      22.737   1.084  59.220  1.00  0.00     0.011 C 
HETATM    7  C16 UNL     1      21.757   0.572  60.274  1.00  0.00     0.001 C 
HETATM    8  C17 UNL     1      22.589  -0.280  61.133  1.00  0.00     0.024 C 
HETATM    9  C18 UNL     1      22.593  -1.738  60.830  1.00  0.00     0.123 C 
HETATM   10  C19 UNL     1      21.155  -2.207  60.749  1.00  0.00     0.037 C 
HETATM   11  C20 UNL     1      20.594  -1.524  59.521  1.00  0.00    -0.001 C 
HETATM   12  C21 UNL     1      19.247  -2.046  59.128  1.00  0.00     0.037 C 
HETATM   13  C22 UNL     1      18.802  -1.461  57.836  1.00  0.00     0.118 C 
HETATM   14  C23 UNL     1      19.037  -0.007  57.670  1.00  0.00     0.032 C 
HETATM   15  C24 UNL     1      20.287   0.517  58.286  1.00  0.00     0.012 C 
HETATM   16  C25 UNL     1      20.539  -0.032  59.677  1.00  0.00    -0.036 C 
HETATM   17  C26 UNL     1      19.327   0.391  60.512  1.00  0.00     0.016 C 
ENDROOT
BRANCH   1  18
HETATM   18  C2  UNL     1      24.817   3.711  60.654  1.00  0.00    -0.014 C 
HETATM   19  C1  UNL     1      24.579   4.296  59.302  1.00  0.00     0.010 C 
BRANCH  18  20
HETATM   20  C3  UNL     1      26.219   3.176  60.824  1.00  0.00     0.005 C 
BRANCH  20  21
HETATM   21  C4  UNL     1      27.246   3.954  60.080  1.00  0.00     0.000 C 
BRANCH  21  22
HETATM   22  C5  UNL     1      28.175   4.762  60.946  1.00  0.00     0.001 C 
BRANCH  22  23
HETATM   23  C6  UNL     1      27.518   6.084  61.204  1.00  0.00     0.010 C 
BRANCH  23  24
HETATM   24  C7  UNL     1      28.230   6.880  62.279  1.00  0.00     0.074 C 
BRANCH  24  25
HETATM   25  S1  UNL     1      28.979   8.381  61.563  1.00  0.00    -0.168 SA
BRANCH  25  26
HETATM   26  C8  UNL     1      29.441   8.107  59.843  1.00  0.00     0.084 C 
BRANCH  26  27
HETATM   27  C9  UNL     1      28.979   9.254  58.955  1.00  0.00     0.096 C 
HETATM   28  S2  UNL     1      27.250   9.642  59.330  1.00  0.00    -0.097 SA
ENDBRANCH  26  27
ENDBRANCH  25  26
ENDBRANCH  24  25
ENDBRANCH  23  24
ENDBRANCH  22  23
ENDBRANCH  21  22
ENDBRANCH  20  21
ENDBRANCH  18  20
ENDBRANCH   1  18
BRANCH   9  29
HETATM   29  O1  UNL     1      23.171  -2.022  59.587  1.00  0.00    -0.395 OA
ATOM     30  H1  UNL     1      23.645  -1.279  59.231  1.00  0.00     0.210 HD
ENDBRANCH   9  29
BRANCH  13  31
HETATM   31  O2  UNL     1      19.332  -2.193  56.754  1.00  0.00    -0.396 OA
ATOM     32  H2  UNL     1      18.735  -2.175  56.016  1.00  0.00     0.210 HD
ENDBRANCH  13  31
TORSDOF 11
ENDMDL
MODEL 4
REMARK VINA RESULT: -7.687634060      4.762     10.434
REMARK  11 active torsions:
REMARK  status: ('A' for Active; 'I' for Inactive)
REMARK    1  A    between atoms: C2_2  and  C3_3 
REMARK    2  A    between atoms: C2_2  and  C10_12 
REMARK    3  A    between atoms: C3_3  and  C4_4 
REMARK    4  A    between atoms: C4_4  and  C5_5 
REMARK    5  A    between atoms: C5_5  and  C6_6 
REMARK    6  A    between atoms: C6_6  and  C7_7 
REMARK    7  A    between atoms: C7_7  and  S1_8 
REMARK    8  A    between atoms: S1_8  and  C8_9 
REMARK    9  A    between atoms: C8_9  and  C9_10 
REMARK   10  A    between atoms: C18_20  and  O1_21 
REMARK   11  A    between atoms: C22_26  and  O2_27 
ROOT
HETATM    1  C10 UNL     1      23.732   2.585  60.897  1.00  0.00    -0.006 C 
HETATM    2  C11 UNL     1      23.948   2.090  62.307  1.00  0.00     0.006 C 
HETATM    3  C12 UNL     1      24.489   0.701  62.222  1.00  0.00     0.006 C 
HETATM    4  C13 UNL     1      23.986   0.191  60.912  1.00  0.00    -0.003 C 
HETATM    5  C14 UNL     1      23.902   1.397  60.015  1.00  0.00    -0.005 C 
HETATM    6  C15 UNL     1      22.641   1.088  59.209  1.00  0.00     0.011 C 
HETATM    7  C16 UNL     1      21.702   0.538  60.280  1.00  0.00     0.001 C 
HETATM    8  C17 UNL     1      22.569  -0.332  61.085  1.00  0.00     0.024 C 
HETATM    9  C18 UNL     1      22.572  -1.781  60.739  1.00  0.00     0.123 C 
HETATM   10  C19 UNL     1      21.135  -2.259  60.694  1.00  0.00     0.037 C 
HETATM   11  C20 UNL     1      20.528  -1.544  59.506  1.00  0.00    -0.001 C 
HETATM   12  C21 UNL     1      19.172  -2.065  59.143  1.00  0.00     0.037 C 
HETATM   13  C22 UNL     1      18.679  -1.446  57.886  1.00  0.00     0.118 C 
HETATM   14  C23 UNL     1      18.898   0.014  57.755  1.00  0.00     0.032 C 
HETATM   15  C24 UNL     1      20.165   0.529  58.343  1.00  0.00     0.012 C 
HETATM   16  C25 UNL     1      20.469  -0.058  59.708  1.00  0.00    -0.036 C 
HETATM   17  C26 UNL     1      19.282   0.331  60.596  1.00  0.00     0.016 C 
ENDROOT
BRANCH   1  18
HETATM   18  C2  UNL     1      24.752   3.688  60.649  1.00  0.00    -0.014 C 
HETATM   19  C1  UNL     1      24.514   4.257  59.291  1.00  0.00     0.010 C 
BRANCH  18  20
HETATM   20  C3  UNL     1      26.161   3.178  60.833  1.00  0.00     0.005 C 
BRANCH  20  21
HETATM   21  C4  UNL     1      27.183   3.981  60.109  1.00  0.00     0.000 C 
BRANCH  21  22
HETATM   22  C5  UNL     1      28.081   4.803  60.994  1.00  0.00     0.001 C 
BRANCH  22  23
HETATM   23  C6  UNL     1      27.477   6.170  61.108  1.00  0.00     0.010 C 
BRANCH  23  24
HETATM   24  C7  UNL     1      28.376   7.247  60.535  1.00  0.00     0.074 C 
BRANCH  24  25
HETATM   25  S1  UNL     1      27.439   8.310  59.388  1.00  0.00    -0.168 SA
BRANCH  25  26
HETATM   26  C8  UNL     1      25.920   7.496  58.859  1.00  0.00     0.084 C 
BRANCH  26  27
HETATM   27  C9  UNL     1      24.977   8.475  58.171  1.00  0.00     0.096 C 
HETATM   28  S2  UNL     1      24.159   7.644  56.786  1.00  0.00    -0.097 SA
ENDBRANCH  26  27
ENDBRANCH  25  26
ENDBRANCH  24  25
ENDBRANCH  23  24
ENDBRANCH  22  23
ENDBRANCH  21  22
ENDBRANCH  20  21
ENDBRANCH  18  20
ENDBRANCH   1  18
BRANCH   9  29
HETATM   29  O1  UNL     1      23.109  -2.024  59.469  1.00  0.00    -0.395 OA
ATOM     30  H1  UNL     1      23.717  -2.754  59.467  1.00  0.00     0.210 HD
ENDBRANCH   9  29
BRANCH  13  31
HETATM   31  O2  UNL     1      19.177  -2.142  56.765  1.00  0.00    -0.396 OA
ATOM     32  H2  UNL     1      19.348  -1.541  56.050  1.00  0.00     0.210 HD
ENDBRANCH  13  31
TORSDOF 11
ENDMDL
MODEL 5
REMARK VINA RESULT: -7.544192669      1.026      1.285
REMARK  11 active torsions:
REMARK  status: ('A' for Active; 'I' for Inactive)
REMARK    1  A    between atoms: C2_2  and  C3_3 
REMARK    2  A    between atoms: C2_2  and  C10_12 
REMARK    3  A    between atoms: C3_3  and  C4_4 
REMARK    4  A    between atoms: C4_4  and  C5_5 
REMARK    5  A    between atoms: C5_5  and  C6_6 
REMARK    6  A    between atoms: C6_6  and  C7_7 
REMARK    7  A    between atoms: C7_7  and  S1_8 
REMARK    8  A    between atoms: S1_8  and  C8_9 
REMARK    9  A    between atoms: C8_9  and  C9_10 
REMARK   10  A    between atoms: C18_20  and  O1_21 
REMARK   11  A    between atoms: C22_26  and  O2_27 
ROOT
HETATM    1  C10 UNL     1      26.073   4.735  60.822  1.00  0.00    -0.006 C 
HETATM    2  C11 UNL     1      25.285   5.820  60.127  1.00  0.00     0.006 C 
HETATM    3  C12 UNL     1      26.217   6.542  59.211  1.00  0.00     0.006 C 
HETATM    4  C13 UNL     1      27.562   6.343  59.826  1.00  0.00    -0.003 C 
HETATM    5  C14 UNL     1      27.503   4.999  60.500  1.00  0.00    -0.005 C 
HETATM    6  C15 UNL     1      28.341   5.251  61.753  1.00  0.00     0.011 C 
HETATM    7  C16 UNL     1      27.867   6.638  62.183  1.00  0.00     0.001 C 
HETATM    8  C17 UNL     1      27.777   7.379  60.918  1.00  0.00     0.024 C 
HETATM    9  C18 UNL     1      28.956   8.205  60.539  1.00  0.00     0.123 C 
HETATM   10  C19 UNL     1      29.311   9.089  61.717  1.00  0.00     0.037 C 
HETATM   11  C20 UNL     1      29.793   8.133  62.786  1.00  0.00    -0.001 C 
HETATM   12  C21 UNL     1      30.421   8.832  63.952  1.00  0.00     0.037 C 
HETATM   13  C22 UNL     1      31.016   7.858  64.903  1.00  0.00     0.118 C 
HETATM   14  C23 UNL     1      30.197   6.658  65.197  1.00  0.00     0.032 C 
HETATM   15  C24 UNL     1      29.399   6.129  64.056  1.00  0.00     0.012 C 
HETATM   16  C25 UNL     1      28.703   7.219  63.263  1.00  0.00    -0.036 C 
HETATM   17  C26 UNL     1      27.784   7.931  64.261  1.00  0.00     0.016 C 
ENDROOT
BRANCH   1  18
HETATM   18  C2  UNL     1      25.559   3.402  60.295  1.00  0.00    -0.014 C 
HETATM   19  C1  UNL     1      24.118   3.557  59.942  1.00  0.00     0.010 C 
BRANCH  18  20
HETATM   20  C3  UNL     1      25.805   2.292  61.288  1.00  0.00     0.005 C 
BRANCH  20  21
HETATM   21  C4  UNL     1      24.567   1.810  61.960  1.00  0.00     0.000 C 
BRANCH  21  22
HETATM   22  C5  UNL     1      24.426   0.313  62.022  1.00  0.00     0.001 C 
BRANCH  22  23
HETATM   23  C6  UNL     1      23.426  -0.092  60.982  1.00  0.00     0.010 C 
BRANCH  23  24
HETATM   24  C7  UNL     1      22.120   0.666  61.113  1.00  0.00     0.074 C 
BRANCH  24  25
HETATM   25  S1  UNL     1      21.199   0.614  59.541  1.00  0.00    -0.168 SA
BRANCH  25  26
HETATM   26  C8  UNL     1      22.327   0.485  58.142  1.00  0.00     0.084 C 
BRANCH  26  27
HETATM   27  C9  UNL     1      22.070  -0.782  57.337  1.00  0.00     0.096 C 
HETATM   28  S2  UNL     1      21.245  -2.003  58.390  1.00  0.00    -0.097 SA
ENDBRANCH  26  27
ENDBRANCH  25  26
ENDBRANCH  24  25
ENDBRANCH  23  24
ENDBRANCH  22  23
ENDBRANCH  21  22
ENDBRANCH  20  21
ENDBRANCH  18  20
ENDBRANCH   1  18
BRANCH   9  29
HETATM   29  O1  UNL     1      30.089   7.426  60.275  1.00  0.00    -0.395 OA
ATOM     30  H1  UNL     1      29.890   6.497  60.243  1.00  0.00     0.210 HD
ENDBRANCH   9  29
BRANCH  13  31
HETATM   31  O2  UNL     1      32.319   7.503  64.496  1.00  0.00    -0.396 OA
ATOM     32  H2  UNL     1      32.404   6.559  64.442  1.00  0.00     0.210 HD
ENDBRANCH  13  31
TORSDOF 11
ENDMDL
