MODEL 1
REMARK VINA RESULT: -9.069587616      0.000      0.000
REMARK  7 active torsions:
REMARK  status: ('A' for Active; 'I' for Inactive)
REMARK    1  A    between atoms: C1_4  and  N2_5 
REMARK    2  A    between atoms: C1_4  and  C2_10 
REMARK    3  A    between atoms: N2_5  and  N3_7 
REMARK    4  A    between atoms: C5_13  and  O1_14 
REMARK    5  A    between atoms: O1_14  and  C6_15 
REMARK    6  A    between atoms: C6_15  and  C7_16 
REMARK    7  A    between atoms: C7_16  and  N4_17 
ROOT
HETATM    1  C2  UNL     1       9.519 -20.170   7.513  1.00  0.00     0.009 A 
HETATM    2  C3  UNL     1       8.783 -20.511   6.397  1.00  0.00     0.018 A 
HETATM    3  C4  UNL     1       7.714 -19.805   5.957  1.00  0.00     0.037 A 
HETATM    4  C5  UNL     1       7.321 -18.650   6.672  1.00  0.00     0.068 A 
HETATM    5  C13 UNL     1       8.047 -18.300   7.787  1.00  0.00     0.037 A 
HETATM    6  C14 UNL     1       9.143 -19.049   8.215  1.00  0.00     0.018 A 
ENDROOT
BRANCH   1   7
HETATM    7  C1  UNL     1      10.667 -20.972   7.944  1.00  0.00     0.123 C 
HETATM    8  N1  UNL     1      11.854 -20.474   7.816  1.00  0.00    -0.384 N 
ATOM      9  H12 UNL     1      12.653 -21.032   8.116  1.00  0.00     0.157 HD
ATOM     10  H11 UNL     1      11.993 -19.543   7.424  1.00  0.00     0.157 HD
BRANCH   7  11
HETATM   11  N2  UNL     1      10.476 -22.258   8.486  1.00  0.00    -0.292 N 
ATOM     12  H2  UNL     1       9.534 -22.638   8.577  1.00  0.00     0.188 HD
BRANCH  11  13
HETATM   13  N3  UNL     1      11.565 -23.008   8.895  1.00  0.00    -0.344 N 
ATOM     14  H32 UNL     1      12.495 -22.588   8.862  1.00  0.00     0.176 HD
ATOM     15  H31 UNL     1      11.433 -23.964   9.224  1.00  0.00     0.176 HD
ENDBRANCH  11  13
ENDBRANCH   7  11
ENDBRANCH   1   7
BRANCH   4  16
HETATM   16  O1  UNL     1       6.240 -17.935   6.234  1.00  0.00    -0.350 OA
BRANCH  16  17
HETATM   17  C6  UNL     1       5.460 -18.029   5.124  1.00  0.00     0.196 C 
BRANCH  17  18
HETATM   18  C7  UNL     1       6.134 -17.505   3.883  1.00  0.00     0.154 C 
BRANCH  18  19
HETATM   19  N4  UNL     1       5.093 -17.139   2.911  1.00  0.00    -0.364 N 
HETATM   20  C8  UNL     1       5.397 -16.200   2.012  1.00  0.00     0.090 A 
HETATM   21  C9  UNL     1       4.455 -15.834   1.093  1.00  0.00     0.017 A 
HETATM   22  C10 UNL     1       3.216 -16.429   1.101  1.00  0.00     0.003 A 
HETATM   23  C11 UNL     1       2.944 -17.394   2.046  1.00  0.00     0.017 A 
HETATM   24  C12 UNL     1       3.919 -17.738   2.959  1.00  0.00     0.090 A 
ENDBRANCH  18  19
ENDBRANCH  17  18
ENDBRANCH  16  17
ENDBRANCH   4  16
TORSDOF 7
ENDMDL
MODEL 2
REMARK VINA RESULT: -9.050389147      0.047      1.092
REMARK  7 active torsions:
REMARK  status: ('A' for Active; 'I' for Inactive)
REMARK    1  A    between atoms: C1_4  and  N2_5 
REMARK    2  A    between atoms: C1_4  and  C2_10 
REMARK    3  A    between atoms: N2_5  and  N3_7 
REMARK    4  A    between atoms: C5_13  and  O1_14 
REMARK    5  A    between atoms: O1_14  and  C6_15 
REMARK    6  A    between atoms: C6_15  and  C7_16 
REMARK    7  A    between atoms: C7_16  and  N4_17 
ROOT
HETATM    1  C2  UNL     1       9.519 -20.201   7.510  1.00  0.00     0.009 A 
HETATM    2  C3  UNL     1       9.110 -19.071   8.187  1.00  0.00     0.018 A 
HETATM    3  C4  UNL     1       8.061 -18.304   7.802  1.00  0.00     0.037 A 
HETATM    4  C5  UNL     1       7.337 -18.672   6.644  1.00  0.00     0.068 A 
HETATM    5  C13 UNL     1       7.737 -19.797   5.961  1.00  0.00     0.037 A 
HETATM    6  C14 UNL     1       8.821 -20.566   6.383  1.00  0.00     0.018 A 
ENDROOT
BRANCH   1   7
HETATM    7  C1  UNL     1      10.662 -20.994   7.971  1.00  0.00     0.123 C 
HETATM    8  N1  UNL     1      11.851 -20.499   7.847  1.00  0.00    -0.384 N 
ATOM      9  H12 UNL     1      12.646 -21.051   8.169  1.00  0.00     0.157 HD
ATOM     10  H11 UNL     1      11.995 -19.577   7.437  1.00  0.00     0.157 HD
BRANCH   7  11
HETATM   11  N2  UNL     1      10.464 -22.268   8.538  1.00  0.00    -0.292 N 
ATOM     12  H2  UNL     1       9.519 -22.637   8.644  1.00  0.00     0.188 HD
BRANCH  11  13
HETATM   13  N3  UNL     1      11.550 -23.020   8.952  1.00  0.00    -0.344 N 
ATOM     14  H32 UNL     1      12.037 -22.756   9.808  1.00  0.00     0.176 HD
ATOM     15  H31 UNL     1      11.853 -23.825   8.403  1.00  0.00     0.176 HD
ENDBRANCH  11  13
ENDBRANCH   7  11
ENDBRANCH   1   7
BRANCH   4  16
HETATM   16  O1  UNL     1       6.279 -17.899   6.251  1.00  0.00    -0.350 OA
BRANCH  16  17
HETATM   17  C6  UNL     1       5.459 -17.939   5.167  1.00  0.00     0.196 C 
BRANCH  17  18
HETATM   18  C7  UNL     1       6.147 -17.523   3.892  1.00  0.00     0.154 C 
BRANCH  18  19
HETATM   19  N4  UNL     1       5.117 -17.149   2.912  1.00  0.00    -0.364 N 
HETATM   20  C8  UNL     1       5.431 -16.204   2.023  1.00  0.00     0.090 A 
HETATM   21  C9  UNL     1       4.499 -15.830   1.097  1.00  0.00     0.017 A 
HETATM   22  C10 UNL     1       3.260 -16.426   1.087  1.00  0.00     0.003 A 
HETATM   23  C11 UNL     1       2.978 -17.398   2.022  1.00  0.00     0.017 A 
HETATM   24  C12 UNL     1       3.942 -17.749   2.942  1.00  0.00     0.090 A 
ENDBRANCH  18  19
ENDBRANCH  17  18
ENDBRANCH  16  17
ENDBRANCH   4  16
TORSDOF 7
ENDMDL
MODEL 3
REMARK VINA RESULT: -8.681370885      1.974      2.845
REMARK  7 active torsions:
REMARK  status: ('A' for Active; 'I' for Inactive)
REMARK    1  A    between atoms: C1_4  and  N2_5 
REMARK    2  A    between atoms: C1_4  and  C2_10 
REMARK    3  A    between atoms: N2_5  and  N3_7 
REMARK    4  A    between atoms: C5_13  and  O1_14 
REMARK    5  A    between atoms: O1_14  and  C6_15 
REMARK    6  A    between atoms: C6_15  and  C7_16 
REMARK    7  A    between atoms: C7_16  and  N4_17 
ROOT
HETATM    1  C2  UNL     1       8.368 -18.482   6.871  1.00  0.00     0.009 A 
HETATM    2  C3  UNL     1       8.247 -17.243   6.275  1.00  0.00     0.018 A 
HETATM    3  C4  UNL     1       7.293 -16.939   5.362  1.00  0.00     0.037 A 
HETATM    4  C5  UNL     1       6.364 -17.938   4.991  1.00  0.00     0.068 A 
HETATM    5  C13 UNL     1       6.475 -19.178   5.578  1.00  0.00     0.037 A 
HETATM    6  C14 UNL     1       7.469 -19.459   6.515  1.00  0.00     0.018 A 
ENDROOT
BRANCH   1   7
HETATM    7  C1  UNL     1       9.420 -18.755   7.854  1.00  0.00     0.123 C 
HETATM    8  N1  UNL     1       9.900 -17.769   8.539  1.00  0.00    -0.384 N 
ATOM      9  H12 UNL     1      10.632 -17.959   9.224  1.00  0.00     0.157 HD
ATOM     10  H11 UNL     1       9.557 -16.818   8.401  1.00  0.00     0.157 HD
BRANCH   7  11
HETATM   11  N2  UNL     1       9.895 -20.068   8.044  1.00  0.00    -0.292 N 
ATOM     12  H2  UNL     1       9.273 -20.786   8.416  1.00  0.00     0.188 HD
BRANCH  11  13
HETATM   13  N3  UNL     1      11.205 -20.384   7.727  1.00  0.00    -0.344 N 
ATOM     14  H32 UNL     1      11.678 -21.118   8.256  1.00  0.00     0.176 HD
ATOM     15  H31 UNL     1      11.683 -19.888   6.976  1.00  0.00     0.176 HD
ENDBRANCH  11  13
ENDBRANCH   7  11
ENDBRANCH   1   7
BRANCH   4  16
HETATM   16  O1  UNL     1       5.401 -17.637   4.066  1.00  0.00    -0.350 OA
BRANCH  16  17
HETATM   17  C6  UNL     1       5.375 -17.694   2.708  1.00  0.00     0.196 C 
BRANCH  17  18
HETATM   18  C7  UNL     1       4.298 -16.831   2.103  1.00  0.00     0.154 C 
BRANCH  18  19
HETATM   19  N4  UNL     1       3.483 -17.669   1.210  1.00  0.00    -0.364 N 
HETATM   20  C8  UNL     1       3.882 -18.928   1.018  1.00  0.00     0.090 A 
HETATM   21  C9  UNL     1       3.150 -19.736   0.195  1.00  0.00     0.017 A 
HETATM   22  C10 UNL     1       2.021 -19.251  -0.422  1.00  0.00     0.003 A 
HETATM   23  C11 UNL     1       1.645 -17.945  -0.195  1.00  0.00     0.017 A 
HETATM   24  C12 UNL     1       2.408 -17.158   0.641  1.00  0.00     0.090 A 
ENDBRANCH  18  19
ENDBRANCH  17  18
ENDBRANCH  16  17
ENDBRANCH   4  16
TORSDOF 7
ENDMDL
MODEL 4
REMARK VINA RESULT: -8.679637304      1.765      2.348
REMARK  7 active torsions:
REMARK  status: ('A' for Active; 'I' for Inactive)
REMARK    1  A    between atoms: C1_4  and  N2_5 
REMARK    2  A    between atoms: C1_4  and  C2_10 
REMARK    3  A    between atoms: N2_5  and  N3_7 
REMARK    4  A    between atoms: C5_13  and  O1_14 
REMARK    5  A    between atoms: O1_14  and  C6_15 
REMARK    6  A    between atoms: C6_15  and  C7_16 
REMARK    7  A    between atoms: C7_16  and  N4_17 
ROOT
HETATM    1  C2  UNL     1       8.327 -18.840   7.035  1.00  0.00     0.009 A 
HETATM    2  C3  UNL     1       8.470 -18.874   5.663  1.00  0.00     0.018 A 
HETATM    3  C4  UNL     1       7.431 -18.775   4.799  1.00  0.00     0.037 A 
HETATM    4  C5  UNL     1       6.124 -18.627   5.318  1.00  0.00     0.068 A 
HETATM    5  C13 UNL     1       5.970 -18.593   6.685  1.00  0.00     0.037 A 
HETATM    6  C14 UNL     1       7.060 -18.698   7.549  1.00  0.00     0.018 A 
ENDROOT
BRANCH   1   7
HETATM    7  C1  UNL     1       9.487 -18.952   7.925  1.00  0.00     0.123 C 
HETATM    8  N1  UNL     1       9.930 -17.883   8.503  1.00  0.00    -0.384 N 
ATOM      9  H12 UNL     1      10.737 -17.961   9.122  1.00  0.00     0.157 HD
ATOM     10  H11 UNL     1       9.485 -16.979   8.346  1.00  0.00     0.157 HD
BRANCH   7  11
HETATM   11  N2  UNL     1      10.102 -20.201   8.142  1.00  0.00    -0.292 N 
ATOM     12  H2  UNL     1       9.584 -20.951   8.599  1.00  0.00     0.188 HD
BRANCH  11  13
HETATM   13  N3  UNL     1      11.408 -20.410   7.736  1.00  0.00    -0.344 N 
ATOM     14  H32 UNL     1      11.871 -19.698   7.172  1.00  0.00     0.176 HD
ATOM     15  H31 UNL     1      11.894 -21.267   8.001  1.00  0.00     0.176 HD
ENDBRANCH  11  13
ENDBRANCH   7  11
ENDBRANCH   1   7
BRANCH   4  16
HETATM   16  O1  UNL     1       5.073 -18.530   4.448  1.00  0.00    -0.350 OA
BRANCH  16  17
HETATM   17  C6  UNL     1       4.730 -17.604   3.514  1.00  0.00     0.196 C 
BRANCH  17  18
HETATM   18  C7  UNL     1       5.169 -17.978   2.123  1.00  0.00     0.154 C 
BRANCH  18  19
HETATM   19  N4  UNL     1       3.975 -18.065   1.269  1.00  0.00    -0.364 N 
HETATM   20  C8  UNL     1       3.293 -16.939   1.052  1.00  0.00     0.090 A 
HETATM   21  C9  UNL     1       2.179 -16.981   0.264  1.00  0.00     0.017 A 
HETATM   22  C10 UNL     1       1.773 -18.170  -0.294  1.00  0.00     0.003 A 
HETATM   23  C11 UNL     1       2.506 -19.309  -0.045  1.00  0.00     0.017 A 
HETATM   24  C12 UNL     1       3.625 -19.230   0.756  1.00  0.00     0.090 A 
ENDBRANCH  18  19
ENDBRANCH  17  18
ENDBRANCH  16  17
ENDBRANCH   4  16
TORSDOF 7
ENDMDL
MODEL 5
REMARK VINA RESULT: -8.631681438      1.782      2.502
REMARK  7 active torsions:
REMARK  status: ('A' for Active; 'I' for Inactive)
REMARK    1  A    between atoms: C1_4  and  N2_5 
REMARK    2  A    between atoms: C1_4  and  C2_10 
REMARK    3  A    between atoms: N2_5  and  N3_7 
REMARK    4  A    between atoms: C5_13  and  O1_14 
REMARK    5  A    between atoms: O1_14  and  C6_15 
REMARK    6  A    between atoms: C6_15  and  C7_16 
REMARK    7  A    between atoms: C7_16  and  N4_17 
ROOT
HETATM    1  C2  UNL     1       8.333 -18.842   6.993  1.00  0.00     0.009 A 
HETATM    2  C3  UNL     1       7.045 -18.703   7.470  1.00  0.00     0.018 A 
HETATM    3  C4  UNL     1       5.958 -18.581   6.671  1.00  0.00     0.037 A 
HETATM    4  C5  UNL     1       6.139 -18.596   5.268  1.00  0.00     0.068 A 
HETATM    5  C13 UNL     1       7.419 -18.734   4.781  1.00  0.00     0.037 A 
HETATM    6  C14 UNL     1       8.518 -18.857   5.631  1.00  0.00     0.018 A 
ENDROOT
BRANCH   1   7
HETATM    7  C1  UNL     1       9.473 -18.971   7.904  1.00  0.00     0.123 C 
HETATM    8  N1  UNL     1       9.912 -17.911   8.502  1.00  0.00    -0.384 N 
ATOM      9  H12 UNL     1      10.706 -18.001   9.137  1.00  0.00     0.157 HD
ATOM     10  H11 UNL     1       9.477 -17.002   8.345  1.00  0.00     0.157 HD
BRANCH   7  11
HETATM   11  N2  UNL     1      10.075 -20.226   8.121  1.00  0.00    -0.292 N 
ATOM     12  H2  UNL     1       9.542 -20.979   8.557  1.00  0.00     0.188 HD
BRANCH  11  13
HETATM   13  N3  UNL     1      11.390 -20.439   7.744  1.00  0.00    -0.344 N 
ATOM     14  H32 UNL     1      11.581 -21.000   6.913  1.00  0.00     0.176 HD
ATOM     15  H31 UNL     1      12.150 -20.039   8.294  1.00  0.00     0.176 HD
ENDBRANCH  11  13
ENDBRANCH   7  11
ENDBRANCH   1   7
BRANCH   4  16
HETATM   16  O1  UNL     1       5.044 -18.469   4.457  1.00  0.00    -0.350 OA
BRANCH  16  17
HETATM   17  C6  UNL     1       4.716 -17.583   3.480  1.00  0.00     0.196 C 
BRANCH  17  18
HETATM   18  C7  UNL     1       5.151 -18.030   2.109  1.00  0.00     0.154 C 
BRANCH  18  19
HETATM   19  N4  UNL     1       3.960 -18.111   1.250  1.00  0.00    -0.364 N 
HETATM   20  C8  UNL     1       3.285 -16.981   1.029  1.00  0.00     0.090 A 
HETATM   21  C9  UNL     1       2.174 -17.018   0.237  1.00  0.00     0.017 A 
HETATM   22  C10 UNL     1       1.764 -18.206  -0.322  1.00  0.00     0.003 A 
HETATM   23  C11 UNL     1       2.491 -19.349  -0.069  1.00  0.00     0.017 A 
HETATM   24  C12 UNL     1       3.607 -19.274   0.736  1.00  0.00     0.090 A 
ENDBRANCH  18  19
ENDBRANCH  17  18
ENDBRANCH  16  17
ENDBRANCH   4  16
TORSDOF 7
ENDMDL
