MODEL 1
REMARK VINA RESULT: -8.154542823      0.000      0.000
REMARK  4 active torsions:
REMARK  status: ('A' for Active; 'I' for Inactive)
REMARK    1  A    between atoms: C1_2  and  C2_3 
REMARK    2  A    between atoms: C1_2  and  O2_6 
REMARK    3  A    between atoms: C2_3  and  C3_4 
REMARK    4  A    between atoms: O2_6  and  C4_7 
ROOT
HETATM    1  C4  UNL     1      18.820  12.436  45.331  1.00  0.00     0.132 C 
HETATM    2  C5  UNL     1      17.823  11.419  44.831  1.00  0.00     0.038 C 
HETATM    3  C6  UNL     1      18.493  10.241  44.169  1.00  0.00     0.077 C 
HETATM    4  C7  UNL     1      19.313  10.652  42.969  1.00  0.00     0.230 C 
HETATM    5  C8  UNL     1      20.002  11.977  43.176  1.00  0.00     0.077 C 
HETATM    6  C9  UNL     1      20.152  12.322  44.637  1.00  0.00     0.038 C 
HETATM    7  O3  UNL     1      18.531  10.757  41.818  1.00  0.00    -0.195 OA
HETATM    8  O4  UNL     1      19.361  10.756  40.796  1.00  0.00    -0.194 OA
HETATM    9  C10 UNL     1      19.806   9.456  40.623  1.00  0.00     0.237 C 
HETATM   10  O5  UNL     1      19.841   8.788  41.819  1.00  0.00    -0.194 OA
HETATM   11  O6  UNL     1      20.242   9.637  42.744  1.00  0.00    -0.195 OA
HETATM   12  C11 UNL     1      21.156   9.375  39.969  1.00  0.00     0.055 C 
HETATM   13  C12 UNL     1      21.481   7.922  39.755  1.00  0.00     0.015 C 
HETATM   14  C13 UNL     1      20.353   7.488  38.828  1.00  0.00    -0.009 C 
HETATM   15  C14 UNL     1      19.096   7.278  39.686  1.00  0.00     0.015 C 
HETATM   16  C15 UNL     1      18.915   8.800  39.588  1.00  0.00     0.059 C 
HETATM   17  C16 UNL     1      19.707   8.742  38.318  1.00  0.00    -0.001 C 
HETATM   18  C17 UNL     1      20.788   9.780  38.532  1.00  0.00     0.015 C 
ENDROOT
BRANCH   1  19
HETATM   19  O2  UNL     1      18.299  13.723  45.057  1.00  0.00    -0.316 OA
BRANCH  19  20
HETATM   20  C1  UNL     1      17.822  14.559  46.054  1.00  0.00     0.260 C 
HETATM   21  O1  UNL     1      18.192  14.372  47.231  1.00  0.00    -0.265 OA
BRANCH  20  22
HETATM   22  C2  UNL     1      16.880  15.669  45.736  1.00  0.00     0.126 C 
BRANCH  22  23
HETATM   23  C3  UNL     1      16.720  16.595  46.928  1.00  0.00     0.124 C 
HETATM   24 CL1  UNL     1      17.807  17.991  46.768  1.00  0.00    -0.130 Cl
ENDBRANCH  22  23
ENDBRANCH  20  22
ENDBRANCH  19  20
ENDBRANCH   1  19
TORSDOF 4
ENDMDL
MODEL 2
REMARK VINA RESULT: -7.987616863      0.927      1.047
REMARK  4 active torsions:
REMARK  status: ('A' for Active; 'I' for Inactive)
REMARK    1  A    between atoms: C1_2  and  C2_3 
REMARK    2  A    between atoms: C1_2  and  O2_6 
REMARK    3  A    between atoms: C2_3  and  C3_4 
REMARK    4  A    between atoms: O2_6  and  C4_7 
ROOT
HETATM    1  C4  UNL     1      18.676  12.649  45.347  1.00  0.00     0.132 C 
HETATM    2  C5  UNL     1      17.666  11.654  44.828  1.00  0.00     0.038 C 
HETATM    3  C6  UNL     1      18.321  10.435  44.229  1.00  0.00     0.077 C 
HETATM    4  C7  UNL     1      19.210  10.783  43.059  1.00  0.00     0.230 C 
HETATM    5  C8  UNL     1      19.938  12.087  43.262  1.00  0.00     0.077 C 
HETATM    6  C9  UNL     1      20.033  12.468  44.720  1.00  0.00     0.038 C 
HETATM    7  O3  UNL     1      18.486  10.884  41.870  1.00  0.00    -0.195 OA
HETATM    8  O4  UNL     1      19.361  10.824  40.888  1.00  0.00    -0.194 OA
HETATM    9  C10 UNL     1      19.765   9.505  40.770  1.00  0.00     0.237 C 
HETATM   10  O5  UNL     1      19.721   8.870  41.984  1.00  0.00    -0.194 OA
HETATM   11  O6  UNL     1      20.110   9.729  42.904  1.00  0.00    -0.195 OA
HETATM   12  C11 UNL     1      21.140   9.357  40.183  1.00  0.00     0.055 C 
HETATM   13  C12 UNL     1      21.420   7.887  40.023  1.00  0.00     0.015 C 
HETATM   14  C13 UNL     1      20.320   7.469  39.056  1.00  0.00    -0.009 C 
HETATM   15  C14 UNL     1      19.019   7.328  39.859  1.00  0.00     0.015 C 
HETATM   16  C15 UNL     1      18.899   8.852  39.713  1.00  0.00     0.059 C 
HETATM   17  C16 UNL     1      19.746   8.730  38.483  1.00  0.00    -0.001 C 
HETATM   18  C17 UNL     1      20.854   9.734  38.720  1.00  0.00     0.015 C 
ENDROOT
BRANCH   1  19
HETATM   19  O2  UNL     1      18.216  13.946  45.015  1.00  0.00    -0.316 OA
BRANCH  19  20
HETATM   20  C1  UNL     1      17.021  14.456  45.496  1.00  0.00     0.260 C 
HETATM   21  O1  UNL     1      16.148  14.824  44.685  1.00  0.00    -0.265 OA
BRANCH  20  22
HETATM   22  C2  UNL     1      16.771  14.567  46.962  1.00  0.00     0.126 C 
BRANCH  22  23
HETATM   23  C3  UNL     1      16.951  16.000  47.429  1.00  0.00     0.124 C 
HETATM   24 CL1  UNL     1      17.035  16.059  49.202  1.00  0.00    -0.130 Cl
ENDBRANCH  22  23
ENDBRANCH  20  22
ENDBRANCH  19  20
ENDBRANCH   1  19
TORSDOF 4
ENDMDL
MODEL 3
REMARK VINA RESULT: -7.965917050      2.330      3.340
REMARK  4 active torsions:
REMARK  status: ('A' for Active; 'I' for Inactive)
REMARK    1  A    between atoms: C1_2  and  C2_3 
REMARK    2  A    between atoms: C1_2  and  O2_6 
REMARK    3  A    between atoms: C2_3  and  C3_4 
REMARK    4  A    between atoms: O2_6  and  C4_7 
ROOT
HETATM    1  C4  UNL     1      18.844  11.932  45.447  1.00  0.00     0.132 C 
HETATM    2  C5  UNL     1      19.975  12.391  44.559  1.00  0.00     0.038 C 
HETATM    3  C6  UNL     1      19.659  12.216  43.095  1.00  0.00     0.077 C 
HETATM    4  C7  UNL     1      19.401  10.772  42.736  1.00  0.00     0.230 C 
HETATM    5  C8  UNL     1      18.665  10.035  43.827  1.00  0.00     0.077 C 
HETATM    6  C9  UNL     1      17.919  10.971  44.747  1.00  0.00     0.038 C 
HETATM    7  O3  UNL     1      20.586  10.080  42.484  1.00  0.00    -0.195 OA
HETATM    8  O4  UNL     1      20.253   8.979  41.845  1.00  0.00    -0.194 OA
HETATM    9  C10 UNL     1      19.941   9.331  40.543  1.00  0.00     0.237 C 
HETATM   10  O5  UNL     1      19.427  10.600  40.490  1.00  0.00    -0.194 OA
HETATM   11  O6  UNL     1      18.665  10.772  41.552  1.00  0.00    -0.195 OA
HETATM   12  C11 UNL     1      18.984   8.379  39.885  1.00  0.00     0.055 C 
HETATM   13  C12 UNL     1      18.801   8.818  38.457  1.00  0.00     0.015 C 
HETATM   14  C13 UNL     1      20.219   8.694  37.914  1.00  0.00    -0.009 C 
HETATM   15  C14 UNL     1      21.012   9.920  38.390  1.00  0.00     0.015 C 
HETATM   16  C15 UNL     1      21.192   9.149  39.706  1.00  0.00     0.059 C 
HETATM   17  C16 UNL     1      20.996   7.892  38.915  1.00  0.00    -0.001 C 
HETATM   18  C17 UNL     1      19.906   7.167  39.674  1.00  0.00     0.015 C 
ENDROOT
BRANCH   1  19
HETATM   19  O2  UNL     1      19.409  11.257  46.555  1.00  0.00    -0.316 OA
BRANCH  19  20
HETATM   20  C1  UNL     1      19.369  11.776  47.839  1.00  0.00     0.260 C 
HETATM   21  O1  UNL     1      19.398  13.013  47.995  1.00  0.00    -0.265 OA
BRANCH  20  22
HETATM   22  C2  UNL     1      19.293  10.876  49.026  1.00  0.00     0.126 C 
BRANCH  22  23
HETATM   23  C3  UNL     1      18.176   9.862  48.859  1.00  0.00     0.124 C 
HETATM   24 CL1  UNL     1      16.682  10.676  48.350  1.00  0.00    -0.130 Cl
ENDBRANCH  22  23
ENDBRANCH  20  22
ENDBRANCH  19  20
ENDBRANCH   1  19
TORSDOF 4
ENDMDL
MODEL 4
REMARK VINA RESULT: -7.901541335      2.434      3.404
REMARK  4 active torsions:
REMARK  status: ('A' for Active; 'I' for Inactive)
REMARK    1  A    between atoms: C1_2  and  C2_3 
REMARK    2  A    between atoms: C1_2  and  O2_6 
REMARK    3  A    between atoms: C2_3  and  C3_4 
REMARK    4  A    between atoms: O2_6  and  C4_7 
ROOT
HETATM    1  C4  UNL     1      18.671  12.005  45.321  1.00  0.00     0.132 C 
HETATM    2  C5  UNL     1      19.669  12.595  44.355  1.00  0.00     0.038 C 
HETATM    3  C6  UNL     1      19.302  12.323  42.918  1.00  0.00     0.077 C 
HETATM    4  C7  UNL     1      19.244  10.845  42.614  1.00  0.00     0.230 C 
HETATM    5  C8  UNL     1      18.689  10.047  43.766  1.00  0.00     0.077 C 
HETATM    6  C9  UNL     1      17.863  10.893  44.704  1.00  0.00     0.038 C 
HETATM    7  O3  UNL     1      20.504  10.329  42.310  1.00  0.00    -0.195 OA
HETATM    8  O4  UNL     1      20.305   9.168  41.721  1.00  0.00    -0.194 OA
HETATM    9  C10 UNL     1      19.872   9.424  40.431  1.00  0.00     0.237 C 
HETATM   10  O5  UNL     1      19.170  10.599  40.376  1.00  0.00    -0.194 OA
HETATM   11  O6  UNL     1      18.452  10.694  41.477  1.00  0.00    -0.195 OA
HETATM   12  C11 UNL     1      19.033   8.318  39.859  1.00  0.00     0.055 C 
HETATM   13  C12 UNL     1      18.707   8.673  38.433  1.00  0.00     0.015 C 
HETATM   14  C13 UNL     1      20.095   8.742  37.809  1.00  0.00    -0.009 C 
HETATM   15  C14 UNL     1      20.720  10.087  38.203  1.00  0.00     0.015 C 
HETATM   16  C15 UNL     1      21.087   9.399  39.526  1.00  0.00     0.059 C 
HETATM   17  C16 UNL     1      21.038   8.100  38.782  1.00  0.00    -0.001 C 
HETATM   18  C17 UNL     1      20.113   7.248  39.625  1.00  0.00     0.015 C 
ENDROOT
BRANCH   1  19
HETATM   19  O2  UNL     1      19.392  11.462  46.411  1.00  0.00    -0.316 OA
BRANCH  19  20
HETATM   20  C1  UNL     1      20.190  12.239  47.235  1.00  0.00     0.260 C 
HETATM   21  O1  UNL     1      19.721  13.290  47.718  1.00  0.00    -0.265 OA
BRANCH  20  22
HETATM   22  C2  UNL     1      21.590  11.835  47.547  1.00  0.00     0.126 C 
BRANCH  22  23
HETATM   23  C3  UNL     1      22.566  12.500  46.593  1.00  0.00     0.124 C 
HETATM   24 CL1  UNL     1      22.850  11.456  45.184  1.00  0.00    -0.130 Cl
ENDBRANCH  22  23
ENDBRANCH  20  22
ENDBRANCH  19  20
ENDBRANCH   1  19
TORSDOF 4
ENDMDL
MODEL 5
REMARK VINA RESULT: -7.893996836      1.914      2.876
REMARK  4 active torsions:
REMARK  status: ('A' for Active; 'I' for Inactive)
REMARK    1  A    between atoms: C1_2  and  C2_3 
REMARK    2  A    between atoms: C1_2  and  O2_6 
REMARK    3  A    between atoms: C2_3  and  C3_4 
REMARK    4  A    between atoms: O2_6  and  C4_7 
ROOT
HETATM    1  C4  UNL     1      18.846  11.816  45.555  1.00  0.00     0.132 C 
HETATM    2  C5  UNL     1      20.103  12.135  44.782  1.00  0.00     0.038 C 
HETATM    3  C6  UNL     1      19.891  12.057  43.291  1.00  0.00     0.077 C 
HETATM    4  C7  UNL     1      19.461  10.679  42.847  1.00  0.00     0.230 C 
HETATM    5  C8  UNL     1      18.538  10.021  43.841  1.00  0.00     0.077 C 
HETATM    6  C9  UNL     1      17.857  11.024  44.740  1.00  0.00     0.038 C 
HETATM    7  O3  UNL     1      20.554   9.832  42.659  1.00  0.00    -0.195 OA
HETATM    8  O4  UNL     1      20.123   8.812  41.945  1.00  0.00    -0.194 OA
HETATM    9  C10 UNL     1      19.977   9.250  40.640  1.00  0.00     0.237 C 
HETATM   10  O5  UNL     1      19.654  10.581  40.604  1.00  0.00    -0.194 OA
HETATM   11  O6  UNL     1      18.837  10.826  41.609  1.00  0.00    -0.195 OA
HETATM   12  C11 UNL     1      18.953   8.471  39.866  1.00  0.00     0.055 C 
HETATM   13  C12 UNL     1      18.957   8.979  38.449  1.00  0.00     0.015 C 
HETATM   14  C13 UNL     1      20.383   8.668  38.015  1.00  0.00    -0.009 C 
HETATM   15  C14 UNL     1      21.299   9.749  38.608  1.00  0.00     0.015 C 
HETATM   16  C15 UNL     1      21.255   8.916  39.898  1.00  0.00     0.059 C 
HETATM   17  C16 UNL     1      20.951   7.728  39.037  1.00  0.00    -0.001 C 
HETATM   18  C17 UNL     1      19.707   7.144  39.673  1.00  0.00     0.015 C 
ENDROOT
BRANCH   1  19
HETATM   19  O2  UNL     1      19.214  11.029  46.672  1.00  0.00    -0.316 OA
BRANCH  19  20
HETATM   20  C1  UNL     1      18.463  10.997  47.836  1.00  0.00     0.260 C 
HETATM   21  O1  UNL     1      17.863   9.947  48.142  1.00  0.00    -0.265 OA
BRANCH  20  22
HETATM   22  C2  UNL     1      18.367  12.195  48.719  1.00  0.00     0.126 C 
BRANCH  22  23
HETATM   23  C3  UNL     1      16.962  12.770  48.691  1.00  0.00     0.124 C 
HETATM   24 CL1  UNL     1      16.873  14.110  47.529  1.00  0.00    -0.130 Cl
ENDBRANCH  22  23
ENDBRANCH  20  22
ENDBRANCH  19  20
ENDBRANCH   1  19
TORSDOF 4
ENDMDL
