MODEL 1
REMARK VINA RESULT: -8.028223718      0.000      0.000
REMARK  6 active torsions:
REMARK  status: ('A' for Active; 'I' for Inactive)
REMARK       I    between atoms: C1_2  and  N1_3 
REMARK    1  A    between atoms: C1_2  and  C11_22 
REMARK    2  A    between atoms: N2_5  and  C2_7 
REMARK    3  A    between atoms: C3_8  and  O2_9 
REMARK    4  A    between atoms: N3_12  and  C5_13 
REMARK    5  A    between atoms: C5_13  and  C6_14 
REMARK    6  A    between atoms: C10_19  and  O4_20 
ROOT
HETATM    1  C2  UNL     1      22.448  85.673   3.950  1.00  0.00     0.134 A 
HETATM    2  C3  UNL     1      23.097  85.839   5.152  1.00  0.00     0.113 A 
HETATM    3  C4  UNL     1      22.166  86.069   6.130  1.00  0.00     0.132 A 
HETATM    4  N3  UNL     1      20.932  86.049   5.549  1.00  0.00    -0.331 N 
HETATM    5  C10 UNL     1      21.101  85.811   4.238  1.00  0.00     0.174 A 
ENDROOT
BRANCH   1   6
HETATM    6  N2  UNL     1      22.998  85.413   2.657  1.00  0.00    -0.292 N 
HETATM    7  N1  UNL     1      23.856  84.512   2.552  1.00  0.00    -0.269 N 
HETATM    8  C1  UNL     1      24.481  84.149   1.338  1.00  0.00     0.240 C 
ATOM      9  H1  UNL     1      24.121  84.005   3.396  1.00  0.00     0.190 HD
HETATM   10  O1  UNL     1      23.798  83.578   0.450  1.00  0.00    -0.271 OA
ATOM     11  H2  UNL     1      22.699  85.949   1.843  1.00  0.00     0.187 HD
BRANCH   8  12
HETATM   12  C11 UNL     1      25.923  84.461   1.164  1.00  0.00     0.079 C 
HETATM   13  C12 UNL     1      26.645  83.323   0.493  1.00  0.00     0.014 C 
HETATM   14  C13 UNL     1      27.895  83.853  -0.173  1.00  0.00     0.001 C 
HETATM   15  C14 UNL     1      27.440  84.681  -1.363  1.00  0.00     0.000 C 
HETATM   16  C15 UNL     1      26.344  85.642  -1.011  1.00  0.00     0.001 C 
HETATM   17  C16 UNL     1      26.135  85.782   0.474  1.00  0.00     0.014 C 
ENDBRANCH   8  12
ENDBRANCH   1   6
BRANCH   2  18
HETATM   18  O2  UNL     1      24.497  85.766   5.262  1.00  0.00    -0.357 OA
ATOM     19  H2  UNL     1      24.982  86.293   5.886  1.00  0.00     0.218 HD
ENDBRANCH   2  18
BRANCH   5  20
HETATM   20  O4  UNL     1      20.080  85.717   3.305  1.00  0.00    -0.344 OA
ATOM     21  H4  UNL     1      19.168  85.555   3.515  1.00  0.00     0.219 HD
ENDBRANCH   5  20
BRANCH   4  22
HETATM   22  C5  UNL     1      19.733  86.260   6.327  1.00  0.00     0.162 C 
BRANCH  22  23
HETATM   23  C6  UNL     1      19.386  85.071   7.176  1.00  0.00     0.139 C 
HETATM   24  C7  UNL     1      18.596  84.040   6.428  1.00  0.00     0.035 C 
HETATM   25  C8  UNL     1      18.047  83.234   7.619  1.00  0.00     0.029 C 
HETATM   26  C9  UNL     1      17.854  84.339   8.632  1.00  0.00     0.168 C 
HETATM   27  O3  UNL     1      18.700  85.381   8.318  1.00  0.00    -0.384 OA
ENDBRANCH  22  23
ENDBRANCH   4  22
TORSDOF 6
ENDMDL
MODEL 2
REMARK VINA RESULT: -7.952429018      5.456      8.633
REMARK  6 active torsions:
REMARK  status: ('A' for Active; 'I' for Inactive)
REMARK       I    between atoms: C1_2  and  N1_3 
REMARK    1  A    between atoms: C1_2  and  C11_22 
REMARK    2  A    between atoms: N2_5  and  C2_7 
REMARK    3  A    between atoms: C3_8  and  O2_9 
REMARK    4  A    between atoms: N3_12  and  C5_13 
REMARK    5  A    between atoms: C5_13  and  C6_14 
REMARK    6  A    between atoms: C10_19  and  O4_20 
ROOT
HETATM    1  C2  UNL     1      18.896  81.945   3.554  1.00  0.00     0.134 A 
HETATM    2  C3  UNL     1      19.538  81.959   2.336  1.00  0.00     0.113 A 
HETATM    3  C4  UNL     1      18.873  81.126   1.475  1.00  0.00     0.132 A 
HETATM    4  N3  UNL     1      17.815  80.587   2.146  1.00  0.00    -0.331 N 
HETATM    5  C10 UNL     1      17.828  81.079   3.396  1.00  0.00     0.174 A 
ENDROOT
BRANCH   1   6
HETATM    6  N2  UNL     1      19.221  82.653   4.751  1.00  0.00    -0.292 N 
HETATM    7  N1  UNL     1      18.437  83.542   5.142  1.00  0.00    -0.269 N 
HETATM    8  C1  UNL     1      18.633  84.318   6.306  1.00  0.00     0.240 C 
ATOM      9  H1  UNL     1      17.601  83.719   4.586  1.00  0.00     0.190 HD
HETATM   10  O1  UNL     1      18.534  83.762   7.430  1.00  0.00    -0.271 OA
ATOM     11  H2  UNL     1      20.071  82.438   5.273  1.00  0.00     0.187 HD
BRANCH   8  12
HETATM   12  C11 UNL     1      18.949  85.761   6.151  1.00  0.00     0.079 C 
HETATM   13  C12 UNL     1      18.682  86.514   7.427  1.00  0.00     0.014 C 
HETATM   14  C13 UNL     1      19.514  87.777   7.440  1.00  0.00     0.001 C 
HETATM   15  C14 UNL     1      20.959  87.348   7.625  1.00  0.00     0.000 C 
HETATM   16  C15 UNL     1      21.353  86.233   6.704  1.00  0.00     0.001 C 
HETATM   17  C16 UNL     1      20.341  85.979   5.617  1.00  0.00     0.014 C 
ENDBRANCH   8  12
ENDBRANCH   1   6
BRANCH   2  18
HETATM   18  O2  UNL     1      20.686  82.737   2.105  1.00  0.00    -0.357 OA
ATOM     19  H2  UNL     1      21.199  83.102   2.816  1.00  0.00     0.218 HD
ENDBRANCH   2  18
BRANCH   5  20
HETATM   20  O4  UNL     1      16.910  80.767   4.386  1.00  0.00    -0.344 OA
ATOM     21  H4  UNL     1      16.559  81.387   5.014  1.00  0.00     0.219 HD
ENDBRANCH   5  20
BRANCH   4  22
HETATM   22  C5  UNL     1      16.912  79.660   1.502  1.00  0.00     0.162 C 
BRANCH  22  23
HETATM   23  C6  UNL     1      17.384  79.258   0.135  1.00  0.00     0.139 C 
HETATM   24  C7  UNL     1      16.501  79.786  -0.957  1.00  0.00     0.035 C 
HETATM   25  C8  UNL     1      16.960  78.875  -2.110  1.00  0.00     0.029 C 
HETATM   26  C9  UNL     1      17.240  77.596  -1.355  1.00  0.00     0.168 C 
HETATM   27  O3  UNL     1      17.508  77.907  -0.039  1.00  0.00    -0.384 OA
ENDBRANCH  22  23
ENDBRANCH   4  22
TORSDOF 6
ENDMDL
MODEL 3
REMARK VINA RESULT: -7.675326876      1.529      8.315
REMARK  6 active torsions:
REMARK  status: ('A' for Active; 'I' for Inactive)
REMARK       I    between atoms: C1_2  and  N1_3 
REMARK    1  A    between atoms: C1_2  and  C11_22 
REMARK    2  A    between atoms: N2_5  and  C2_7 
REMARK    3  A    between atoms: C3_8  and  O2_9 
REMARK    4  A    between atoms: N3_12  and  C5_13 
REMARK    5  A    between atoms: C5_13  and  C6_14 
REMARK    6  A    between atoms: C10_19  and  O4_20 
ROOT
HETATM    1  C2  UNL     1      22.885  85.907   4.726  1.00  0.00     0.134 A 
HETATM    2  C3  UNL     1      24.126  85.792   5.311  1.00  0.00     0.113 A 
HETATM    3  C4  UNL     1      24.968  85.150   4.442  1.00  0.00     0.132 A 
HETATM    4  N3  UNL     1      24.263  84.860   3.311  1.00  0.00    -0.331 N 
HETATM    5  C10 UNL     1      23.010  85.315   3.481  1.00  0.00     0.174 A 
ENDROOT
BRANCH   1   6
HETATM    6  N2  UNL     1      21.695  86.500   5.248  1.00  0.00    -0.292 N 
HETATM    7  N1  UNL     1      21.198  86.012   6.284  1.00  0.00    -0.269 N 
HETATM    8  C1  UNL     1      20.027  86.496   6.907  1.00  0.00     0.240 C 
ATOM      9  H1  UNL     1      21.667  85.211   6.707  1.00  0.00     0.190 HD
HETATM   10  O1  UNL     1      20.061  87.618   7.474  1.00  0.00    -0.271 OA
ATOM     11  H2  UNL     1      21.263  87.301   4.786  1.00  0.00     0.187 HD
BRANCH   8  12
HETATM   12  C11 UNL     1      18.802  85.657   6.864  1.00  0.00     0.079 C 
HETATM   13  C12 UNL     1      19.024  84.416   6.040  1.00  0.00     0.014 C 
HETATM   14  C13 UNL     1      18.036  83.354   6.467  1.00  0.00     0.001 C 
HETATM   15  C14 UNL     1      18.459  82.893   7.851  1.00  0.00     0.000 C 
HETATM   16  C15 UNL     1      18.738  84.036   8.780  1.00  0.00     0.001 C 
HETATM   17  C16 UNL     1      18.271  85.363   8.242  1.00  0.00     0.014 C 
ENDBRANCH   8  12
ENDBRANCH   1   6
BRANCH   2  18
HETATM   18  O2  UNL     1      24.393  86.285   6.600  1.00  0.00    -0.357 OA
ATOM     19  H2  UNL     1      24.740  87.158   6.744  1.00  0.00     0.218 HD
ENDBRANCH   2  18
BRANCH   5  20
HETATM   20  O4  UNL     1      21.989  85.209   2.550  1.00  0.00    -0.344 OA
ATOM     21  H4  UNL     1      21.680  85.919   2.001  1.00  0.00     0.219 HD
ENDBRANCH   5  20
BRANCH   4  22
HETATM   22  C5  UNL     1      24.880  84.180   2.196  1.00  0.00     0.162 C 
BRANCH  22  23
HETATM   23  C6  UNL     1      25.161  85.103   1.046  1.00  0.00     0.139 C 
HETATM   24  C7  UNL     1      24.527  84.641  -0.232  1.00  0.00     0.035 C 
HETATM   25  C8  UNL     1      25.333  85.490  -1.231  1.00  0.00     0.029 C 
HETATM   26  C9  UNL     1      26.678  85.520  -0.544  1.00  0.00     0.168 C 
HETATM   27  O3  UNL     1      26.491  85.310   0.806  1.00  0.00    -0.384 OA
ENDBRANCH  22  23
ENDBRANCH   4  22
TORSDOF 6
ENDMDL
MODEL 4
REMARK VINA RESULT: -7.615307046      6.102      8.728
REMARK  6 active torsions:
REMARK  status: ('A' for Active; 'I' for Inactive)
REMARK       I    between atoms: C1_2  and  N1_3 
REMARK    1  A    between atoms: C1_2  and  C11_22 
REMARK    2  A    between atoms: N2_5  and  C2_7 
REMARK    3  A    between atoms: C3_8  and  O2_9 
REMARK    4  A    between atoms: N3_12  and  C5_13 
REMARK    5  A    between atoms: C5_13  and  C6_14 
REMARK    6  A    between atoms: C10_19  and  O4_20 
ROOT
HETATM    1  C2  UNL     1      18.606  82.034   1.847  1.00  0.00     0.134 A 
HETATM    2  C3  UNL     1      18.911  82.574   0.618  1.00  0.00     0.113 A 
HETATM    3  C4  UNL     1      18.235  81.880  -0.351  1.00  0.00     0.132 A 
HETATM    4  N3  UNL     1      17.507  80.904   0.262  1.00  0.00    -0.331 N 
HETATM    5  C10 UNL     1      17.729  80.996   1.584  1.00  0.00     0.174 A 
ENDROOT
BRANCH   1   6
HETATM    6  N2  UNL     1      19.067  82.423   3.142  1.00  0.00    -0.292 N 
HETATM    7  N1  UNL     1      18.291  83.071   3.874  1.00  0.00    -0.269 N 
HETATM    8  C1  UNL     1      18.615  83.518   5.174  1.00  0.00     0.240 C 
ATOM      9  H1  UNL     1      17.365  83.291   3.511  1.00  0.00     0.190 HD
HETATM   10  O1  UNL     1      18.745  82.671   6.093  1.00  0.00    -0.271 OA
ATOM     11  H2  UNL     1      20.005  82.177   3.459  1.00  0.00     0.187 HD
BRANCH   8  12
HETATM   12  C11 UNL     1      18.790  84.977   5.398  1.00  0.00     0.079 C 
HETATM   13  C12 UNL     1      18.975  85.281   6.861  1.00  0.00     0.014 C 
HETATM   14  C13 UNL     1      19.698  86.602   7.005  1.00  0.00     0.001 C 
HETATM   15  C14 UNL     1      21.129  86.369   6.548  1.00  0.00     0.000 C 
HETATM   16  C15 UNL     1      21.206  85.641   5.240  1.00  0.00     0.001 C 
HETATM   17  C16 UNL     1      19.879  85.554   4.533  1.00  0.00     0.014 C 
ENDBRANCH   8  12
ENDBRANCH   1   6
BRANCH   2  18
HETATM   18  O2  UNL     1      19.786  83.666   0.479  1.00  0.00    -0.357 OA
ATOM     19  H2  UNL     1      19.586  84.404  -0.085  1.00  0.00     0.218 HD
ENDBRANCH   2  18
BRANCH   5  20
HETATM   20  O4  UNL     1      17.166  80.173   2.547  1.00  0.00    -0.344 OA
ATOM     21  H4  UNL     1      17.424  79.274   2.710  1.00  0.00     0.219 HD
ENDBRANCH   5  20
BRANCH   4  22
HETATM   22  C5  UNL     1      16.678  79.997  -0.499  1.00  0.00     0.162 C 
BRANCH  22  23
HETATM   23  C6  UNL     1      17.321  78.654  -0.684  1.00  0.00     0.139 C 
HETATM   24  C7  UNL     1      16.905  77.988  -1.963  1.00  0.00     0.035 C 
HETATM   25  C8  UNL     1      17.342  76.546  -1.646  1.00  0.00     0.029 C 
HETATM   26  C9  UNL     1      17.062  76.494  -0.163  1.00  0.00     0.168 C 
HETATM   27  O3  UNL     1      17.093  77.777   0.340  1.00  0.00    -0.384 OA
ENDBRANCH  22  23
ENDBRANCH   4  22
TORSDOF 6
ENDMDL
MODEL 5
REMARK VINA RESULT: -7.590662553      4.694      8.519
REMARK  6 active torsions:
REMARK  status: ('A' for Active; 'I' for Inactive)
REMARK       I    between atoms: C1_2  and  N1_3 
REMARK    1  A    between atoms: C1_2  and  C11_22 
REMARK    2  A    between atoms: N2_5  and  C2_7 
REMARK    3  A    between atoms: C3_8  and  O2_9 
REMARK    4  A    between atoms: N3_12  and  C5_13 
REMARK    5  A    between atoms: C5_13  and  C6_14 
REMARK    6  A    between atoms: C10_19  and  O4_20 
ROOT
HETATM    1  C2  UNL     1      19.088  82.038   2.734  1.00  0.00     0.134 A 
HETATM    2  C3  UNL     1      18.191  81.054   2.384  1.00  0.00     0.113 A 
HETATM    3  C4  UNL     1      18.287  80.826   1.036  1.00  0.00     0.132 A 
HETATM    4  N3  UNL     1      19.241  81.662   0.536  1.00  0.00    -0.331 N 
HETATM    5  C10 UNL     1      19.723  82.391   1.556  1.00  0.00     0.174 A 
ENDROOT
BRANCH   1   6
HETATM    6  N2  UNL     1      19.346  82.605   4.019  1.00  0.00    -0.292 N 
HETATM    7  N1  UNL     1      18.537  83.445   4.466  1.00  0.00    -0.269 N 
HETATM    8  C1  UNL     1      18.668  84.084   5.719  1.00  0.00     0.240 C 
ATOM      9  H1  UNL     1      17.730  83.683   3.890  1.00  0.00     0.190 HD
HETATM   10  O1  UNL     1      18.515  83.405   6.766  1.00  0.00    -0.271 OA
ATOM     11  H2  UNL     1      20.170  82.333   4.556  1.00  0.00     0.187 HD
BRANCH   8  12
HETATM   12  C11 UNL     1      18.983  85.535   5.744  1.00  0.00     0.079 C 
HETATM   13  C12 UNL     1      18.708  86.126   7.101  1.00  0.00     0.014 C 
HETATM   14  C13 UNL     1      19.538  87.378   7.275  1.00  0.00     0.001 C 
HETATM   15  C14 UNL     1      20.983  86.930   7.413  1.00  0.00     0.000 C 
HETATM   16  C15 UNL     1      21.383  85.938   6.363  1.00  0.00     0.001 C 
HETATM   17  C16 UNL     1      20.377  85.818   5.249  1.00  0.00     0.014 C 
ENDBRANCH   8  12
ENDBRANCH   1   6
BRANCH   2  18
HETATM   18  O2  UNL     1      17.351  80.438   3.328  1.00  0.00    -0.357 OA
ATOM     19  H2  UNL     1      17.640  80.250   4.213  1.00  0.00     0.218 HD
ENDBRANCH   2  18
BRANCH   5  20
HETATM   20  O4  UNL     1      20.711  83.357   1.450  1.00  0.00    -0.344 OA
ATOM     21  H4  UNL     1      21.637  83.205   1.598  1.00  0.00     0.219 HD
ENDBRANCH   5  20
BRANCH   4  22
HETATM   22  C5  UNL     1      19.579  81.659  -0.869  1.00  0.00     0.162 C 
BRANCH  22  23
HETATM   23  C6  UNL     1      19.001  82.836  -1.599  1.00  0.00     0.139 C 
HETATM   24  C7  UNL     1      18.833  82.578  -3.067  1.00  0.00     0.035 C 
HETATM   25  C8  UNL     1      18.672  84.028  -3.558  1.00  0.00     0.029 C 
HETATM   26  C9  UNL     1      19.595  84.746  -2.602  1.00  0.00     0.168 C 
HETATM   27  O3  UNL     1      19.719  83.992  -1.455  1.00  0.00    -0.384 OA
ENDBRANCH  22  23
ENDBRANCH   4  22
TORSDOF 6
ENDMDL
