MODEL 1
REMARK VINA RESULT: -7.563898777      0.000      0.000
REMARK  5 active torsions:
REMARK  status: ('A' for Active; 'I' for Inactive)
REMARK    1  A    between atoms: C1_2  and  C2_3 
REMARK       I    between atoms: C1_2  and  N2_11 
REMARK    2  A    between atoms: C2_3  and  O2_4 
REMARK    3  A    between atoms: O2_4  and  C3_5 
REMARK    4  A    between atoms: N2_11  and  C6_13 
REMARK    5  A    between atoms: C9_17  and  O3_18 
ROOT
HETATM    1  C6  UNL     1      18.719  83.026   4.213  1.00  0.00     0.111 A 
HETATM    2  S2  UNL     1      18.269  82.310   5.755  1.00  0.00    -0.073 SA
HETATM    3  C7  UNL     1      18.353  83.686   6.731  1.00  0.00    -0.006 A 
HETATM    4  C8  UNL     1      18.717  84.664   5.876  1.00  0.00    -0.009 A 
HETATM    5  C9  UNL     1      18.909  84.328   4.569  1.00  0.00     0.106 A 
HETATM    6  C10 UNL     1      18.899  86.092   6.360  1.00  0.00     0.042 C 
HETATM    7  C11 UNL     1      20.181  86.068   7.140  1.00  0.00     0.005 C 
HETATM    8  C12 UNL     1      20.257  85.145   8.276  1.00  0.00     0.001 C 
HETATM    9  C13 UNL     1      19.055  84.631   8.929  1.00  0.00     0.005 C 
HETATM   10  C14 UNL     1      18.090  83.791   8.190  1.00  0.00     0.047 C 
ENDROOT
BRANCH   1  11
HETATM   11  N2  UNL     1      18.815  82.305   2.998  1.00  0.00    -0.317 N 
HETATM   12  C1  UNL     1      18.325  82.648   1.740  1.00  0.00     0.246 C 
HETATM   13  O1  UNL     1      17.694  83.668   1.407  1.00  0.00    -0.271 OA
ATOM     14  H2  UNL     1      19.309  81.414   3.051  1.00  0.00     0.169 HD
BRANCH  12  15
HETATM   15  C2  UNL     1      18.591  81.658   0.622  1.00  0.00     0.278 C 
BRANCH  15  16
HETATM   16  O2  UNL     1      17.361  81.181   0.162  1.00  0.00    -0.340 OA
BRANCH  16  17
HETATM   17  C3  UNL     1      17.159  79.823  -0.193  1.00  0.00     0.093 A 
HETATM   18  C4  UNL     1      16.780  79.426  -1.413  1.00  0.00     0.133 A 
HETATM   19  N1  UNL     1      16.623  78.117  -1.623  1.00  0.00    -0.335 N 
HETATM   20  S1  UNL     1      16.999  77.421  -0.144  1.00  0.00    -0.024 SA
ATOM     21  H1  UNL     1      16.341  77.648  -2.484  1.00  0.00     0.173 HD
HETATM   22  C5  UNL     1      17.357  78.831   0.740  1.00  0.00     0.106 A 
ENDBRANCH  16  17
ENDBRANCH  15  16
ENDBRANCH  12  15
ENDBRANCH   1  11
BRANCH   5  23
HETATM   23  O3  UNL     1      19.298  85.285   3.586  1.00  0.00    -0.357 OA
ATOM     24  H3  UNL     1      19.790  86.056   3.843  1.00  0.00     0.217 HD
ENDBRANCH   5  23
TORSDOF 5
ENDMDL
MODEL 2
REMARK VINA RESULT: -7.544784145      1.690      2.174
REMARK  5 active torsions:
REMARK  status: ('A' for Active; 'I' for Inactive)
REMARK    1  A    between atoms: C1_2  and  C2_3 
REMARK       I    between atoms: C1_2  and  N2_11 
REMARK    2  A    between atoms: C2_3  and  O2_4 
REMARK    3  A    between atoms: O2_4  and  C3_5 
REMARK    4  A    between atoms: N2_11  and  C6_13 
REMARK    5  A    between atoms: C9_17  and  O3_18 
ROOT
HETATM    1  C6  UNL     1      19.105  83.074   4.011  1.00  0.00     0.111 A 
HETATM    2  S2  UNL     1      18.547  83.786   5.519  1.00  0.00    -0.073 SA
HETATM    3  C7  UNL     1      19.507  85.175   5.539  1.00  0.00    -0.006 A 
HETATM    4  C8  UNL     1      20.233  85.079   4.405  1.00  0.00    -0.009 A 
HETATM    5  C9  UNL     1      20.029  83.991   3.609  1.00  0.00     0.106 A 
HETATM    6  C10 UNL     1      21.236  86.156   4.031  1.00  0.00     0.042 C 
HETATM    7  C11 UNL     1      22.382  85.952   4.978  1.00  0.00     0.005 C 
HETATM    8  C12 UNL     1      22.088  86.023   6.412  1.00  0.00     0.001 C 
HETATM    9  C13 UNL     1      20.903  86.714   6.919  1.00  0.00     0.005 C 
HETATM   10  C14 UNL     1      19.546  86.247   6.568  1.00  0.00     0.047 C 
ENDROOT
BRANCH   1  11
HETATM   11  N2  UNL     1      18.622  81.853   3.480  1.00  0.00    -0.317 N 
HETATM   12  C1  UNL     1      18.203  81.573   2.182  1.00  0.00     0.246 C 
HETATM   13  O1  UNL     1      18.160  82.338   1.200  1.00  0.00    -0.271 OA
ATOM     14  H2  UNL     1      18.575  81.074   4.136  1.00  0.00     0.169 HD
BRANCH  12  15
HETATM   15  C2  UNL     1      17.735  80.155   1.917  1.00  0.00     0.278 C 
BRANCH  15  16
HETATM   16  O2  UNL     1      16.733  80.201   0.944  1.00  0.00    -0.340 OA
BRANCH  16  17
HETATM   17  C3  UNL     1      16.792  79.428  -0.243  1.00  0.00     0.093 A 
HETATM   18  C4  UNL     1      16.795  78.089  -0.253  1.00  0.00     0.133 A 
HETATM   19  N1  UNL     1      16.854  77.475  -1.437  1.00  0.00    -0.335 N 
HETATM   20  S1  UNL     1      16.904  78.733  -2.546  1.00  0.00    -0.024 SA
ATOM     21  H1  UNL     1      16.866  76.472  -1.624  1.00  0.00     0.173 HD
HETATM   22  C5  UNL     1      16.849  80.050  -1.468  1.00  0.00     0.106 A 
ENDBRANCH  16  17
ENDBRANCH  15  16
ENDBRANCH  12  15
ENDBRANCH   1  11
BRANCH   5  23
HETATM   23  O3  UNL     1      20.745  83.795   2.391  1.00  0.00    -0.357 OA
ATOM     24  H3  UNL     1      20.278  83.557   1.600  1.00  0.00     0.217 HD
ENDBRANCH   5  23
TORSDOF 5
ENDMDL
MODEL 3
REMARK VINA RESULT: -7.393493117      2.630      3.175
REMARK  5 active torsions:
REMARK  status: ('A' for Active; 'I' for Inactive)
REMARK    1  A    between atoms: C1_2  and  C2_3 
REMARK       I    between atoms: C1_2  and  N2_11 
REMARK    2  A    between atoms: C2_3  and  O2_4 
REMARK    3  A    between atoms: O2_4  and  C3_5 
REMARK    4  A    between atoms: N2_11  and  C6_13 
REMARK    5  A    between atoms: C9_17  and  O3_18 
ROOT
HETATM    1  C6  UNL     1      20.765  84.536   3.245  1.00  0.00     0.111 A 
HETATM    2  S2  UNL     1      19.712  84.840   4.621  1.00  0.00    -0.073 SA
HETATM    3  C7  UNL     1      20.739  85.811   5.544  1.00  0.00    -0.006 A 
HETATM    4  C8  UNL     1      21.860  85.892   4.797  1.00  0.00    -0.009 A 
HETATM    5  C9  UNL     1      21.880  85.232   3.605  1.00  0.00     0.106 A 
HETATM    6  C10 UNL     1      23.055  86.700   5.274  1.00  0.00     0.042 C 
HETATM    7  C11 UNL     1      23.651  85.879   6.380  1.00  0.00     0.005 C 
HETATM    8  C12 UNL     1      22.784  85.556   7.516  1.00  0.00     0.001 C 
HETATM    9  C13 UNL     1      21.595  86.347   7.824  1.00  0.00     0.005 C 
HETATM   10  C14 UNL     1      20.470  86.428   6.869  1.00  0.00     0.047 C 
ENDROOT
BRANCH   1  11
HETATM   11  N2  UNL     1      20.404  83.748   2.125  1.00  0.00    -0.317 N 
HETATM   12  C1  UNL     1      20.975  82.561   1.675  1.00  0.00     0.246 C 
HETATM   13  O1  UNL     1      21.932  81.929   2.161  1.00  0.00    -0.271 OA
ATOM     14  H2  UNL     1      19.620  84.098   1.574  1.00  0.00     0.169 HD
BRANCH  12  15
HETATM   15  C2  UNL     1      20.360  81.946   0.432  1.00  0.00     0.278 C 
BRANCH  15  16
HETATM   16  O2  UNL     1      18.970  82.012   0.556  1.00  0.00    -0.340 OA
BRANCH  16  17
HETATM   17  C3  UNL     1      18.183  80.877   0.880  1.00  0.00     0.093 A 
HETATM   18  C4  UNL     1      17.858  80.536   2.132  1.00  0.00     0.133 A 
HETATM   19  N1  UNL     1      17.111  79.443   2.307  1.00  0.00    -0.335 N 
HETATM   20  S1  UNL     1      16.849  78.877   0.750  1.00  0.00    -0.024 SA
ATOM     21  H1  UNL     1      16.777  79.045   3.185  1.00  0.00     0.173 HD
HETATM   22  C5  UNL     1      17.711  80.060  -0.121  1.00  0.00     0.106 A 
ENDBRANCH  16  17
ENDBRANCH  15  16
ENDBRANCH  12  15
ENDBRANCH   1  11
BRANCH   5  23
HETATM   23  O3  UNL     1      23.016  85.252   2.743  1.00  0.00    -0.357 OA
ATOM     24  H3  UNL     1      23.334  84.443   2.360  1.00  0.00     0.217 HD
ENDBRANCH   5  23
TORSDOF 5
ENDMDL
MODEL 4
REMARK VINA RESULT: -7.313377763      1.241      1.401
REMARK  5 active torsions:
REMARK  status: ('A' for Active; 'I' for Inactive)
REMARK    1  A    between atoms: C1_2  and  C2_3 
REMARK       I    between atoms: C1_2  and  N2_11 
REMARK    2  A    between atoms: C2_3  and  O2_4 
REMARK    3  A    between atoms: O2_4  and  C3_5 
REMARK    4  A    between atoms: N2_11  and  C6_13 
REMARK    5  A    between atoms: C9_17  and  O3_18 
ROOT
HETATM    1  C6  UNL     1      18.255  82.187   4.941  1.00  0.00     0.111 A 
HETATM    2  S2  UNL     1      17.908  82.020   6.657  1.00  0.00    -0.073 SA
HETATM    3  C7  UNL     1      18.239  83.598   7.159  1.00  0.00    -0.006 A 
HETATM    4  C8  UNL     1      18.605  84.226   6.022  1.00  0.00    -0.009 A 
HETATM    5  C9  UNL     1      18.616  83.499   4.869  1.00  0.00     0.106 A 
HETATM    6  C10 UNL     1      18.985  85.697   6.034  1.00  0.00     0.042 C 
HETATM    7  C11 UNL     1      20.336  85.735   6.686  1.00  0.00     0.005 C 
HETATM    8  C12 UNL     1      20.443  85.183   8.039  1.00  0.00     0.001 C 
HETATM    9  C13 UNL     1      19.274  85.046   8.906  1.00  0.00     0.005 C 
HETATM   10  C14 UNL     1      18.152  84.160   8.532  1.00  0.00     0.047 C 
ENDROOT
BRANCH   1  11
HETATM   11  N2  UNL     1      18.142  81.135   3.999  1.00  0.00    -0.317 N 
HETATM   12  C1  UNL     1      17.941  81.216   2.624  1.00  0.00     0.246 C 
HETATM   13  O1  UNL     1      17.817  82.234   1.917  1.00  0.00    -0.271 OA
ATOM     14  H2  UNL     1      18.217  80.192   4.380  1.00  0.00     0.169 HD
BRANCH  12  15
HETATM   15  C2  UNL     1      17.862  79.898   1.877  1.00  0.00     0.278 C 
BRANCH  15  16
HETATM   16  O2  UNL     1      16.755  79.944   1.027  1.00  0.00    -0.340 OA
BRANCH  16  17
HETATM   17  C3  UNL     1      16.750  79.318  -0.246  1.00  0.00     0.093 A 
HETATM   18  C4  UNL     1      16.742  77.991  -0.416  1.00  0.00     0.133 A 
HETATM   19  N1  UNL     1      16.738  77.522  -1.667  1.00  0.00    -0.335 N 
HETATM   20  S1  UNL     1      16.743  78.904  -2.618  1.00  0.00    -0.024 SA
ATOM     21  H1  UNL     1      16.733  76.549  -1.973  1.00  0.00     0.173 HD
HETATM   22  C5  UNL     1      16.750  80.083  -1.389  1.00  0.00     0.106 A 
ENDBRANCH  16  17
ENDBRANCH  15  16
ENDBRANCH  12  15
ENDBRANCH   1  11
BRANCH   5  23
HETATM   23  O3  UNL     1      18.990  84.067   3.615  1.00  0.00    -0.357 OA
ATOM     24  H3  UNL     1      18.607  84.890   3.334  1.00  0.00     0.217 HD
ENDBRANCH   5  23
TORSDOF 5
ENDMDL
MODEL 5
REMARK VINA RESULT: -7.278808123      2.151      2.809
REMARK  5 active torsions:
REMARK  status: ('A' for Active; 'I' for Inactive)
REMARK    1  A    between atoms: C1_2  and  C2_3 
REMARK       I    between atoms: C1_2  and  N2_11 
REMARK    2  A    between atoms: C2_3  and  O2_4 
REMARK    3  A    between atoms: O2_4  and  C3_5 
REMARK    4  A    between atoms: N2_11  and  C6_13 
REMARK    5  A    between atoms: C9_17  and  O3_18 
ROOT
HETATM    1  C6  UNL     1      20.073  84.367   3.652  1.00  0.00     0.111 A 
HETATM    2  S2  UNL     1      21.334  85.511   4.092  1.00  0.00    -0.073 SA
HETATM    3  C7  UNL     1      20.905  85.786   5.702  1.00  0.00    -0.006 A 
HETATM    4  C8  UNL     1      19.818  85.008   5.881  1.00  0.00    -0.009 A 
HETATM    5  C9  UNL     1      19.381  84.271   4.821  1.00  0.00     0.106 A 
HETATM    6  C10 UNL     1      19.112  84.956   7.226  1.00  0.00     0.042 C 
HETATM    7  C11 UNL     1      18.395  86.270   7.329  1.00  0.00     0.005 C 
HETATM    8  C12 UNL     1      19.207  87.486   7.241  1.00  0.00     0.001 C 
HETATM    9  C13 UNL     1      20.642  87.472   7.521  1.00  0.00     0.005 C 
HETATM   10  C14 UNL     1      21.569  86.680   6.687  1.00  0.00     0.047 C 
ENDROOT
BRANCH   1  11
HETATM   11  N2  UNL     1      19.942  83.782   2.369  1.00  0.00    -0.317 N 
HETATM   12  C1  UNL     1      20.578  82.654   1.857  1.00  0.00     0.246 C 
HETATM   13  O1  UNL     1      21.404  81.910   2.418  1.00  0.00    -0.271 OA
ATOM     14  H2  UNL     1      19.295  84.250   1.735  1.00  0.00     0.169 HD
BRANCH  12  15
HETATM   15  C2  UNL     1      20.226  82.271   0.432  1.00  0.00     0.278 C 
BRANCH  15  16
HETATM   16  O2  UNL     1      18.839  82.119   0.352  1.00  0.00    -0.340 OA
BRANCH  16  17
HETATM   17  C3  UNL     1      18.189  80.905   0.691  1.00  0.00     0.093 A 
HETATM   18  C4  UNL     1      17.899  80.548   1.948  1.00  0.00     0.133 A 
HETATM   19  N1  UNL     1      17.284  79.378   2.138  1.00  0.00    -0.335 N 
HETATM   20  S1  UNL     1      17.100  78.760   0.590  1.00  0.00    -0.024 SA
ATOM     21  H1  UNL     1      16.993  78.957   3.021  1.00  0.00     0.173 HD
HETATM   22  C5  UNL     1      17.821  80.022  -0.297  1.00  0.00     0.106 A 
ENDBRANCH  16  17
ENDBRANCH  15  16
ENDBRANCH  12  15
ENDBRANCH   1  11
BRANCH   5  23
HETATM   23  O3  UNL     1      18.240  83.419   4.906  1.00  0.00    -0.357 OA
ATOM     24  H3  UNL     1      17.909  83.152   5.755  1.00  0.00     0.217 HD
ENDBRANCH   5  23
TORSDOF 5
ENDMDL
