MODEL 1
REMARK VINA RESULT: -6.169044588      0.000      0.000
REMARK  5 active torsions:
REMARK  status: ('A' for Active; 'I' for Inactive)
REMARK    1  A    between atoms: C1_2  and  C2_4 
REMARK    2  A    between atoms: C2_4  and  C3_6 
REMARK    3  A    between atoms: C4_7  and  C5_8 
REMARK    4  A    between atoms: C5_8  and  S1_9 
REMARK    5  A    between atoms: S1_9  and  C6_11 
ROOT
HETATM    1  C3  UNL     1      53.938  -4.004 -54.297  1.00  0.00     0.059 C 
HETATM    2  C4  UNL     1      54.585  -4.797 -55.112  1.00  0.00    -0.010 C 
ENDROOT
BRANCH   2   3
HETATM    3  C5  UNL     1      54.563  -4.626 -56.585  1.00  0.00     0.136 C 
BRANCH   3   4
HETATM    4  S1  UNL     1      56.050  -3.924 -57.131  1.00  0.00     0.022 S 
HETATM    5  O4  UNL     1      56.632  -4.738 -58.456  1.00  0.00    -0.257 OA
BRANCH   4   6
HETATM    6  C6  UNL     1      57.293  -3.763 -55.916  1.00  0.00     0.080 A 
HETATM    7  C7  UNL     1      58.714  -4.079 -56.178  1.00  0.00     0.019 A 
HETATM    8  C8  UNL     1      58.331  -2.655 -56.120  1.00  0.00     0.019 A 
ENDBRANCH   4   6
ENDBRANCH   3   4
ENDBRANCH   2   3
BRANCH   1   9
HETATM    9  C2  UNL     1      53.885  -4.076 -52.856  1.00  0.00     0.247 C 
HETATM   10  O3  UNL     1      54.918  -3.689 -52.199  1.00  0.00    -0.281 OA
BRANCH   9  11
HETATM   11  C1  UNL     1      52.776  -4.543 -52.065  1.00  0.00     0.251 C 
HETATM   12  O1  UNL     1      52.752  -4.637 -50.812  1.00  0.00    -0.642 OA
HETATM   13  O2  UNL     1      51.582  -4.945 -52.716  1.00  0.00    -0.642 OA
ENDBRANCH   9  11
ENDBRANCH   1   9
TORSDOF 5
ENDMDL
MODEL 2
REMARK VINA RESULT: -6.040733721      0.988      1.914
REMARK  5 active torsions:
REMARK  status: ('A' for Active; 'I' for Inactive)
REMARK    1  A    between atoms: C1_2  and  C2_4 
REMARK    2  A    between atoms: C2_4  and  C3_6 
REMARK    3  A    between atoms: C4_7  and  C5_8 
REMARK    4  A    between atoms: C5_8  and  S1_9 
REMARK    5  A    between atoms: S1_9  and  C6_11 
ROOT
HETATM    1  C3  UNL     1      54.158  -3.687 -54.310  1.00  0.00     0.059 C 
HETATM    2  C4  UNL     1      54.566  -4.703 -55.027  1.00  0.00    -0.010 C 
ENDROOT
BRANCH   2   3
HETATM    3  C5  UNL     1      54.563  -4.693 -56.510  1.00  0.00     0.136 C 
BRANCH   3   4
HETATM    4  S1  UNL     1      56.014  -3.962 -57.109  1.00  0.00     0.022 S 
HETATM    5  O4  UNL     1      56.560  -4.759 -58.460  1.00  0.00    -0.257 OA
BRANCH   4   6
HETATM    6  C6  UNL     1      57.300  -3.783 -55.942  1.00  0.00     0.080 A 
HETATM    7  C7  UNL     1      58.717  -4.062 -56.263  1.00  0.00     0.019 A 
HETATM    8  C8  UNL     1      58.303  -2.648 -56.175  1.00  0.00     0.019 A 
ENDBRANCH   4   6
ENDBRANCH   3   4
ENDBRANCH   2   3
BRANCH   1   9
HETATM    9  C2  UNL     1      54.114  -3.586 -52.871  1.00  0.00     0.247 C 
HETATM   10  O3  UNL     1      52.986  -3.783 -52.291  1.00  0.00    -0.281 OA
BRANCH   9  11
HETATM   11  C1  UNL     1      55.221  -3.281 -52.002  1.00  0.00     0.251 C 
HETATM   12  O1  UNL     1      55.188  -3.254 -50.747  1.00  0.00    -0.642 OA
HETATM   13  O2  UNL     1      56.484  -2.976 -52.572  1.00  0.00    -0.642 OA
ENDBRANCH   9  11
ENDBRANCH   1   9
TORSDOF 5
ENDMDL
MODEL 3
REMARK VINA RESULT: -5.964978078      1.618      2.333
REMARK  5 active torsions:
REMARK  status: ('A' for Active; 'I' for Inactive)
REMARK    1  A    between atoms: C1_2  and  C2_4 
REMARK    2  A    between atoms: C2_4  and  C3_6 
REMARK    3  A    between atoms: C4_7  and  C5_8 
REMARK    4  A    between atoms: C5_8  and  S1_9 
REMARK    5  A    between atoms: S1_9  and  C6_11 
ROOT
HETATM    1  C3  UNL     1      54.961  -3.669 -55.115  1.00  0.00     0.059 C 
HETATM    2  C4  UNL     1      54.722  -4.597 -56.006  1.00  0.00    -0.010 C 
ENDROOT
BRANCH   2   3
HETATM    3  C5  UNL     1      55.228  -4.523 -57.398  1.00  0.00     0.136 C 
BRANCH   3   4
HETATM    4  S1  UNL     1      56.606  -3.476 -57.482  1.00  0.00     0.022 S 
HETATM    5  O4  UNL     1      56.492  -2.458 -58.789  1.00  0.00    -0.257 OA
BRANCH   4   6
HETATM    6  C6  UNL     1      58.157  -4.277 -57.463  1.00  0.00     0.080 A 
HETATM    7  C7  UNL     1      59.019  -4.324 -56.261  1.00  0.00     0.019 A 
HETATM    8  C8  UNL     1      58.277  -5.550 -56.618  1.00  0.00     0.019 A 
ENDBRANCH   4   6
ENDBRANCH   3   4
ENDBRANCH   2   3
BRANCH   1   9
HETATM    9  C2  UNL     1      54.521  -3.634 -53.740  1.00  0.00     0.247 C 
HETATM   10  O3  UNL     1      53.284  -3.885 -53.501  1.00  0.00    -0.281 OA
BRANCH   9  11
HETATM   11  C1  UNL     1      55.336  -3.342 -52.590  1.00  0.00     0.251 C 
HETATM   12  O1  UNL     1      56.525  -2.936 -52.613  1.00  0.00    -0.642 OA
HETATM   13  O2  UNL     1      54.790  -3.515 -51.292  1.00  0.00    -0.642 OA
ENDBRANCH   9  11
ENDBRANCH   1   9
TORSDOF 5
ENDMDL
MODEL 4
REMARK VINA RESULT: -5.939787634      2.136      5.781
REMARK  5 active torsions:
REMARK  status: ('A' for Active; 'I' for Inactive)
REMARK    1  A    between atoms: C1_2  and  C2_4 
REMARK    2  A    between atoms: C2_4  and  C3_6 
REMARK    3  A    between atoms: C4_7  and  C5_8 
REMARK    4  A    between atoms: C5_8  and  S1_9 
REMARK    5  A    between atoms: S1_9  and  C6_11 
ROOT
HETATM    1  C3  UNL     1      55.965  -4.717 -56.972  1.00  0.00     0.059 C 
HETATM    2  C4  UNL     1      55.506  -4.649 -55.748  1.00  0.00    -0.010 C 
ENDROOT
BRANCH   2   3
HETATM    3  C5  UNL     1      54.060  -4.721 -55.428  1.00  0.00     0.136 C 
BRANCH   3   4
HETATM    4  S1  UNL     1      53.830  -4.892 -53.719  1.00  0.00     0.022 S 
HETATM    5  O4  UNL     1      52.327  -5.514 -53.387  1.00  0.00    -0.257 OA
BRANCH   4   6
HETATM    6  C6  UNL     1      54.118  -3.450 -52.777  1.00  0.00     0.080 A 
HETATM    7  C7  UNL     1      54.555  -3.491 -51.364  1.00  0.00     0.019 A 
HETATM    8  C8  UNL     1      55.568  -3.151 -52.382  1.00  0.00     0.019 A 
ENDBRANCH   4   6
ENDBRANCH   3   4
ENDBRANCH   2   3
BRANCH   1   9
HETATM    9  C2  UNL     1      57.342  -4.655 -57.400  1.00  0.00     0.247 C 
HETATM   10  O3  UNL     1      57.614  -5.034 -58.597  1.00  0.00    -0.281 OA
BRANCH   9  11
HETATM   11  C1  UNL     1      58.461  -4.206 -56.614  1.00  0.00     0.251 C 
HETATM   12  O1  UNL     1      59.490  -4.876 -56.346  1.00  0.00    -0.642 OA
HETATM   13  O2  UNL     1      58.445  -2.896 -56.071  1.00  0.00    -0.642 OA
ENDBRANCH   9  11
ENDBRANCH   1   9
TORSDOF 5
ENDMDL
MODEL 5
REMARK VINA RESULT: -5.937041297      1.729      1.925
REMARK  5 active torsions:
REMARK  status: ('A' for Active; 'I' for Inactive)
REMARK    1  A    between atoms: C1_2  and  C2_4 
REMARK    2  A    between atoms: C2_4  and  C3_6 
REMARK    3  A    between atoms: C4_7  and  C5_8 
REMARK    4  A    between atoms: C5_8  and  S1_9 
REMARK    5  A    between atoms: S1_9  and  C6_11 
ROOT
HETATM    1  C3  UNL     1      55.158  -3.584 -52.972  1.00  0.00     0.059 C 
HETATM    2  C4  UNL     1      55.237  -3.015 -54.148  1.00  0.00    -0.010 C 
ENDROOT
BRANCH   2   3
HETATM    3  C5  UNL     1      56.347  -3.279 -55.095  1.00  0.00     0.136 C 
BRANCH   3   4
HETATM    4  S1  UNL     1      55.758  -4.111 -56.495  1.00  0.00     0.022 S 
HETATM    5  O4  UNL     1      54.404  -4.999 -56.125  1.00  0.00    -0.257 OA
BRANCH   4   6
HETATM    6  C6  UNL     1      56.930  -5.101 -57.327  1.00  0.00     0.080 A 
HETATM    7  C7  UNL     1      57.600  -4.671 -58.574  1.00  0.00     0.019 A 
HETATM    8  C8  UNL     1      58.384  -4.615 -57.324  1.00  0.00     0.019 A 
ENDBRANCH   4   6
ENDBRANCH   3   4
ENDBRANCH   2   3
BRANCH   1   9
HETATM    9  C2  UNL     1      54.132  -3.402 -51.973  1.00  0.00     0.247 C 
HETATM   10  O3  UNL     1      54.309  -2.483 -51.093  1.00  0.00    -0.281 OA
BRANCH   9  11
HETATM   11  C1  UNL     1      52.911  -4.156 -51.856  1.00  0.00     0.251 C 
HETATM   12  O1  UNL     1      52.551  -4.828 -50.858  1.00  0.00    -0.642 OA
HETATM   13  O2  UNL     1      52.000  -4.170 -52.944  1.00  0.00    -0.642 OA
ENDBRANCH   9  11
ENDBRANCH   1   9
TORSDOF 5
ENDMDL
