MODEL 1
REMARK VINA RESULT: -6.951126912      0.000      0.000
REMARK  7 active torsions:
REMARK  status: ('A' for Active; 'I' for Inactive)
REMARK    1  A    between atoms: N1_1  and  C1_4 
REMARK    2  A    between atoms: C2_7  and  N3_8 
REMARK    3  A    between atoms: C7_16  and  N5_17 
REMARK    4  A    between atoms: N5_17  and  C8_19 
REMARK    5  A    between atoms: C8_19  and  C9_20 
REMARK    6  A    between atoms: C9_20  and  C10_21 
REMARK    7  A    between atoms: C10_21  and  N6_22 
ROOT
HETATM    1  C1  UNL     1     -14.360  11.886  20.336  1.00  0.00     0.705 A 
HETATM    2  N2  UNL     1     -14.315  11.998  18.987  1.00  0.00    -0.022 N 
ATOM      3  H2  UNL     1     -13.905  11.262  18.411  1.00  0.00     0.203 HD
HETATM    4  C2  UNL     1     -14.832  13.117  18.428  1.00  0.00     0.709 A 
HETATM    5  N4  UNL     1     -15.370  14.080  19.207  1.00  0.00    -0.021 N 
ATOM      6  H4  UNL     1     -15.754  14.915  18.765  1.00  0.00     0.203 HD
HETATM    7  C7  UNL     1     -15.418  13.976  20.547  1.00  0.00     0.707 A 
HETATM    8  N8  UNL     1     -14.903  12.862  21.098  1.00  0.00    -0.022 N 
ATOM      9  H8  UNL     1     -14.923  12.751  22.112  1.00  0.00     0.203 HD
ENDROOT
BRANCH   7  10
HETATM   10  N5  UNL     1     -15.936  14.901  21.272  1.00  0.00    -0.225 N 
ATOM     11  H5  UNL     1     -16.440  15.650  20.797  1.00  0.00     0.177 HD
BRANCH  10  12
HETATM   12  C8  UNL     1     -15.855  14.952  22.703  1.00  0.00     0.139 C 
BRANCH  12  13
HETATM   13  C9  UNL     1     -14.756  15.909  23.080  1.00  0.00     0.042 C 
BRANCH  13  14
HETATM   14  C10 UNL     1     -13.578  15.207  23.652  1.00  0.00     0.154 C 
BRANCH  14  15
HETATM   15  N6  UNL     1     -12.383  16.008  23.490  1.00  0.00    -0.256 N 
HETATM   16  N7  UNL     1     -12.174  16.949  22.588  1.00  0.00    -0.295 N 
HETATM   17  C11 UNL     1     -10.942  17.450  22.753  1.00  0.00     0.064 A 
ATOM     18  H7  UNL     1     -12.844  17.247  21.879  1.00  0.00     0.187 HD
HETATM   19  C12 UNL     1     -10.236  18.420  22.105  1.00  0.00     0.032 A 
HETATM   20  C16 UNL     1     -10.317  16.810  23.805  1.00  0.00     0.061 A 
HETATM   21  C13 UNL     1      -8.944  18.758  22.479  1.00  0.00     0.002 A 
HETATM   22  C14 UNL     1      -8.338  18.105  23.537  1.00  0.00     0.001 A 
HETATM   23  C15 UNL     1      -9.036  17.126  24.199  1.00  0.00     0.019 A 
HETATM   24  C17 UNL     1     -11.252  15.900  24.256  1.00  0.00     0.274 A 
HETATM   25  O2  UNL     1     -11.149  15.095  25.192  1.00  0.00    -0.266 OA
ENDBRANCH  14  15
ENDBRANCH  13  14
ENDBRANCH  12  13
ENDBRANCH  10  12
ENDBRANCH   7  10
BRANCH   4  26
HETATM   26  N3  UNL     1     -14.815  13.288  17.022  1.00  0.00    -0.213 N 
HETATM   27  C3  UNL     1     -13.945  14.302  16.466  1.00  0.00     0.167 C 
HETATM   28  C4  UNL     1     -13.071  13.565  15.442  1.00  0.00     0.188 C 
HETATM   29  O1  UNL     1     -13.845  12.890  14.508  1.00  0.00    -0.388 OA
HETATM   30  C5  UNL     1     -14.671  11.937  15.062  1.00  0.00     0.188 C 
HETATM   31  C6  UNL     1     -15.616  12.510  16.104  1.00  0.00     0.167 C 
ENDBRANCH   4  26
BRANCH   1  32
HETATM   32  N1  UNL     1     -13.881  10.838  20.935  1.00  0.00    -0.234 N 
ATOM     33  H12 UNL     1     -13.034  10.948  21.494  1.00  0.00     0.174 HD
ATOM     34  H11 UNL     1     -14.337   9.930  20.847  1.00  0.00     0.174 HD
ENDBRANCH   1  32
TORSDOF 7
ENDMDL
MODEL 2
REMARK VINA RESULT: -6.887326191      1.332      1.627
REMARK  7 active torsions:
REMARK  status: ('A' for Active; 'I' for Inactive)
REMARK    1  A    between atoms: N1_1  and  C1_4 
REMARK    2  A    between atoms: C2_7  and  N3_8 
REMARK    3  A    between atoms: C7_16  and  N5_17 
REMARK    4  A    between atoms: N5_17  and  C8_19 
REMARK    5  A    between atoms: C8_19  and  C9_20 
REMARK    6  A    between atoms: C9_20  and  C10_21 
REMARK    7  A    between atoms: C10_21  and  N6_22 
ROOT
HETATM    1  C1  UNL     1     -14.446  12.017  20.850  1.00  0.00     0.705 A 
HETATM    2  N2  UNL     1     -14.741  12.568  19.648  1.00  0.00    -0.022 N 
ATOM      3  H2  UNL     1     -14.530  12.079  18.778  1.00  0.00     0.203 HD
HETATM    4  C2  UNL     1     -15.326  13.789  19.639  1.00  0.00     0.709 A 
HETATM    5  N4  UNL     1     -15.597  14.421  20.802  1.00  0.00    -0.021 N 
ATOM      6  H4  UNL     1     -16.038  15.340  20.771  1.00  0.00     0.203 HD
HETATM    7  C7  UNL     1     -15.306  13.880  21.998  1.00  0.00     0.707 A 
HETATM    8  N8  UNL     1     -14.725  12.667  22.002  1.00  0.00    -0.022 N 
ATOM      9  H8  UNL     1     -14.490  12.229  22.892  1.00  0.00     0.203 HD
ENDROOT
BRANCH   7  10
HETATM   10  N5  UNL     1     -15.573  14.496  23.093  1.00  0.00    -0.225 N 
ATOM     11  H5  UNL     1     -16.533  14.807  23.240  1.00  0.00     0.177 HD
BRANCH  10  12
HETATM   12  C8  UNL     1     -14.614  14.774  24.123  1.00  0.00     0.139 C 
BRANCH  12  13
HETATM   13  C9  UNL     1     -13.608  15.754  23.580  1.00  0.00     0.042 C 
BRANCH  13  14
HETATM   14  C10 UNL     1     -12.213  15.355  23.901  1.00  0.00     0.154 C 
BRANCH  14  15
HETATM   15  N6  UNL     1     -11.281  16.364  23.447  1.00  0.00    -0.256 N 
HETATM   16  N7  UNL     1     -11.423  17.167  22.409  1.00  0.00    -0.295 N 
HETATM   17  C11 UNL     1     -10.340  17.951  22.308  1.00  0.00     0.064 A 
ATOM     18  H7  UNL     1     -12.228  17.188  21.783  1.00  0.00     0.187 HD
HETATM   19  C12 UNL     1      -9.980  18.934  21.434  1.00  0.00     0.032 A 
HETATM   20  C16 UNL     1      -9.452  17.648  23.321  1.00  0.00     0.061 A 
HETATM   21  C13 UNL     1      -8.773  19.609  21.549  1.00  0.00     0.002 A 
HETATM   22  C14 UNL     1      -7.899  19.291  22.572  1.00  0.00     0.001 A 
HETATM   23  C15 UNL     1      -8.248  18.303  23.460  1.00  0.00     0.019 A 
HETATM   24  C17 UNL     1     -10.072  16.639  24.030  1.00  0.00     0.274 A 
HETATM   25  O2  UNL     1      -9.658  16.042  25.034  1.00  0.00    -0.266 OA
ENDBRANCH  14  15
ENDBRANCH  13  14
ENDBRANCH  12  13
ENDBRANCH  10  12
ENDBRANCH   7  10
BRANCH   4  26
HETATM   26  N3  UNL     1     -15.659  14.413  18.413  1.00  0.00    -0.213 N 
HETATM   27  C3  UNL     1     -14.870  15.548  17.985  1.00  0.00     0.167 C 
HETATM   28  C4  UNL     1     -14.371  15.184  16.580  1.00  0.00     0.188 C 
HETATM   29  O1  UNL     1     -15.423  14.860  15.737  1.00  0.00    -0.388 OA
HETATM   30  C5  UNL     1     -16.164  13.782  16.168  1.00  0.00     0.188 C 
HETATM   31  C6  UNL     1     -16.745  13.986  17.558  1.00  0.00     0.167 C 
ENDBRANCH   4  26
BRANCH   1  32
HETATM   32  N1  UNL     1     -13.883  10.848  20.928  1.00  0.00    -0.234 N 
ATOM     33  H12 UNL     1     -13.641  10.492  21.853  1.00  0.00     0.174 HD
ATOM     34  H11 UNL     1     -13.688  10.304  20.087  1.00  0.00     0.174 HD
ENDBRANCH   1  32
TORSDOF 7
ENDMDL
MODEL 3
REMARK VINA RESULT: -6.881237226      2.392      7.953
REMARK  7 active torsions:
REMARK  status: ('A' for Active; 'I' for Inactive)
REMARK    1  A    between atoms: N1_1  and  C1_4 
REMARK    2  A    between atoms: C2_7  and  N3_8 
REMARK    3  A    between atoms: C7_16  and  N5_17 
REMARK    4  A    between atoms: N5_17  and  C8_19 
REMARK    5  A    between atoms: C8_19  and  C9_20 
REMARK    6  A    between atoms: C9_20  and  C10_21 
REMARK    7  A    between atoms: C10_21  and  N6_22 
ROOT
HETATM    1  C1  UNL     1     -11.079  17.020  25.719  1.00  0.00     0.705 A 
HETATM    2  N2  UNL     1      -9.993  17.491  25.061  1.00  0.00    -0.022 N 
ATOM      3  H2  UNL     1      -9.280  18.038  25.544  1.00  0.00     0.203 HD
HETATM    4  C2  UNL     1      -9.885  17.212  23.740  1.00  0.00     0.709 A 
HETATM    5  N4  UNL     1     -10.840  16.487  23.119  1.00  0.00    -0.021 N 
ATOM      6  H4  UNL     1     -10.738  16.289  22.123  1.00  0.00     0.203 HD
HETATM    7  C7  UNL     1     -11.920  16.016  23.766  1.00  0.00     0.707 A 
HETATM    8  N8  UNL     1     -12.023  16.296  25.078  1.00  0.00    -0.022 N 
ATOM      9  H8  UNL     1     -12.831  15.955  25.599  1.00  0.00     0.203 HD
ENDROOT
BRANCH   7  10
HETATM   10  N5  UNL     1     -12.817  15.326  23.158  1.00  0.00    -0.225 N 
ATOM     11  H5  UNL     1     -12.705  15.180  22.155  1.00  0.00     0.177 HD
BRANCH  10  12
HETATM   12  C8  UNL     1     -13.965  14.747  23.794  1.00  0.00     0.139 C 
BRANCH  12  13
HETATM   13  C9  UNL     1     -15.041  14.569  22.756  1.00  0.00     0.042 C 
BRANCH  13  14
HETATM   14  C10 UNL     1     -15.045  13.195  22.190  1.00  0.00     0.154 C 
BRANCH  14  15
HETATM   15  N6  UNL     1     -15.018  13.244  20.743  1.00  0.00    -0.256 N 
HETATM   16  N7  UNL     1     -15.509  14.196  19.972  1.00  0.00    -0.295 N 
HETATM   17  C11 UNL     1     -15.301  13.872  18.688  1.00  0.00     0.064 A 
ATOM     18  H7  UNL     1     -15.972  15.043  20.300  1.00  0.00     0.187 HD
HETATM   19  C12 UNL     1     -15.603  14.491  17.510  1.00  0.00     0.032 A 
HETATM   20  C16 UNL     1     -14.649  12.657  18.615  1.00  0.00     0.061 A 
HETATM   21  C13 UNL     1     -15.272  13.932  16.285  1.00  0.00     0.002 A 
HETATM   22  C14 UNL     1     -14.617  12.714  16.235  1.00  0.00     0.001 A 
HETATM   23  C15 UNL     1     -14.307  12.080  17.412  1.00  0.00     0.019 A 
HETATM   24  C17 UNL     1     -14.480  12.280  19.932  1.00  0.00     0.274 A 
HETATM   25  O2  UNL     1     -13.941  11.255  20.372  1.00  0.00    -0.266 OA
ENDBRANCH  14  15
ENDBRANCH  13  14
ENDBRANCH  12  13
ENDBRANCH  10  12
ENDBRANCH   7  10
BRANCH   4  26
HETATM   26  N3  UNL     1      -8.771  17.676  23.000  1.00  0.00    -0.213 N 
HETATM   27  C3  UNL     1      -7.452  17.513  23.573  1.00  0.00     0.167 C 
HETATM   28  C4  UNL     1      -6.645  16.750  22.515  1.00  0.00     0.188 C 
HETATM   29  O1  UNL     1      -6.668  17.404  21.291  1.00  0.00    -0.388 OA
HETATM   30  C5  UNL     1      -7.933  17.554  20.770  1.00  0.00     0.188 C 
HETATM   31  C6  UNL     1      -8.869  18.306  21.702  1.00  0.00     0.167 C 
ENDBRANCH   4  26
BRANCH   1  32
HETATM   32  N1  UNL     1     -11.243  17.253  26.987  1.00  0.00    -0.234 N 
ATOM     33  H12 UNL     1     -10.440  17.581  27.524  1.00  0.00     0.174 HD
ATOM     34  H11 UNL     1     -12.150  17.110  27.433  1.00  0.00     0.174 HD
ENDBRANCH   1  32
TORSDOF 7
ENDMDL
MODEL 4
REMARK VINA RESULT: -6.842119087      2.232      2.852
REMARK  7 active torsions:
REMARK  status: ('A' for Active; 'I' for Inactive)
REMARK    1  A    between atoms: N1_1  and  C1_4 
REMARK    2  A    between atoms: C2_7  and  N3_8 
REMARK    3  A    between atoms: C7_16  and  N5_17 
REMARK    4  A    between atoms: N5_17  and  C8_19 
REMARK    5  A    between atoms: C8_19  and  C9_20 
REMARK    6  A    between atoms: C9_20  and  C10_21 
REMARK    7  A    between atoms: C10_21  and  N6_22 
ROOT
HETATM    1  C1  UNL     1     -14.358  11.919  20.328  1.00  0.00     0.705 A 
HETATM    2  N2  UNL     1     -14.306  12.030  18.978  1.00  0.00    -0.022 N 
ATOM      3  H2  UNL     1     -13.890  11.296  18.405  1.00  0.00     0.203 HD
HETATM    4  C2  UNL     1     -14.823  13.148  18.416  1.00  0.00     0.709 A 
HETATM    5  N4  UNL     1     -15.369  14.109  19.192  1.00  0.00    -0.021 N 
ATOM      6  H4  UNL     1     -15.753  14.942  18.747  1.00  0.00     0.203 HD
HETATM    7  C7  UNL     1     -15.424  14.005  20.531  1.00  0.00     0.707 A 
HETATM    8  N8  UNL     1     -14.909  12.893  21.086  1.00  0.00    -0.022 N 
ATOM      9  H8  UNL     1     -14.934  12.783  22.100  1.00  0.00     0.203 HD
ENDROOT
BRANCH   7  10
HETATM   10  N5  UNL     1     -15.950  14.929  21.253  1.00  0.00    -0.225 N 
ATOM     11  H5  UNL     1     -15.419  15.789  21.383  1.00  0.00     0.177 HD
BRANCH  10  12
HETATM   12  C8  UNL     1     -17.233  14.832  21.888  1.00  0.00     0.139 C 
BRANCH  12  13
HETATM   13  C9  UNL     1     -17.080  15.244  23.328  1.00  0.00     0.042 C 
BRANCH  13  14
HETATM   14  C10 UNL     1     -16.292  14.255  24.108  1.00  0.00     0.154 C 
BRANCH  14  15
HETATM   15  N6  UNL     1     -15.226  14.915  24.832  1.00  0.00    -0.256 N 
HETATM   16  N7  UNL     1     -15.306  15.483  26.021  1.00  0.00    -0.295 N 
HETATM   17  C11 UNL     1     -14.110  15.997  26.344  1.00  0.00     0.064 A 
ATOM     18  H7  UNL     1     -16.144  15.524  26.601  1.00  0.00     0.187 HD
HETATM   19  C12 UNL     1     -13.652  16.675  27.434  1.00  0.00     0.032 A 
HETATM   20  C16 UNL     1     -13.211  15.756  25.324  1.00  0.00     0.061 A 
HETATM   21  C13 UNL     1     -12.338  17.110  27.526  1.00  0.00     0.002 A 
HETATM   22  C14 UNL     1     -11.453  16.858  26.493  1.00  0.00     0.001 A 
HETATM   23  C15 UNL     1     -11.900  16.176  25.389  1.00  0.00     0.019 A 
HETATM   24  C17 UNL     1     -13.942  15.069  24.377  1.00  0.00     0.274 A 
HETATM   25  O2  UNL     1     -13.561  14.635  23.281  1.00  0.00    -0.266 OA
ENDBRANCH  14  15
ENDBRANCH  13  14
ENDBRANCH  12  13
ENDBRANCH  10  12
ENDBRANCH   7  10
BRANCH   4  26
HETATM   26  N3  UNL     1     -14.798  13.318  17.010  1.00  0.00    -0.213 N 
HETATM   27  C3  UNL     1     -13.922  14.329  16.458  1.00  0.00     0.167 C 
HETATM   28  C4  UNL     1     -13.046  13.588  15.439  1.00  0.00     0.188 C 
HETATM   29  O1  UNL     1     -13.818  12.916  14.502  1.00  0.00    -0.388 OA
HETATM   30  C5  UNL     1     -14.649  11.966  15.051  1.00  0.00     0.188 C 
HETATM   31  C6  UNL     1     -15.598  12.543  16.089  1.00  0.00     0.167 C 
ENDBRANCH   4  26
BRANCH   1  32
HETATM   32  N1  UNL     1     -13.879  10.872  20.930  1.00  0.00    -0.234 N 
ATOM     33  H12 UNL     1     -14.535  10.166  21.263  1.00  0.00     0.174 HD
ATOM     34  H11 UNL     1     -12.874  10.762  21.067  1.00  0.00     0.174 HD
ENDBRANCH   1  32
TORSDOF 7
ENDMDL
MODEL 5
REMARK VINA RESULT: -6.830167102      8.531     12.093
REMARK  7 active torsions:
REMARK  status: ('A' for Active; 'I' for Inactive)
REMARK    1  A    between atoms: N1_1  and  C1_4 
REMARK    2  A    between atoms: C2_7  and  N3_8 
REMARK    3  A    between atoms: C7_16  and  N5_17 
REMARK    4  A    between atoms: N5_17  and  C8_19 
REMARK    5  A    between atoms: C8_19  and  C9_20 
REMARK    6  A    between atoms: C9_20  and  C10_21 
REMARK    7  A    between atoms: C10_21  and  N6_22 
ROOT
HETATM    1  C1  UNL     1      -6.320  17.030  22.178  1.00  0.00     0.705 A 
HETATM    2  N2  UNL     1      -7.056  18.146  21.960  1.00  0.00    -0.022 N 
ATOM      3  H2  UNL     1      -8.075  18.122  22.002  1.00  0.00     0.203 HD
HETATM    4  C2  UNL     1      -6.395  19.294  21.682  1.00  0.00     0.709 A 
HETATM    5  N4  UNL     1      -5.045  19.306  21.630  1.00  0.00    -0.021 N 
ATOM      6  H4  UNL     1      -4.568  20.182  21.419  1.00  0.00     0.203 HD
HETATM    7  C7  UNL     1      -4.309  18.202  21.846  1.00  0.00     0.707 A 
HETATM    8  N8  UNL     1      -4.970  17.063  22.121  1.00  0.00    -0.022 N 
ATOM      9  H8  UNL     1      -4.441  16.207  22.289  1.00  0.00     0.203 HD
ENDROOT
BRANCH   7  10
HETATM   10  N5  UNL     1      -3.026  18.233  21.794  1.00  0.00    -0.225 N 
ATOM     11  H5  UNL     1      -2.549  17.440  21.365  1.00  0.00     0.177 HD
BRANCH  10  12
HETATM   12  C8  UNL     1      -2.218  19.307  22.296  1.00  0.00     0.139 C 
BRANCH  12  13
HETATM   13  C9  UNL     1      -1.302  19.766  21.194  1.00  0.00     0.042 C 
BRANCH  13  14
HETATM   14  C10 UNL     1      -0.460  18.658  20.672  1.00  0.00     0.154 C 
BRANCH  14  15
HETATM   15  N6  UNL     1      -0.402  18.703  19.227  1.00  0.00    -0.256 N 
HETATM   16  N7  UNL     1      -1.383  19.022  18.402  1.00  0.00    -0.295 N 
HETATM   17  C11 UNL     1      -0.942  18.934  17.140  1.00  0.00     0.064 A 
ATOM     18  H7  UNL     1      -2.326  19.293  18.682  1.00  0.00     0.187 HD
HETATM   19  C12 UNL     1      -1.532  19.150  15.929  1.00  0.00     0.032 A 
HETATM   20  C16 UNL     1       0.382  18.540  17.137  1.00  0.00     0.061 A 
HETATM   21  C13 UNL     1      -0.840  18.984  14.738  1.00  0.00     0.002 A 
HETATM   22  C14 UNL     1       0.485  18.589  14.758  1.00  0.00     0.001 A 
HETATM   23  C15 UNL     1       1.093  18.368  15.969  1.00  0.00     0.019 A 
HETATM   24  C17 UNL     1       0.701  18.400  18.472  1.00  0.00     0.274 A 
HETATM   25  O2  UNL     1       1.783  18.063  18.971  1.00  0.00    -0.266 OA
ENDBRANCH  14  15
ENDBRANCH  13  14
ENDBRANCH  12  13
ENDBRANCH  10  12
ENDBRANCH   7  10
BRANCH   4  26
HETATM   26  N3  UNL     1      -7.111  20.493  21.447  1.00  0.00    -0.213 N 
HETATM   27  C3  UNL     1      -6.472  21.531  20.666  1.00  0.00     0.167 C 
HETATM   28  C4  UNL     1      -7.448  21.831  19.521  1.00  0.00     0.188 C 
HETATM   29  O1  UNL     1      -8.707  22.160  20.001  1.00  0.00    -0.388 OA
HETATM   30  C5  UNL     1      -9.292  21.161  20.747  1.00  0.00     0.188 C 
HETATM   31  C6  UNL     1      -8.446  20.746  21.940  1.00  0.00     0.167 C 
ENDBRANCH   4  26
BRANCH   1  32
HETATM   32  N1  UNL     1      -6.893  15.895  22.448  1.00  0.00    -0.234 N 
ATOM     33  H12 UNL     1      -7.370  15.405  21.691  1.00  0.00     0.174 HD
ATOM     34  H11 UNL     1      -6.867  15.507  23.391  1.00  0.00     0.174 HD
ENDBRANCH   1  32
TORSDOF 7
ENDMDL
