MODEL 1
REMARK VINA RESULT: -7.507047364      0.000      0.000
REMARK  14 active torsions:
REMARK  status: ('A' for Active; 'I' for Inactive)
REMARK    1  A    between atoms: C2_2  and  C3_7 
REMARK    2  A    between atoms: N1_3  and  O1_5 
REMARK    3  A    between atoms: C3_7  and  O2_8 
REMARK    4  A    between atoms: C3_7  and  C4_10 
REMARK    5  A    between atoms: C4_10  and  N2_13 
REMARK    6  A    between atoms: N2_13  and  C5_16 
REMARK    7  A    between atoms: C10_21  and  C11_22 
REMARK    8  A    between atoms: N3_24  and  C13_25 
REMARK    9  A    between atoms: C13_25  and  C14_26 
REMARK   10  A    between atoms: C15_27  and  C16_28 
REMARK   11  A    between atoms: C16_28  and  O3_29 
REMARK   12  A    between atoms: C17_33  and  O4_34 
REMARK   13  A    between atoms: O4_34  and  C18_35 
REMARK   14  A    between atoms: C18_35  and  C19_37 
ROOT
HETATM    1  C5  UNL     1      41.738  21.060  24.772  1.00  0.00     0.194 C 
HETATM    2  C6  UNL     1      42.945  21.961  24.630  1.00  0.00     0.039 C 
HETATM    3  C7  UNL     1      43.059  22.745  25.931  1.00  0.00     0.001 C 
HETATM    4  C8  UNL     1      44.100  22.063  26.813  1.00  0.00     0.007 C 
HETATM    5  C9  UNL     1      43.073  22.041  27.902  1.00  0.00     0.015 C 
HETATM    6  C10 UNL     1      42.009  22.241  26.844  1.00  0.00    -0.002 C 
HETATM    7  C23 UNL     1      41.589  20.930  26.270  1.00  0.00     0.048 C 
ENDROOT
BRANCH   6   8
HETATM    8  C11 UNL     1      40.914  23.145  27.243  1.00  0.00     0.021 A 
HETATM    9  C12 UNL     1      40.588  23.501  28.540  1.00  0.00     0.122 A 
HETATM   10  N3  UNL     1      39.532  24.337  28.529  1.00  0.00    -0.297 N 
HETATM   11  N4  UNL     1      39.191  24.513  27.268  1.00  0.00    -0.277 N 
HETATM   12  C17 UNL     1      40.013  23.799  26.444  1.00  0.00     0.174 A 
ATOM     13  H4  UNL     1      38.420  25.101  26.952  1.00  0.00     0.189 HD
BRANCH  10  14
HETATM   14  C13 UNL     1      38.888  24.938  29.710  1.00  0.00     0.175 C 
BRANCH  14  15
HETATM   15  C14 UNL     1      38.381  23.925  30.640  1.00  0.00    -0.007 C 
HETATM   16  C15 UNL     1      37.129  23.948  31.032  1.00  0.00    -0.004 C 
BRANCH  16  17
HETATM   17  C16 UNL     1      36.649  22.904  31.977  1.00  0.00     0.191 C 
BRANCH  17  18
HETATM   18  O3  UNL     1      37.734  22.333  32.640  1.00  0.00    -0.397 OA
ATOM     19  H3  UNL     1      37.672  21.386  32.602  1.00  0.00     0.209 HD
ENDBRANCH  17  18
ENDBRANCH  16  17
ENDBRANCH  14  15
ENDBRANCH  10  14
BRANCH  12  20
HETATM   20  O4  UNL     1      39.885  23.797  25.077  1.00  0.00    -0.259 OA
BRANCH  20  21
HETATM   21  C18 UNL     1      38.986  23.096  24.325  1.00  0.00     0.273 C 
HETATM   22  O5  UNL     1      38.357  22.171  24.870  1.00  0.00    -0.264 OA
BRANCH  21  23
HETATM   23  C19 UNL     1      38.741  23.400  22.906  1.00  0.00     0.037 C 
HETATM   24  C20 UNL     1      37.895  22.331  22.251  1.00  0.00     0.025 C 
HETATM   25  C21 UNL     1      40.056  23.489  22.135  1.00  0.00     0.025 C 
HETATM   26  C22 UNL     1      38.039  24.723  22.710  1.00  0.00     0.025 C 
ENDBRANCH  21  23
ENDBRANCH  20  21
ENDBRANCH  12  20
ENDBRANCH   6   8
BRANCH   1  27
HETATM   27  N2  UNL     1      41.969  19.836  24.082  1.00  0.00    -0.002 N 
ATOM     28  H22 UNL     1      41.704  19.044  24.668  1.00  0.00     0.284 HD
ATOM     29  H21 UNL     1      42.971  19.663  23.995  1.00  0.00     0.284 HD
BRANCH  27  30
HETATM   30  C4  UNL     1      41.338  19.743  22.808  1.00  0.00     0.435 C 
HETATM   31  F1  UNL     1      41.846  20.681  21.952  1.00  0.00    -0.172 F 
HETATM   32  F2  UNL     1      39.965  19.903  22.840  1.00  0.00    -0.172 F 
BRANCH  30  33
HETATM   33  C3  UNL     1      41.583  18.379  22.198  1.00  0.00     0.267 C 
BRANCH  33  34
HETATM   34  C2  UNL     1      40.348  17.596  22.025  1.00  0.00     0.042 C 
HETATM   35  C1  UNL     1      39.566  17.779  20.795  1.00  0.00     0.068 C 
HETATM   36  N1  UNL     1      39.948  16.770  22.916  1.00  0.00    -0.275 N 
ATOM     37  H1  UNL     1      40.487  16.640  23.772  1.00  0.00     0.193 HD
BRANCH  36  38
HETATM   38  O1  UNL     1      38.793  16.061  22.717  1.00  0.00    -0.290 OA
ATOM     39  H1  UNL     1      38.078  16.451  22.228  1.00  0.00     0.244 HD
ENDBRANCH  36  38
ENDBRANCH  33  34
BRANCH  33  40
HETATM   40  O2  UNL     1      42.561  17.702  22.924  1.00  0.00    -0.382 OA
ATOM     41  H2  UNL     1      43.426  17.775  22.540  1.00  0.00     0.210 HD
ENDBRANCH  33  40
ENDBRANCH  30  33
ENDBRANCH  27  30
ENDBRANCH   1  27
TORSDOF 14
ENDMDL
MODEL 2
REMARK VINA RESULT: -7.281671849      4.961      7.559
REMARK  14 active torsions:
REMARK  status: ('A' for Active; 'I' for Inactive)
REMARK    1  A    between atoms: C2_2  and  C3_7 
REMARK    2  A    between atoms: N1_3  and  O1_5 
REMARK    3  A    between atoms: C3_7  and  O2_8 
REMARK    4  A    between atoms: C3_7  and  C4_10 
REMARK    5  A    between atoms: C4_10  and  N2_13 
REMARK    6  A    between atoms: N2_13  and  C5_16 
REMARK    7  A    between atoms: C10_21  and  C11_22 
REMARK    8  A    between atoms: N3_24  and  C13_25 
REMARK    9  A    between atoms: C13_25  and  C14_26 
REMARK   10  A    between atoms: C15_27  and  C16_28 
REMARK   11  A    between atoms: C16_28  and  O3_29 
REMARK   12  A    between atoms: C17_33  and  O4_34 
REMARK   13  A    between atoms: O4_34  and  C18_35 
REMARK   14  A    between atoms: C18_35  and  C19_37 
ROOT
HETATM    1  C5  UNL     1      44.881  22.168  19.872  1.00  0.00     0.194 C 
HETATM    2  C6  UNL     1      43.627  22.711  19.226  1.00  0.00     0.039 C 
HETATM    3  C7  UNL     1      42.637  22.983  20.351  1.00  0.00     0.001 C 
HETATM    4  C8  UNL     1      42.694  24.470  20.690  1.00  0.00     0.007 C 
HETATM    5  C9  UNL     1      42.913  24.074  22.117  1.00  0.00     0.015 C 
HETATM    6  C10 UNL     1      43.333  22.704  21.627  1.00  0.00    -0.002 C 
HETATM    7  C23 UNL     1      44.786  22.694  21.286  1.00  0.00     0.048 C 
ENDROOT
BRANCH   6   8
HETATM    8  C11 UNL     1      42.866  21.585  22.467  1.00  0.00     0.021 A 
HETATM    9  C12 UNL     1      43.647  20.839  23.332  1.00  0.00     0.122 A 
HETATM   10  N3  UNL     1      42.890  19.900  23.930  1.00  0.00    -0.297 N 
HETATM   11  N4  UNL     1      41.664  20.038  23.466  1.00  0.00    -0.277 N 
HETATM   12  C17 UNL     1      41.603  21.061  22.565  1.00  0.00     0.174 A 
ATOM     13  H4  UNL     1      40.870  19.459  23.743  1.00  0.00     0.189 HD
BRANCH  10  14
HETATM   14  C13 UNL     1      43.354  18.909  24.917  1.00  0.00     0.175 C 
BRANCH  14  15
HETATM   15  C14 UNL     1      44.461  18.095  24.406  1.00  0.00    -0.007 C 
HETATM   16  C15 UNL     1      45.263  17.467  25.234  1.00  0.00    -0.004 C 
BRANCH  16  17
HETATM   17  C16 UNL     1      46.376  16.650  24.680  1.00  0.00     0.191 C 
BRANCH  17  18
HETATM   18  O3  UNL     1      47.150  17.427  23.820  1.00  0.00    -0.397 OA
ATOM     19  H3  UNL     1      47.842  17.856  24.309  1.00  0.00     0.209 HD
ENDBRANCH  17  18
ENDBRANCH  16  17
ENDBRANCH  14  15
ENDBRANCH  10  14
BRANCH  12  20
HETATM   20  O4  UNL     1      40.446  21.428  21.924  1.00  0.00    -0.259 OA
BRANCH  20  21
HETATM   21  C18 UNL     1      39.189  21.501  22.452  1.00  0.00     0.273 C 
HETATM   22  O5  UNL     1      38.494  20.470  22.465  1.00  0.00    -0.264 OA
BRANCH  21  23
HETATM   23  C19 UNL     1      38.639  22.751  23.001  1.00  0.00     0.037 C 
HETATM   24  C20 UNL     1      37.174  22.907  22.658  1.00  0.00     0.025 C 
HETATM   25  C21 UNL     1      39.379  23.963  22.440  1.00  0.00     0.025 C 
HETATM   26  C22 UNL     1      38.767  22.829  24.505  1.00  0.00     0.025 C 
ENDBRANCH  21  23
ENDBRANCH  20  21
ENDBRANCH  12  20
ENDBRANCH   6   8
BRANCH   1  27
HETATM   27  N2  UNL     1      46.024  22.605  19.145  1.00  0.00    -0.002 N 
ATOM     28  H22 UNL     1      46.737  22.957  19.783  1.00  0.00     0.284 HD
ATOM     29  H21 UNL     1      45.810  23.461  18.631  1.00  0.00     0.284 HD
BRANCH  27  30
HETATM   30  C4  UNL     1      46.581  21.629  18.269  1.00  0.00     0.435 C 
HETATM   31  F1  UNL     1      46.694  22.130  17.002  1.00  0.00    -0.172 F 
HETATM   32  F2  UNL     1      45.856  20.453  18.193  1.00  0.00    -0.172 F 
BRANCH  30  33
HETATM   33  C3  UNL     1      47.966  21.234  18.735  1.00  0.00     0.267 C 
BRANCH  33  34
HETATM   34  C2  UNL     1      48.551  20.141  17.939  1.00  0.00     0.042 C 
HETATM   35  C1  UNL     1      49.294  20.480  16.718  1.00  0.00     0.068 C 
HETATM   36  N1  UNL     1      48.425  18.916  18.288  1.00  0.00    -0.275 N 
ATOM     37  H1  UNL     1      47.910  18.676  19.135  1.00  0.00     0.193 HD
BRANCH  36  38
HETATM   38  O1  UNL     1      48.983  17.930  17.520  1.00  0.00    -0.290 OA
ATOM     39  H1  UNL     1      48.449  17.202  17.225  1.00  0.00     0.244 HD
ENDBRANCH  36  38
ENDBRANCH  33  34
BRANCH  33  40
HETATM   40  O2  UNL     1      47.949  20.964  20.102  1.00  0.00    -0.382 OA
ATOM     41  H2  UNL     1      48.090  21.738  20.635  1.00  0.00     0.210 HD
ENDBRANCH  33  40
ENDBRANCH  30  33
ENDBRANCH  27  30
ENDBRANCH   1  27
TORSDOF 14
ENDMDL
MODEL 3
REMARK VINA RESULT: -7.270897143      2.364      5.296
REMARK  14 active torsions:
REMARK  status: ('A' for Active; 'I' for Inactive)
REMARK    1  A    between atoms: C2_2  and  C3_7 
REMARK    2  A    between atoms: N1_3  and  O1_5 
REMARK    3  A    between atoms: C3_7  and  O2_8 
REMARK    4  A    between atoms: C3_7  and  C4_10 
REMARK    5  A    between atoms: C4_10  and  N2_13 
REMARK    6  A    between atoms: N2_13  and  C5_16 
REMARK    7  A    between atoms: C10_21  and  C11_22 
REMARK    8  A    between atoms: N3_24  and  C13_25 
REMARK    9  A    between atoms: C13_25  and  C14_26 
REMARK   10  A    between atoms: C15_27  and  C16_28 
REMARK   11  A    between atoms: C16_28  and  O3_29 
REMARK   12  A    between atoms: C17_33  and  O4_34 
REMARK   13  A    between atoms: O4_34  and  C18_35 
REMARK   14  A    between atoms: C18_35  and  C19_37 
ROOT
HETATM    1  C5  UNL     1      41.411  21.071  24.614  1.00  0.00     0.194 C 
HETATM    2  C6  UNL     1      41.920  21.246  26.027  1.00  0.00     0.039 C 
HETATM    3  C7  UNL     1      40.956  22.198  26.724  1.00  0.00     0.001 C 
HETATM    4  C8  UNL     1      39.974  21.369  27.546  1.00  0.00     0.007 C 
HETATM    5  C9  UNL     1      38.869  22.104  26.854  1.00  0.00     0.015 C 
HETATM    6  C10 UNL     1      39.859  22.488  25.774  1.00  0.00    -0.002 C 
HETATM    7  C23 UNL     1      39.945  21.417  24.739  1.00  0.00     0.048 C 
ENDROOT
BRANCH   6   8
HETATM    8  C11 UNL     1      39.701  23.862  25.261  1.00  0.00     0.021 A 
HETATM    9  C12 UNL     1      39.324  24.210  23.976  1.00  0.00     0.122 A 
HETATM   10  N3  UNL     1      39.287  25.551  23.862  1.00  0.00    -0.297 N 
HETATM   11  N4  UNL     1      39.627  26.048  25.033  1.00  0.00    -0.277 N 
HETATM   12  C17 UNL     1      39.890  25.047  25.923  1.00  0.00     0.174 A 
ATOM     13  H4  UNL     1      39.686  27.044  25.246  1.00  0.00     0.189 HD
BRANCH  10  14
HETATM   14  C13 UNL     1      38.930  26.309  22.650  1.00  0.00     0.175 C 
BRANCH  14  15
HETATM   15  C14 UNL     1      38.311  27.599  22.966  1.00  0.00    -0.007 C 
HETATM   16  C15 UNL     1      37.858  28.373  22.008  1.00  0.00    -0.004 C 
BRANCH  16  17
HETATM   17  C16 UNL     1      37.236  29.676  22.366  1.00  0.00     0.191 C 
BRANCH  17  18
HETATM   18  O3  UNL     1      35.865  29.510  22.554  1.00  0.00    -0.397 OA
ATOM     19  H3  UNL     1      35.409  30.309  22.319  1.00  0.00     0.209 HD
ENDBRANCH  17  18
ENDBRANCH  16  17
ENDBRANCH  14  15
ENDBRANCH  10  14
BRANCH  12  20
HETATM   20  O4  UNL     1      40.268  25.278  27.223  1.00  0.00    -0.259 OA
BRANCH  20  21
HETATM   21  C18 UNL     1      39.502  25.780  28.235  1.00  0.00     0.273 C 
HETATM   22  O5  UNL     1      38.869  26.831  28.030  1.00  0.00    -0.264 OA
BRANCH  21  23
HETATM   23  C19 UNL     1      39.405  25.122  29.548  1.00  0.00     0.037 C 
HETATM   24  C20 UNL     1      38.110  24.355  29.687  1.00  0.00     0.025 C 
HETATM   25  C21 UNL     1      39.460  26.149  30.677  1.00  0.00     0.025 C 
HETATM   26  C22 UNL     1      40.539  24.154  29.795  1.00  0.00     0.025 C 
ENDBRANCH  21  23
ENDBRANCH  20  21
ENDBRANCH  12  20
ENDBRANCH   6   8
BRANCH   1  27
HETATM   27  N2  UNL     1      41.679  19.745  24.169  1.00  0.00    -0.002 N 
ATOM     28  H22 UNL     1      40.939  19.113  24.473  1.00  0.00     0.284 HD
ATOM     29  H21 UNL     1      42.468  19.352  24.682  1.00  0.00     0.284 HD
BRANCH  27  30
HETATM   30  C4  UNL     1      41.890  19.621  22.765  1.00  0.00     0.435 C 
HETATM   31  F1  UNL     1      42.923  20.421  22.362  1.00  0.00    -0.172 F 
HETATM   32  F2  UNL     1      40.787  19.939  21.994  1.00  0.00    -0.172 F 
BRANCH  30  33
HETATM   33  C3  UNL     1      42.246  18.193  22.411  1.00  0.00     0.267 C 
BRANCH  33  34
HETATM   34  C2  UNL     1      41.072  17.382  22.042  1.00  0.00     0.042 C 
HETATM   35  C1  UNL     1      41.042  16.752  20.715  1.00  0.00     0.068 C 
HETATM   36  N1  UNL     1      40.091  17.218  22.846  1.00  0.00    -0.275 N 
ATOM     37  H1  UNL     1      40.108  17.653  23.768  1.00  0.00     0.193 HD
BRANCH  36  38
HETATM   38  O1  UNL     1      39.019  16.457  22.465  1.00  0.00    -0.290 OA
ATOM     39  H1  UNL     1      38.164  16.861  22.370  1.00  0.00     0.244 HD
ENDBRANCH  36  38
ENDBRANCH  33  34
BRANCH  33  40
HETATM   40  O2  UNL     1      43.002  17.623  23.433  1.00  0.00    -0.382 OA
ATOM     41  H2  UNL     1      43.506  18.262  23.922  1.00  0.00     0.210 HD
ENDBRANCH  33  40
ENDBRANCH  30  33
ENDBRANCH  27  30
ENDBRANCH   1  27
TORSDOF 14
ENDMDL
MODEL 4
REMARK VINA RESULT: -7.087017402      3.801      7.998
REMARK  14 active torsions:
REMARK  status: ('A' for Active; 'I' for Inactive)
REMARK    1  A    between atoms: C2_2  and  C3_7 
REMARK    2  A    between atoms: N1_3  and  O1_5 
REMARK    3  A    between atoms: C3_7  and  O2_8 
REMARK    4  A    between atoms: C3_7  and  C4_10 
REMARK    5  A    between atoms: C4_10  and  N2_13 
REMARK    6  A    between atoms: N2_13  and  C5_16 
REMARK    7  A    between atoms: C10_21  and  C11_22 
REMARK    8  A    between atoms: N3_24  and  C13_25 
REMARK    9  A    between atoms: C13_25  and  C14_26 
REMARK   10  A    between atoms: C15_27  and  C16_28 
REMARK   11  A    between atoms: C16_28  and  O3_29 
REMARK   12  A    between atoms: C17_33  and  O4_34 
REMARK   13  A    between atoms: O4_34  and  C18_35 
REMARK   14  A    between atoms: C18_35  and  C19_37 
ROOT
HETATM    1  C5  UNL     1      41.140  24.424  25.630  1.00  0.00     0.194 C 
HETATM    2  C6  UNL     1      42.175  25.431  25.179  1.00  0.00     0.039 C 
HETATM    3  C7  UNL     1      42.838  24.849  23.938  1.00  0.00     0.001 C 
HETATM    4  C8  UNL     1      42.191  25.480  22.709  1.00  0.00     0.007 C 
HETATM    5  C9  UNL     1      41.952  24.093  22.198  1.00  0.00     0.015 C 
HETATM    6  C10 UNL     1      42.138  23.587  23.614  1.00  0.00    -0.002 C 
HETATM    7  C23 UNL     1      40.850  23.651  24.365  1.00  0.00     0.048 C 
ENDROOT
BRANCH   6   8
HETATM    8  C11 UNL     1      42.874  22.313  23.715  1.00  0.00     0.021 A 
HETATM    9  C12 UNL     1      42.453  21.184  24.396  1.00  0.00     0.122 A 
HETATM   10  N3  UNL     1      43.378  20.213  24.279  1.00  0.00    -0.297 N 
HETATM   11  N4  UNL     1      44.360  20.700  23.547  1.00  0.00    -0.277 N 
HETATM   12  C17 UNL     1      44.093  21.987  23.179  1.00  0.00     0.174 A 
ATOM     13  H4  UNL     1      45.203  20.186  23.291  1.00  0.00     0.189 HD
BRANCH  10  14
HETATM   14  C13 UNL     1      43.298  18.862  24.862  1.00  0.00     0.175 C 
BRANCH  14  15
HETATM   15  C14 UNL     1      44.390  17.997  24.409  1.00  0.00    -0.007 C 
HETATM   16  C15 UNL     1      45.267  17.528  25.266  1.00  0.00    -0.004 C 
BRANCH  16  17
HETATM   17  C16 UNL     1      46.363  16.653  24.770  1.00  0.00     0.191 C 
BRANCH  17  18
HETATM   18  O3  UNL     1      47.141  17.348  23.846  1.00  0.00    -0.397 OA
ATOM     19  H3  UNL     1      47.647  18.018  24.290  1.00  0.00     0.209 HD
ENDBRANCH  17  18
ENDBRANCH  16  17
ENDBRANCH  14  15
ENDBRANCH  10  14
BRANCH  12  20
HETATM   20  O4  UNL     1      44.946  22.740  22.411  1.00  0.00    -0.259 OA
BRANCH  20  21
HETATM   21  C18 UNL     1      46.305  22.827  22.518  1.00  0.00     0.273 C 
HETATM   22  O5  UNL     1      46.989  21.859  22.140  1.00  0.00    -0.264 OA
BRANCH  21  23
HETATM   23  C19 UNL     1      46.975  24.019  23.063  1.00  0.00     0.037 C 
HETATM   24  C20 UNL     1      48.469  23.965  22.833  1.00  0.00     0.025 C 
HETATM   25  C21 UNL     1      46.740  24.136  24.567  1.00  0.00     0.025 C 
HETATM   26  C22 UNL     1      46.464  25.302  22.448  1.00  0.00     0.025 C 
ENDBRANCH  21  23
ENDBRANCH  20  21
ENDBRANCH  12  20
ENDBRANCH   6   8
BRANCH   1  27
HETATM   27  N2  UNL     1      40.021  25.105  26.187  1.00  0.00    -0.002 N 
ATOM     28  H22 UNL     1      39.285  25.208  25.488  1.00  0.00     0.284 HD
ATOM     29  H21 UNL     1      40.248  26.086  26.351  1.00  0.00     0.284 HD
BRANCH  27  30
HETATM   30  C4  UNL     1      39.497  24.515  27.374  1.00  0.00     0.435 C 
HETATM   31  F1  UNL     1      38.895  23.320  27.090  1.00  0.00    -0.172 F 
HETATM   32  F2  UNL     1      38.575  25.301  28.041  1.00  0.00    -0.172 F 
BRANCH  30  33
HETATM   33  C3  UNL     1      40.609  24.248  28.365  1.00  0.00     0.267 C 
BRANCH  33  34
HETATM   34  C2  UNL     1      40.450  22.970  29.080  1.00  0.00     0.042 C 
HETATM   35  C1  UNL     1      39.714  22.964  30.352  1.00  0.00     0.068 C 
HETATM   36  N1  UNL     1      40.934  21.880  28.620  1.00  0.00    -0.275 N 
ATOM     37  H1  UNL     1      41.446  21.879  27.738  1.00  0.00     0.193 HD
BRANCH  36  38
HETATM   38  O1  UNL     1      40.765  20.713  29.316  1.00  0.00    -0.290 OA
ATOM     39  H1  UNL     1      39.946  20.235  29.244  1.00  0.00     0.244 HD
ENDBRANCH  36  38
ENDBRANCH  33  34
BRANCH  33  40
HETATM   40  O2  UNL     1      40.756  25.337  29.221  1.00  0.00    -0.382 OA
ATOM     41  H2  UNL     1      41.134  26.097  28.795  1.00  0.00     0.210 HD
ENDBRANCH  33  40
ENDBRANCH  30  33
ENDBRANCH  27  30
ENDBRANCH   1  27
TORSDOF 14
ENDMDL
MODEL 5
REMARK VINA RESULT: -7.015522835      4.000      7.887
REMARK  14 active torsions:
REMARK  status: ('A' for Active; 'I' for Inactive)
REMARK    1  A    between atoms: C2_2  and  C3_7 
REMARK    2  A    between atoms: N1_3  and  O1_5 
REMARK    3  A    between atoms: C3_7  and  O2_8 
REMARK    4  A    between atoms: C3_7  and  C4_10 
REMARK    5  A    between atoms: C4_10  and  N2_13 
REMARK    6  A    between atoms: N2_13  and  C5_16 
REMARK    7  A    between atoms: C10_21  and  C11_22 
REMARK    8  A    between atoms: N3_24  and  C13_25 
REMARK    9  A    between atoms: C13_25  and  C14_26 
REMARK   10  A    between atoms: C15_27  and  C16_28 
REMARK   11  A    between atoms: C16_28  and  O3_29 
REMARK   12  A    between atoms: C17_33  and  O4_34 
REMARK   13  A    between atoms: O4_34  and  C18_35 
REMARK   14  A    between atoms: C18_35  and  C19_37 
ROOT
HETATM    1  C5  UNL     1      42.156  24.728  25.646  1.00  0.00     0.194 C 
HETATM    2  C6  UNL     1      43.460  25.493  25.611  1.00  0.00     0.039 C 
HETATM    3  C7  UNL     1      44.246  24.962  24.420  1.00  0.00     0.001 C 
HETATM    4  C8  UNL     1      44.050  25.921  23.250  1.00  0.00     0.007 C 
HETATM    5  C9  UNL     1      43.638  24.738  22.429  1.00  0.00     0.015 C 
HETATM    6  C10 UNL     1      43.381  23.988  23.719  1.00  0.00    -0.002 C 
HETATM    7  C23 UNL     1      42.001  24.262  24.217  1.00  0.00     0.048 C 
ENDROOT
BRANCH   6   8
HETATM    8  C11 UNL     1      43.779  22.568  23.689  1.00  0.00     0.021 A 
HETATM    9  C12 UNL     1      43.184  21.543  24.404  1.00  0.00     0.122 A 
HETATM   10  N3  UNL     1      43.809  20.381  24.136  1.00  0.00    -0.297 N 
HETATM   11  N4  UNL     1      44.773  20.649  23.278  1.00  0.00    -0.277 N 
HETATM   12  C17 UNL     1      44.792  21.981  22.976  1.00  0.00     0.174 A 
ATOM     13  H4  UNL     1      45.417  19.957  22.894  1.00  0.00     0.189 HD
BRANCH  10  14
HETATM   14  C13 UNL     1      43.471  19.062  24.700  1.00  0.00     0.175 C 
BRANCH  14  15
HETATM   15  C14 UNL     1      44.473  18.045  24.370  1.00  0.00    -0.007 C 
HETATM   16  C15 UNL     1      45.295  17.598  25.290  1.00  0.00    -0.004 C 
BRANCH  16  17
HETATM   17  C16 UNL     1      46.300  16.565  24.920  1.00  0.00     0.191 C 
BRANCH  17  18
HETATM   18  O3  UNL     1      47.085  17.028  23.865  1.00  0.00    -0.397 OA
ATOM     19  H3  UNL     1      47.968  16.688  23.949  1.00  0.00     0.209 HD
ENDBRANCH  17  18
ENDBRANCH  16  17
ENDBRANCH  14  15
ENDBRANCH  10  14
BRANCH  12  20
HETATM   20  O4  UNL     1      45.695  22.540  22.107  1.00  0.00    -0.259 OA
BRANCH  20  21
HETATM   21  C18 UNL     1      47.058  22.473  22.165  1.00  0.00     0.273 C 
HETATM   22  O5  UNL     1      47.611  21.415  21.814  1.00  0.00    -0.264 OA
BRANCH  21  23
HETATM   23  C19 UNL     1      47.881  23.602  22.626  1.00  0.00     0.037 C 
HETATM   24  C20 UNL     1      47.693  23.855  24.105  1.00  0.00     0.025 C 
HETATM   25  C21 UNL     1      47.510  24.884  21.884  1.00  0.00     0.025 C 
HETATM   26  C22 UNL     1      49.356  23.379  22.385  1.00  0.00     0.025 C 
ENDBRANCH  21  23
ENDBRANCH  20  21
ENDBRANCH  12  20
ENDBRANCH   6   8
BRANCH   1  27
HETATM   27  N2  UNL     1      41.114  25.578  26.116  1.00  0.00    -0.002 N 
ATOM     28  H22 UNL     1      40.869  26.265  25.403  1.00  0.00     0.284 HD
ATOM     29  H21 UNL     1      41.466  26.198  26.845  1.00  0.00     0.284 HD
BRANCH  27  30
HETATM   30  C4  UNL     1      39.948  24.895  26.568  1.00  0.00     0.435 C 
HETATM   31  F1  UNL     1      39.158  24.543  25.509  1.00  0.00    -0.172 F 
HETATM   32  F2  UNL     1      39.169  25.621  27.450  1.00  0.00    -0.172 F 
BRANCH  30  33
HETATM   33  C3  UNL     1      40.332  23.627  27.300  1.00  0.00     0.267 C 
BRANCH  33  34
HETATM   34  C2  UNL     1      39.492  22.473  26.933  1.00  0.00     0.042 C 
HETATM   35  C1  UNL     1      39.981  21.547  25.903  1.00  0.00     0.068 C 
HETATM   36  N1  UNL     1      38.358  22.266  27.488  1.00  0.00    -0.275 N 
ATOM     37  H1  UNL     1      38.015  22.907  28.203  1.00  0.00     0.193 HD
BRANCH  36  38
HETATM   38  O1  UNL     1      37.607  21.183  27.118  1.00  0.00    -0.290 OA
ATOM     39  H1  UNL     1      36.967  21.268  26.422  1.00  0.00     0.244 HD
ENDBRANCH  36  38
ENDBRANCH  33  34
BRANCH  33  40
HETATM   40  O2  UNL     1      40.365  23.861  28.673  1.00  0.00    -0.382 OA
ATOM     41  H2  UNL     1      40.109  24.746  28.905  1.00  0.00     0.210 HD
ENDBRANCH  33  40
ENDBRANCH  30  33
ENDBRANCH  27  30
ENDBRANCH   1  27
TORSDOF 14
ENDMDL
