MODEL 1
REMARK VINA RESULT: -6.703158524      0.000      0.000
REMARK  11 active torsions:
REMARK  status: ('A' for Active; 'I' for Inactive)
REMARK    1  A    between atoms: C2_2  and  C3_3 
REMARK    2  A    between atoms: C3_3  and  N1_4 
REMARK    3  A    between atoms: C3_3  and  C14_32 
REMARK    4  A    between atoms: N1_4  and  C4_6 
REMARK    5  A    between atoms: C5_9  and  S1_10 
REMARK    6  A    between atoms: S1_10  and  C6_11 
REMARK    7  A    between atoms: C7_15  and  N4_16 
REMARK    8  A    between atoms: C8_19  and  C9_20 
REMARK    9  A    between atoms: C9_20  and  N5_23 
REMARK   10  A    between atoms: N5_23  and  S2_25 
REMARK   11  A    between atoms: S2_25  and  C10_28 
ROOT
HETATM    1  C4  UNL     1      41.466  21.531  22.508  1.00  0.00     0.121 A 
HETATM    2  N2  UNL     1      41.140  20.279  22.057  1.00  0.00    -0.322 N 
ATOM      3  H2  UNL     1      41.851  19.747  21.553  1.00  0.00     0.169 HD
HETATM    4  C5  UNL     1      39.948  19.721  22.240  1.00  0.00     0.148 A 
HETATM    5  N3  UNL     1      39.034  20.436  22.904  1.00  0.00    -0.323 N 
ATOM      6  H3  UNL     1      38.111  20.029  23.058  1.00  0.00     0.169 HD
HETATM    7  C7  UNL     1      39.286  21.695  23.386  1.00  0.00     0.118 A 
HETATM    8  C8  UNL     1      40.515  22.274  23.197  1.00  0.00     0.123 A 
ENDROOT
BRANCH   1   9
HETATM    9  N1  UNL     1      42.741  22.065  22.257  1.00  0.00    -0.365 N 
ATOM     10  H1  UNL     1      42.824  22.991  21.838  1.00  0.00     0.162 HD
BRANCH   9  11
HETATM   11  C3  UNL     1      43.933  21.323  22.583  1.00  0.00     0.140 C 
BRANCH  11  12
HETATM   12  C2  UNL     1      43.888  20.855  24.013  1.00  0.00     0.027 C 
HETATM   13  C1  UNL     1      43.967  19.348  24.119  1.00  0.00     0.007 C 
ENDBRANCH  11  12
BRANCH  11  14
HETATM   14  C14 UNL     1      45.172  22.160  22.347  1.00  0.00     0.074 A 
HETATM   15  N6  UNL     1      46.409  21.761  22.129  1.00  0.00    -0.355 N 
HETATM   16  C15 UNL     1      47.351  22.628  21.947  1.00  0.00     0.012 A 
ATOM     17  H6  UNL     1      46.624  20.764  22.104  1.00  0.00     0.166 HD
HETATM   18  C16 UNL     1      48.797  22.237  21.691  1.00  0.00     0.068 C 
HETATM   19  C17 UNL     1      47.008  23.958  21.990  1.00  0.00     0.076 A 
HETATM   20  S3  UNL     1      45.326  23.862  22.295  1.00  0.00    -0.085 SA
ENDBRANCH  11  14
ENDBRANCH   9  11
ENDBRANCH   1   9
BRANCH   8  21
HETATM   21  C9  UNL     1      40.832  23.609  23.728  1.00  0.00     0.367 C 
HETATM   22  F1  UNL     1      39.705  24.145  24.322  1.00  0.00    -0.177 F 
HETATM   23  F2  UNL     1      41.243  24.493  22.751  1.00  0.00    -0.177 F 
BRANCH  21  24
HETATM   24  N5  UNL     1      41.818  23.534  24.801  1.00  0.00    -0.250 N 
ATOM     25  H5  UNL     1      42.827  23.492  24.654  1.00  0.00     0.178 HD
BRANCH  24  26
HETATM   26  S2  UNL     1      41.058  23.526  26.355  1.00  0.00     0.238 S 
HETATM   27  O1  UNL     1      39.583  23.545  26.313  1.00  0.00    -0.205 OA
HETATM   28  O2  UNL     1      41.546  24.745  27.084  1.00  0.00    -0.205 OA
BRANCH  26  29
HETATM   29  C10 UNL     1      41.560  22.088  27.261  1.00  0.00     0.072 C 
HETATM   30  C11 UNL     1      41.043  20.825  26.558  1.00  0.00     0.033 C 
HETATM   31  C12 UNL     1      43.091  22.000  27.324  1.00  0.00     0.033 C 
HETATM   32  C13 UNL     1      41.075  22.052  28.671  1.00  0.00     0.033 C 
ENDBRANCH  26  29
ENDBRANCH  24  26
ENDBRANCH  21  24
ENDBRANCH   8  21
BRANCH   4  33
HETATM   33  S1  UNL     1      39.566  18.067  21.625  1.00  0.00    -0.079 SA
BRANCH  33  34
HETATM   34  C6  UNL     1      41.106  17.117  21.628  1.00  0.00     0.197 C 
HETATM   35 CL1  UNL     1      41.261  16.321  20.052  1.00  0.00    -0.119 Cl
ENDBRANCH  33  34
ENDBRANCH   4  33
BRANCH   7  36
HETATM   36  N4  UNL     1      38.364  22.310  24.038  1.00  0.00    -0.385 N 
ATOM     37  H42 UNL     1      37.508  21.827  24.308  1.00  0.00     0.157 HD
ATOM     38  H41 UNL     1      38.493  23.296  24.266  1.00  0.00     0.157 HD
ENDBRANCH   7  36
TORSDOF 11
ENDMDL
MODEL 2
REMARK VINA RESULT: -6.675348347      2.016      2.573
REMARK  11 active torsions:
REMARK  status: ('A' for Active; 'I' for Inactive)
REMARK    1  A    between atoms: C2_2  and  C3_3 
REMARK    2  A    between atoms: C3_3  and  N1_4 
REMARK    3  A    between atoms: C3_3  and  C14_32 
REMARK    4  A    between atoms: N1_4  and  C4_6 
REMARK    5  A    between atoms: C5_9  and  S1_10 
REMARK    6  A    between atoms: S1_10  and  C6_11 
REMARK    7  A    between atoms: C7_15  and  N4_16 
REMARK    8  A    between atoms: C8_19  and  C9_20 
REMARK    9  A    between atoms: C9_20  and  N5_23 
REMARK   10  A    between atoms: N5_23  and  S2_25 
REMARK   11  A    between atoms: S2_25  and  C10_28 
ROOT
HETATM    1  C4  UNL     1      40.856  21.091  24.092  1.00  0.00     0.121 A 
HETATM    2  N2  UNL     1      40.696  19.962  23.333  1.00  0.00    -0.322 N 
ATOM      3  H2  UNL     1      41.421  19.246  23.374  1.00  0.00     0.169 HD
HETATM    4  C5  UNL     1      39.646  19.751  22.546  1.00  0.00     0.148 A 
HETATM    5  N3  UNL     1      38.708  20.703  22.510  1.00  0.00    -0.323 N 
ATOM      6  H3  UNL     1      37.892  20.564  21.914  1.00  0.00     0.169 HD
HETATM    7  C7  UNL     1      38.798  21.860  23.242  1.00  0.00     0.118 A 
HETATM    8  C8  UNL     1      39.881  22.081  24.054  1.00  0.00     0.123 A 
ENDROOT
BRANCH   1   9
HETATM    9  N1  UNL     1      42.005  21.255  24.885  1.00  0.00    -0.365 N 
ATOM     10  H1  UNL     1      41.909  21.573  25.849  1.00  0.00     0.162 HD
BRANCH   9  11
HETATM   11  C3  UNL     1      43.317  20.979  24.355  1.00  0.00     0.140 C 
BRANCH  11  12
HETATM   12  C2  UNL     1      43.968  19.857  25.117  1.00  0.00     0.027 C 
HETATM   13  C1  UNL     1      43.918  18.551  24.355  1.00  0.00     0.007 C 
ENDBRANCH  11  12
BRANCH  11  14
HETATM   14  C14 UNL     1      44.189  22.216  24.402  1.00  0.00     0.074 A 
HETATM   15  N6  UNL     1      44.308  23.106  25.367  1.00  0.00    -0.355 N 
HETATM   16  C15 UNL     1      45.109  24.111  25.231  1.00  0.00     0.012 A 
ATOM     17  H6  UNL     1      43.766  23.001  26.225  1.00  0.00     0.166 HD
HETATM   18  C16 UNL     1      45.294  25.172  26.304  1.00  0.00     0.068 C 
HETATM   19  C17 UNL     1      45.817  24.206  24.057  1.00  0.00     0.076 A 
HETATM   20  S3  UNL     1      45.267  22.817  23.220  1.00  0.00    -0.085 SA
ENDBRANCH  11  14
ENDBRANCH   9  11
ENDBRANCH   1   9
BRANCH   8  21
HETATM   21  C9  UNL     1      39.997  23.294  24.878  1.00  0.00     0.367 C 
HETATM   22  F1  UNL     1      39.033  24.205  24.489  1.00  0.00    -0.177 F 
HETATM   23  F2  UNL     1      41.224  23.915  24.754  1.00  0.00    -0.177 F 
BRANCH  21  24
HETATM   24  N5  UNL     1      39.702  23.015  26.280  1.00  0.00    -0.250 N 
ATOM     25  H5  UNL     1      39.028  22.318  26.599  1.00  0.00     0.178 HD
BRANCH  24  26
HETATM   26  S2  UNL     1      40.642  24.016  27.332  1.00  0.00     0.238 S 
HETATM   27  O1  UNL     1      40.767  25.418  26.890  1.00  0.00    -0.205 OA
HETATM   28  O2  UNL     1      42.010  23.400  27.410  1.00  0.00    -0.205 OA
BRANCH  26  29
HETATM   29  C10 UNL     1      39.929  24.016  28.954  1.00  0.00     0.072 C 
HETATM   30  C11 UNL     1      40.027  25.420  29.565  1.00  0.00     0.033 C 
HETATM   31  C12 UNL     1      38.444  23.633  28.888  1.00  0.00     0.033 C 
HETATM   32  C13 UNL     1      40.570  23.063  29.905  1.00  0.00     0.033 C 
ENDBRANCH  26  29
ENDBRANCH  24  26
ENDBRANCH  21  24
ENDBRANCH   8  21
BRANCH   4  33
HETATM   33  S1  UNL     1      39.480  18.247  21.563  1.00  0.00    -0.079 SA
BRANCH  33  34
HETATM   34  C6  UNL     1      41.029  17.324  21.715  1.00  0.00     0.197 C 
HETATM   35 CL1  UNL     1      41.261  16.395  20.223  1.00  0.00    -0.119 Cl
ENDBRANCH  33  34
ENDBRANCH   4  33
BRANCH   7  36
HETATM   36  N4  UNL     1      37.842  22.717  23.175  1.00  0.00    -0.385 N 
ATOM     37  H42 UNL     1      37.393  23.063  24.023  1.00  0.00     0.157 HD
ATOM     38  H41 UNL     1      37.524  23.033  22.259  1.00  0.00     0.157 HD
ENDBRANCH   7  36
TORSDOF 11
ENDMDL
MODEL 3
REMARK VINA RESULT: -6.674151564      1.701      2.102
REMARK  11 active torsions:
REMARK  status: ('A' for Active; 'I' for Inactive)
REMARK    1  A    between atoms: C2_2  and  C3_3 
REMARK    2  A    between atoms: C3_3  and  N1_4 
REMARK    3  A    between atoms: C3_3  and  C14_32 
REMARK    4  A    between atoms: N1_4  and  C4_6 
REMARK    5  A    between atoms: C5_9  and  S1_10 
REMARK    6  A    between atoms: S1_10  and  C6_11 
REMARK    7  A    between atoms: C7_15  and  N4_16 
REMARK    8  A    between atoms: C8_19  and  C9_20 
REMARK    9  A    between atoms: C9_20  and  N5_23 
REMARK   10  A    between atoms: N5_23  and  S2_25 
REMARK   11  A    between atoms: S2_25  and  C10_28 
ROOT
HETATM    1  C4  UNL     1      41.050  20.794  23.746  1.00  0.00     0.121 A 
HETATM    2  N2  UNL     1      40.839  19.651  23.021  1.00  0.00    -0.322 N 
ATOM      3  H2  UNL     1      41.565  18.935  23.025  1.00  0.00     0.169 HD
HETATM    4  C5  UNL     1      39.737  19.427  22.311  1.00  0.00     0.148 A 
HETATM    5  N3  UNL     1      38.799  20.378  22.322  1.00  0.00    -0.323 N 
ATOM      6  H3  UNL     1      37.944  20.228  21.786  1.00  0.00     0.169 HD
HETATM    7  C7  UNL     1      38.938  21.548  23.025  1.00  0.00     0.118 A 
HETATM    8  C8  UNL     1      40.074  21.783  23.756  1.00  0.00     0.123 A 
ENDROOT
BRANCH   1   9
HETATM    9  N1  UNL     1      42.250  20.972  24.455  1.00  0.00    -0.365 N 
ATOM     10  H1  UNL     1      42.249  21.520  25.315  1.00  0.00     0.162 HD
BRANCH   9  11
HETATM   11  C3  UNL     1      43.482  20.390  23.985  1.00  0.00     0.140 C 
BRANCH  11  12
HETATM   12  C2  UNL     1      44.096  19.523  25.051  1.00  0.00     0.027 C 
HETATM   13  C1  UNL     1      44.435  18.143  24.533  1.00  0.00     0.007 C 
ENDBRANCH  11  12
BRANCH  11  14
HETATM   14  C14 UNL     1      44.459  21.466  23.560  1.00  0.00     0.074 A 
HETATM   15  N6  UNL     1      45.319  21.453  22.561  1.00  0.00    -0.355 N 
HETATM   16  C15 UNL     1      46.083  22.473  22.347  1.00  0.00     0.012 A 
ATOM     17  H6  UNL     1      45.381  20.635  21.955  1.00  0.00     0.166 HD
HETATM   18  C16 UNL     1      47.095  22.524  21.214  1.00  0.00     0.068 C 
HETATM   19  C17 UNL     1      45.960  23.549  23.191  1.00  0.00     0.076 A 
HETATM   20  S3  UNL     1      44.731  23.005  24.252  1.00  0.00    -0.085 SA
ENDBRANCH  11  14
ENDBRANCH   9  11
ENDBRANCH   1   9
BRANCH   8  21
HETATM   21  C9  UNL     1      40.244  23.011  24.548  1.00  0.00     0.367 C 
HETATM   22  F1  UNL     1      40.292  24.101  23.699  1.00  0.00    -0.177 F 
HETATM   23  F2  UNL     1      41.409  23.016  25.289  1.00  0.00    -0.177 F 
BRANCH  21  24
HETATM   24  N5  UNL     1      39.089  23.257  25.405  1.00  0.00    -0.250 N 
ATOM     25  H5  UNL     1      38.342  23.917  25.189  1.00  0.00     0.178 HD
BRANCH  24  26
HETATM   26  S2  UNL     1      39.148  22.284  26.835  1.00  0.00     0.238 S 
HETATM   27  O1  UNL     1      40.135  21.188  26.787  1.00  0.00    -0.205 OA
HETATM   28  O2  UNL     1      37.775  21.704  27.022  1.00  0.00    -0.205 OA
BRANCH  26  29
HETATM   29  C10 UNL     1      39.528  23.300  28.236  1.00  0.00     0.072 C 
HETATM   30  C11 UNL     1      38.267  23.507  29.085  1.00  0.00     0.033 C 
HETATM   31  C12 UNL     1      40.586  22.624  29.119  1.00  0.00     0.033 C 
HETATM   32  C13 UNL     1      40.066  24.647  27.887  1.00  0.00     0.033 C 
ENDBRANCH  26  29
ENDBRANCH  24  26
ENDBRANCH  21  24
ENDBRANCH   8  21
BRANCH   4  33
HETATM   33  S1  UNL     1      39.505  17.904  21.370  1.00  0.00    -0.079 SA
BRANCH  33  34
HETATM   34  C6  UNL     1      41.064  16.985  21.429  1.00  0.00     0.197 C 
HETATM   35 CL1  UNL     1      41.294  16.198  19.858  1.00  0.00    -0.119 Cl
ENDBRANCH  33  34
ENDBRANCH   4  33
BRANCH   7  36
HETATM   36  N4  UNL     1      37.979  22.404  23.008  1.00  0.00    -0.385 N 
ATOM     37  H42 UNL     1      37.661  22.812  22.128  1.00  0.00     0.157 HD
ATOM     38  H41 UNL     1      37.552  22.687  23.890  1.00  0.00     0.157 HD
ENDBRANCH   7  36
TORSDOF 11
ENDMDL
MODEL 4
REMARK VINA RESULT: -6.516577700      4.876      6.636
REMARK  11 active torsions:
REMARK  status: ('A' for Active; 'I' for Inactive)
REMARK    1  A    between atoms: C2_2  and  C3_3 
REMARK    2  A    between atoms: C3_3  and  N1_4 
REMARK    3  A    between atoms: C3_3  and  C14_32 
REMARK    4  A    between atoms: N1_4  and  C4_6 
REMARK    5  A    between atoms: C5_9  and  S1_10 
REMARK    6  A    between atoms: S1_10  and  C6_11 
REMARK    7  A    between atoms: C7_15  and  N4_16 
REMARK    8  A    between atoms: C8_19  and  C9_20 
REMARK    9  A    between atoms: C9_20  and  N5_23 
REMARK   10  A    between atoms: N5_23  and  S2_25 
REMARK   11  A    between atoms: S2_25  and  C10_28 
ROOT
HETATM    1  C4  UNL     1      39.838  23.742  26.157  1.00  0.00     0.121 A 
HETATM    2  N2  UNL     1      39.500  23.484  24.854  1.00  0.00    -0.322 N 
ATOM      3  H2  UNL     1      39.444  24.270  24.206  1.00  0.00     0.169 HD
HETATM    4  C5  UNL     1      39.241  22.265  24.391  1.00  0.00     0.148 A 
HETATM    5  N3  UNL     1      39.322  21.252  25.259  1.00  0.00    -0.323 N 
ATOM      6  H3  UNL     1      39.128  20.307  24.927  1.00  0.00     0.169 HD
HETATM    7  C7  UNL     1      39.655  21.431  26.577  1.00  0.00     0.118 A 
HETATM    8  C8  UNL     1      39.921  22.687  27.058  1.00  0.00     0.123 A 
ENDROOT
BRANCH   1   9
HETATM    9  N1  UNL     1      40.077  25.060  26.580  1.00  0.00    -0.365 N 
ATOM     10  H1  UNL     1      39.728  25.367  27.488  1.00  0.00     0.162 HD
BRANCH   9  11
HETATM   11  C3  UNL     1      40.807  25.985  25.749  1.00  0.00     0.140 C 
BRANCH  11  12
HETATM   12  C2  UNL     1      41.879  26.675  26.546  1.00  0.00     0.027 C 
HETATM   13  C1  UNL     1      43.176  26.787  25.776  1.00  0.00     0.007 C 
ENDBRANCH  11  12
BRANCH  11  14
HETATM   14  C14 UNL     1      39.875  27.006  25.131  1.00  0.00     0.074 A 
HETATM   15  N6  UNL     1      39.341  27.014  23.926  1.00  0.00    -0.355 N 
HETATM   16  C15 UNL     1      38.561  27.979  23.566  1.00  0.00     0.012 A 
ATOM     17  H6  UNL     1      39.545  26.255  23.275  1.00  0.00     0.166 HD
HETATM   18  C16 UNL     1      37.913  28.050  22.193  1.00  0.00     0.068 C 
HETATM   19  C17 UNL     1      38.319  28.976  24.480  1.00  0.00     0.076 A 
HETATM   20  S3  UNL     1      39.249  28.442  25.815  1.00  0.00    -0.085 SA
ENDBRANCH  11  14
ENDBRANCH   9  11
ENDBRANCH   1   9
BRANCH   8  21
HETATM   21  C9  UNL     1      40.314  22.914  28.458  1.00  0.00     0.367 C 
HETATM   22  F1  UNL     1      41.125  24.030  28.531  1.00  0.00    -0.177 F 
HETATM   23  F2  UNL     1      41.019  21.857  28.997  1.00  0.00    -0.177 F 
BRANCH  21  24
HETATM   24  N5  UNL     1      39.158  23.238  29.289  1.00  0.00    -0.250 N 
ATOM     25  H5  UNL     1      38.204  23.321  28.940  1.00  0.00     0.178 HD
BRANCH  24  26
HETATM   26  S2  UNL     1      39.616  23.462  30.943  1.00  0.00     0.238 S 
HETATM   27  O1  UNL     1      40.941  22.913  31.289  1.00  0.00    -0.205 OA
HETATM   28  O2  UNL     1      38.568  22.785  31.779  1.00  0.00    -0.205 OA
BRANCH  26  29
HETATM   29  C10 UNL     1      39.622  25.190  31.334  1.00  0.00     0.072 C 
HETATM   30  C11 UNL     1      38.626  25.470  32.466  1.00  0.00     0.033 C 
HETATM   31  C12 UNL     1      41.014  25.629  31.810  1.00  0.00     0.033 C 
HETATM   32  C13 UNL     1      39.268  26.078  30.189  1.00  0.00     0.033 C 
ENDBRANCH  26  29
ENDBRANCH  24  26
ENDBRANCH  21  24
ENDBRANCH   8  21
BRANCH   4  33
HETATM   33  S1  UNL     1      38.798  21.977  22.665  1.00  0.00    -0.079 SA
BRANCH  33  34
HETATM   34  C6  UNL     1      37.164  22.707  22.394  1.00  0.00     0.197 C 
HETATM   35 CL1  UNL     1      37.298  24.457  22.641  1.00  0.00    -0.119 Cl
ENDBRANCH  33  34
ENDBRANCH   4  33
BRANCH   7  36
HETATM   36  N4  UNL     1      39.739  20.403  27.345  1.00  0.00    -0.385 N 
ATOM     37  H42 UNL     1      39.499  19.474  26.999  1.00  0.00     0.157 HD
ATOM     38  H41 UNL     1      40.030  20.531  28.314  1.00  0.00     0.157 HD
ENDBRANCH   7  36
TORSDOF 11
ENDMDL
MODEL 5
REMARK VINA RESULT: -6.473687257      4.005      6.332
REMARK  11 active torsions:
REMARK  status: ('A' for Active; 'I' for Inactive)
REMARK    1  A    between atoms: C2_2  and  C3_3 
REMARK    2  A    between atoms: C3_3  and  N1_4 
REMARK    3  A    between atoms: C3_3  and  C14_32 
REMARK    4  A    between atoms: N1_4  and  C4_6 
REMARK    5  A    between atoms: C5_9  and  S1_10 
REMARK    6  A    between atoms: S1_10  and  C6_11 
REMARK    7  A    between atoms: C7_15  and  N4_16 
REMARK    8  A    between atoms: C8_19  and  C9_20 
REMARK    9  A    between atoms: C9_20  and  N5_23 
REMARK   10  A    between atoms: N5_23  and  S2_25 
REMARK   11  A    between atoms: S2_25  and  C10_28 
ROOT
HETATM    1  C4  UNL     1      39.662  24.433  26.396  1.00  0.00     0.121 A 
HETATM    2  N2  UNL     1      39.525  24.822  27.702  1.00  0.00    -0.322 N 
ATOM      3  H2  UNL     1      39.834  25.760  27.961  1.00  0.00     0.169 HD
HETATM    4  C5  UNL     1      39.013  24.043  28.650  1.00  0.00     0.148 A 
HETATM    5  N3  UNL     1      38.614  22.821  28.286  1.00  0.00    -0.323 N 
ATOM      6  H3  UNL     1      38.216  22.205  28.995  1.00  0.00     0.169 HD
HETATM    7  C7  UNL     1      38.718  22.360  26.998  1.00  0.00     0.118 A 
HETATM    8  C8  UNL     1      39.248  23.161  26.019  1.00  0.00     0.123 A 
ENDROOT
BRANCH   1   9
HETATM    9  N1  UNL     1      40.234  25.303  25.453  1.00  0.00    -0.365 N 
ATOM     10  H1  UNL     1      39.705  25.557  24.618  1.00  0.00     0.162 HD
BRANCH   9  11
HETATM   11  C3  UNL     1      41.556  25.843  25.648  1.00  0.00     0.140 C 
BRANCH  11  12
HETATM   12  C2  UNL     1      41.854  26.892  24.611  1.00  0.00     0.027 C 
HETATM   13  C1  UNL     1      40.877  26.844  23.458  1.00  0.00     0.007 C 
ENDBRANCH  11  12
BRANCH  11  14
HETATM   14  C14 UNL     1      42.599  24.747  25.598  1.00  0.00     0.074 A 
HETATM   15  N6  UNL     1      42.839  23.795  26.477  1.00  0.00    -0.355 N 
HETATM   16  C15 UNL     1      43.782  22.936  26.266  1.00  0.00     0.012 A 
ATOM     17  H6  UNL     1      42.278  23.735  27.327  1.00  0.00     0.166 HD
HETATM   18  C16 UNL     1      44.111  21.814  27.237  1.00  0.00     0.068 C 
HETATM   19  C17 UNL     1      44.507  23.061  25.106  1.00  0.00     0.076 A 
HETATM   20  S3  UNL     1      43.766  24.428  24.390  1.00  0.00    -0.085 SA
ENDBRANCH  11  14
ENDBRANCH   9  11
ENDBRANCH   1   9
BRANCH   8  21
HETATM   21  C9  UNL     1      39.345  22.713  24.620  1.00  0.00     0.367 C 
HETATM   22  F1  UNL     1      40.580  23.067  24.111  1.00  0.00    -0.177 F 
HETATM   23  F2  UNL     1      38.386  23.281  23.806  1.00  0.00    -0.177 F 
BRANCH  21  24
HETATM   24  N5  UNL     1      39.305  21.258  24.523  1.00  0.00    -0.250 N 
ATOM     25  H5  UNL     1      39.033  20.637  25.286  1.00  0.00     0.178 HD
BRANCH  24  26
HETATM   26  S2  UNL     1      39.777  20.719  22.948  1.00  0.00     0.238 S 
HETATM   27  O1  UNL     1      39.725  21.762  21.906  1.00  0.00    -0.205 OA
HETATM   28  O2  UNL     1      38.846  19.601  22.575  1.00  0.00    -0.205 OA
BRANCH  26  29
HETATM   29  C10 UNL     1      41.430  20.084  23.003  1.00  0.00     0.072 C 
HETATM   30  C11 UNL     1      42.358  20.976  22.168  1.00  0.00     0.033 C 
HETATM   31  C12 UNL     1      41.955  20.076  24.446  1.00  0.00     0.033 C 
HETATM   32  C13 UNL     1      41.567  18.688  22.495  1.00  0.00     0.033 C 
ENDBRANCH  26  29
ENDBRANCH  24  26
ENDBRANCH  21  24
ENDBRANCH   8  21
BRANCH   4  33
HETATM   33  S1  UNL     1      38.855  24.602  30.359  1.00  0.00    -0.079 SA
BRANCH  33  34
HETATM   34  C6  UNL     1      37.934  23.332  31.263  1.00  0.00     0.197 C 
HETATM   35 CL1  UNL     1      36.206  23.695  31.109  1.00  0.00    -0.119 Cl
ENDBRANCH  33  34
ENDBRANCH   4  33
BRANCH   7  36
HETATM   36  N4  UNL     1      38.288  21.181  26.720  1.00  0.00    -0.385 N 
ATOM     37  H42 UNL     1      38.020  20.536  27.464  1.00  0.00     0.157 HD
ATOM     38  H41 UNL     1      38.235  20.890  25.744  1.00  0.00     0.157 HD
ENDBRANCH   7  36
TORSDOF 11
ENDMDL
