MODEL 1
REMARK VINA RESULT: -8.162104397      0.000      0.000
REMARK  15 active torsions:
REMARK  status: ('A' for Active; 'I' for Inactive)
REMARK    1  A    between atoms: C2_2  and  C3_3 
REMARK    2  A    between atoms: C3_3  and  C4_4 
REMARK    3  A    between atoms: C13_14  and  C14_15 
REMARK    4  A    between atoms: C14_15  and  C15_16 
REMARK    5  A    between atoms: C15_16  and  C16_17 
REMARK    6  A    between atoms: C16_17  and  C17_18 
REMARK    7  A    between atoms: C16_17  and  C28_34 
REMARK    8  A    between atoms: C17_18  and  O1_19 
REMARK    9  A    between atoms: O1_19  and  C18_20 
REMARK   10  A    between atoms: C18_20  and  C19_22 
REMARK   11  A    between atoms: C20_23  and  C21_24 
REMARK   12  A    between atoms: C24_27  and  O3_28 
REMARK   13  A    between atoms: C25_30  and  O4_31 
REMARK   14  A    between atoms: C32_39  and  O6_40 
REMARK   15  A    between atoms: C34_43  and  O7_44 
ROOT
HETATM    1  C4  UNL     1      17.817  43.139  -3.728  1.00  0.00    -0.035 C 
HETATM    2  C5  UNL     1      16.435  42.620  -4.070  1.00  0.00     0.016 C 
HETATM    3  C6  UNL     1      18.715  41.960  -3.686  1.00  0.00     0.014 C 
HETATM    4  C7  UNL     1      19.769  41.913  -4.772  1.00  0.00    -0.016 C 
HETATM    5  C8  UNL     1      20.204  40.442  -4.849  1.00  0.00     0.010 C 
HETATM    6  C9  UNL     1      19.011  42.237  -6.028  1.00  0.00     0.029 C 
HETATM    7  C10 UNL     1      18.685  43.742  -6.014  1.00  0.00     0.050 C 
HETATM    8  C11 UNL     1      19.984  44.383  -6.505  1.00  0.00     0.031 C 
HETATM    9  C12 UNL     1      17.708  43.882  -7.080  1.00  0.00     0.069 C 
HETATM   10  N1  UNL     1      16.929  43.967  -7.958  1.00  0.00    -0.196 NA
HETATM   11  C13 UNL     1      18.262  44.213  -4.700  1.00  0.00     0.019 C 
ENDROOT
BRANCH  11  12
HETATM   12  C14 UNL     1      17.421  45.456  -4.602  1.00  0.00     0.035 C 
BRANCH  12  13
HETATM   13  C15 UNL     1      18.123  46.693  -4.271  1.00  0.00    -0.012 C 
BRANCH  13  14
HETATM   14  C16 UNL     1      18.796  46.975  -3.122  1.00  0.00    -0.004 C 
BRANCH  14  15
HETATM   15  C17 UNL     1      20.172  46.536  -3.033  1.00  0.00     0.158 C 
BRANCH  15  16
HETATM   16  O1  UNL     1      20.634  45.978  -1.911  1.00  0.00    -0.287 OA
BRANCH  16  17
HETATM   17  C18 UNL     1      21.100  46.295  -0.703  1.00  0.00     0.287 C 
HETATM   18  O2  UNL     1      20.553  45.832   0.288  1.00  0.00    -0.260 OA
BRANCH  17  19
HETATM   19  C19 UNL     1      22.245  47.177  -0.583  1.00  0.00     0.083 C 
HETATM   20  C20 UNL     1      22.709  47.887   0.332  1.00  0.00     0.017 C 
BRANCH  20  21
HETATM   21  C21 UNL     1      22.427  48.241   1.677  1.00  0.00    -0.033 A 
HETATM   22  C22 UNL     1      23.302  48.728   2.593  1.00  0.00     0.014 A 
HETATM   23  C23 UNL     1      22.908  49.149   3.872  1.00  0.00     0.040 A 
HETATM   24  C24 UNL     1      21.590  49.075   4.247  1.00  0.00     0.099 A 
HETATM   25  C25 UNL     1      20.649  48.582   3.353  1.00  0.00     0.102 A 
HETATM   26  C27 UNL     1      21.079  48.193   2.138  1.00  0.00     0.051 A 
BRANCH  24  27
HETATM   27  O3  UNL     1      21.201  49.491   5.509  1.00  0.00    -0.358 OA
ATOM     28  H3  UNL     1      20.576  48.979   6.009  1.00  0.00     0.217 HD
ENDBRANCH  24  27
BRANCH  25  29
HETATM   29  O4  UNL     1      19.351  48.540   3.805  1.00  0.00    -0.353 OA
HETATM   30  C26 UNL     1      18.302  48.326   2.890  1.00  0.00     0.210 C 
ENDBRANCH  25  29
ENDBRANCH  20  21
ENDBRANCH  17  19
ENDBRANCH  16  17
ENDBRANCH  15  16
ENDBRANCH  14  15
BRANCH  14  31
HETATM   31  C28 UNL     1      18.029  47.773  -2.130  1.00  0.00     0.012 A 
HETATM   32  C29 UNL     1      17.273  47.096  -1.181  1.00  0.00     0.054 A 
HETATM   33  C30 UNL     1      16.385  47.766  -0.330  1.00  0.00     0.102 A 
HETATM   34  O5  UNL     1      15.667  47.153   0.561  1.00  0.00    -0.353 OA
HETATM   35  C32 UNL     1      16.313  49.167  -0.503  1.00  0.00     0.101 A 
HETATM   36  C31 UNL     1      14.956  46.530   1.449  1.00  0.00     0.210 C 
HETATM   37  C33 UNL     1      17.046  49.845  -1.426  1.00  0.00     0.077 A 
HETATM   38  C34 UNL     1      17.924  49.131  -2.261  1.00  0.00     0.082 A 
BRANCH  35  39
HETATM   39  O6  UNL     1      15.438  49.841   0.337  1.00  0.00    -0.358 OA
ATOM     40  H6  UNL     1      15.524  50.787   0.356  1.00  0.00     0.217 HD
ENDBRANCH  35  39
BRANCH  38  41
HETATM   41  O7  UNL     1      18.645  49.855  -3.195  1.00  0.00    -0.355 OA
HETATM   42  C35 UNL     1      18.429  51.241  -3.356  1.00  0.00     0.210 C 
ENDBRANCH  38  41
ENDBRANCH  14  31
ENDBRANCH  13  14
ENDBRANCH  12  13
ENDBRANCH  11  12
BRANCH   1  43
HETATM   43  C3  UNL     1      17.699  43.708  -2.305  1.00  0.00     0.036 C 
BRANCH  43  44
HETATM   44  C2  UNL     1      16.929  42.843  -1.423  1.00  0.00    -0.036 C 
HETATM   45  C1  UNL     1      17.023  42.937  -0.116  1.00  0.00     0.007 C 
ENDBRANCH  43  44
ENDBRANCH   1  43
TORSDOF 15
ENDMDL
MODEL 2
REMARK VINA RESULT: -8.124725937      2.775      6.271
REMARK  15 active torsions:
REMARK  status: ('A' for Active; 'I' for Inactive)
REMARK    1  A    between atoms: C2_2  and  C3_3 
REMARK    2  A    between atoms: C3_3  and  C4_4 
REMARK    3  A    between atoms: C13_14  and  C14_15 
REMARK    4  A    between atoms: C14_15  and  C15_16 
REMARK    5  A    between atoms: C15_16  and  C16_17 
REMARK    6  A    between atoms: C16_17  and  C17_18 
REMARK    7  A    between atoms: C16_17  and  C28_34 
REMARK    8  A    between atoms: C17_18  and  O1_19 
REMARK    9  A    between atoms: O1_19  and  C18_20 
REMARK   10  A    between atoms: C18_20  and  C19_22 
REMARK   11  A    between atoms: C20_23  and  C21_24 
REMARK   12  A    between atoms: C24_27  and  O3_28 
REMARK   13  A    between atoms: C25_30  and  O4_31 
REMARK   14  A    between atoms: C32_39  and  O6_40 
REMARK   15  A    between atoms: C34_43  and  O7_44 
ROOT
HETATM    1  C4  UNL     1      16.069  49.299  -3.340  1.00  0.00    -0.035 C 
HETATM    2  C5  UNL     1      15.229  49.223  -2.081  1.00  0.00     0.016 C 
HETATM    3  C6  UNL     1      15.299  50.107  -4.316  1.00  0.00     0.014 C 
HETATM    4  C7  UNL     1      15.909  51.446  -4.669  1.00  0.00    -0.016 C 
HETATM    5  C8  UNL     1      14.753  52.279  -5.241  1.00  0.00     0.010 C 
HETATM    6  C9  UNL     1      16.290  52.034  -3.340  1.00  0.00     0.029 C 
HETATM    7  C10 UNL     1      17.532  51.283  -2.824  1.00  0.00     0.050 C 
HETATM    8  C11 UNL     1      18.681  51.959  -3.573  1.00  0.00     0.031 C 
HETATM    9  C12 UNL     1      17.621  51.700  -1.435  1.00  0.00     0.069 C 
HETATM   10  N1  UNL     1      17.676  52.066  -0.318  1.00  0.00    -0.196 NA
HETATM   11  C13 UNL     1      17.453  49.845  -3.051  1.00  0.00     0.019 C 
ENDROOT
BRANCH  11  12
HETATM   12  C14 UNL     1      18.261  48.920  -2.183  1.00  0.00     0.035 C 
BRANCH  12  13
HETATM   13  C15 UNL     1      19.349  48.198  -2.838  1.00  0.00    -0.012 C 
BRANCH  13  14
HETATM   14  C16 UNL     1      19.873  46.995  -2.477  1.00  0.00    -0.004 C 
BRANCH  14  15
HETATM   15  C17 UNL     1      20.894  46.997  -1.450  1.00  0.00     0.158 C 
BRANCH  15  16
HETATM   16  O1  UNL     1      20.743  46.265  -0.344  1.00  0.00    -0.287 OA
BRANCH  16  17
HETATM   17  C18 UNL     1      19.891  46.057   0.661  1.00  0.00     0.287 C 
HETATM   18  O2  UNL     1      19.542  44.913   0.919  1.00  0.00    -0.260 OA
BRANCH  17  19
HETATM   19  C19 UNL     1      19.399  47.183   1.432  1.00  0.00     0.083 C 
HETATM   20  C20 UNL     1      19.937  48.064   2.131  1.00  0.00     0.017 C 
BRANCH  20  21
HETATM   21  C21 UNL     1      21.227  48.465   2.566  1.00  0.00    -0.033 A 
HETATM   22  C22 UNL     1      22.350  48.560   1.810  1.00  0.00     0.014 A 
HETATM   23  C23 UNL     1      23.560  49.068   2.307  1.00  0.00     0.040 A 
HETATM   24  C24 UNL     1      23.648  49.492   3.609  1.00  0.00     0.099 A 
HETATM   25  C25 UNL     1      22.532  49.416   4.432  1.00  0.00     0.102 A 
HETATM   26  C27 UNL     1      21.394  48.923   3.905  1.00  0.00     0.051 A 
BRANCH  24  27
HETATM   27  O3  UNL     1      24.842  49.993   4.099  1.00  0.00    -0.358 OA
ATOM     28  H3  UNL     1      25.531  49.400   4.376  1.00  0.00     0.217 HD
ENDBRANCH  24  27
BRANCH  25  29
HETATM   29  O4  UNL     1      22.702  49.860   5.721  1.00  0.00    -0.353 OA
HETATM   30  C26 UNL     1      22.655  48.939   6.786  1.00  0.00     0.210 C 
ENDBRANCH  25  29
ENDBRANCH  20  21
ENDBRANCH  17  19
ENDBRANCH  16  17
ENDBRANCH  15  16
ENDBRANCH  14  15
BRANCH  14  31
HETATM   31  C28 UNL     1      19.259  45.820  -3.148  1.00  0.00     0.012 A 
HETATM   32  C29 UNL     1      19.768  45.422  -4.378  1.00  0.00     0.054 A 
HETATM   33  C30 UNL     1      19.136  44.444  -5.157  1.00  0.00     0.102 A 
HETATM   34  O5  UNL     1      19.593  44.060  -6.310  1.00  0.00    -0.353 OA
HETATM   35  C32 UNL     1      17.955  43.895  -4.607  1.00  0.00     0.101 A 
HETATM   36  C31 UNL     1      20.058  43.684  -7.459  1.00  0.00     0.210 C 
HETATM   37  C33 UNL     1      17.444  44.273  -3.405  1.00  0.00     0.077 A 
HETATM   38  C34 UNL     1      18.111  45.260  -2.658  1.00  0.00     0.082 A 
BRANCH  35  39
HETATM   39  O6  UNL     1      17.323  42.924  -5.370  1.00  0.00    -0.358 OA
ATOM     40  H6  UNL     1      16.971  42.182  -4.892  1.00  0.00     0.217 HD
ENDBRANCH  35  39
BRANCH  38  41
HETATM   41  O7  UNL     1      17.554  45.623  -1.444  1.00  0.00    -0.355 OA
HETATM   42  C35 UNL     1      16.216  45.294  -1.135  1.00  0.00     0.210 C 
ENDBRANCH  38  41
ENDBRANCH  14  31
ENDBRANCH  13  14
ENDBRANCH  12  13
ENDBRANCH  11  12
BRANCH   1  43
HETATM   43  C3  UNL     1      16.151  47.856  -3.864  1.00  0.00     0.036 C 
BRANCH  43  44
HETATM   44  C2  UNL     1      14.921  47.432  -4.516  1.00  0.00    -0.036 C 
HETATM   45  C1  UNL     1      14.830  46.267  -5.117  1.00  0.00     0.007 C 
ENDBRANCH  43  44
ENDBRANCH   1  43
TORSDOF 15
ENDMDL
MODEL 3
REMARK VINA RESULT: -8.074043464      4.130      7.886
REMARK  15 active torsions:
REMARK  status: ('A' for Active; 'I' for Inactive)
REMARK    1  A    between atoms: C2_2  and  C3_3 
REMARK    2  A    between atoms: C3_3  and  C4_4 
REMARK    3  A    between atoms: C13_14  and  C14_15 
REMARK    4  A    between atoms: C14_15  and  C15_16 
REMARK    5  A    between atoms: C15_16  and  C16_17 
REMARK    6  A    between atoms: C16_17  and  C17_18 
REMARK    7  A    between atoms: C16_17  and  C28_34 
REMARK    8  A    between atoms: C17_18  and  O1_19 
REMARK    9  A    between atoms: O1_19  and  C18_20 
REMARK   10  A    between atoms: C18_20  and  C19_22 
REMARK   11  A    between atoms: C20_23  and  C21_24 
REMARK   12  A    between atoms: C24_27  and  O3_28 
REMARK   13  A    between atoms: C25_30  and  O4_31 
REMARK   14  A    between atoms: C32_39  and  O6_40 
REMARK   15  A    between atoms: C34_43  and  O7_44 
ROOT
HETATM    1  C4  UNL     1      20.217  47.200   0.258  1.00  0.00    -0.035 C 
HETATM    2  C5  UNL     1      19.905  45.762   0.616  1.00  0.00     0.016 C 
HETATM    3  C6  UNL     1      20.460  47.230  -1.204  1.00  0.00     0.014 C 
HETATM    4  C7  UNL     1      19.431  47.988  -2.015  1.00  0.00    -0.016 C 
HETATM    5  C8  UNL     1      19.583  47.467  -3.451  1.00  0.00     0.010 C 
HETATM    6  C9  UNL     1      18.115  47.497  -1.482  1.00  0.00     0.029 C 
HETATM    7  C10 UNL     1      17.900  48.124  -0.091  1.00  0.00     0.050 C 
HETATM    8  C11 UNL     1      17.368  49.520  -0.419  1.00  0.00     0.031 C 
HETATM    9  C12 UNL     1      16.791  47.358   0.452  1.00  0.00     0.069 C 
HETATM   10  N1  UNL     1      15.883  46.731   0.860  1.00  0.00    -0.196 NA
HETATM   11  C13 UNL     1      19.116  48.137   0.714  1.00  0.00     0.019 C 
ENDROOT
BRANCH  11  12
HETATM   12  C14 UNL     1      19.003  48.199   2.212  1.00  0.00     0.035 C 
BRANCH  12  13
HETATM   13  C15 UNL     1      18.443  49.425   2.773  1.00  0.00    -0.012 C 
BRANCH  13  14
HETATM   14  C16 UNL     1      19.127  50.521   3.201  1.00  0.00    -0.004 C 
BRANCH  14  15
HETATM   15  C17 UNL     1      18.633  51.817   2.785  1.00  0.00     0.158 C 
BRANCH  15  16
HETATM   16  O1  UNL     1      18.646  52.850   3.631  1.00  0.00    -0.287 OA
BRANCH  16  17
HETATM   17  C18 UNL     1      19.396  53.891   3.995  1.00  0.00     0.287 C 
HETATM   18  O2  UNL     1      18.967  54.670   4.835  1.00  0.00    -0.260 OA
BRANCH  17  19
HETATM   19  C19 UNL     1      20.704  54.080   3.396  1.00  0.00     0.083 C 
HETATM   20  C20 UNL     1      21.876  53.940   3.797  1.00  0.00     0.017 C 
BRANCH  20  21
HETATM   21  C21 UNL     1      22.584  53.558   4.966  1.00  0.00    -0.033 A 
HETATM   22  C22 UNL     1      22.051  53.126   6.137  1.00  0.00     0.014 A 
HETATM   23  C23 UNL     1      22.836  52.669   7.207  1.00  0.00     0.040 A 
HETATM   24  C24 UNL     1      24.203  52.647   7.099  1.00  0.00     0.099 A 
HETATM   25  C25 UNL     1      24.806  53.081   5.925  1.00  0.00     0.102 A 
HETATM   26  C27 UNL     1      24.007  53.508   4.929  1.00  0.00     0.051 A 
BRANCH  24  27
HETATM   27  O3  UNL     1      24.978  52.197   8.155  1.00  0.00    -0.358 OA
ATOM     28  H3  UNL     1      25.844  51.839   7.993  1.00  0.00     0.217 HD
ENDBRANCH  24  27
BRANCH  25  29
HETATM   29  O4  UNL     1      26.180  53.028   5.898  1.00  0.00    -0.353 OA
HETATM   30  C26 UNL     1      26.861  53.278   4.690  1.00  0.00     0.210 C 
ENDBRANCH  25  29
ENDBRANCH  20  21
ENDBRANCH  17  19
ENDBRANCH  16  17
ENDBRANCH  15  16
ENDBRANCH  14  15
BRANCH  14  31
HETATM   31  C28 UNL     1      20.264  50.230   4.113  1.00  0.00     0.012 A 
HETATM   32  C29 UNL     1      21.556  50.382   3.625  1.00  0.00     0.054 A 
HETATM   33  C30 UNL     1      22.674  49.959   4.356  1.00  0.00     0.102 A 
HETATM   34  O5  UNL     1      23.889  50.088   3.918  1.00  0.00    -0.353 OA
HETATM   35  C32 UNL     1      22.397  49.374   5.612  1.00  0.00     0.101 A 
HETATM   36  C31 UNL     1      25.099  50.222   3.471  1.00  0.00     0.210 C 
HETATM   37  C33 UNL     1      21.139  49.219   6.104  1.00  0.00     0.077 A 
HETATM   38  C34 UNL     1      20.045  49.656   5.335  1.00  0.00     0.082 A 
BRANCH  35  39
HETATM   39  O6  UNL     1      23.498  48.953   6.345  1.00  0.00    -0.358 OA
ATOM     40  H6  UNL     1      23.310  48.501   7.159  1.00  0.00     0.217 HD
ENDBRANCH  35  39
BRANCH  38  41
HETATM   41  O7  UNL     1      18.780  49.472   5.866  1.00  0.00    -0.355 OA
HETATM   42  C35 UNL     1      18.483  49.885   7.184  1.00  0.00     0.210 C 
ENDBRANCH  38  41
ENDBRANCH  14  31
ENDBRANCH  13  14
ENDBRANCH  12  13
ENDBRANCH  11  12
BRANCH   1  43
HETATM   43  C3  UNL     1      21.538  47.523   0.975  1.00  0.00     0.036 C 
BRANCH  43  44
HETATM   44  C2  UNL     1      22.648  47.686   0.048  1.00  0.00    -0.036 C 
HETATM   45  C1  UNL     1      23.646  48.500   0.309  1.00  0.00     0.007 C 
ENDBRANCH  43  44
ENDBRANCH   1  43
TORSDOF 15
ENDMDL
MODEL 4
REMARK VINA RESULT: -8.066132056      2.712      6.650
REMARK  15 active torsions:
REMARK  status: ('A' for Active; 'I' for Inactive)
REMARK    1  A    between atoms: C2_2  and  C3_3 
REMARK    2  A    between atoms: C3_3  and  C4_4 
REMARK    3  A    between atoms: C13_14  and  C14_15 
REMARK    4  A    between atoms: C14_15  and  C15_16 
REMARK    5  A    between atoms: C15_16  and  C16_17 
REMARK    6  A    between atoms: C16_17  and  C17_18 
REMARK    7  A    between atoms: C16_17  and  C28_34 
REMARK    8  A    between atoms: C17_18  and  O1_19 
REMARK    9  A    between atoms: O1_19  and  C18_20 
REMARK   10  A    between atoms: C18_20  and  C19_22 
REMARK   11  A    between atoms: C20_23  and  C21_24 
REMARK   12  A    between atoms: C24_27  and  O3_28 
REMARK   13  A    between atoms: C25_30  and  O4_31 
REMARK   14  A    between atoms: C32_39  and  O6_40 
REMARK   15  A    between atoms: C34_43  and  O7_44 
ROOT
HETATM    1  C4  UNL     1      17.577  51.322  -2.605  1.00  0.00    -0.035 C 
HETATM    2  C5  UNL     1      16.205  51.339  -3.247  1.00  0.00     0.016 C 
HETATM    3  C6  UNL     1      17.544  52.315  -1.504  1.00  0.00     0.014 C 
HETATM    4  C7  UNL     1      17.656  51.737  -0.110  1.00  0.00    -0.016 C 
HETATM    5  C8  UNL     1      17.096  52.821   0.823  1.00  0.00     0.010 C 
HETATM    6  C9  UNL     1      16.691  50.586  -0.114  1.00  0.00     0.029 C 
HETATM    7  C10 UNL     1      17.310  49.447  -0.945  1.00  0.00     0.050 C 
HETATM    8  C11 UNL     1      18.267  48.779   0.043  1.00  0.00     0.031 C 
HETATM    9  C12 UNL     1      16.195  48.536  -1.145  1.00  0.00     0.069 C 
HETATM   10  N1  UNL     1      15.278  47.811  -1.279  1.00  0.00    -0.196 NA
HETATM   11  C13 UNL     1      17.963  49.926  -2.157  1.00  0.00     0.019 C 
ENDROOT
BRANCH  11  12
HETATM   12  C14 UNL     1      18.141  48.984  -3.316  1.00  0.00     0.035 C 
BRANCH  12  13
HETATM   13  C15 UNL     1      19.279  48.072  -3.244  1.00  0.00    -0.012 C 
BRANCH  13  14
HETATM   14  C16 UNL     1      19.240  46.718  -3.107  1.00  0.00    -0.004 C 
BRANCH  14  15
HETATM   15  C17 UNL     1      19.869  46.151  -1.933  1.00  0.00     0.158 C 
BRANCH  15  16
HETATM   16  O1  UNL     1      20.974  46.702  -1.424  1.00  0.00    -0.287 OA
BRANCH  16  17
HETATM   17  C18 UNL     1      21.567  46.966  -0.259  1.00  0.00     0.287 C 
HETATM   18  O2  UNL     1      21.018  46.623   0.779  1.00  0.00    -0.260 OA
BRANCH  17  19
HETATM   19  C19 UNL     1      22.847  47.647  -0.241  1.00  0.00     0.083 C 
HETATM   20  C20 UNL     1      23.462  48.328   0.604  1.00  0.00     0.017 C 
BRANCH  20  21
HETATM   21  C21 UNL     1      23.303  48.814   1.928  1.00  0.00    -0.033 A 
HETATM   22  C22 UNL     1      22.506  48.297   2.897  1.00  0.00     0.014 A 
HETATM   23  C23 UNL     1      22.493  48.785   4.212  1.00  0.00     0.040 A 
HETATM   24  C24 UNL     1      23.306  49.832   4.567  1.00  0.00     0.099 A 
HETATM   25  C25 UNL     1      24.141  50.405   3.617  1.00  0.00     0.102 A 
HETATM   26  C27 UNL     1      24.116  49.898   2.370  1.00  0.00     0.051 A 
BRANCH  24  27
HETATM   27  O3  UNL     1      23.294  50.314   5.865  1.00  0.00    -0.358 OA
ATOM     28  H3  UNL     1      24.055  50.762   6.216  1.00  0.00     0.217 HD
ENDBRANCH  24  27
BRANCH  25  29
HETATM   29  O4  UNL     1      24.923  51.448   4.052  1.00  0.00    -0.353 OA
HETATM   30  C26 UNL     1      25.484  52.336   3.113  1.00  0.00     0.210 C 
ENDBRANCH  25  29
ENDBRANCH  20  21
ENDBRANCH  17  19
ENDBRANCH  16  17
ENDBRANCH  15  16
ENDBRANCH  14  15
BRANCH  14  31
HETATM   31  C28 UNL     1      18.480  46.005  -4.166  1.00  0.00     0.012 A 
HETATM   32  C29 UNL     1      17.108  46.214  -4.247  1.00  0.00     0.054 A 
HETATM   33  C30 UNL     1      16.295  45.449  -5.094  1.00  0.00     0.102 A 
HETATM   34  O5  UNL     1      15.012  45.626  -5.184  1.00  0.00    -0.353 OA
HETATM   35  C32 UNL     1      16.962  44.460  -5.853  1.00  0.00     0.101 A 
HETATM   36  C31 UNL     1      13.732  45.811  -5.265  1.00  0.00     0.210 C 
HETATM   37  C33 UNL     1      18.302  44.244  -5.785  1.00  0.00     0.077 A 
HETATM   38  C34 UNL     1      19.080  45.033  -4.919  1.00  0.00     0.082 A 
BRANCH  35  39
HETATM   39  O6  UNL     1      16.165  43.699  -6.696  1.00  0.00    -0.358 OA
ATOM     40  H6  UNL     1      15.640  43.026  -6.278  1.00  0.00     0.217 HD
ENDBRANCH  35  39
BRANCH  38  41
HETATM   41  O7  UNL     1      20.439  44.775  -4.872  1.00  0.00    -0.355 OA
HETATM   42  C35 UNL     1      20.940  43.486  -5.153  1.00  0.00     0.210 C 
ENDBRANCH  38  41
ENDBRANCH  14  31
ENDBRANCH  13  14
ENDBRANCH  12  13
ENDBRANCH  11  12
BRANCH   1  43
HETATM   43  C3  UNL     1      18.541  51.832  -3.688  1.00  0.00     0.036 C 
BRANCH  43  44
HETATM   44  C2  UNL     1      17.866  52.632  -4.700  1.00  0.00    -0.036 C 
HETATM   45  C1  UNL     1      18.480  53.005  -5.801  1.00  0.00     0.007 C 
ENDBRANCH  43  44
ENDBRANCH   1  43
TORSDOF 15
ENDMDL
MODEL 5
REMARK VINA RESULT: -8.052106374      1.334      2.832
REMARK  15 active torsions:
REMARK  status: ('A' for Active; 'I' for Inactive)
REMARK    1  A    between atoms: C2_2  and  C3_3 
REMARK    2  A    between atoms: C3_3  and  C4_4 
REMARK    3  A    between atoms: C13_14  and  C14_15 
REMARK    4  A    between atoms: C14_15  and  C15_16 
REMARK    5  A    between atoms: C15_16  and  C16_17 
REMARK    6  A    between atoms: C16_17  and  C17_18 
REMARK    7  A    between atoms: C16_17  and  C28_34 
REMARK    8  A    between atoms: C17_18  and  O1_19 
REMARK    9  A    between atoms: O1_19  and  C18_20 
REMARK   10  A    between atoms: C18_20  and  C19_22 
REMARK   11  A    between atoms: C20_23  and  C21_24 
REMARK   12  A    between atoms: C24_27  and  O3_28 
REMARK   13  A    between atoms: C25_30  and  O4_31 
REMARK   14  A    between atoms: C32_39  and  O6_40 
REMARK   15  A    between atoms: C34_43  and  O7_44 
ROOT
HETATM    1  C4  UNL     1      17.996  43.061  -3.694  1.00  0.00    -0.035 C 
HETATM    2  C5  UNL     1      16.593  42.586  -4.012  1.00  0.00     0.016 C 
HETATM    3  C6  UNL     1      18.863  41.858  -3.699  1.00  0.00     0.014 C 
HETATM    4  C7  UNL     1      19.888  41.806  -4.812  1.00  0.00    -0.016 C 
HETATM    5  C8  UNL     1      20.281  40.326  -4.930  1.00  0.00     0.010 C 
HETATM    6  C9  UNL     1      19.109  42.176  -6.042  1.00  0.00     0.029 C 
HETATM    7  C10 UNL     1      18.824  43.689  -5.988  1.00  0.00     0.050 C 
HETATM    8  C11 UNL     1      20.128  44.305  -6.499  1.00  0.00     0.031 C 
HETATM    9  C12 UNL     1      17.825  43.878  -7.026  1.00  0.00     0.069 C 
HETATM   10  N1  UNL     1      17.027  44.003  -7.882  1.00  0.00    -0.196 NA
HETATM   11  C13 UNL     1      18.447  44.143  -4.655  1.00  0.00     0.019 C 
ENDROOT
BRANCH  11  12
HETATM   12  C14 UNL     1      17.643  45.405  -4.510  1.00  0.00     0.035 C 
BRANCH  12  13
HETATM   13  C15 UNL     1      18.397  46.636  -4.289  1.00  0.00    -0.012 C 
BRANCH  13  14
HETATM   14  C16 UNL     1      18.831  47.133  -3.098  1.00  0.00    -0.004 C 
BRANCH  14  15
HETATM   15  C17 UNL     1      20.111  46.664  -2.610  1.00  0.00     0.158 C 
BRANCH  15  16
HETATM   16  O1  UNL     1      20.266  46.332  -1.326  1.00  0.00    -0.287 OA
BRANCH  16  17
HETATM   17  C18 UNL     1      20.917  46.703  -0.224  1.00  0.00     0.287 C 
HETATM   18  O2  UNL     1      20.337  46.664   0.853  1.00  0.00    -0.260 OA
BRANCH  17  19
HETATM   19  C19 UNL     1      22.296  47.143  -0.316  1.00  0.00     0.083 C 
HETATM   20  C20 UNL     1      23.047  47.821   0.413  1.00  0.00     0.017 C 
BRANCH  20  21
HETATM   21  C21 UNL     1      23.018  48.516   1.650  1.00  0.00    -0.033 A 
HETATM   22  C22 UNL     1      22.127  48.350   2.659  1.00  0.00     0.014 A 
HETATM   23  C23 UNL     1      22.241  49.011   3.891  1.00  0.00     0.040 A 
HETATM   24  C24 UNL     1      23.284  49.872   4.118  1.00  0.00     0.099 A 
HETATM   25  C25 UNL     1      24.227  50.086   3.121  1.00  0.00     0.102 A 
HETATM   26  C27 UNL     1      24.072  49.425   1.957  1.00  0.00     0.051 A 
BRANCH  24  27
HETATM   27  O3  UNL     1      23.397  50.525   5.334  1.00  0.00    -0.358 OA
ATOM     28  H3  UNL     1      23.273  51.466   5.385  1.00  0.00     0.217 HD
ENDBRANCH  24  27
BRANCH  25  29
HETATM   29  O4  UNL     1      25.240  50.963   3.426  1.00  0.00    -0.353 OA
HETATM   30  C26 UNL     1      25.807  51.754   2.407  1.00  0.00     0.210 C 
ENDBRANCH  25  29
ENDBRANCH  20  21
ENDBRANCH  17  19
ENDBRANCH  16  17
ENDBRANCH  15  16
ENDBRANCH  14  15
BRANCH  14  31
HETATM   31  C28 UNL     1      17.946  48.160  -2.490  1.00  0.00     0.012 A 
HETATM   32  C29 UNL     1      18.120  49.486  -2.866  1.00  0.00     0.054 A 
HETATM   33  C30 UNL     1      17.453  50.531  -2.212  1.00  0.00     0.102 A 
HETATM   34  O5  UNL     1      17.603  51.777  -2.545  1.00  0.00    -0.353 OA
HETATM   35  C32 UNL     1      16.600  50.144  -1.154  1.00  0.00     0.101 A 
HETATM   36  C31 UNL     1      17.760  53.018  -2.887  1.00  0.00     0.210 C 
HETATM   37  C33 UNL     1      16.419  48.851  -0.775  1.00  0.00     0.077 A 
HETATM   38  C34 UNL     1      17.110  47.835  -1.457  1.00  0.00     0.082 A 
BRANCH  35  39
HETATM   39  O6  UNL     1      15.934  51.172  -0.501  1.00  0.00    -0.358 OA
ATOM     40  H6  UNL     1      16.376  51.542   0.254  1.00  0.00     0.217 HD
ENDBRANCH  35  39
BRANCH  38  41
HETATM   41  O7  UNL     1      16.906  46.532  -1.035  1.00  0.00    -0.355 OA
HETATM   42  C35 UNL     1      15.904  46.229  -0.086  1.00  0.00     0.210 C 
ENDBRANCH  38  41
ENDBRANCH  14  31
ENDBRANCH  13  14
ENDBRANCH  12  13
ENDBRANCH  11  12
BRANCH   1  43
HETATM   43  C3  UNL     1      17.929  43.603  -2.257  1.00  0.00     0.036 C 
BRANCH  43  44
HETATM   44  C2  UNL     1      16.992  42.860  -1.427  1.00  0.00    -0.036 C 
HETATM   45  C1  UNL     1      17.178  42.726  -0.133  1.00  0.00     0.007 C 
ENDBRANCH  43  44
ENDBRANCH   1  43
TORSDOF 15
ENDMDL
