MODEL 1
REMARK VINA RESULT: -7.960902107      0.000      0.000
REMARK  17 active torsions:
REMARK  status: ('A' for Active; 'I' for Inactive)
REMARK    1  A    between atoms: O1_2  and  C2_3 
REMARK    2  A    between atoms: C2_3  and  C3_5 
REMARK    3  A    between atoms: C3_5  and  C5_7 
REMARK    4  A    between atoms: C5_7  and  C6_8 
REMARK    5  A    between atoms: C6_8  and  C7_10 
REMARK    6  A    between atoms: C10_13  and  C11_14 
REMARK    7  A    between atoms: C11_14  and  C12_15 
REMARK    8  A    between atoms: C12_15  and  C14_17 
REMARK    9  A    between atoms: C15_18  and  C17_20 
REMARK   10  A    between atoms: C17_20  and  C18_21 
REMARK   11  A    between atoms: C22_25  and  C23_26 
REMARK   12  A    between atoms: C23_26  and  C26_29 
REMARK   13  A    between atoms: C26_29  and  O4_30 
REMARK   14  A    between atoms: C27_33  and  O6_34 
REMARK   15  A    between atoms: O6_34  and  C28_35 
REMARK   16  A    between atoms: C30_38  and  C31_39 
REMARK   17  A    between atoms: C34_42  and  O8_43 
ROOT
HETATM    1  C7  UNL     1      21.739  49.586   3.353  1.00  0.00     0.050 A 
HETATM    2  C8  UNL     1      21.832  48.507   2.515  1.00  0.00    -0.032 A 
HETATM    3  C9  UNL     1      23.144  47.812   2.387  1.00  0.00     0.050 C 
HETATM    4  C10 UNL     1      20.662  47.992   1.932  1.00  0.00     0.006 A 
HETATM    5  C27 UNL     1      19.434  48.583   2.228  1.00  0.00     0.099 A 
HETATM    6  C30 UNL     1      19.303  49.683   3.088  1.00  0.00     0.014 A 
HETATM    7  C34 UNL     1      20.473  50.179   3.646  1.00  0.00     0.089 A 
ENDROOT
BRANCH   4   8
HETATM    8  C11 UNL     1      20.777  46.851   1.028  1.00  0.00     0.021 C 
BRANCH   8   9
HETATM    9  C12 UNL     1      21.008  46.952  -0.408  1.00  0.00    -0.061 C 
HETATM   10  C13 UNL     1      22.406  47.042  -0.953  1.00  0.00     0.048 C 
BRANCH   9  11
HETATM   11  C14 UNL     1      20.159  47.783  -1.256  1.00  0.00     0.009 C 
HETATM   12  C15 UNL     1      19.626  47.554  -2.429  1.00  0.00    -0.080 C 
HETATM   13  C16 UNL     1      18.786  48.634  -3.040  1.00  0.00     0.043 C 
BRANCH  12  14
HETATM   14  C17 UNL     1      19.812  46.343  -3.207  1.00  0.00     0.071 C 
BRANCH  14  15
HETATM   15  C18 UNL     1      18.649  45.413  -3.361  1.00  0.00     0.061 C 
HETATM   16  C19 UNL     1      18.007  45.107  -2.000  1.00  0.00     0.046 C 
HETATM   17  C20 UNL     1      17.658  45.730  -4.406  1.00  0.00     0.040 C 
HETATM   18  C21 UNL     1      17.726  44.557  -5.384  1.00  0.00     0.036 C 
HETATM   19  C22 UNL     1      19.166  44.134  -5.136  1.00  0.00     0.132 C 
HETATM   20  O5  UNL     1      19.175  44.136  -3.743  1.00  0.00    -0.374 OA
BRANCH  19  21
HETATM   21  C23 UNL     1      19.505  42.791  -5.670  1.00  0.00    -0.000 C 
HETATM   22  C24 UNL     1      19.572  41.796  -4.512  1.00  0.00     0.020 C 
HETATM   23  C25 UNL     1      18.501  42.235  -6.638  1.00  0.00     0.020 C 
BRANCH  21  24
HETATM   24  C26 UNL     1      20.888  42.839  -6.320  1.00  0.00     0.175 C 
BRANCH  24  25
HETATM   25  O4  UNL     1      20.805  43.669  -7.451  1.00  0.00    -0.400 OA
ATOM     26  H4  UNL     1      21.354  43.294  -8.130  1.00  0.00     0.209 HD
ENDBRANCH  24  25
ENDBRANCH  21  24
ENDBRANCH  19  21
ENDBRANCH  14  15
ENDBRANCH  12  14
ENDBRANCH   9  11
ENDBRANCH   8   9
ENDBRANCH   4   8
BRANCH   5  27
HETATM   27  O6  UNL     1      18.240  48.124   1.693  1.00  0.00    -0.278 OA
BRANCH  27  28
HETATM   28  C28 UNL     1      17.624  46.980   2.109  1.00  0.00     0.260 C 
HETATM   29  C29 UNL     1      16.550  46.306   1.300  1.00  0.00     0.126 C 
HETATM   30  O7  UNL     1      17.901  46.392   3.198  1.00  0.00    -0.265 OA
ENDBRANCH  27  28
ENDBRANCH   5  27
BRANCH   1  31
HETATM   31  C6  UNL     1      22.937  50.198   3.928  1.00  0.00     0.163 C 
HETATM   32  O3  UNL     1      23.268  49.820   5.105  1.00  0.00    -0.292 OA
BRANCH  31  33
HETATM   33  C5  UNL     1      23.826  51.196   3.342  1.00  0.00     0.098 C 
BRANCH  33  34
HETATM   34  C3  UNL     1      25.289  50.870   3.375  1.00  0.00     0.088 C 
HETATM   35  C4  UNL     1      25.844  51.071   1.958  1.00  0.00     0.021 C 
BRANCH  34  36
HETATM   36  C2  UNL     1      25.933  51.914   4.242  1.00  0.00     0.262 C 
HETATM   37  O2  UNL     1      27.170  52.160   4.187  1.00  0.00    -0.265 OA
BRANCH  36  38
HETATM   38  O1  UNL     1      25.186  52.651   5.143  1.00  0.00    -0.326 OA
HETATM   39  C1  UNL     1      25.709  53.240   6.306  1.00  0.00     0.213 C 
ENDBRANCH  36  38
ENDBRANCH  34  36
ENDBRANCH  33  34
ENDBRANCH  31  33
ENDBRANCH   1  31
BRANCH   6  40
HETATM   40  C31 UNL     1      17.967  50.192   3.450  1.00  0.00     0.016 C 
HETATM   41  C32 UNL     1      17.758  51.665   3.405  1.00  0.00     0.015 C 
HETATM   42  C33 UNL     1      17.643  49.793   4.912  1.00  0.00     0.015 C 
ENDBRANCH   6  40
BRANCH   7  43
HETATM   43  O8  UNL     1      20.446  51.203   4.457  1.00  0.00    -0.359 OA
ATOM     44  H8  UNL     1      19.726  51.818   4.377  1.00  0.00     0.217 HD
ENDBRANCH   7  43
TORSDOF 17
ENDMDL
MODEL 2
REMARK VINA RESULT: -7.608496105      4.959     10.003
REMARK  17 active torsions:
REMARK  status: ('A' for Active; 'I' for Inactive)
REMARK    1  A    between atoms: O1_2  and  C2_3 
REMARK    2  A    between atoms: C2_3  and  C3_5 
REMARK    3  A    between atoms: C3_5  and  C5_7 
REMARK    4  A    between atoms: C5_7  and  C6_8 
REMARK    5  A    between atoms: C6_8  and  C7_10 
REMARK    6  A    between atoms: C10_13  and  C11_14 
REMARK    7  A    between atoms: C11_14  and  C12_15 
REMARK    8  A    between atoms: C12_15  and  C14_17 
REMARK    9  A    between atoms: C15_18  and  C17_20 
REMARK   10  A    between atoms: C17_20  and  C18_21 
REMARK   11  A    between atoms: C22_25  and  C23_26 
REMARK   12  A    between atoms: C23_26  and  C26_29 
REMARK   13  A    between atoms: C26_29  and  O4_30 
REMARK   14  A    between atoms: C27_33  and  O6_34 
REMARK   15  A    between atoms: O6_34  and  C28_35 
REMARK   16  A    between atoms: C30_38  and  C31_39 
REMARK   17  A    between atoms: C34_42  and  O8_43 
ROOT
HETATM    1  C7  UNL     1      17.937  43.837  -4.602  1.00  0.00     0.050 A 
HETATM    2  C8  UNL     1      18.611  44.992  -4.307  1.00  0.00    -0.032 A 
HETATM    3  C9  UNL     1      20.097  44.945  -4.197  1.00  0.00     0.050 C 
HETATM    4  C10 UNL     1      17.906  46.206  -4.275  1.00  0.00     0.006 A 
HETATM    5  C27 UNL     1      16.540  46.210  -4.558  1.00  0.00     0.099 A 
HETATM    6  C30 UNL     1      15.821  45.047  -4.872  1.00  0.00     0.014 A 
HETATM    7  C34 UNL     1      16.538  43.859  -4.889  1.00  0.00     0.089 A 
ENDROOT
BRANCH   4   8
HETATM    8  C11 UNL     1      18.633  47.428  -3.943  1.00  0.00     0.021 C 
BRANCH   8   9
HETATM    9  C12 UNL     1      18.732  47.994  -2.604  1.00  0.00    -0.061 C 
HETATM   10  C13 UNL     1      18.243  49.388  -2.324  1.00  0.00     0.048 C 
BRANCH   9  11
HETATM   11  C14 UNL     1      19.914  47.776  -1.774  1.00  0.00     0.009 C 
HETATM   12  C15 UNL     1      20.250  46.776  -1.001  1.00  0.00    -0.080 C 
HETATM   13  C16 UNL     1      21.558  46.860  -0.273  1.00  0.00     0.043 C 
BRANCH  12  14
HETATM   14  C17 UNL     1      19.438  45.596  -0.762  1.00  0.00     0.071 C 
BRANCH  14  15
HETATM   15  C18 UNL     1      18.378  45.666   0.293  1.00  0.00     0.061 C 
HETATM   16  C19 UNL     1      18.998  45.910   1.677  1.00  0.00     0.046 C 
HETATM   17  C20 UNL     1      17.208  46.523   0.027  1.00  0.00     0.040 C 
HETATM   18  C21 UNL     1      16.017  45.567  -0.004  1.00  0.00     0.036 C 
HETATM   19  C22 UNL     1      16.747  44.304  -0.439  1.00  0.00     0.132 C 
HETATM   20  O5  UNL     1      17.832  44.348   0.433  1.00  0.00    -0.374 OA
BRANCH  19  21
HETATM   21  C23 UNL     1      15.964  43.056  -0.254  1.00  0.00    -0.000 C 
HETATM   22  C24 UNL     1      14.853  43.311   0.764  1.00  0.00     0.020 C 
HETATM   23  C25 UNL     1      15.282  42.560  -1.496  1.00  0.00     0.020 C 
BRANCH  21  24
HETATM   24  C26 UNL     1      16.873  41.968   0.316  1.00  0.00     0.175 C 
BRANCH  24  25
HETATM   25  O4  UNL     1      17.593  41.403  -0.752  1.00  0.00    -0.400 OA
ATOM     26  H4  UNL     1      17.000  40.846  -1.242  1.00  0.00     0.209 HD
ENDBRANCH  24  25
ENDBRANCH  21  24
ENDBRANCH  19  21
ENDBRANCH  14  15
ENDBRANCH  12  14
ENDBRANCH   9  11
ENDBRANCH   8   9
ENDBRANCH   4   8
BRANCH   5  27
HETATM   27  O6  UNL     1      15.782  47.371  -4.551  1.00  0.00    -0.278 OA
BRANCH  27  28
HETATM   28  C28 UNL     1      15.121  47.827  -3.448  1.00  0.00     0.260 C 
HETATM   29  C29 UNL     1      14.763  49.277  -3.268  1.00  0.00     0.126 C 
HETATM   30  O7  UNL     1      14.754  47.079  -2.493  1.00  0.00    -0.265 OA
ENDBRANCH  27  28
ENDBRANCH   5  27
BRANCH   1  31
HETATM   31  C6  UNL     1      18.617  42.541  -4.578  1.00  0.00     0.163 C 
HETATM   32  O3  UNL     1      18.537  41.869  -3.492  1.00  0.00    -0.292 OA
BRANCH  31  33
HETATM   33  C5  UNL     1      19.387  41.894  -5.636  1.00  0.00     0.098 C 
BRANCH  33  34
HETATM   34  C3  UNL     1      19.178  42.432  -7.020  1.00  0.00     0.088 C 
HETATM   35  C4  UNL     1      20.349  43.373  -7.335  1.00  0.00     0.021 C 
BRANCH  34  36
HETATM   36  C2  UNL     1      19.304  41.260  -7.951  1.00  0.00     0.262 C 
HETATM   37  O2  UNL     1      19.660  40.118  -7.546  1.00  0.00    -0.265 OA
BRANCH  36  38
HETATM   38  O1  UNL     1      19.033  41.392  -9.300  1.00  0.00    -0.326 OA
HETATM   39  C1  UNL     1      19.371  40.433 -10.270  1.00  0.00     0.213 C 
ENDBRANCH  36  38
ENDBRANCH  34  36
ENDBRANCH  33  34
ENDBRANCH  31  33
ENDBRANCH   1  31
BRANCH   6  40
HETATM   40  C31 UNL     1      14.404  45.131  -5.272  1.00  0.00     0.016 C 
HETATM   41  C32 UNL     1      13.416  44.370  -4.460  1.00  0.00     0.015 C 
HETATM   42  C33 UNL     1      14.241  44.578  -6.710  1.00  0.00     0.015 C 
ENDBRANCH   6  40
BRANCH   7  43
HETATM   43  O8  UNL     1      15.950  42.726  -5.170  1.00  0.00    -0.359 OA
ATOM     44  H8  UNL     1      16.463  42.050  -5.599  1.00  0.00     0.217 HD
ENDBRANCH   7  43
TORSDOF 17
ENDMDL
MODEL 3
REMARK VINA RESULT: -7.535075810      1.611      2.226
REMARK  17 active torsions:
REMARK  status: ('A' for Active; 'I' for Inactive)
REMARK    1  A    between atoms: O1_2  and  C2_3 
REMARK    2  A    between atoms: C2_3  and  C3_5 
REMARK    3  A    between atoms: C3_5  and  C5_7 
REMARK    4  A    between atoms: C5_7  and  C6_8 
REMARK    5  A    between atoms: C6_8  and  C7_10 
REMARK    6  A    between atoms: C10_13  and  C11_14 
REMARK    7  A    between atoms: C11_14  and  C12_15 
REMARK    8  A    between atoms: C12_15  and  C14_17 
REMARK    9  A    between atoms: C15_18  and  C17_20 
REMARK   10  A    between atoms: C17_20  and  C18_21 
REMARK   11  A    between atoms: C22_25  and  C23_26 
REMARK   12  A    between atoms: C23_26  and  C26_29 
REMARK   13  A    between atoms: C26_29  and  O4_30 
REMARK   14  A    between atoms: C27_33  and  O6_34 
REMARK   15  A    between atoms: O6_34  and  C28_35 
REMARK   16  A    between atoms: C30_38  and  C31_39 
REMARK   17  A    between atoms: C34_42  and  O8_43 
ROOT
HETATM    1  C7  UNL     1      21.060  49.770   3.602  1.00  0.00     0.050 A 
HETATM    2  C8  UNL     1      21.404  48.711   2.805  1.00  0.00    -0.032 A 
HETATM    3  C9  UNL     1      22.804  48.201   2.859  1.00  0.00     0.050 C 
HETATM    4  C10 UNL     1      20.400  48.041   2.087  1.00  0.00     0.006 A 
HETATM    5  C27 UNL     1      19.076  48.460   2.213  1.00  0.00     0.099 A 
HETATM    6  C30 UNL     1      18.688  49.534   3.027  1.00  0.00     0.014 A 
HETATM    7  C34 UNL     1      19.699  50.186   3.719  1.00  0.00     0.089 A 
ENDROOT
BRANCH   4   8
HETATM    8  C11 UNL     1      20.783  46.925   1.228  1.00  0.00     0.021 C 
BRANCH   8   9
HETATM    9  C12 UNL     1      21.131  47.046  -0.182  1.00  0.00    -0.061 C 
HETATM   10  C13 UNL     1      22.562  47.237  -0.603  1.00  0.00     0.048 C 
BRANCH   9  11
HETATM   11  C14 UNL     1      20.302  47.817  -1.104  1.00  0.00     0.009 C 
HETATM   12  C15 UNL     1      19.782  47.501  -2.262  1.00  0.00    -0.080 C 
HETATM   13  C16 UNL     1      18.962  48.539  -2.968  1.00  0.00     0.043 C 
BRANCH  12  14
HETATM   14  C17 UNL     1      19.962  46.231  -2.940  1.00  0.00     0.071 C 
BRANCH  14  15
HETATM   15  C18 UNL     1      18.755  45.380  -3.186  1.00  0.00     0.061 C 
HETATM   16  C19 UNL     1      18.054  45.028  -1.865  1.00  0.00     0.046 C 
HETATM   17  C20 UNL     1      17.819  45.815  -4.238  1.00  0.00     0.040 C 
HETATM   18  C21 UNL     1      17.853  44.702  -5.284  1.00  0.00     0.036 C 
HETATM   19  C22 UNL     1      19.259  44.183  -5.021  1.00  0.00     0.132 C 
HETATM   20  O5  UNL     1      19.223  44.100  -3.631  1.00  0.00    -0.374 OA
BRANCH  19  21
HETATM   21  C23 UNL     1      19.541  42.858  -5.628  1.00  0.00    -0.000 C 
HETATM   22  C24 UNL     1      19.639  41.812  -4.518  1.00  0.00     0.020 C 
HETATM   23  C25 UNL     1      18.480  42.368  -6.570  1.00  0.00     0.020 C 
BRANCH  21  24
HETATM   24  C26 UNL     1      20.893  42.905  -6.340  1.00  0.00     0.175 C 
BRANCH  24  25
HETATM   25  O4  UNL     1      20.758  43.730  -7.471  1.00  0.00    -0.400 OA
ATOM     26  H4  UNL     1      20.650  43.170  -8.230  1.00  0.00     0.209 HD
ENDBRANCH  24  25
ENDBRANCH  21  24
ENDBRANCH  19  21
ENDBRANCH  14  15
ENDBRANCH  12  14
ENDBRANCH   9  11
ENDBRANCH   8   9
ENDBRANCH   4   8
BRANCH   5  27
HETATM   27  O6  UNL     1      18.033  47.842   1.540  1.00  0.00    -0.278 OA
BRANCH  27  28
HETATM   28  C28 UNL     1      17.418  46.710   1.991  1.00  0.00     0.260 C 
HETATM   29  C29 UNL     1      16.344  46.011   1.202  1.00  0.00     0.126 C 
HETATM   30  O7  UNL     1      17.696  46.155   3.095  1.00  0.00    -0.265 OA
ENDBRANCH  27  28
ENDBRANCH   5  27
BRANCH   1  31
HETATM   31  C6  UNL     1      22.081  50.541   4.313  1.00  0.00     0.163 C 
HETATM   32  O3  UNL     1      22.488  51.615   3.749  1.00  0.00    -0.292 OA
BRANCH  31  33
HETATM   33  C5  UNL     1      22.712  50.255   5.597  1.00  0.00     0.098 C 
BRANCH  33  34
HETATM   34  C3  UNL     1      21.836  49.605   6.626  1.00  0.00     0.088 C 
HETATM   35  C4  UNL     1      22.415  48.213   6.919  1.00  0.00     0.021 C 
BRANCH  34  36
HETATM   36  C2  UNL     1      21.995  50.411   7.884  1.00  0.00     0.262 C 
HETATM   37  O2  UNL     1      21.705  49.943   9.020  1.00  0.00    -0.265 OA
BRANCH  36  38
HETATM   38  O1  UNL     1      22.469  51.709   7.842  1.00  0.00    -0.326 OA
HETATM   39  C1  UNL     1      23.277  52.287   8.835  1.00  0.00     0.213 C 
ENDBRANCH  36  38
ENDBRANCH  34  36
ENDBRANCH  33  34
ENDBRANCH  31  33
ENDBRANCH   1  31
BRANCH   6  40
HETATM   40  C31 UNL     1      17.260  49.857   3.206  1.00  0.00     0.016 C 
HETATM   41  C32 UNL     1      16.848  51.275   3.020  1.00  0.00     0.015 C 
HETATM   42  C33 UNL     1      16.831  49.510   4.654  1.00  0.00     0.015 C 
ENDBRANCH   6  40
BRANCH   7  43
HETATM   43  O8  UNL     1      19.430  51.199   4.501  1.00  0.00    -0.359 OA
ATOM     44  H8  UNL     1      18.521  51.360   4.728  1.00  0.00     0.217 HD
ENDBRANCH   7  43
TORSDOF 17
ENDMDL
MODEL 4
REMARK VINA RESULT: -7.518045148      1.142      1.341
REMARK  17 active torsions:
REMARK  status: ('A' for Active; 'I' for Inactive)
REMARK    1  A    between atoms: O1_2  and  C2_3 
REMARK    2  A    between atoms: C2_3  and  C3_5 
REMARK    3  A    between atoms: C3_5  and  C5_7 
REMARK    4  A    between atoms: C5_7  and  C6_8 
REMARK    5  A    between atoms: C6_8  and  C7_10 
REMARK    6  A    between atoms: C10_13  and  C11_14 
REMARK    7  A    between atoms: C11_14  and  C12_15 
REMARK    8  A    between atoms: C12_15  and  C14_17 
REMARK    9  A    between atoms: C15_18  and  C17_20 
REMARK   10  A    between atoms: C17_20  and  C18_21 
REMARK   11  A    between atoms: C22_25  and  C23_26 
REMARK   12  A    between atoms: C23_26  and  C26_29 
REMARK   13  A    between atoms: C26_29  and  O4_30 
REMARK   14  A    between atoms: C27_33  and  O6_34 
REMARK   15  A    between atoms: O6_34  and  C28_35 
REMARK   16  A    between atoms: C30_38  and  C31_39 
REMARK   17  A    between atoms: C34_42  and  O8_43 
ROOT
HETATM    1  C7  UNL     1      22.035  49.370   3.142  1.00  0.00     0.050 A 
HETATM    2  C8  UNL     1      21.956  48.317   2.270  1.00  0.00    -0.032 A 
HETATM    3  C9  UNL     1      23.190  47.531   1.986  1.00  0.00     0.050 C 
HETATM    4  C10 UNL     1      20.696  47.912   1.799  1.00  0.00     0.006 A 
HETATM    5  C27 UNL     1      19.555  48.583   2.240  1.00  0.00     0.099 A 
HETATM    6  C30 UNL     1      19.599  49.658   3.138  1.00  0.00     0.014 A 
HETATM    7  C34 UNL     1      20.856  50.045   3.583  1.00  0.00     0.089 A 
ENDROOT
BRANCH   4   8
HETATM    8  C11 UNL     1      20.628  46.799   0.857  1.00  0.00     0.021 C 
BRANCH   8   9
HETATM    9  C12 UNL     1      20.738  46.931  -0.590  1.00  0.00    -0.061 C 
HETATM   10  C13 UNL     1      22.085  46.952  -1.257  1.00  0.00     0.048 C 
BRANCH   9  11
HETATM   11  C14 UNL     1      19.871  47.839  -1.336  1.00  0.00     0.009 C 
HETATM   12  C15 UNL     1      19.353  47.745  -2.534  1.00  0.00    -0.080 C 
HETATM   13  C16 UNL     1      18.488  48.871  -3.014  1.00  0.00     0.043 C 
BRANCH  12  14
HETATM   14  C17 UNL     1      19.576  46.646  -3.455  1.00  0.00     0.071 C 
BRANCH  14  15
HETATM   15  C18 UNL     1      18.526  45.584  -3.561  1.00  0.00     0.061 C 
HETATM   16  C19 UNL     1      18.065  45.129  -2.168  1.00  0.00     0.046 C 
HETATM   17  C20 UNL     1      17.406  45.825  -4.489  1.00  0.00     0.040 C 
HETATM   18  C21 UNL     1      17.520  44.722  -5.540  1.00  0.00     0.036 C 
HETATM   19  C22 UNL     1      19.019  44.474  -5.452  1.00  0.00     0.132 C 
HETATM   20  O5  UNL     1      19.165  44.406  -4.069  1.00  0.00    -0.374 OA
BRANCH  19  21
HETATM   21  C23 UNL     1      19.465  43.215  -6.100  1.00  0.00    -0.000 C 
HETATM   22  C24 UNL     1      18.238  42.373  -6.450  1.00  0.00     0.020 C 
HETATM   23  C25 UNL     1      20.217  43.408  -7.384  1.00  0.00     0.020 C 
BRANCH  21  24
HETATM   24  C26 UNL     1      20.311  42.411  -5.113  1.00  0.00     0.175 C 
BRANCH  24  25
HETATM   25  O4  UNL     1      19.437  41.664  -4.304  1.00  0.00    -0.400 OA
ATOM     26  H4  UNL     1      18.668  42.195  -4.136  1.00  0.00     0.209 HD
ENDBRANCH  24  25
ENDBRANCH  21  24
ENDBRANCH  19  21
ENDBRANCH  14  15
ENDBRANCH  12  14
ENDBRANCH   9  11
ENDBRANCH   8   9
ENDBRANCH   4   8
BRANCH   5  27
HETATM   27  O6  UNL     1      18.280  48.234   1.821  1.00  0.00    -0.278 OA
BRANCH  27  28
HETATM   28  C28 UNL     1      17.688  47.046   2.137  1.00  0.00     0.260 C 
HETATM   29  C29 UNL     1      16.761  46.334   1.189  1.00  0.00     0.126 C 
HETATM   30  O7  UNL     1      17.865  46.446   3.239  1.00  0.00    -0.265 OA
ENDBRANCH  27  28
ENDBRANCH   5  27
BRANCH   1  31
HETATM   31  C6  UNL     1      23.330  49.869   3.605  1.00  0.00     0.163 C 
HETATM   32  O3  UNL     1      23.630  49.645   4.829  1.00  0.00    -0.292 OA
BRANCH  31  33
HETATM   33  C5  UNL     1      24.348  50.601   2.857  1.00  0.00     0.098 C 
BRANCH  33  34
HETATM   34  C3  UNL     1      25.073  51.672   3.615  1.00  0.00     0.088 C 
HETATM   35  C4  UNL     1      26.479  51.801   3.010  1.00  0.00     0.021 C 
BRANCH  34  36
HETATM   36  C2  UNL     1      24.356  52.958   3.317  1.00  0.00     0.262 C 
HETATM   37  O2  UNL     1      24.903  53.895   2.671  1.00  0.00    -0.265 OA
BRANCH  36  38
HETATM   38  O1  UNL     1      23.058  53.164   3.746  1.00  0.00    -0.326 OA
HETATM   39  C1  UNL     1      22.504  54.429   4.003  1.00  0.00     0.213 C 
ENDBRANCH  36  38
ENDBRANCH  34  36
ENDBRANCH  33  34
ENDBRANCH  31  33
ENDBRANCH   1  31
BRANCH   6  40
HETATM   40  C31 UNL     1      18.352  50.253   3.653  1.00  0.00     0.016 C 
HETATM   41  C32 UNL     1      18.235  51.736   3.624  1.00  0.00     0.015 C 
HETATM   42  C33 UNL     1      18.178  49.873   5.145  1.00  0.00     0.015 C 
ENDBRANCH   6  40
BRANCH   7  43
HETATM   43  O8  UNL     1      20.993  51.039   4.421  1.00  0.00    -0.359 OA
ATOM     44  H8  UNL     1      20.434  51.799   4.308  1.00  0.00     0.217 HD
ENDBRANCH   7  43
TORSDOF 17
ENDMDL
MODEL 5
REMARK VINA RESULT: -7.398436846      1.099      1.251
REMARK  17 active torsions:
REMARK  status: ('A' for Active; 'I' for Inactive)
REMARK    1  A    between atoms: O1_2  and  C2_3 
REMARK    2  A    between atoms: C2_3  and  C3_5 
REMARK    3  A    between atoms: C3_5  and  C5_7 
REMARK    4  A    between atoms: C5_7  and  C6_8 
REMARK    5  A    between atoms: C6_8  and  C7_10 
REMARK    6  A    between atoms: C10_13  and  C11_14 
REMARK    7  A    between atoms: C11_14  and  C12_15 
REMARK    8  A    between atoms: C12_15  and  C14_17 
REMARK    9  A    between atoms: C15_18  and  C17_20 
REMARK   10  A    between atoms: C17_20  and  C18_21 
REMARK   11  A    between atoms: C22_25  and  C23_26 
REMARK   12  A    between atoms: C23_26  and  C26_29 
REMARK   13  A    between atoms: C26_29  and  O4_30 
REMARK   14  A    between atoms: C27_33  and  O6_34 
REMARK   15  A    between atoms: O6_34  and  C28_35 
REMARK   16  A    between atoms: C30_38  and  C31_39 
REMARK   17  A    between atoms: C34_42  and  O8_43 
ROOT
HETATM    1  C7  UNL     1      22.272  49.245   2.871  1.00  0.00     0.050 A 
HETATM    2  C8  UNL     1      22.064  48.206   2.003  1.00  0.00    -0.032 A 
HETATM    3  C9  UNL     1      23.242  47.432   1.519  1.00  0.00     0.050 C 
HETATM    4  C10 UNL     1      20.748  47.801   1.724  1.00  0.00     0.006 A 
HETATM    5  C27 UNL     1      19.685  48.456   2.345  1.00  0.00     0.099 A 
HETATM    6  C30 UNL     1      19.863  49.518   3.244  1.00  0.00     0.014 A 
HETATM    7  C34 UNL     1      21.172  49.905   3.498  1.00  0.00     0.089 A 
ENDROOT
BRANCH   4   8
HETATM    8  C11 UNL     1      20.541  46.703   0.784  1.00  0.00     0.021 C 
BRANCH   8   9
HETATM    9  C12 UNL     1      20.681  46.813  -0.663  1.00  0.00    -0.061 C 
HETATM   10  C13 UNL     1      22.035  46.721  -1.309  1.00  0.00     0.048 C 
BRANCH   9  11
HETATM   11  C14 UNL     1      19.900  47.780  -1.428  1.00  0.00     0.009 C 
HETATM   12  C15 UNL     1      19.370  47.706  -2.622  1.00  0.00    -0.080 C 
HETATM   13  C16 UNL     1      18.611  48.897  -3.128  1.00  0.00     0.043 C 
BRANCH  12  14
HETATM   14  C17 UNL     1      19.487  46.570  -3.518  1.00  0.00     0.071 C 
BRANCH  14  15
HETATM   15  C18 UNL     1      18.367  45.578  -3.556  1.00  0.00     0.061 C 
HETATM   16  C19 UNL     1      17.987  45.126  -2.137  1.00  0.00     0.046 C 
HETATM   17  C20 UNL     1      17.195  45.905  -4.389  1.00  0.00     0.040 C 
HETATM   18  C21 UNL     1      17.156  44.817  -5.461  1.00  0.00     0.036 C 
HETATM   19  C22 UNL     1      18.639  44.475  -5.495  1.00  0.00     0.132 C 
HETATM   20  O5  UNL     1      18.888  44.372  -4.129  1.00  0.00    -0.374 OA
BRANCH  19  21
HETATM   21  C23 UNL     1      18.953  43.203  -6.193  1.00  0.00    -0.000 C 
HETATM   22  C24 UNL     1      19.463  42.187  -5.171  1.00  0.00     0.020 C 
HETATM   23  C25 UNL     1      17.778  42.558  -6.869  1.00  0.00     0.020 C 
BRANCH  21  24
HETATM   24  C26 UNL     1      20.073  43.443  -7.204  1.00  0.00     0.175 C 
BRANCH  24  25
HETATM   25  O4  UNL     1      21.276  42.996  -6.631  1.00  0.00    -0.400 OA
ATOM     26  H4  UNL     1      21.945  43.645  -6.812  1.00  0.00     0.209 HD
ENDBRANCH  24  25
ENDBRANCH  21  24
ENDBRANCH  19  21
ENDBRANCH  14  15
ENDBRANCH  12  14
ENDBRANCH   9  11
ENDBRANCH   8   9
ENDBRANCH   4   8
BRANCH   5  27
HETATM   27  O6  UNL     1      18.363  48.106   2.120  1.00  0.00    -0.278 OA
BRANCH  27  28
HETATM   28  C28 UNL     1      17.646  48.540   1.043  1.00  0.00     0.260 C 
HETATM   29  C29 UNL     1      16.659  47.659   0.328  1.00  0.00     0.126 C 
HETATM   30  O7  UNL     1      17.747  49.707   0.560  1.00  0.00    -0.265 OA
ENDBRANCH  27  28
ENDBRANCH   5  27
BRANCH   1  31
HETATM   31  C6  UNL     1      23.620  49.745   3.138  1.00  0.00     0.163 C 
HETATM   32  O3  UNL     1      24.118  49.472   4.285  1.00  0.00    -0.292 OA
BRANCH  31  33
HETATM   33  C5  UNL     1      24.495  50.525   2.268  1.00  0.00     0.098 C 
BRANCH  33  34
HETATM   34  C3  UNL     1      25.480  51.417   2.962  1.00  0.00     0.088 C 
HETATM   35  C4  UNL     1      26.623  51.704   1.977  1.00  0.00     0.021 C 
BRANCH  34  36
HETATM   36  C2  UNL     1      24.775  52.722   3.196  1.00  0.00     0.262 C 
HETATM   37  O2  UNL     1      25.015  53.747   2.499  1.00  0.00    -0.265 OA
BRANCH  36  38
HETATM   38  O1  UNL     1      23.827  52.849   4.195  1.00  0.00    -0.326 OA
HETATM   39  C1  UNL     1      24.119  52.806   5.569  1.00  0.00     0.213 C 
ENDBRANCH  36  38
ENDBRANCH  34  36
ENDBRANCH  33  34
ENDBRANCH  31  33
ENDBRANCH   1  31
BRANCH   6  40
HETATM   40  C31 UNL     1      18.707  50.095   3.954  1.00  0.00     0.016 C 
HETATM   41  C32 UNL     1      18.389  51.527   3.699  1.00  0.00     0.015 C 
HETATM   42  C33 UNL     1      18.947  50.012   5.483  1.00  0.00     0.015 C 
ENDBRANCH   6  40
BRANCH   7  43
HETATM   43  O8  UNL     1      21.431  50.886   4.322  1.00  0.00    -0.359 OA
ATOM     44  H8  UNL     1      21.010  51.724   4.167  1.00  0.00     0.217 HD
ENDBRANCH   7  43
TORSDOF 17
ENDMDL
