MODEL 1
REMARK VINA RESULT: -8.444259431      0.000      0.000
REMARK  6 active torsions:
REMARK  status: ('A' for Active; 'I' for Inactive)
REMARK    1  A    between atoms: C2_2  and  C3_3 
REMARK    2  A    between atoms: C3_3  and  N1_5 
REMARK    3  A    between atoms: C8_9  and  O1_10 
REMARK    4  A    between atoms: C9_12  and  C10_13 
REMARK    5  A    between atoms: C10_13  and  O3_15 
REMARK    6  A    between atoms: O3_15  and  C11_16 
ROOT
HETATM    1  N1  UNL     1     -17.210 -11.387  12.670  1.00  0.00    -0.351 N 
HETATM    2  C5  UNL     1     -16.181 -10.876  11.919  1.00  0.00     0.092 A 
HETATM    3  C6  UNL     1     -16.166 -11.430  10.679  1.00  0.00     0.034 A 
HETATM    4  C7  UNL     1     -17.212 -12.316  10.641  1.00  0.00     0.027 A 
HETATM    5  C8  UNL     1     -17.680 -13.154   9.658  1.00  0.00     0.096 A 
HETATM    6  C9  UNL     1     -18.774 -13.952   9.898  1.00  0.00     0.094 A 
HETATM    7  C20 UNL     1     -19.389 -13.902  11.126  1.00  0.00     0.071 A 
HETATM    8  C21 UNL     1     -20.544 -14.729  11.418  1.00  0.00     0.101 C 
HETATM    9  N3  UNL     1     -21.478 -15.388  11.676  1.00  0.00    -0.191 NA
HETATM   10  C22 UNL     1     -18.936 -13.059  12.149  1.00  0.00    -0.012 A 
HETATM   11  C23 UNL     1     -19.605 -13.015  13.459  1.00  0.00     0.052 C 
HETATM   12  C24 UNL     1     -17.844 -12.269  11.893  1.00  0.00     0.055 A 
ENDROOT
BRANCH   6  13
HETATM   13  C10 UNL     1     -19.239 -14.821   8.841  1.00  0.00     0.298 C 
HETATM   14  O2  UNL     1     -20.016 -14.380   7.933  1.00  0.00    -0.259 OA
BRANCH  13  15
HETATM   15  O3  UNL     1     -18.886 -16.129   8.751  1.00  0.00    -0.312 OA
BRANCH  15  16
HETATM   16  C11 UNL     1     -19.739 -17.224   9.092  1.00  0.00     0.137 C 
HETATM   17  C12 UNL     1     -19.134 -17.986  10.271  1.00  0.00     0.062 C 
HETATM   18  C13 UNL     1     -20.087 -19.169  10.477  1.00  0.00     0.021 C 
HETATM   19  C14 UNL     1     -19.666 -19.828  11.776  1.00  0.00     0.037 C 
HETATM   20  C15 UNL     1     -21.515 -18.701  10.625  1.00  0.00     0.037 C 
HETATM   21  N2  UNL     1     -19.879 -20.071   9.410  1.00  0.00    -0.405 N 
HETATM   22  C16 UNL     1     -19.817 -19.547   8.108  1.00  0.00     0.021 C 
ATOM     23  H2  UNL     1     -19.778 -21.071   9.580  1.00  0.00     0.154 HD
HETATM   24  C17 UNL     1     -20.812 -20.331   7.237  1.00  0.00     0.037 C 
HETATM   25  C18 UNL     1     -18.444 -19.896   7.535  1.00  0.00     0.037 C 
HETATM   26  C19 UNL     1     -20.035 -18.094   7.931  1.00  0.00     0.062 C 
ENDBRANCH  15  16
ENDBRANCH  13  15
ENDBRANCH   6  13
BRANCH   5  27
HETATM   27  O1  UNL     1     -17.046 -13.186   8.434  1.00  0.00    -0.359 OA
ATOM     28  H1  UNL     1     -16.863 -14.024   8.025  1.00  0.00     0.217 HD
ENDBRANCH   5  27
BRANCH   1  29
HETATM   29  C3  UNL     1     -17.415 -10.947  14.000  1.00  0.00     0.085 C 
HETATM   30  C4  UNL     1     -16.177 -11.330  14.865  1.00  0.00     0.033 C 
BRANCH  29  31
HETATM   31  C2  UNL     1     -17.284  -9.404  13.970  1.00  0.00     0.021 C 
HETATM   32  C1  UNL     1     -18.472  -8.745  14.586  1.00  0.00     0.007 C 
ENDBRANCH  29  31
ENDBRANCH   1  29
TORSDOF 6
ENDMDL
MODEL 2
REMARK VINA RESULT: -7.921903868      0.696      1.979
REMARK  6 active torsions:
REMARK  status: ('A' for Active; 'I' for Inactive)
REMARK    1  A    between atoms: C2_2  and  C3_3 
REMARK    2  A    between atoms: C3_3  and  N1_5 
REMARK    3  A    between atoms: C8_9  and  O1_10 
REMARK    4  A    between atoms: C9_12  and  C10_13 
REMARK    5  A    between atoms: C10_13  and  O3_15 
REMARK    6  A    between atoms: O3_15  and  C11_16 
ROOT
HETATM    1  N1  UNL     1     -17.246 -11.511  12.644  1.00  0.00    -0.351 N 
HETATM    2  C5  UNL     1     -16.239 -11.045  11.836  1.00  0.00     0.092 A 
HETATM    3  C6  UNL     1     -16.312 -11.606  10.601  1.00  0.00     0.034 A 
HETATM    4  C7  UNL     1     -17.394 -12.449  10.625  1.00  0.00     0.027 A 
HETATM    5  C8  UNL     1     -17.947 -13.272   9.674  1.00  0.00     0.096 A 
HETATM    6  C9  UNL     1     -19.057 -14.025   9.977  1.00  0.00     0.094 A 
HETATM    7  C20 UNL     1     -19.604 -13.944  11.235  1.00  0.00     0.071 A 
HETATM    8  C21 UNL     1     -20.774 -14.722  11.594  1.00  0.00     0.101 C 
HETATM    9  N3  UNL     1     -21.718 -15.341  11.905  1.00  0.00    -0.191 NA
HETATM   10  C22 UNL     1     -19.064 -13.115  12.227  1.00  0.00    -0.012 A 
HETATM   11  C23 UNL     1     -19.660 -13.037  13.570  1.00  0.00     0.052 C 
HETATM   12  C24 UNL     1     -17.956 -12.371  11.908  1.00  0.00     0.055 A 
ENDROOT
BRANCH   6  13
HETATM   13  C10 UNL     1     -19.612 -14.880   8.952  1.00  0.00     0.298 C 
HETATM   14  O2  UNL     1     -19.748 -14.457   7.758  1.00  0.00    -0.259 OA
BRANCH  13  15
HETATM   15  O3  UNL     1     -20.013 -16.154   9.192  1.00  0.00    -0.312 OA
BRANCH  15  16
HETATM   16  C11 UNL     1     -19.259 -17.319   8.847  1.00  0.00     0.137 C 
HETATM   17  C12 UNL     1     -20.192 -18.357   8.225  1.00  0.00     0.062 C 
HETATM   18  C13 UNL     1     -19.290 -19.572   7.985  1.00  0.00     0.021 C 
HETATM   19  C14 UNL     1     -20.106 -20.547   7.159  1.00  0.00     0.037 C 
HETATM   20  C15 UNL     1     -18.063 -19.192   7.191  1.00  0.00     0.037 C 
HETATM   21  N2  UNL     1     -19.011 -20.149   9.243  1.00  0.00    -0.405 N 
HETATM   22  C16 UNL     1     -18.629 -19.292  10.290  1.00  0.00     0.021 C 
ATOM     23  H2  UNL     1     -19.085 -21.156   9.389  1.00  0.00     0.154 HD
HETATM   24  C17 UNL     1     -17.321 -19.834  10.888  1.00  0.00     0.037 C 
HETATM   25  C18 UNL     1     -19.658 -19.444  11.410  1.00  0.00     0.037 C 
HETATM   26  C19 UNL     1     -18.483 -17.850   9.990  1.00  0.00     0.062 C 
ENDBRANCH  15  16
ENDBRANCH  13  15
ENDBRANCH   6  13
BRANCH   5  27
HETATM   27  O1  UNL     1     -17.380 -13.337   8.419  1.00  0.00    -0.359 OA
ATOM     28  H1  UNL     1     -17.941 -13.342   7.652  1.00  0.00     0.217 HD
ENDBRANCH   5  27
BRANCH   1  29
HETATM   29  C3  UNL     1     -17.363 -11.057  13.980  1.00  0.00     0.085 C 
HETATM   30  C4  UNL     1     -16.035 -11.350  14.741  1.00  0.00     0.033 C 
BRANCH  29  31
HETATM   31  C2  UNL     1     -17.326  -9.509  13.915  1.00  0.00     0.021 C 
HETATM   32  C1  UNL     1     -18.471  -8.906  14.657  1.00  0.00     0.007 C 
ENDBRANCH  29  31
ENDBRANCH   1  29
TORSDOF 6
ENDMDL
MODEL 3
REMARK VINA RESULT: -7.839309593      0.846      1.854
REMARK  6 active torsions:
REMARK  status: ('A' for Active; 'I' for Inactive)
REMARK    1  A    between atoms: C2_2  and  C3_3 
REMARK    2  A    between atoms: C3_3  and  N1_5 
REMARK    3  A    between atoms: C8_9  and  O1_10 
REMARK    4  A    between atoms: C9_12  and  C10_13 
REMARK    5  A    between atoms: C10_13  and  O3_15 
REMARK    6  A    between atoms: O3_15  and  C11_16 
ROOT
HETATM    1  N1  UNL     1     -17.282 -11.602  12.636  1.00  0.00    -0.351 N 
HETATM    2  C5  UNL     1     -16.281 -11.177  11.798  1.00  0.00     0.092 A 
HETATM    3  C6  UNL     1     -16.404 -11.749  10.571  1.00  0.00     0.034 A 
HETATM    4  C7  UNL     1     -17.510 -12.558  10.633  1.00  0.00     0.027 A 
HETATM    5  C8  UNL     1     -18.113 -13.374   9.707  1.00  0.00     0.096 A 
HETATM    6  C9  UNL     1     -19.238 -14.087  10.047  1.00  0.00     0.094 A 
HETATM    7  C20 UNL     1     -19.750 -13.975  11.317  1.00  0.00     0.071 A 
HETATM    8  C21 UNL     1     -20.934 -14.711  11.714  1.00  0.00     0.101 C 
HETATM    9  N3  UNL     1     -21.889 -15.296  12.057  1.00  0.00    -0.191 NA
HETATM   10  C22 UNL     1     -19.159 -13.152  12.285  1.00  0.00    -0.012 A 
HETATM   11  C23 UNL     1     -19.718 -13.040  13.641  1.00  0.00     0.052 C 
HETATM   12  C24 UNL     1     -18.037 -12.447  11.929  1.00  0.00     0.055 A 
ENDROOT
BRANCH   6  13
HETATM   13  C10 UNL     1     -19.846 -14.935   9.047  1.00  0.00     0.298 C 
HETATM   14  O2  UNL     1     -19.941 -14.547   7.837  1.00  0.00    -0.259 OA
BRANCH  13  15
HETATM   15  O3  UNL     1     -20.340 -16.169   9.326  1.00  0.00    -0.312 OA
BRANCH  15  16
HETATM   16  C11 UNL     1     -19.539 -17.309   9.647  1.00  0.00     0.137 C 
HETATM   17  C12 UNL     1     -19.191 -18.058   8.361  1.00  0.00     0.062 C 
HETATM   18  C13 UNL     1     -18.416 -19.288   8.846  1.00  0.00     0.021 C 
HETATM   19  C14 UNL     1     -17.849 -19.945   7.603  1.00  0.00     0.037 C 
HETATM   20  C15 UNL     1     -17.265 -18.892   9.739  1.00  0.00     0.037 C 
HETATM   21  N2  UNL     1     -19.346 -20.164   9.450  1.00  0.00    -0.405 N 
HETATM   22  C16 UNL     1     -20.270 -19.618  10.358  1.00  0.00     0.021 C 
ATOM     23  H2  UNL     1     -19.346 -21.160   9.235  1.00  0.00     0.154 HD
HETATM   24  C17 UNL     1     -20.193 -20.436  11.657  1.00  0.00     0.037 C 
HETATM   25  C18 UNL     1     -21.670 -19.892   9.811  1.00  0.00     0.037 C 
HETATM   26  C19 UNL     1     -20.170 -18.175  10.669  1.00  0.00     0.062 C 
ENDBRANCH  15  16
ENDBRANCH  13  15
ENDBRANCH   6  13
BRANCH   5  27
HETATM   27  O1  UNL     1     -17.581 -13.470   8.438  1.00  0.00    -0.359 OA
ATOM     28  H1  UNL     1     -18.160 -13.604   7.697  1.00  0.00     0.217 HD
ENDBRANCH   5  27
BRANCH   1  29
HETATM   29  C3  UNL     1     -17.350 -11.128  13.969  1.00  0.00     0.085 C 
HETATM   30  C4  UNL     1     -15.978 -11.363  14.669  1.00  0.00     0.033 C 
BRANCH  29  31
HETATM   31  C2  UNL     1     -17.370  -9.582  13.879  1.00  0.00     0.021 C 
HETATM   32  C1  UNL     1     -18.495  -9.005  14.671  1.00  0.00     0.007 C 
ENDBRANCH  29  31
ENDBRANCH   1  29
TORSDOF 6
ENDMDL
MODEL 4
REMARK VINA RESULT: -7.249722984      5.151      7.336
REMARK  6 active torsions:
REMARK  status: ('A' for Active; 'I' for Inactive)
REMARK    1  A    between atoms: C2_2  and  C3_3 
REMARK    2  A    between atoms: C3_3  and  N1_5 
REMARK    3  A    between atoms: C8_9  and  O1_10 
REMARK    4  A    between atoms: C9_12  and  C10_13 
REMARK    5  A    between atoms: C10_13  and  O3_15 
REMARK    6  A    between atoms: O3_15  and  C11_16 
ROOT
HETATM    1  N1  UNL     1     -19.356 -13.976  11.090  1.00  0.00    -0.351 N 
HETATM    2  C5  UNL     1     -19.284 -12.941  11.988  1.00  0.00     0.092 A 
HETATM    3  C6  UNL     1     -20.181 -13.112  12.994  1.00  0.00     0.034 A 
HETATM    4  C7  UNL     1     -20.840 -14.285  12.727  1.00  0.00     0.027 A 
HETATM    5  C8  UNL     1     -21.840 -14.955  13.388  1.00  0.00     0.096 A 
HETATM    6  C9  UNL     1     -22.324 -16.140  12.883  1.00  0.00     0.094 A 
HETATM    7  C20 UNL     1     -21.798 -16.641  11.717  1.00  0.00     0.071 A 
HETATM    8  C21 UNL     1     -22.282 -17.886  11.152  1.00  0.00     0.101 C 
HETATM    9  N3  UNL     1     -22.658 -18.889  10.678  1.00  0.00    -0.191 NA
HETATM   10  C22 UNL     1     -20.778 -15.981  11.019  1.00  0.00    -0.012 A 
HETATM   11  C23 UNL     1     -20.224 -16.530   9.771  1.00  0.00     0.052 C 
HETATM   12  C24 UNL     1     -20.306 -14.801  11.536  1.00  0.00     0.055 A 
ENDROOT
BRANCH   6  13
HETATM   13  C10 UNL     1     -23.377 -16.818  13.605  1.00  0.00     0.298 C 
HETATM   14  O2  UNL     1     -24.470 -17.121  13.025  1.00  0.00    -0.259 OA
BRANCH  13  15
HETATM   15  O3  UNL     1     -23.269 -17.167  14.912  1.00  0.00    -0.312 OA
BRANCH  15  16
HETATM   16  C11 UNL     1     -24.275 -16.932  15.900  1.00  0.00     0.137 C 
HETATM   17  C12 UNL     1     -23.605 -16.627  17.239  1.00  0.00     0.062 C 
HETATM   18  C13 UNL     1     -24.777 -16.482  18.216  1.00  0.00     0.021 C 
HETATM   19  C14 UNL     1     -24.185 -15.952  19.508  1.00  0.00     0.037 C 
HETATM   20  C15 UNL     1     -25.788 -15.480  17.713  1.00  0.00     0.037 C 
HETATM   21  N2  UNL     1     -25.302 -17.774  18.442  1.00  0.00    -0.405 N 
HETATM   22  C16 UNL     1     -25.526 -18.597  17.325  1.00  0.00     0.021 C 
ATOM     23  H2  UNL     1     -25.512 -18.098  19.386  1.00  0.00     0.154 HD
HETATM   24  C17 UNL     1     -26.977 -19.102  17.396  1.00  0.00     0.037 C 
HETATM   25  C18 UNL     1     -24.672 -19.852  17.499  1.00  0.00     0.037 C 
HETATM   26  C19 UNL     1     -25.257 -18.037  15.983  1.00  0.00     0.062 C 
ENDBRANCH  15  16
ENDBRANCH  13  15
ENDBRANCH   6  13
BRANCH   5  27
HETATM   27  O1  UNL     1     -22.352 -14.433  14.556  1.00  0.00    -0.359 OA
ATOM     28  H1  UNL     1     -23.012 -13.751  14.514  1.00  0.00     0.217 HD
ENDBRANCH   5  27
BRANCH   1  29
HETATM   29  C3  UNL     1     -18.505 -14.004   9.957  1.00  0.00     0.085 C 
HETATM   30  C4  UNL     1     -19.303 -13.541   8.702  1.00  0.00     0.033 C 
BRANCH  29  31
HETATM   31  C2  UNL     1     -17.519 -12.821  10.128  1.00  0.00     0.021 C 
HETATM   32  C1  UNL     1     -16.782 -12.539   8.862  1.00  0.00     0.007 C 
ENDBRANCH  29  31
ENDBRANCH   1  29
TORSDOF 6
ENDMDL
MODEL 5
REMARK VINA RESULT: -7.068223124      3.736      6.068
REMARK  6 active torsions:
REMARK  status: ('A' for Active; 'I' for Inactive)
REMARK    1  A    between atoms: C2_2  and  C3_3 
REMARK    2  A    between atoms: C3_3  and  N1_5 
REMARK    3  A    between atoms: C8_9  and  O1_10 
REMARK    4  A    between atoms: C9_12  and  C10_13 
REMARK    5  A    between atoms: C10_13  and  O3_15 
REMARK    6  A    between atoms: O3_15  and  C11_16 
ROOT
HETATM    1  N1  UNL     1     -19.526 -14.242  10.639  1.00  0.00    -0.351 N 
HETATM    2  C5  UNL     1     -19.508 -13.169  11.496  1.00  0.00     0.092 A 
HETATM    3  C6  UNL     1     -20.356 -13.369  12.538  1.00  0.00     0.034 A 
HETATM    4  C7  UNL     1     -20.927 -14.600  12.338  1.00  0.00     0.027 A 
HETATM    5  C8  UNL     1     -21.849 -15.321  13.058  1.00  0.00     0.096 A 
HETATM    6  C9  UNL     1     -22.253 -16.559  12.615  1.00  0.00     0.094 A 
HETATM    7  C20 UNL     1     -21.726 -17.063  11.450  1.00  0.00     0.071 A 
HETATM    8  C21 UNL     1     -22.126 -18.364  10.950  1.00  0.00     0.101 C 
HETATM    9  N3  UNL     1     -22.436 -19.411  10.527  1.00  0.00    -0.191 NA
HETATM   10  C22 UNL     1     -20.785 -16.353  10.693  1.00  0.00    -0.012 A 
HETATM   11  C23 UNL     1     -20.228 -16.906   9.448  1.00  0.00     0.052 C 
HETATM   12  C24 UNL     1     -20.392 -15.120  11.149  1.00  0.00     0.055 A 
ENDROOT
BRANCH   6  13
HETATM   13  C10 UNL     1     -23.224 -17.289  13.397  1.00  0.00     0.298 C 
HETATM   14  O2  UNL     1     -24.454 -17.294  13.064  1.00  0.00    -0.259 OA
BRANCH  13  15
HETATM   15  O3  UNL     1     -22.895 -17.997  14.507  1.00  0.00    -0.312 OA
BRANCH  15  16
HETATM   16  C11 UNL     1     -22.399 -19.338  14.496  1.00  0.00     0.137 C 
HETATM   17  C12 UNL     1     -22.791 -20.032  15.799  1.00  0.00     0.062 C 
HETATM   18  C13 UNL     1     -22.133 -21.412  15.698  1.00  0.00     0.021 C 
HETATM   19  C14 UNL     1     -22.679 -22.225  16.856  1.00  0.00     0.037 C 
HETATM   20  C15 UNL     1     -22.513 -22.106  14.412  1.00  0.00     0.037 C 
HETATM   21  N2  UNL     1     -20.743 -21.233  15.872  1.00  0.00    -0.405 N 
HETATM   22  C16 UNL     1     -20.119 -20.196  15.156  1.00  0.00     0.021 C 
ATOM     23  H2  UNL     1     -20.209 -21.836  16.497  1.00  0.00     0.154 HD
HETATM   24  C17 UNL     1     -18.919 -20.797  14.407  1.00  0.00     0.037 C 
HETATM   25  C18 UNL     1     -19.499 -19.241  16.176  1.00  0.00     0.037 C 
HETATM   26  C19 UNL     1     -20.945 -19.401  14.222  1.00  0.00     0.062 C 
ENDBRANCH  15  16
ENDBRANCH  13  15
ENDBRANCH   6  13
BRANCH   5  27
HETATM   27  O1  UNL     1     -22.364 -14.794  14.223  1.00  0.00    -0.359 OA
ATOM     28  H1  UNL     1     -21.934 -14.979  15.050  1.00  0.00     0.217 HD
ENDBRANCH   5  27
BRANCH   1  29
HETATM   29  C3  UNL     1     -18.712 -14.247   9.480  1.00  0.00     0.085 C 
HETATM   30  C4  UNL     1     -19.602 -14.004   8.225  1.00  0.00     0.033 C 
BRANCH  29  31
HETATM   31  C2  UNL     1     -17.896 -12.931   9.518  1.00  0.00     0.021 C 
HETATM   32  C1  UNL     1     -16.443 -13.197   9.731  1.00  0.00     0.007 C 
ENDBRANCH  29  31
ENDBRANCH   1  29
TORSDOF 6
ENDMDL
