MODEL 1
REMARK VINA RESULT: -8.847596521      0.000      0.000
REMARK  14 active torsions:
REMARK  status: ('A' for Active; 'I' for Inactive)
REMARK    1  A    between atoms: C2_2  and  C3_3 
REMARK    2  A    between atoms: C3_3  and  C4_4 
REMARK    3  A    between atoms: C4_4  and  C5_5 
REMARK    4  A    between atoms: C5_5  and  O2_7 
REMARK    5  A    between atoms: O2_7  and  C6_8 
REMARK    6  A    between atoms: C9_11  and  C10_12 
REMARK    7  A    between atoms: C10_12  and  C11_13 
REMARK    8  A    between atoms: C11_13  and  C12_14 
REMARK    9  A    between atoms: C12_14  and  O3_15 
REMARK   10  A    between atoms: O3_15  and  C13_16 
REMARK   11  A    between atoms: C13_16  and  C14_18 
REMARK   12  A    between atoms: C22_26  and  O5_27 
REMARK   13  A    between atoms: C24_30  and  O6_31 
REMARK   14  A    between atoms: O6_31  and  C25_32 
ROOT
HETATM    1  C6  UNL     1     -13.018  16.494  -9.271  1.00  0.00     0.143 C 
HETATM    2  C7  UNL     1     -12.492  17.142  -8.012  1.00  0.00     0.039 C 
HETATM    3  C8  UNL     1     -11.312  16.407  -7.445  1.00  0.00    -0.003 C 
HETATM    4  C9  UNL     1     -10.127  17.317  -7.270  1.00  0.00    -0.010 C 
HETATM    5  C16 UNL     1      -9.141  16.966  -8.312  1.00  0.00     0.005 C 
HETATM    6  C17 UNL     1      -9.679  15.746  -9.013  1.00  0.00     0.006 C 
HETATM    7  C18 UNL     1     -10.833  15.254  -8.208  1.00  0.00    -0.001 C 
HETATM    8  C19 UNL     1     -11.825  14.422  -8.937  1.00  0.00    -0.026 C 
HETATM    9  C20 UNL     1     -11.249  14.174 -10.322  1.00  0.00     0.016 C 
HETATM   10  C21 UNL     1     -11.940  13.030  -8.337  1.00  0.00     0.042 C 
HETATM   11  C22 UNL     1     -12.882  12.164  -9.112  1.00  0.00     0.121 C 
HETATM   12  C23 UNL     1     -14.108  12.833  -9.572  1.00  0.00     0.065 C 
HETATM   13  C24 UNL     1     -13.926  14.263 -10.103  1.00  0.00     0.145 C 
HETATM   14  C27 UNL     1     -13.218  15.030  -9.033  1.00  0.00     0.017 C 
HETATM   15  C28 UNL     1     -14.023  14.814  -7.781  1.00  0.00     0.021 C 
ENDROOT
BRANCH   4  16
HETATM   16  C10 UNL     1      -9.508  17.023  -5.902  1.00  0.00     0.007 C 
BRANCH  16  17
HETATM   17  C11 UNL     1     -10.511  16.609  -4.873  1.00  0.00     0.027 C 
BRANCH  17  18
HETATM   18  C12 UNL     1     -10.325  15.137  -4.598  1.00  0.00     0.178 C 
BRANCH  18  19
HETATM   19  O3  UNL     1     -10.239  14.845  -3.262  1.00  0.00    -0.321 OA
BRANCH  19  20
HETATM   20  C13 UNL     1      -9.495  13.836  -2.718  1.00  0.00     0.258 C 
HETATM   21  O4  UNL     1      -9.751  13.398  -1.576  1.00  0.00    -0.265 OA
BRANCH  20  22
HETATM   22  C14 UNL     1      -8.346  13.210  -3.456  1.00  0.00     0.106 C 
HETATM   23  C15 UNL     1      -8.736  11.803  -3.818  1.00  0.00     0.015 C 
ENDBRANCH  20  22
ENDBRANCH  19  20
ENDBRANCH  18  19
ENDBRANCH  17  18
ENDBRANCH  16  17
ENDBRANCH   4  16
BRANCH   1  24
HETATM   24  O2  UNL     1     -13.992  17.203  -9.909  1.00  0.00    -0.315 OA
BRANCH  24  25
HETATM   25  C5  UNL     1     -13.758  18.116 -10.888  1.00  0.00     0.259 C 
HETATM   26  O1  UNL     1     -14.146  17.787 -12.017  1.00  0.00    -0.265 OA
BRANCH  25  27
HETATM   27  C4  UNL     1     -13.104  19.440 -10.766  1.00  0.00     0.111 C 
BRANCH  27  28
HETATM   28  C3  UNL     1     -14.050  20.297  -9.934  1.00  0.00     0.009 C 
BRANCH  28  29
HETATM   29  C2  UNL     1     -15.016  21.052 -10.821  1.00  0.00    -0.004 C 
HETATM   30  C1  UNL     1     -14.315  21.681 -12.003  1.00  0.00     0.005 C 
ENDBRANCH  28  29
ENDBRANCH  27  28
ENDBRANCH  25  27
ENDBRANCH  24  25
ENDBRANCH   1  24
BRANCH  13  31
HETATM   31  O6  UNL     1     -15.291  14.679 -10.303  1.00  0.00    -0.315 OA
BRANCH  31  32
HETATM   32  C25 UNL     1     -15.858  14.761 -11.559  1.00  0.00     0.255 C 
HETATM   33  C26 UNL     1     -15.111  14.425 -12.800  1.00  0.00     0.126 C 
HETATM   34  O7  UNL     1     -17.048  15.134 -11.661  1.00  0.00    -0.266 OA
ENDBRANCH  31  32
ENDBRANCH  13  31
BRANCH  11  35
HETATM   35  O5  UNL     1     -13.285  11.130  -8.225  1.00  0.00    -0.395 OA
ATOM     36  H5  UNL     1     -13.345  10.342  -8.751  1.00  0.00     0.210 HD
ENDBRANCH  11  35
TORSDOF 14
ENDMDL
MODEL 2
REMARK VINA RESULT: -8.637688698      1.064      1.636
REMARK  14 active torsions:
REMARK  status: ('A' for Active; 'I' for Inactive)
REMARK    1  A    between atoms: C2_2  and  C3_3 
REMARK    2  A    between atoms: C3_3  and  C4_4 
REMARK    3  A    between atoms: C4_4  and  C5_5 
REMARK    4  A    between atoms: C5_5  and  O2_7 
REMARK    5  A    between atoms: O2_7  and  C6_8 
REMARK    6  A    between atoms: C9_11  and  C10_12 
REMARK    7  A    between atoms: C10_12  and  C11_13 
REMARK    8  A    between atoms: C11_13  and  C12_14 
REMARK    9  A    between atoms: C12_14  and  O3_15 
REMARK   10  A    between atoms: O3_15  and  C13_16 
REMARK   11  A    between atoms: C13_16  and  C14_18 
REMARK   12  A    between atoms: C22_26  and  O5_27 
REMARK   13  A    between atoms: C24_30  and  O6_31 
REMARK   14  A    between atoms: O6_31  and  C25_32 
ROOT
HETATM    1  C6  UNL     1     -12.984  16.552  -9.298  1.00  0.00     0.143 C 
HETATM    2  C7  UNL     1     -12.465  17.190  -8.030  1.00  0.00     0.039 C 
HETATM    3  C8  UNL     1     -11.304  16.435  -7.448  1.00  0.00    -0.003 C 
HETATM    4  C9  UNL     1     -10.108  17.327  -7.254  1.00  0.00    -0.010 C 
HETATM    5  C16 UNL     1      -9.113  16.962  -8.283  1.00  0.00     0.005 C 
HETATM    6  C17 UNL     1      -9.661  15.752  -8.995  1.00  0.00     0.006 C 
HETATM    7  C18 UNL     1     -10.833  15.277  -8.206  1.00  0.00    -0.001 C 
HETATM    8  C19 UNL     1     -11.827  14.461  -8.951  1.00  0.00    -0.026 C 
HETATM    9  C20 UNL     1     -11.236  14.207 -10.328  1.00  0.00     0.016 C 
HETATM   10  C21 UNL     1     -11.972  13.070  -8.355  1.00  0.00     0.042 C 
HETATM   11  C22 UNL     1     -12.917  12.220  -9.144  1.00  0.00     0.121 C 
HETATM   12  C23 UNL     1     -14.126  12.909  -9.620  1.00  0.00     0.065 C 
HETATM   13  C24 UNL     1     -13.914  14.338 -10.146  1.00  0.00     0.145 C 
HETATM   14  C27 UNL     1     -13.209  15.092  -9.065  1.00  0.00     0.017 C 
HETATM   15  C28 UNL     1     -14.035  14.886  -7.824  1.00  0.00     0.021 C 
ENDROOT
BRANCH   4  16
HETATM   16  C10 UNL     1      -9.513  17.021  -5.879  1.00  0.00     0.007 C 
BRANCH  16  17
HETATM   17  C11 UNL     1     -10.533  16.594  -4.872  1.00  0.00     0.027 C 
BRANCH  17  18
HETATM   18  C12 UNL     1     -10.331  15.126  -4.589  1.00  0.00     0.178 C 
BRANCH  18  19
HETATM   19  O3  UNL     1     -10.233  14.843  -3.251  1.00  0.00    -0.321 OA
BRANCH  19  20
HETATM   20  C13 UNL     1      -9.483  13.840  -2.707  1.00  0.00     0.258 C 
HETATM   21  O4  UNL     1      -9.732  13.405  -1.562  1.00  0.00    -0.265 OA
BRANCH  20  22
HETATM   22  C14 UNL     1      -8.335  13.213  -3.447  1.00  0.00     0.106 C 
HETATM   23  C15 UNL     1      -8.723  11.805  -3.803  1.00  0.00     0.015 C 
ENDBRANCH  20  22
ENDBRANCH  19  20
ENDBRANCH  18  19
ENDBRANCH  17  18
ENDBRANCH  16  17
ENDBRANCH   4  16
BRANCH   1  24
HETATM   24  O2  UNL     1     -13.937  17.278  -9.948  1.00  0.00    -0.315 OA
BRANCH  24  25
HETATM   25  C5  UNL     1     -13.695  18.433 -10.620  1.00  0.00     0.259 C 
HETATM   26  O1  UNL     1     -14.657  19.210 -10.693  1.00  0.00    -0.265 OA
BRANCH  25  27
HETATM   27  C4  UNL     1     -12.435  18.868 -11.267  1.00  0.00     0.111 C 
BRANCH  27  28
HETATM   28  C3  UNL     1     -12.409  18.184 -12.628  1.00  0.00     0.009 C 
BRANCH  28  29
HETATM   29  C2  UNL     1     -11.514  16.964 -12.602  1.00  0.00    -0.004 C 
HETATM   30  C1  UNL     1     -11.113  16.535 -13.995  1.00  0.00     0.005 C 
ENDBRANCH  28  29
ENDBRANCH  27  28
ENDBRANCH  25  27
ENDBRANCH  24  25
ENDBRANCH   1  24
BRANCH  13  31
HETATM   31  O6  UNL     1     -15.270  14.775 -10.364  1.00  0.00    -0.315 OA
BRANCH  31  32
HETATM   32  C25 UNL     1     -15.768  15.023 -11.628  1.00  0.00     0.255 C 
HETATM   33  C26 UNL     1     -14.893  15.355 -12.783  1.00  0.00     0.126 C 
HETATM   34  O7  UNL     1     -17.004  14.967 -11.811  1.00  0.00    -0.266 OA
ENDBRANCH  31  32
ENDBRANCH  13  31
BRANCH  11  35
HETATM   35  O5  UNL     1     -13.348  11.192  -8.266  1.00  0.00    -0.395 OA
ATOM     36  H5  UNL     1     -13.839  10.579  -8.799  1.00  0.00     0.210 HD
ENDBRANCH  11  35
TORSDOF 14
ENDMDL
MODEL 3
REMARK VINA RESULT: -8.567757337      3.213      5.929
REMARK  14 active torsions:
REMARK  status: ('A' for Active; 'I' for Inactive)
REMARK    1  A    between atoms: C2_2  and  C3_3 
REMARK    2  A    between atoms: C3_3  and  C4_4 
REMARK    3  A    between atoms: C4_4  and  C5_5 
REMARK    4  A    between atoms: C5_5  and  O2_7 
REMARK    5  A    between atoms: O2_7  and  C6_8 
REMARK    6  A    between atoms: C9_11  and  C10_12 
REMARK    7  A    between atoms: C10_12  and  C11_13 
REMARK    8  A    between atoms: C11_13  and  C12_14 
REMARK    9  A    between atoms: C12_14  and  O3_15 
REMARK   10  A    between atoms: O3_15  and  C13_16 
REMARK   11  A    between atoms: C13_16  and  C14_18 
REMARK   12  A    between atoms: C22_26  and  O5_27 
REMARK   13  A    between atoms: C24_30  and  O6_31 
REMARK   14  A    between atoms: O6_31  and  C25_32 
ROOT
HETATM    1  C6  UNL     1     -10.560  13.774  -9.699  1.00  0.00     0.143 C 
HETATM    2  C7  UNL     1     -10.608  14.166  -8.240  1.00  0.00     0.039 C 
HETATM    3  C8  UNL     1      -9.693  15.316  -7.931  1.00  0.00    -0.003 C 
HETATM    4  C9  UNL     1     -10.434  16.451  -7.277  1.00  0.00    -0.010 C 
HETATM    5  C16 UNL     1     -10.552  17.536  -8.272  1.00  0.00     0.005 C 
HETATM    6  C17 UNL     1      -9.749  17.101  -9.472  1.00  0.00     0.006 C 
HETATM    7  C18 UNL     1      -8.970  15.898  -9.062  1.00  0.00    -0.001 C 
HETATM    8  C19 UNL     1      -8.534  15.002 -10.165  1.00  0.00    -0.026 C 
HETATM    9  C20 UNL     1      -8.894  15.705 -11.463  1.00  0.00     0.016 C 
HETATM   10  C21 UNL     1      -7.019  14.882 -10.224  1.00  0.00     0.042 C 
HETATM   11  C22 UNL     1      -6.572  14.040 -11.377  1.00  0.00     0.121 C 
HETATM   12  C23 UNL     1      -7.381  12.837 -11.622  1.00  0.00     0.065 C 
HETATM   13  C24 UNL     1      -8.901  13.018 -11.477  1.00  0.00     0.145 C 
HETATM   14  C27 UNL     1      -9.135  13.604 -10.122  1.00  0.00     0.017 C 
HETATM   15  C28 UNL     1      -8.413  12.700  -9.161  1.00  0.00     0.021 C 
ENDROOT
BRANCH   4  16
HETATM   16  C10 UNL     1      -9.583  16.957  -6.111  1.00  0.00     0.007 C 
BRANCH  16  17
HETATM   17  C11 UNL     1     -10.206  16.718  -4.773  1.00  0.00     0.027 C 
BRANCH  17  18
HETATM   18  C12 UNL     1     -10.341  15.229  -4.573  1.00  0.00     0.178 C 
BRANCH  18  19
HETATM   19  O3  UNL     1     -10.286  14.854  -3.256  1.00  0.00    -0.321 OA
BRANCH  19  20
HETATM   20  C13 UNL     1      -9.505  13.855  -2.749  1.00  0.00     0.258 C 
HETATM   21  O4  UNL     1      -9.733  13.378  -1.617  1.00  0.00    -0.265 OA
BRANCH  20  22
HETATM   22  C14 UNL     1      -8.346  13.284  -3.517  1.00  0.00     0.106 C 
HETATM   23  C15 UNL     1      -8.681  11.863  -3.878  1.00  0.00     0.015 C 
ENDBRANCH  20  22
ENDBRANCH  19  20
ENDBRANCH  18  19
ENDBRANCH  17  18
ENDBRANCH  16  17
ENDBRANCH   4  16
BRANCH   1  24
HETATM   24  O2  UNL     1     -11.480  12.837 -10.064  1.00  0.00    -0.315 OA
BRANCH  24  25
HETATM   25  C5  UNL     1     -12.063  11.960  -9.206  1.00  0.00     0.259 C 
HETATM   26  O1  UNL     1     -13.165  12.310  -8.763  1.00  0.00    -0.265 OA
BRANCH  25  27
HETATM   27  C4  UNL     1     -11.542  10.652  -8.742  1.00  0.00     0.111 C 
BRANCH  27  28
HETATM   28  C3  UNL     1     -11.903   9.651  -9.833  1.00  0.00     0.009 C 
BRANCH  28  29
HETATM   29  C2  UNL     1     -10.957   8.471  -9.818  1.00  0.00    -0.004 C 
HETATM   30  C1  UNL     1      -9.540   8.893  -9.502  1.00  0.00     0.005 C 
ENDBRANCH  28  29
ENDBRANCH  27  28
ENDBRANCH  25  27
ENDBRANCH  24  25
ENDBRANCH   1  24
BRANCH  13  31
HETATM   31  O6  UNL     1      -9.372  11.662 -11.609  1.00  0.00    -0.315 OA
BRANCH  31  32
HETATM   32  C25 UNL     1     -10.033  11.220 -12.737  1.00  0.00     0.255 C 
HETATM   33  C26 UNL     1      -9.814   9.868 -13.317  1.00  0.00     0.126 C 
HETATM   34  O7  UNL     1     -10.849  11.984 -13.297  1.00  0.00    -0.266 OA
ENDBRANCH  31  32
ENDBRANCH  13  31
BRANCH  11  35
HETATM   35  O5  UNL     1      -5.262  13.595 -11.054  1.00  0.00    -0.395 OA
ATOM     36  H5  UNL     1      -4.800  13.517 -11.879  1.00  0.00     0.210 HD
ENDBRANCH  11  35
TORSDOF 14
ENDMDL
MODEL 4
REMARK VINA RESULT: -8.470411821      3.063      4.967
REMARK  14 active torsions:
REMARK  status: ('A' for Active; 'I' for Inactive)
REMARK    1  A    between atoms: C2_2  and  C3_3 
REMARK    2  A    between atoms: C3_3  and  C4_4 
REMARK    3  A    between atoms: C4_4  and  C5_5 
REMARK    4  A    between atoms: C5_5  and  O2_7 
REMARK    5  A    between atoms: O2_7  and  C6_8 
REMARK    6  A    between atoms: C9_11  and  C10_12 
REMARK    7  A    between atoms: C10_12  and  C11_13 
REMARK    8  A    between atoms: C11_13  and  C12_14 
REMARK    9  A    between atoms: C12_14  and  O3_15 
REMARK   10  A    between atoms: O3_15  and  C13_16 
REMARK   11  A    between atoms: C13_16  and  C14_18 
REMARK   12  A    between atoms: C22_26  and  O5_27 
REMARK   13  A    between atoms: C24_30  and  O6_31 
REMARK   14  A    between atoms: O6_31  and  C25_32 
ROOT
HETATM    1  C6  UNL     1     -10.252  13.836  -9.767  1.00  0.00     0.143 C 
HETATM    2  C7  UNL     1     -10.338  14.105  -8.283  1.00  0.00     0.039 C 
HETATM    3  C8  UNL     1      -9.550  15.317  -7.878  1.00  0.00    -0.003 C 
HETATM    4  C9  UNL     1     -10.405  16.312  -7.142  1.00  0.00    -0.010 C 
HETATM    5  C16 UNL     1     -10.639  17.453  -8.050  1.00  0.00     0.005 C 
HETATM    6  C17 UNL     1      -9.798  17.201  -9.274  1.00  0.00     0.006 C 
HETATM    7  C18 UNL     1      -8.895  16.059  -8.956  1.00  0.00    -0.001 C 
HETATM    8  C19 UNL     1      -8.368  15.304 -10.122  1.00  0.00    -0.026 C 
HETATM    9  C20 UNL     1      -8.804  16.065 -11.364  1.00  0.00     0.016 C 
HETATM   10  C21 UNL     1      -6.850  15.349 -10.181  1.00  0.00     0.042 C 
HETATM   11  C22 UNL     1      -6.318  14.653 -11.393  1.00  0.00     0.121 C 
HETATM   12  C23 UNL     1      -6.995  13.395 -11.737  1.00  0.00     0.065 C 
HETATM   13  C24 UNL     1      -8.525  13.401 -11.589  1.00  0.00     0.145 C 
HETATM   14  C27 UNL     1      -8.818  13.851 -10.194  1.00  0.00     0.017 C 
HETATM   15  C28 UNL     1      -8.002  12.955  -9.301  1.00  0.00     0.021 C 
ENDROOT
BRANCH   4  16
HETATM   16  C10 UNL     1      -9.610  16.811  -5.935  1.00  0.00     0.007 C 
BRANCH  16  17
HETATM   17  C11 UNL     1     -10.259  16.496  -4.625  1.00  0.00     0.027 C 
BRANCH  17  18
HETATM   18  C12 UNL     1     -10.613  15.030  -4.613  1.00  0.00     0.178 C 
BRANCH  18  19
HETATM   19  O3  UNL     1     -10.648  14.493  -3.352  1.00  0.00    -0.321 OA
BRANCH  19  20
HETATM   20  C13 UNL     1      -9.639  13.784  -2.765  1.00  0.00     0.258 C 
HETATM   21  O4  UNL     1      -9.712  13.445  -1.564  1.00  0.00    -0.265 OA
BRANCH  20  22
HETATM   22  C14 UNL     1      -8.407  13.378  -3.522  1.00  0.00     0.106 C 
HETATM   23  C15 UNL     1      -8.616  11.981  -4.039  1.00  0.00     0.015 C 
ENDBRANCH  20  22
ENDBRANCH  19  20
ENDBRANCH  18  19
ENDBRANCH  17  18
ENDBRANCH  16  17
ENDBRANCH   4  16
BRANCH   1  24
HETATM   24  O2  UNL     1     -11.068  12.839 -10.211  1.00  0.00    -0.315 OA
BRANCH  24  25
HETATM   25  C5  UNL     1     -12.243  13.042 -10.862  1.00  0.00     0.259 C 
HETATM   26  O1  UNL     1     -12.845  12.013 -11.194  1.00  0.00    -0.265 OA
BRANCH  25  27
HETATM   27  C4  UNL     1     -12.879  14.332 -11.219  1.00  0.00     0.111 C 
BRANCH  27  28
HETATM   28  C3  UNL     1     -14.046  14.501 -10.254  1.00  0.00     0.009 C 
BRANCH  28  29
HETATM   29  C2  UNL     1     -13.731  15.539  -9.200  1.00  0.00    -0.004 C 
HETATM   30  C1  UNL     1     -13.785  14.956  -7.806  1.00  0.00     0.005 C 
ENDBRANCH  28  29
ENDBRANCH  27  28
ENDBRANCH  25  27
ENDBRANCH  24  25
ENDBRANCH   1  24
BRANCH  13  31
HETATM   31  O6  UNL     1      -8.850  12.018 -11.830  1.00  0.00    -0.315 OA
BRANCH  31  32
HETATM   32  C25 UNL     1      -9.430  11.593 -13.009  1.00  0.00     0.255 C 
HETATM   33  C26 UNL     1      -9.162  10.254 -13.597  1.00  0.00     0.126 C 
HETATM   34  O7  UNL     1     -10.211  12.363 -13.608  1.00  0.00    -0.266 OA
ENDBRANCH  31  32
ENDBRANCH  13  31
BRANCH  11  35
HETATM   35  O5  UNL     1      -4.968  14.325 -11.098  1.00  0.00    -0.395 OA
ATOM     36  H5  UNL     1      -4.502  14.357 -11.925  1.00  0.00     0.210 HD
ENDBRANCH  11  35
TORSDOF 14
ENDMDL
MODEL 5
REMARK VINA RESULT: -8.419543679      2.186      3.053
REMARK  14 active torsions:
REMARK  status: ('A' for Active; 'I' for Inactive)
REMARK    1  A    between atoms: C2_2  and  C3_3 
REMARK    2  A    between atoms: C3_3  and  C4_4 
REMARK    3  A    between atoms: C4_4  and  C5_5 
REMARK    4  A    between atoms: C5_5  and  O2_7 
REMARK    5  A    between atoms: O2_7  and  C6_8 
REMARK    6  A    between atoms: C9_11  and  C10_12 
REMARK    7  A    between atoms: C10_12  and  C11_13 
REMARK    8  A    between atoms: C11_13  and  C12_14 
REMARK    9  A    between atoms: C12_14  and  O3_15 
REMARK   10  A    between atoms: O3_15  and  C13_16 
REMARK   11  A    between atoms: C13_16  and  C14_18 
REMARK   12  A    between atoms: C22_26  and  O5_27 
REMARK   13  A    between atoms: C24_30  and  O6_31 
REMARK   14  A    between atoms: O6_31  and  C25_32 
ROOT
HETATM    1  C6  UNL     1     -11.879  14.609  -9.332  1.00  0.00     0.143 C 
HETATM    2  C7  UNL     1     -12.019  15.095  -7.908  1.00  0.00     0.039 C 
HETATM    3  C8  UNL     1     -10.687  15.344  -7.260  1.00  0.00    -0.003 C 
HETATM    4  C9  UNL     1     -10.589  16.745  -6.721  1.00  0.00    -0.010 C 
HETATM    5  C16 UNL     1      -9.675  17.496  -7.605  1.00  0.00     0.005 C 
HETATM    6  C17 UNL     1      -9.114  16.498  -8.585  1.00  0.00     0.006 C 
HETATM    7  C18 UNL     1      -9.506  15.144  -8.099  1.00  0.00    -0.001 C 
HETATM    8  C19 UNL     1      -9.535  14.071  -9.126  1.00  0.00    -0.026 C 
HETATM    9  C20 UNL     1      -8.970  14.675 -10.401  1.00  0.00     0.016 C 
HETATM   10  C21 UNL     1      -8.564  12.949  -8.793  1.00  0.00     0.042 C 
HETATM   11  C22 UNL     1      -8.536  11.901  -9.861  1.00  0.00     0.121 C 
HETATM   12  C23 UNL     1      -9.848  11.549 -10.424  1.00  0.00     0.065 C 
HETATM   13  C24 UNL     1     -10.803  12.728 -10.671  1.00  0.00     0.145 C 
HETATM   14  C27 UNL     1     -10.911  13.469  -9.377  1.00  0.00     0.017 C 
HETATM   15  C28 UNL     1     -11.280  12.435  -8.349  1.00  0.00     0.021 C 
ENDROOT
BRANCH   4  16
HETATM   16  C10 UNL     1      -9.960  16.669  -5.329  1.00  0.00     0.007 C 
BRANCH  16  17
HETATM   17  C11 UNL     1     -10.533  15.583  -4.477  1.00  0.00     0.027 C 
BRANCH  17  18
HETATM   18  C12 UNL     1      -9.403  14.932  -3.718  1.00  0.00     0.178 C 
BRANCH  18  19
HETATM   19  O3  UNL     1      -9.790  13.811  -3.030  1.00  0.00    -0.321 OA
BRANCH  19  20
HETATM   20  C13 UNL     1      -9.219  12.576  -3.143  1.00  0.00     0.258 C 
HETATM   21  O4  UNL     1      -9.554  11.645  -2.379  1.00  0.00    -0.265 OA
BRANCH  20  22
HETATM   22  C14 UNL     1      -8.174  12.275  -4.179  1.00  0.00     0.106 C 
HETATM   23  C15 UNL     1      -8.852  11.616  -5.349  1.00  0.00     0.015 C 
ENDBRANCH  20  22
ENDBRANCH  19  20
ENDBRANCH  18  19
ENDBRANCH  17  18
ENDBRANCH  16  17
ENDBRANCH   4  16
BRANCH   1  24
HETATM   24  O2  UNL     1     -13.055  14.512 -10.015  1.00  0.00    -0.315 OA
BRANCH  24  25
HETATM   25  C5  UNL     1     -13.427  15.343 -11.023  1.00  0.00     0.259 C 
HETATM   26  O1  UNL     1     -14.584  15.185 -11.434  1.00  0.00    -0.265 OA
BRANCH  25  27
HETATM   27  C4  UNL     1     -12.623  16.400 -11.680  1.00  0.00     0.111 C 
BRANCH  27  28
HETATM   28  C3  UNL     1     -13.209  17.724 -11.203  1.00  0.00     0.009 C 
BRANCH  28  29
HETATM   29  C2  UNL     1     -12.518  18.198  -9.943  1.00  0.00    -0.004 C 
HETATM   30  C1  UNL     1     -13.483  18.315  -8.786  1.00  0.00     0.005 C 
ENDBRANCH  28  29
ENDBRANCH  27  28
ENDBRANCH  25  27
ENDBRANCH  24  25
ENDBRANCH   1  24
BRANCH  13  31
HETATM   31  O6  UNL     1     -12.016  12.049 -11.050  1.00  0.00    -0.315 OA
BRANCH  31  32
HETATM   32  C25 UNL     1     -12.351  11.824 -12.371  1.00  0.00     0.255 C 
HETATM   33  C26 UNL     1     -12.742  10.483 -12.882  1.00  0.00     0.126 C 
HETATM   34  O7  UNL     1     -12.324  12.784 -13.172  1.00  0.00    -0.266 OA
ENDBRANCH  31  32
ENDBRANCH  13  31
BRANCH  11  35
HETATM   35  O5  UNL     1      -8.025  10.727  -9.246  1.00  0.00    -0.395 OA
ATOM     36  H5  UNL     1      -8.080  10.042  -9.901  1.00  0.00     0.210 HD
ENDBRANCH  11  35
TORSDOF 14
ENDMDL
