MODEL 1
REMARK VINA RESULT: -8.374687515      0.000      0.000
REMARK  12 active torsions:
REMARK  status: ('A' for Active; 'I' for Inactive)
REMARK    1  A    between atoms: C2_2  and  O1_3 
REMARK    2  A    between atoms: O1_3  and  C3_4 
REMARK    3  A    between atoms: C3_4  and  C4_5 
REMARK    4  A    between atoms: C4_5  and  O2_6 
REMARK    5  A    between atoms: O2_6  and  C5_7 
REMARK    6  A    between atoms: C5_7  and  C6_9 
REMARK    7  A    between atoms: C7_11  and  C8_12 
REMARK    8  A    between atoms: C8_12  and  C10_14 
REMARK    9  A    between atoms: C10_14  and  C11_15 
REMARK   10  A    between atoms: C11_15  and  C12_16 
REMARK   11  A    between atoms: C12_16  and  C13_17 
REMARK   12  A    between atoms: C24_30  and  O7_31 
ROOT
HETATM    1  C6  UNL     1     -11.552  15.148  -7.965  1.00  0.00     0.185 C 
HETATM    2  O4  UNL     1     -12.749  14.782  -8.441  1.00  0.00    -0.327 OA
HETATM    3  C7  UNL     1     -13.639  15.506  -9.064  1.00  0.00     0.198 A 
HETATM    4  O5  UNL     1     -13.154  15.970 -10.393  1.00  0.00    -0.339 OA
HETATM    5  C16 UNL     1     -13.648  16.829  -9.337  1.00  0.00     0.211 A 
HETATM    6  C17 UNL     1     -12.660  17.848  -8.846  1.00  0.00     0.205 C 
HETATM    7  O6  UNL     1     -11.752  17.444  -7.921  1.00  0.00    -0.380 OA
HETATM    8  C18 UNL     1     -10.974  16.436  -8.483  1.00  0.00     0.167 C 
HETATM    9  C19 UNL     1      -9.519  16.628  -8.250  1.00  0.00     0.036 C 
HETATM   10  C20 UNL     1      -8.786  15.568  -9.062  1.00  0.00     0.009 C 
HETATM   11  C21 UNL     1      -9.705  14.482  -9.523  1.00  0.00     0.003 C 
HETATM   12  C22 UNL     1      -8.936  13.263  -9.969  1.00  0.00     0.015 C 
HETATM   13  C23 UNL     1      -8.082  13.617 -11.173  1.00  0.00     0.013 C 
HETATM   14  C24 UNL     1      -8.129  12.598  -8.914  1.00  0.00     0.122 C 
HETATM   15  C25 UNL     1      -8.808  12.460  -7.610  1.00  0.00     0.033 C 
HETATM   16  C26 UNL     1      -9.708  13.601  -7.232  1.00  0.00     0.016 C 
HETATM   17  C27 UNL     1     -10.576  14.058  -8.350  1.00  0.00     0.004 C 
HETATM   18  C28 UNL     1     -11.336  12.821  -8.854  1.00  0.00     0.019 C 
ENDROOT
BRANCH   1  19
HETATM   19  C5  UNL     1     -11.674  15.300  -6.461  1.00  0.00     0.297 C 
HETATM   20  O3  UNL     1     -12.428  14.552  -5.793  1.00  0.00    -0.262 OA
BRANCH  19  21
HETATM   21  O2  UNL     1     -11.014  16.214  -5.744  1.00  0.00    -0.317 OA
BRANCH  21  22
HETATM   22  C4  UNL     1     -10.271  16.336  -4.633  1.00  0.00     0.205 C 
BRANCH  22  23
HETATM   23  C3  UNL     1      -9.687  15.184  -3.922  1.00  0.00     0.194 C 
BRANCH  23  24
HETATM   24  O1  UNL     1     -10.406  14.460  -3.044  1.00  0.00    -0.389 OA
BRANCH  24  25
HETATM   25  C2  UNL     1      -9.859  13.231  -2.677  1.00  0.00     0.163 C 
HETATM   26  C1  UNL     1      -8.682  12.835  -3.525  1.00  0.00     0.033 C 
ENDBRANCH  24  25
ENDBRANCH  23  24
ENDBRANCH  22  23
ENDBRANCH  21  22
ENDBRANCH  19  21
ENDBRANCH   1  19
BRANCH   3  27
HETATM   27  C8  UNL     1     -14.964  14.709  -9.313  1.00  0.00     0.047 C 
HETATM   28  C9  UNL     1     -15.928  15.566 -10.068  1.00  0.00     0.015 C 
BRANCH  27  29
HETATM   29  C10 UNL     1     -15.472  14.318  -7.983  1.00  0.00     0.010 C 
BRANCH  29  30
HETATM   30  C11 UNL     1     -16.833  13.811  -7.802  1.00  0.00     0.001 C 
BRANCH  30  31
HETATM   31  C12 UNL     1     -17.706  14.301  -6.723  1.00  0.00     0.004 C 
BRANCH  31  32
HETATM   32  C13 UNL     1     -18.989  14.968  -7.190  1.00  0.00    -0.023 C 
HETATM   33  C14 UNL     1     -19.544  15.837  -6.064  1.00  0.00     0.009 C 
HETATM   34  C15 UNL     1     -19.951  13.859  -7.560  1.00  0.00     0.009 C 
ENDBRANCH  31  32
ENDBRANCH  30  31
ENDBRANCH  29  30
ENDBRANCH  27  29
ENDBRANCH   3  27
BRANCH  14  35
HETATM   35  O7  UNL     1      -7.870  11.283  -9.381  1.00  0.00    -0.395 OA
ATOM     36  H7  UNL     1      -6.927  11.214  -9.474  1.00  0.00     0.210 HD
ENDBRANCH  14  35
TORSDOF 12
ENDMDL
MODEL 2
REMARK VINA RESULT: -8.364411075      2.754      6.234
REMARK  12 active torsions:
REMARK  status: ('A' for Active; 'I' for Inactive)
REMARK    1  A    between atoms: C2_2  and  O1_3 
REMARK    2  A    between atoms: O1_3  and  C3_4 
REMARK    3  A    between atoms: C3_4  and  C4_5 
REMARK    4  A    between atoms: C4_5  and  O2_6 
REMARK    5  A    between atoms: O2_6  and  C5_7 
REMARK    6  A    between atoms: C5_7  and  C6_9 
REMARK    7  A    between atoms: C7_11  and  C8_12 
REMARK    8  A    between atoms: C8_12  and  C10_14 
REMARK    9  A    between atoms: C10_14  and  C11_15 
REMARK   10  A    between atoms: C11_15  and  C12_16 
REMARK   11  A    between atoms: C12_16  and  C13_17 
REMARK   12  A    between atoms: C24_30  and  O7_31 
ROOT
HETATM    1  C6  UNL     1     -10.703  14.719  -8.901  1.00  0.00     0.185 C 
HETATM    2  O4  UNL     1     -10.884  15.081  -7.624  1.00  0.00    -0.327 OA
HETATM    3  C7  UNL     1     -10.631  16.227  -7.053  1.00  0.00     0.198 A 
HETATM    4  O5  UNL     1     -11.496  17.319  -7.578  1.00  0.00    -0.339 OA
HETATM    5  C16 UNL     1     -10.049  17.339  -7.554  1.00  0.00     0.211 A 
HETATM    6  C17 UNL     1      -9.402  17.477  -8.903  1.00  0.00     0.205 C 
HETATM    7  O6  UNL     1      -9.249  16.348  -9.642  1.00  0.00    -0.380 OA
HETATM    8  C18 UNL     1     -10.511  15.824  -9.904  1.00  0.00     0.167 C 
HETATM    9  C19 UNL     1     -10.696  15.438 -11.327  1.00  0.00     0.036 C 
HETATM   10  C20 UNL     1     -12.159  15.055 -11.508  1.00  0.00     0.009 C 
HETATM   11  C21 UNL     1     -12.844  14.832 -10.198  1.00  0.00     0.003 C 
HETATM   12  C22 UNL     1     -14.142  14.084 -10.376  1.00  0.00     0.015 C 
HETATM   13  C23 UNL     1     -15.099  14.923 -11.204  1.00  0.00     0.013 C 
HETATM   14  C24 UNL     1     -14.015  12.712 -10.930  1.00  0.00     0.122 C 
HETATM   15  C25 UNL     1     -12.913  11.913 -10.357  1.00  0.00     0.033 C 
HETATM   16  C26 UNL     1     -11.669  12.684 -10.022  1.00  0.00     0.016 C 
HETATM   17  C27 UNL     1     -11.946  13.969  -9.324  1.00  0.00     0.004 C 
HETATM   18  C28 UNL     1     -12.804  13.629  -8.096  1.00  0.00     0.019 C 
ENDROOT
BRANCH   1  19
HETATM   19  C5  UNL     1      -9.460  13.851  -8.968  1.00  0.00     0.297 C 
HETATM   20  O3  UNL     1      -8.964  13.350  -7.931  1.00  0.00    -0.262 OA
BRANCH  19  21
HETATM   21  O2  UNL     1      -8.811  13.558 -10.099  1.00  0.00    -0.317 OA
BRANCH  21  22
HETATM   22  C4  UNL     1      -7.572  13.360 -10.572  1.00  0.00     0.205 C 
BRANCH  22  23
HETATM   23  C3  UNL     1      -6.946  12.029 -10.665  1.00  0.00     0.194 C 
BRANCH  23  24
HETATM   24  O1  UNL     1      -7.159  11.083  -9.732  1.00  0.00    -0.389 OA
BRANCH  24  25
HETATM   25  C2  UNL     1      -7.940   9.999 -10.130  1.00  0.00     0.163 C 
HETATM   26  C1  UNL     1      -9.267   9.941  -9.425  1.00  0.00     0.033 C 
ENDBRANCH  24  25
ENDBRANCH  23  24
ENDBRANCH  22  23
ENDBRANCH  21  22
ENDBRANCH  19  21
ENDBRANCH   1  19
BRANCH   3  27
HETATM   27  C8  UNL     1     -10.857  16.166  -5.505  1.00  0.00     0.047 C 
HETATM   28  C9  UNL     1      -9.829  17.005  -4.817  1.00  0.00     0.015 C 
BRANCH  27  29
HETATM   29  C10 UNL     1     -10.776  14.742  -5.126  1.00  0.00     0.010 C 
BRANCH  29  30
HETATM   30  C11 UNL     1     -10.370  14.329  -3.782  1.00  0.00     0.001 C 
BRANCH  30  31
HETATM   31  C12 UNL     1      -8.971  14.002  -3.461  1.00  0.00     0.004 C 
BRANCH  31  32
HETATM   32  C13 UNL     1      -8.695  12.526  -3.234  1.00  0.00    -0.023 C 
HETATM   33  C14 UNL     1      -8.566  11.824  -4.584  1.00  0.00     0.009 C 
HETATM   34  C15 UNL     1      -9.858  11.978  -2.433  1.00  0.00     0.009 C 
ENDBRANCH  31  32
ENDBRANCH  30  31
ENDBRANCH  29  30
ENDBRANCH  27  29
ENDBRANCH   3  27
BRANCH  14  35
HETATM   35  O7  UNL     1     -15.221  12.038 -10.602  1.00  0.00    -0.395 OA
ATOM     36  H7  UNL     1     -15.409  11.459 -11.332  1.00  0.00     0.210 HD
ENDBRANCH  14  35
TORSDOF 12
ENDMDL
MODEL 3
REMARK VINA RESULT: -8.307761017      2.124      7.176
REMARK  12 active torsions:
REMARK  status: ('A' for Active; 'I' for Inactive)
REMARK    1  A    between atoms: C2_2  and  O1_3 
REMARK    2  A    between atoms: O1_3  and  C3_4 
REMARK    3  A    between atoms: C3_4  and  C4_5 
REMARK    4  A    between atoms: C4_5  and  O2_6 
REMARK    5  A    between atoms: O2_6  and  C5_7 
REMARK    6  A    between atoms: C5_7  and  C6_9 
REMARK    7  A    between atoms: C7_11  and  C8_12 
REMARK    8  A    between atoms: C8_12  and  C10_14 
REMARK    9  A    between atoms: C10_14  and  C11_15 
REMARK   10  A    between atoms: C11_15  and  C12_16 
REMARK   11  A    between atoms: C12_16  and  C13_17 
REMARK   12  A    between atoms: C24_30  and  O7_31 
ROOT
HETATM    1  C6  UNL     1     -12.714  15.458  -9.356  1.00  0.00     0.185 C 
HETATM    2  O4  UNL     1     -11.485  15.167  -8.910  1.00  0.00    -0.327 OA
HETATM    3  C7  UNL     1     -10.726  14.147  -9.206  1.00  0.00     0.198 A 
HETATM    4  O5  UNL     1     -10.303  14.158 -10.633  1.00  0.00    -0.339 OA
HETATM    5  C16 UNL     1     -10.984  13.065  -9.973  1.00  0.00     0.211 A 
HETATM    6  C17 UNL     1     -12.307  12.695 -10.578  1.00  0.00     0.205 C 
HETATM    7  O6  UNL     1     -13.391  13.426 -10.210  1.00  0.00    -0.380 OA
HETATM    8  C18 UNL     1     -13.178  14.746 -10.597  1.00  0.00     0.167 C 
HETATM    9  C19 UNL     1     -14.353  15.346 -11.281  1.00  0.00     0.036 C 
HETATM   10  C20 UNL     1     -13.925  16.712 -11.804  1.00  0.00     0.009 C 
HETATM   11  C21 UNL     1     -12.644  17.171 -11.184  1.00  0.00     0.003 C 
HETATM   12  C22 UNL     1     -12.432  18.650 -11.391  1.00  0.00     0.015 C 
HETATM   13  C23 UNL     1     -12.298  18.940 -12.874  1.00  0.00     0.013 C 
HETATM   14  C24 UNL     1     -13.449  19.533 -10.762  1.00  0.00     0.122 C 
HETATM   15  C25 UNL     1     -13.839  19.148  -9.391  1.00  0.00     0.033 C 
HETATM   16  C26 UNL     1     -13.893  17.669  -9.130  1.00  0.00     0.016 C 
HETATM   17  C27 UNL     1     -12.723  16.935  -9.683  1.00  0.00     0.004 C 
HETATM   18  C28 UNL     1     -11.466  17.611  -9.114  1.00  0.00     0.019 C 
ENDROOT
BRANCH   1  19
HETATM   19  C5  UNL     1     -13.702  15.110  -8.259  1.00  0.00     0.297 C 
HETATM   20  O3  UNL     1     -13.311  14.818  -7.104  1.00  0.00    -0.262 OA
BRANCH  19  21
HETATM   21  O2  UNL     1     -15.028  15.082  -8.426  1.00  0.00    -0.317 OA
BRANCH  21  22
HETATM   22  C4  UNL     1     -16.110  14.367  -8.087  1.00  0.00     0.205 C 
BRANCH  22  23
HETATM   23  C3  UNL     1     -17.486  14.884  -8.191  1.00  0.00     0.194 C 
BRANCH  23  24
HETATM   24  O1  UNL     1     -18.553  14.063  -8.150  1.00  0.00    -0.389 OA
BRANCH  24  25
HETATM   25  C2  UNL     1     -19.481  14.321  -7.142  1.00  0.00     0.163 C 
HETATM   26  C1  UNL     1     -19.247  15.635  -6.451  1.00  0.00     0.033 C 
ENDBRANCH  24  25
ENDBRANCH  23  24
ENDBRANCH  22  23
ENDBRANCH  21  22
ENDBRANCH  19  21
ENDBRANCH   1  19
BRANCH   3  27
HETATM   27  C8  UNL     1      -9.421  14.124  -8.341  1.00  0.00     0.047 C 
HETATM   28  C9  UNL     1      -8.841  12.747  -8.349  1.00  0.00     0.015 C 
BRANCH  27  29
HETATM   29  C10 UNL     1      -9.809  14.570  -6.988  1.00  0.00     0.010 C 
BRANCH  29  30
HETATM   30  C11 UNL     1      -9.836  13.644  -5.855  1.00  0.00     0.001 C 
BRANCH  30  31
HETATM   31  C12 UNL     1      -9.472  14.072  -4.495  1.00  0.00     0.004 C 
BRANCH  31  32
HETATM   32  C13 UNL     1      -8.552  13.121  -3.750  1.00  0.00    -0.023 C 
HETATM   33  C14 UNL     1      -7.874  12.187  -4.750  1.00  0.00     0.009 C 
HETATM   34  C15 UNL     1      -9.413  12.352  -2.770  1.00  0.00     0.009 C 
ENDBRANCH  31  32
ENDBRANCH  30  31
ENDBRANCH  29  30
ENDBRANCH  27  29
ENDBRANCH   3  27
BRANCH  14  35
HETATM   35  O7  UNL     1     -12.857  20.820 -10.672  1.00  0.00    -0.395 OA
ATOM     36  H7  UNL     1     -13.188  21.318 -11.411  1.00  0.00     0.210 HD
ENDBRANCH  14  35
TORSDOF 12
ENDMDL
MODEL 4
REMARK VINA RESULT: -8.296167109      2.979      7.468
REMARK  12 active torsions:
REMARK  status: ('A' for Active; 'I' for Inactive)
REMARK    1  A    between atoms: C2_2  and  O1_3 
REMARK    2  A    between atoms: O1_3  and  C3_4 
REMARK    3  A    between atoms: C3_4  and  C4_5 
REMARK    4  A    between atoms: C4_5  and  O2_6 
REMARK    5  A    between atoms: O2_6  and  C5_7 
REMARK    6  A    between atoms: C5_7  and  C6_9 
REMARK    7  A    between atoms: C7_11  and  C8_12 
REMARK    8  A    between atoms: C8_12  and  C10_14 
REMARK    9  A    between atoms: C10_14  and  C11_15 
REMARK   10  A    between atoms: C11_15  and  C12_16 
REMARK   11  A    between atoms: C12_16  and  C13_17 
REMARK   12  A    between atoms: C24_30  and  O7_31 
ROOT
HETATM    1  C6  UNL     1     -12.735  17.218 -10.785  1.00  0.00     0.185 C 
HETATM    2  O4  UNL     1     -11.476  17.165 -10.331  1.00  0.00    -0.327 OA
HETATM    3  C7  UNL     1     -10.554  16.272 -10.573  1.00  0.00     0.198 A 
HETATM    4  O5  UNL     1     -10.134  16.273 -12.001  1.00  0.00    -0.339 OA
HETATM    5  C16 UNL     1     -10.623  15.120 -11.274  1.00  0.00     0.211 A 
HETATM    6  C17 UNL     1     -11.863  14.498 -11.850  1.00  0.00     0.205 C 
HETATM    7  O6  UNL     1     -13.055  15.056 -11.518  1.00  0.00    -0.380 OA
HETATM    8  C18 UNL     1     -13.067  16.368 -11.981  1.00  0.00     0.167 C 
HETATM    9  C19 UNL     1     -14.324  16.721 -12.692  1.00  0.00     0.036 C 
HETATM   10  C20 UNL     1     -14.131  18.107 -13.294  1.00  0.00     0.009 C 
HETATM   11  C21 UNL     1     -12.948  18.811 -12.709  1.00  0.00     0.003 C 
HETATM   12  C22 UNL     1     -12.989  20.290 -13.000  1.00  0.00     0.015 C 
HETATM   13  C23 UNL     1     -12.899  20.513 -14.499  1.00  0.00     0.013 C 
HETATM   14  C24 UNL     1     -14.142  21.023 -12.417  1.00  0.00     0.122 C 
HETATM   15  C25 UNL     1     -14.468  20.657 -11.024  1.00  0.00     0.033 C 
HETATM   16  C26 UNL     1     -14.271  19.208 -10.680  1.00  0.00     0.016 C 
HETATM   17  C27 UNL     1     -12.992  18.651 -11.196  1.00  0.00     0.004 C 
HETATM   18  C28 UNL     1     -11.870  19.561 -10.674  1.00  0.00     0.019 C 
ENDROOT
BRANCH   1  19
HETATM   19  C5  UNL     1     -13.655  16.771  -9.665  1.00  0.00     0.297 C 
HETATM   20  O3  UNL     1     -13.345  16.950  -8.463  1.00  0.00    -0.262 OA
BRANCH  19  21
HETATM   21  O2  UNL     1     -14.832  16.167  -9.857  1.00  0.00    -0.317 OA
BRANCH  21  22
HETATM   22  C4  UNL     1     -16.114  16.229  -9.469  1.00  0.00     0.205 C 
BRANCH  22  23
HETATM   23  C3  UNL     1     -16.819  15.103  -8.831  1.00  0.00     0.194 C 
BRANCH  23  24
HETATM   24  O1  UNL     1     -18.161  15.004  -8.861  1.00  0.00    -0.389 OA
BRANCH  24  25
HETATM   25  C2  UNL     1     -18.769  14.590  -7.676  1.00  0.00     0.163 C 
HETATM   26  C1  UNL     1     -17.779  14.170  -6.625  1.00  0.00     0.033 C 
ENDBRANCH  24  25
ENDBRANCH  23  24
ENDBRANCH  22  23
ENDBRANCH  21  22
ENDBRANCH  19  21
ENDBRANCH   1  19
BRANCH   3  27
HETATM   27  C8  UNL     1      -9.268  16.520  -9.715  1.00  0.00     0.047 C 
HETATM   28  C9  UNL     1      -8.797  15.225  -9.137  1.00  0.00     0.015 C 
BRANCH  27  29
HETATM   29  C10 UNL     1      -9.640  17.503  -8.678  1.00  0.00     0.010 C 
BRANCH  29  30
HETATM   30  C11 UNL     1      -9.389  17.251  -7.259  1.00  0.00     0.001 C 
BRANCH  30  31
HETATM   31  C12 UNL     1     -10.482  16.956  -6.319  1.00  0.00     0.004 C 
BRANCH  31  32
HETATM   32  C13 UNL     1     -10.493  15.537  -5.775  1.00  0.00    -0.023 C 
HETATM   33  C14 UNL     1     -11.864  14.913  -6.024  1.00  0.00     0.009 C 
HETATM   34  C15 UNL     1     -10.187  15.630  -4.295  1.00  0.00     0.009 C 
ENDBRANCH  31  32
ENDBRANCH  30  31
ENDBRANCH  29  30
ENDBRANCH  27  29
ENDBRANCH   3  27
BRANCH  14  35
HETATM   35  O7  UNL     1     -13.777  22.395 -12.404  1.00  0.00    -0.395 OA
ATOM     36  H7  UNL     1     -14.312  22.806 -11.736  1.00  0.00     0.210 HD
ENDBRANCH  14  35
TORSDOF 12
ENDMDL
MODEL 5
REMARK VINA RESULT: -8.265057374      2.663      5.976
REMARK  12 active torsions:
REMARK  status: ('A' for Active; 'I' for Inactive)
REMARK    1  A    between atoms: C2_2  and  O1_3 
REMARK    2  A    between atoms: O1_3  and  C3_4 
REMARK    3  A    between atoms: C3_4  and  C4_5 
REMARK    4  A    between atoms: C4_5  and  O2_6 
REMARK    5  A    between atoms: O2_6  and  C5_7 
REMARK    6  A    between atoms: C5_7  and  C6_9 
REMARK    7  A    between atoms: C7_11  and  C8_12 
REMARK    8  A    between atoms: C8_12  and  C10_14 
REMARK    9  A    between atoms: C10_14  and  C11_15 
REMARK   10  A    between atoms: C11_15  and  C12_16 
REMARK   11  A    between atoms: C12_16  and  C13_17 
REMARK   12  A    between atoms: C24_30  and  O7_31 
ROOT
HETATM    1  C6  UNL     1     -10.729  12.798  -9.506  1.00  0.00     0.185 C 
HETATM    2  O4  UNL     1      -9.972  13.895  -9.630  1.00  0.00    -0.327 OA
HETATM    3  C7  UNL     1      -8.824  14.035 -10.236  1.00  0.00     0.198 A 
HETATM    4  O5  UNL     1      -8.939  13.838 -11.708  1.00  0.00    -0.339 OA
HETATM    5  C16 UNL     1      -8.039  13.112 -10.836  1.00  0.00     0.211 A 
HETATM    6  C17 UNL     1      -8.243  11.624 -10.825  1.00  0.00     0.205 C 
HETATM    7  O6  UNL     1      -9.220  11.132 -10.019  1.00  0.00    -0.380 OA
HETATM    8  C18 UNL     1     -10.438  11.656 -10.441  1.00  0.00     0.167 C 
HETATM    9  C19 UNL     1     -11.505  10.627 -10.550  1.00  0.00     0.036 C 
HETATM   10  C20 UNL     1     -12.717  11.296 -11.186  1.00  0.00     0.009 C 
HETATM   11  C21 UNL     1     -12.608  12.787 -11.164  1.00  0.00     0.003 C 
HETATM   12  C22 UNL     1     -13.944  13.440 -11.419  1.00  0.00     0.015 C 
HETATM   13  C23 UNL     1     -14.423  13.083 -12.814  1.00  0.00     0.013 C 
HETATM   14  C24 UNL     1     -14.993  13.162 -10.404  1.00  0.00     0.122 C 
HETATM   15  C25 UNL     1     -14.530  13.224  -9.003  1.00  0.00     0.033 C 
HETATM   16  C26 UNL     1     -13.133  12.725  -8.767  1.00  0.00     0.016 C 
HETATM   17  C27 UNL     1     -12.157  13.217  -9.776  1.00  0.00     0.004 C 
HETATM   18  C28 UNL     1     -12.265  14.750  -9.786  1.00  0.00     0.019 C 
ENDROOT
BRANCH   1  19
HETATM   19  C5  UNL     1     -10.547  12.263  -8.097  1.00  0.00     0.297 C 
HETATM   20  O3  UNL     1     -11.254  11.321  -7.666  1.00  0.00    -0.262 OA
BRANCH  19  21
HETATM   21  O2  UNL     1      -9.651  12.736  -7.226  1.00  0.00    -0.317 OA
BRANCH  21  22
HETATM   22  C4  UNL     1      -8.760  12.321  -6.314  1.00  0.00     0.205 C 
BRANCH  22  23
HETATM   23  C3  UNL     1      -8.929  12.532  -4.865  1.00  0.00     0.194 C 
BRANCH  23  24
HETATM   24  O1  UNL     1     -10.102  12.938  -4.344  1.00  0.00    -0.389 OA
BRANCH  24  25
HETATM   25  C2  UNL     1     -10.027  13.598  -3.118  1.00  0.00     0.163 C 
HETATM   26  C1  UNL     1      -8.635  14.052  -2.779  1.00  0.00     0.033 C 
ENDBRANCH  24  25
ENDBRANCH  23  24
ENDBRANCH  22  23
ENDBRANCH  21  22
ENDBRANCH  19  21
ENDBRANCH   1  19
BRANCH   3  27
HETATM   27  C8  UNL     1      -8.218  15.460 -10.010  1.00  0.00     0.047 C 
HETATM   28  C9  UNL     1      -6.732  15.401 -10.163  1.00  0.00     0.015 C 
BRANCH  27  29
HETATM   29  C10 UNL     1      -8.634  15.882  -8.658  1.00  0.00     0.010 C 
BRANCH  29  30
HETATM   30  C11 UNL     1      -9.409  17.105  -8.442  1.00  0.00     0.001 C 
BRANCH  30  31
HETATM   31  C12 UNL     1     -10.462  17.184  -7.417  1.00  0.00     0.004 C 
BRANCH  31  32
HETATM   32  C13 UNL     1     -10.406  16.098  -6.357  1.00  0.00    -0.023 C 
HETATM   33  C14 UNL     1     -11.791  15.474  -6.201  1.00  0.00     0.009 C 
HETATM   34  C15 UNL     1      -9.949  16.759  -5.073  1.00  0.00     0.009 C 
ENDBRANCH  31  32
ENDBRANCH  30  31
ENDBRANCH  29  30
ENDBRANCH  27  29
ENDBRANCH   3  27
BRANCH  14  35
HETATM   35  O7  UNL     1     -15.972  14.179 -10.556  1.00  0.00    -0.395 OA
ATOM     36  H7  UNL     1     -16.803  13.732 -10.668  1.00  0.00     0.210 HD
ENDBRANCH  14  35
TORSDOF 12
ENDMDL
