MODEL 1
REMARK VINA RESULT: -8.431576757      0.000      0.000
REMARK  7 active torsions:
REMARK  status: ('A' for Active; 'I' for Inactive)
REMARK    1  A    between atoms: O1_2  and  C2_3 
REMARK    2  A    between atoms: C7_10  and  C8_11 
REMARK    3  A    between atoms: C10_14  and  C11_15 
REMARK    4  A    between atoms: N2_21  and  C14_22 
REMARK    5  A    between atoms: C14_22  and  C15_23 
REMARK    6  A    between atoms: C20_31  and  C21_32 
REMARK    7  A    between atoms: C21_32  and  O5_33 
ROOT
HETATM    1  C8  UNL     1      -8.388   5.745 -16.776  1.00  0.00    -0.007 A 
HETATM    2  C9  UNL     1      -9.634   6.022 -16.291  1.00  0.00     0.063 A 
HETATM    3  S1  UNL     1     -10.199   4.549 -15.739  1.00  0.00    -0.100 SA
HETATM    4  C10 UNL     1      -8.797   3.536 -16.143  1.00  0.00     0.030 A 
HETATM    5  C20 UNL     1      -7.966   4.449 -16.686  1.00  0.00    -0.005 A 
ENDROOT
BRANCH   4   6
HETATM    6  C11 UNL     1      -8.796   2.116 -15.822  1.00  0.00     0.057 A 
HETATM    7  C12 UNL     1      -9.418   1.135 -16.499  1.00  0.00     0.094 A 
HETATM    8  C13 UNL     1      -9.228  -0.184 -16.079  1.00  0.00     0.261 A 
HETATM    9  O2  UNL     1      -9.801  -1.084 -16.707  1.00  0.00    -0.267 OA
HETATM   10  N1  UNL     1      -8.461  -0.520 -15.037  1.00  0.00    -0.261 N 
HETATM   11  N2  UNL     1      -7.843   0.454 -14.358  1.00  0.00    -0.248 N 
ATOM     12  H1  UNL     1      -8.350  -1.497 -14.765  1.00  0.00     0.190 HD
HETATM   13  C19 UNL     1      -7.999   1.718 -14.727  1.00  0.00     0.274 A 
HETATM   14  O4  UNL     1      -7.429   2.644 -14.106  1.00  0.00    -0.266 OA
BRANCH  11  15
HETATM   15  C14 UNL     1      -7.007   0.103 -13.209  1.00  0.00     0.217 C 
BRANCH  15  16
HETATM   16  C15 UNL     1      -5.614  -0.114 -13.599  1.00  0.00     0.074 A 
HETATM   17  C16 UNL     1      -4.678   0.851 -13.863  1.00  0.00     0.060 A 
HETATM   18  C17 UNL     1      -3.499   0.182 -14.190  1.00  0.00     0.058 A 
HETATM   19 CL3  UNL     1      -1.980   0.941 -14.615  1.00  0.00    -0.082 Cl
HETATM   20  C18 UNL     1      -3.793  -1.158 -14.104  1.00  0.00     0.166 A 
HETATM   21  O3  UNL     1      -5.035  -1.269 -13.757  1.00  0.00    -0.324 OA
ENDBRANCH  15  16
ENDBRANCH  11  15
ENDBRANCH   4   6
BRANCH   5  22
HETATM   22  C21 UNL     1      -6.521   4.160 -17.081  1.00  0.00     0.205 C 
BRANCH  22  23
HETATM   23  O5  UNL     1      -5.650   3.928 -16.111  1.00  0.00    -0.396 OA
ATOM     24  H5  UNL     1      -5.733   3.115 -15.628  1.00  0.00     0.209 HD
ENDBRANCH  22  23
ENDBRANCH   5  22
BRANCH   1  25
HETATM   25  C7  UNL     1      -7.618   6.861 -17.409  1.00  0.00     0.012 A 
HETATM   26  C2  UNL     1      -7.492   6.879 -18.793  1.00  0.00     0.101 A 
HETATM   27  C3  UNL     1      -6.742   7.841 -19.423  1.00  0.00     0.069 A 
HETATM   28 CL1  UNL     1      -6.606   7.831 -21.160  1.00  0.00    -0.081 Cl
HETATM   29  C4  UNL     1      -6.092   8.820 -18.706  1.00  0.00     0.050 A 
HETATM   30  C5  UNL     1      -6.217   8.803 -17.337  1.00  0.00     0.036 A 
HETATM   31 CL2  UNL     1      -5.397  10.040 -16.378  1.00  0.00    -0.084 Cl
HETATM   32  C6  UNL     1      -6.979   7.824 -16.693  1.00  0.00     0.039 A 
BRANCH  26  33
HETATM   33  O1  UNL     1      -8.152   5.888 -19.505  1.00  0.00    -0.353 OA
HETATM   34  C1  UNL     1      -9.426   6.094 -20.091  1.00  0.00     0.210 C 
ENDBRANCH  26  33
ENDBRANCH   1  25
TORSDOF 7
ENDMDL
MODEL 2
REMARK VINA RESULT: -8.277643865      4.284      6.026
REMARK  7 active torsions:
REMARK  status: ('A' for Active; 'I' for Inactive)
REMARK    1  A    between atoms: O1_2  and  C2_3 
REMARK    2  A    between atoms: C7_10  and  C8_11 
REMARK    3  A    between atoms: C10_14  and  C11_15 
REMARK    4  A    between atoms: N2_21  and  C14_22 
REMARK    5  A    between atoms: C14_22  and  C15_23 
REMARK    6  A    between atoms: C20_31  and  C21_32 
REMARK    7  A    between atoms: C21_32  and  O5_33 
ROOT
HETATM    1  C8  UNL     1     -11.719   1.546 -15.717  1.00  0.00    -0.007 A 
HETATM    2  C9  UNL     1     -11.543   0.503 -16.582  1.00  0.00     0.063 A 
HETATM    3  S1  UNL     1      -9.982  -0.016 -16.288  1.00  0.00    -0.100 SA
HETATM    4  C10 UNL     1      -9.530   1.138 -15.017  1.00  0.00     0.030 A 
HETATM    5  C20 UNL     1     -10.665   1.859 -14.907  1.00  0.00    -0.005 A 
ENDROOT
BRANCH   4   6
HETATM    6  C11 UNL     1      -8.215   1.073 -14.395  1.00  0.00     0.057 A 
HETATM    7  C12 UNL     1      -7.794   0.170 -13.492  1.00  0.00     0.094 A 
HETATM    8  C13 UNL     1      -6.461   0.224 -13.073  1.00  0.00     0.261 A 
HETATM    9  O2  UNL     1      -6.077  -0.610 -12.244  1.00  0.00    -0.267 OA
HETATM   10  N1  UNL     1      -5.586   1.129 -13.523  1.00  0.00    -0.261 N 
HETATM   11  N2  UNL     1      -6.002   2.031 -14.418  1.00  0.00    -0.248 N 
ATOM     12  H1  UNL     1      -4.622   1.132 -13.189  1.00  0.00     0.190 HD
HETATM   13  C19 UNL     1      -7.259   2.011 -14.840  1.00  0.00     0.274 A 
HETATM   14  O4  UNL     1      -7.669   2.846 -15.680  1.00  0.00    -0.266 OA
BRANCH  11  15
HETATM   15  C14 UNL     1      -5.059   3.034 -14.914  1.00  0.00     0.217 C 
BRANCH  15  16
HETATM   16  C15 UNL     1      -3.675   2.569 -14.821  1.00  0.00     0.074 A 
HETATM   17  C16 UNL     1      -3.247   1.267 -14.836  1.00  0.00     0.060 A 
HETATM   18  C17 UNL     1      -1.857   1.305 -14.725  1.00  0.00     0.058 A 
HETATM   19 CL3  UNL     1      -0.798  -0.088 -14.695  1.00  0.00    -0.082 Cl
HETATM   20  C18 UNL     1      -1.524   2.637 -14.650  1.00  0.00     0.166 A 
HETATM   21  O3  UNL     1      -2.620   3.322 -14.710  1.00  0.00    -0.324 OA
ENDBRANCH  15  16
ENDBRANCH  11  15
ENDBRANCH   4   6
BRANCH   5  22
HETATM   22  C21 UNL     1     -10.903   2.917 -13.834  1.00  0.00     0.205 C 
BRANCH  22  23
HETATM   23  O5  UNL     1      -9.963   3.830 -13.648  1.00  0.00    -0.396 OA
ATOM     24  H5  UNL     1     -10.211   4.743 -13.734  1.00  0.00     0.209 HD
ENDBRANCH  22  23
ENDBRANCH   5  22
BRANCH   1  25
HETATM   25  C7  UNL     1     -13.018   2.287 -15.768  1.00  0.00     0.012 A 
HETATM   26  C2  UNL     1     -13.078   3.473 -16.489  1.00  0.00     0.101 A 
HETATM   27  C3  UNL     1     -14.225   4.228 -16.514  1.00  0.00     0.069 A 
HETATM   28 CL1  UNL     1     -14.263   5.711 -17.429  1.00  0.00    -0.081 Cl
HETATM   29  C4  UNL     1     -15.352   3.835 -15.829  1.00  0.00     0.050 A 
HETATM   30  C5  UNL     1     -15.293   2.660 -15.116  1.00  0.00     0.036 A 
HETATM   31 CL2  UNL     1     -16.716   2.120 -14.220  1.00  0.00    -0.084 Cl
HETATM   32  C6  UNL     1     -14.126   1.891 -15.087  1.00  0.00     0.039 A 
BRANCH  26  33
HETATM   33  O1  UNL     1     -11.936   3.860 -17.176  1.00  0.00    -0.353 OA
HETATM   34  C1  UNL     1     -11.781   3.651 -18.569  1.00  0.00     0.210 C 
ENDBRANCH  26  33
ENDBRANCH   1  25
TORSDOF 7
ENDMDL
MODEL 3
REMARK VINA RESULT: -7.616726683      1.694      1.792
REMARK  7 active torsions:
REMARK  status: ('A' for Active; 'I' for Inactive)
REMARK    1  A    between atoms: O1_2  and  C2_3 
REMARK    2  A    between atoms: C7_10  and  C8_11 
REMARK    3  A    between atoms: C10_14  and  C11_15 
REMARK    4  A    between atoms: N2_21  and  C14_22 
REMARK    5  A    between atoms: C14_22  and  C15_23 
REMARK    6  A    between atoms: C20_31  and  C21_32 
REMARK    7  A    between atoms: C21_32  and  O5_33 
ROOT
HETATM    1  C8  UNL     1     -10.361   5.436 -16.451  1.00  0.00    -0.007 A 
HETATM    2  C9  UNL     1     -11.633   5.294 -15.975  1.00  0.00     0.063 A 
HETATM    3  S1  UNL     1     -11.755   3.669 -15.605  1.00  0.00    -0.100 SA
HETATM    4  C10 UNL     1     -10.125   3.144 -16.075  1.00  0.00     0.030 A 
HETATM    5  C20 UNL     1      -9.588   4.310 -16.490  1.00  0.00    -0.005 A 
ENDROOT
BRANCH   4   6
HETATM    6  C11 UNL     1      -9.722   1.755 -15.910  1.00  0.00     0.057 A 
HETATM    7  C12 UNL     1      -9.971   0.737 -16.752  1.00  0.00     0.094 A 
HETATM    8  C13 UNL     1      -9.424  -0.515 -16.459  1.00  0.00     0.261 A 
HETATM    9  O2  UNL     1      -9.654  -1.448 -17.238  1.00  0.00    -0.267 OA
HETATM   10  N1  UNL     1      -8.668  -0.752 -15.382  1.00  0.00    -0.261 N 
HETATM   11  N2  UNL     1      -8.421   0.257 -14.540  1.00  0.00    -0.248 N 
ATOM     12  H1  UNL     1      -8.289  -1.683 -15.207  1.00  0.00     0.190 HD
HETATM   13  C19 UNL     1      -8.922   1.460 -14.786  1.00  0.00     0.274 A 
HETATM   14  O4  UNL     1      -8.701   2.419 -14.010  1.00  0.00    -0.266 OA
BRANCH  11  15
HETATM   15  C14 UNL     1      -7.602   0.011 -13.352  1.00  0.00     0.217 C 
BRANCH  15  16
HETATM   16  C15 UNL     1      -6.178  -0.053 -13.679  1.00  0.00     0.074 A 
HETATM   17  C16 UNL     1      -5.399   0.973 -14.146  1.00  0.00     0.060 A 
HETATM   18  C17 UNL     1      -4.115   0.453 -14.313  1.00  0.00     0.058 A 
HETATM   19 CL3  UNL     1      -2.722   1.340 -14.889  1.00  0.00    -0.082 Cl
HETATM   20  C18 UNL     1      -4.195  -0.867 -13.935  1.00  0.00     0.166 A 
HETATM   21  O3  UNL     1      -5.416  -1.103 -13.577  1.00  0.00    -0.324 OA
ENDBRANCH  15  16
ENDBRANCH  11  15
ENDBRANCH   4   6
BRANCH   5  22
HETATM   22  C21 UNL     1      -8.122   4.486 -16.872  1.00  0.00     0.205 C 
BRANCH  22  23
HETATM   23  O5  UNL     1      -7.207   4.189 -15.962  1.00  0.00    -0.396 OA
ATOM     24  H5  UNL     1      -7.271   4.614 -15.115  1.00  0.00     0.209 HD
ENDBRANCH  22  23
ENDBRANCH   5  22
BRANCH   1  25
HETATM   25  C7  UNL     1      -9.940   6.788 -16.936  1.00  0.00     0.012 A 
HETATM   26  C2  UNL     1     -10.084   7.082 -18.286  1.00  0.00     0.101 A 
HETATM   27  C3  UNL     1      -9.653   8.282 -18.798  1.00  0.00     0.069 A 
HETATM   28 CL1  UNL     1      -9.850   8.617 -20.497  1.00  0.00    -0.081 Cl
HETATM   29  C4  UNL     1      -9.068   9.231 -17.992  1.00  0.00     0.050 A 
HETATM   30  C5  UNL     1      -8.926   8.940 -16.655  1.00  0.00     0.036 A 
HETATM   31 CL2  UNL     1      -8.177  10.130 -15.586  1.00  0.00    -0.084 Cl
HETATM   32  C6  UNL     1      -9.362   7.719 -16.133  1.00  0.00     0.039 A 
BRANCH  26  33
HETATM   33  O1  UNL     1     -10.676   6.118 -19.089  1.00  0.00    -0.353 OA
HETATM   34  C1  UNL     1      -9.935   5.340 -20.014  1.00  0.00     0.210 C 
ENDBRANCH  26  33
ENDBRANCH   1  25
TORSDOF 7
ENDMDL
MODEL 4
REMARK VINA RESULT: -7.465651454      1.333      2.234
REMARK  7 active torsions:
REMARK  status: ('A' for Active; 'I' for Inactive)
REMARK    1  A    between atoms: O1_2  and  C2_3 
REMARK    2  A    between atoms: C7_10  and  C8_11 
REMARK    3  A    between atoms: C10_14  and  C11_15 
REMARK    4  A    between atoms: N2_21  and  C14_22 
REMARK    5  A    between atoms: C14_22  and  C15_23 
REMARK    6  A    between atoms: C20_31  and  C21_32 
REMARK    7  A    between atoms: C21_32  and  O5_33 
ROOT
HETATM    1  C8  UNL     1      -9.101   5.624 -17.056  1.00  0.00    -0.007 A 
HETATM    2  C9  UNL     1      -9.894   5.955 -15.994  1.00  0.00     0.063 A 
HETATM    3  S1  UNL     1     -10.152   4.505 -15.205  1.00  0.00    -0.100 SA
HETATM    4  C10 UNL     1      -9.219   3.430 -16.267  1.00  0.00     0.030 A 
HETATM    5  C20 UNL     1      -8.754   4.308 -17.179  1.00  0.00    -0.005 A 
ENDROOT
BRANCH   4   6
HETATM    6  C11 UNL     1      -9.115   2.008 -15.971  1.00  0.00     0.057 A 
HETATM    7  C12 UNL     1      -9.612   0.994 -16.700  1.00  0.00     0.094 A 
HETATM    8  C13 UNL     1      -9.333  -0.314 -16.293  1.00  0.00     0.261 A 
HETATM    9  O2  UNL     1      -9.791  -1.244 -16.969  1.00  0.00    -0.267 OA
HETATM   10  N1  UNL     1      -8.602  -0.607 -15.213  1.00  0.00    -0.261 N 
HETATM   11  N2  UNL     1      -8.109   0.400 -14.482  1.00  0.00    -0.248 N 
ATOM     12  H1  UNL     1      -8.423  -1.577 -14.952  1.00  0.00     0.190 HD
HETATM   13  C19 UNL     1      -8.350   1.654 -14.839  1.00  0.00     0.274 A 
HETATM   14  O4  UNL     1      -7.897   2.611 -14.169  1.00  0.00    -0.266 OA
BRANCH  11  15
HETATM   15  C14 UNL     1      -7.313   0.096 -13.293  1.00  0.00     0.217 C 
BRANCH  15  16
HETATM   16  C15 UNL     1      -5.904  -0.121 -13.624  1.00  0.00     0.074 A 
HETATM   17  C16 UNL     1      -5.025   0.812 -14.108  1.00  0.00     0.060 A 
HETATM   18  C17 UNL     1      -3.804   0.159 -14.272  1.00  0.00     0.058 A 
HETATM   19 CL3  UNL     1      -2.328   0.889 -14.865  1.00  0.00    -0.082 Cl
HETATM   20  C18 UNL     1      -4.018  -1.141 -13.876  1.00  0.00     0.166 A 
HETATM   21  O3  UNL     1      -5.255  -1.243 -13.510  1.00  0.00    -0.324 OA
ENDBRANCH  15  16
ENDBRANCH  11  15
ENDBRANCH   4   6
BRANCH   5  22
HETATM   22  C21 UNL     1      -7.746   3.955 -18.269  1.00  0.00     0.205 C 
BRANCH  22  23
HETATM   23  O5  UNL     1      -8.216   3.495 -19.418  1.00  0.00    -0.396 OA
ATOM     24  H5  UNL     1      -8.476   2.583 -19.456  1.00  0.00     0.209 HD
ENDBRANCH  22  23
ENDBRANCH   5  22
BRANCH   1  25
HETATM   25  C7  UNL     1      -8.727   6.709 -18.016  1.00  0.00     0.012 A 
HETATM   26  C2  UNL     1      -7.585   7.458 -17.760  1.00  0.00     0.101 A 
HETATM   27  C3  UNL     1      -7.232   8.509 -18.571  1.00  0.00     0.069 A 
HETATM   28 CL1  UNL     1      -5.794   9.426 -18.218  1.00  0.00    -0.081 Cl
HETATM   29  C4  UNL     1      -7.994   8.852 -19.664  1.00  0.00     0.050 A 
HETATM   30  C5  UNL     1      -9.124   8.110 -19.918  1.00  0.00     0.036 A 
HETATM   31 CL2  UNL     1     -10.131   8.519 -21.311  1.00  0.00    -0.084 Cl
HETATM   32  C6  UNL     1      -9.486   7.042 -19.093  1.00  0.00     0.039 A 
BRANCH  26  33
HETATM   33  O1  UNL     1      -6.825   7.103 -16.655  1.00  0.00    -0.353 OA
HETATM   34  C1  UNL     1      -5.613   6.377 -16.770  1.00  0.00     0.210 C 
ENDBRANCH  26  33
ENDBRANCH   1  25
TORSDOF 7
ENDMDL
MODEL 5
REMARK VINA RESULT: -7.402158102      4.771      6.129
REMARK  7 active torsions:
REMARK  status: ('A' for Active; 'I' for Inactive)
REMARK    1  A    between atoms: O1_2  and  C2_3 
REMARK    2  A    between atoms: C7_10  and  C8_11 
REMARK    3  A    between atoms: C10_14  and  C11_15 
REMARK    4  A    between atoms: N2_21  and  C14_22 
REMARK    5  A    between atoms: C14_22  and  C15_23 
REMARK    6  A    between atoms: C20_31  and  C21_32 
REMARK    7  A    between atoms: C21_32  and  O5_33 
ROOT
HETATM    1  C8  UNL     1     -12.991   4.068 -15.564  1.00  0.00    -0.007 A 
HETATM    2  C9  UNL     1     -11.999   4.970 -15.823  1.00  0.00     0.063 A 
HETATM    3  S1  UNL     1     -10.620   4.037 -15.961  1.00  0.00    -0.100 SA
HETATM    4  C10 UNL     1     -11.329   2.434 -15.676  1.00  0.00     0.030 A 
HETATM    5  C20 UNL     1     -12.627   2.753 -15.497  1.00  0.00    -0.005 A 
ENDROOT
BRANCH   4   6
HETATM    6  C11 UNL     1     -10.496   1.240 -15.721  1.00  0.00     0.057 A 
HETATM    7  C12 UNL     1     -10.457   0.320 -16.701  1.00  0.00     0.094 A 
HETATM    8  C13 UNL     1      -9.524  -0.717 -16.599  1.00  0.00     0.261 A 
HETATM    9  O2  UNL     1      -9.490  -1.560 -17.504  1.00  0.00    -0.267 OA
HETATM   10  N1  UNL     1      -8.672  -0.841 -15.577  1.00  0.00    -0.261 N 
HETATM   11  N2  UNL     1      -8.711   0.071 -14.598  1.00  0.00    -0.248 N 
ATOM     12  H1  UNL     1      -8.008  -1.614 -15.543  1.00  0.00     0.190 HD
HETATM   13  C19 UNL     1      -9.581   1.070 -14.660  1.00  0.00     0.274 A 
HETATM   14  O4  UNL     1      -9.632   1.934 -13.755  1.00  0.00    -0.266 OA
BRANCH  11  15
HETATM   15  C14 UNL     1      -7.790  -0.056 -13.468  1.00  0.00     0.217 C 
BRANCH  15  16
HETATM   16  C15 UNL     1      -6.442   0.393 -13.814  1.00  0.00     0.074 A 
HETATM   17  C16 UNL     1      -5.299  -0.363 -13.798  1.00  0.00     0.060 A 
HETATM   18  C17 UNL     1      -4.261   0.478 -14.200  1.00  0.00     0.058 A 
HETATM   19 CL3  UNL     1      -2.579   0.019 -14.356  1.00  0.00    -0.082 Cl
HETATM   20  C18 UNL     1      -4.842   1.702 -14.437  1.00  0.00     0.166 A 
HETATM   21  O3  UNL     1      -6.108   1.591 -14.197  1.00  0.00    -0.324 OA
ENDBRANCH  15  16
ENDBRANCH  11  15
ENDBRANCH   4   6
BRANCH   5  22
HETATM   22  C21 UNL     1     -13.748   1.727 -15.364  1.00  0.00     0.205 C 
BRANCH  22  23
HETATM   23  O5  UNL     1     -14.141   1.096 -16.459  1.00  0.00    -0.396 OA
ATOM     24  H5  UNL     1     -13.838   0.205 -16.588  1.00  0.00     0.209 HD
ENDBRANCH  22  23
ENDBRANCH   5  22
BRANCH   1  25
HETATM   25  C7  UNL     1     -14.371   4.594 -15.322  1.00  0.00     0.012 A 
HETATM   26  C2  UNL     1     -15.097   5.076 -16.406  1.00  0.00     0.101 A 
HETATM   27  C3  UNL     1     -16.342   5.631 -16.232  1.00  0.00     0.069 A 
HETATM   28 CL1  UNL     1     -17.222   6.225 -17.613  1.00  0.00    -0.081 Cl
HETATM   29  C4  UNL     1     -16.911   5.727 -14.983  1.00  0.00     0.050 A 
HETATM   30  C5  UNL     1     -16.193   5.249 -13.911  1.00  0.00     0.036 A 
HETATM   31 CL2  UNL     1     -16.887   5.355 -12.290  1.00  0.00    -0.084 Cl
HETATM   32  C6  UNL     1     -14.926   4.685 -14.085  1.00  0.00     0.039 A 
BRANCH  26  33
HETATM   33  O1  UNL     1     -14.513   4.973 -17.660  1.00  0.00    -0.353 OA
HETATM   34  C1  UNL     1     -14.831   3.929 -18.563  1.00  0.00     0.210 C 
ENDBRANCH  26  33
ENDBRANCH   1  25
TORSDOF 7
ENDMDL
