MODEL 1
REMARK VINA RESULT: -8.717497244      0.000      0.000
REMARK  7 active torsions:
REMARK  status: ('A' for Active; 'I' for Inactive)
REMARK    1  A    between atoms: O1_2  and  C2_3 
REMARK    2  A    between atoms: C4_5  and  S1_6 
REMARK    3  A    between atoms: S1_6  and  N1_9 
REMARK    4  A    between atoms: N1_9  and  C5_11 
REMARK    5  A    between atoms: C14_26  and  O5_27 
REMARK    6  A    between atoms: O5_27  and  C15_28 
REMARK    7  A    between atoms: C15_28  and  C16_29 
ROOT
HETATM    1  S1  UNL     1      -7.206   4.320 -16.603  1.00  0.00     0.265 S 
HETATM    2  O2  UNL     1      -6.319   4.678 -17.783  1.00  0.00    -0.200 OA
HETATM    3  O3  UNL     1      -7.634   5.609 -15.962  1.00  0.00    -0.200 OA
ENDROOT
BRANCH   1   4
HETATM    4  C4  UNL     1      -6.310   3.328 -15.471  1.00  0.00     0.084 A 
HETATM    5  C3  UNL     1      -6.936   2.430 -14.633  1.00  0.00     0.065 A 
HETATM    6  C2  UNL     1      -6.219   1.662 -13.754  1.00  0.00     0.104 A 
HETATM    7  C14 UNL     1      -4.857   1.784 -13.698  1.00  0.00     0.120 A 
HETATM    8  C13 UNL     1      -4.177   2.671 -14.518  1.00  0.00     0.048 A 
HETATM    9  C12 UNL     1      -4.929   3.420 -15.383  1.00  0.00     0.047 A 
HETATM   10 BR1  UNL     1      -2.295   2.838 -14.441  1.00  0.00    -0.048 Br
BRANCH   6  11
HETATM   11  O1  UNL     1      -6.821   0.743 -12.892  1.00  0.00    -0.353 OA
HETATM   12  C1  UNL     1      -7.741  -0.178 -13.450  1.00  0.00     0.210 C 
ENDBRANCH   6  11
BRANCH   7  13
HETATM   13  O5  UNL     1      -4.086   1.028 -12.824  1.00  0.00    -0.337 OA
BRANCH  13  14
HETATM   14  C15 UNL     1      -4.009  -0.367 -13.068  1.00  0.00     0.288 C 
BRANCH  14  15
HETATM   15  C16 UNL     1      -3.958  -1.110 -11.790  1.00  0.00     0.198 C 
HETATM   16  O6  UNL     1      -2.958  -1.782 -11.474  1.00  0.00    -0.646 OA
HETATM   17  O7  UNL     1      -5.064  -1.038 -10.952  1.00  0.00    -0.646 OA
ENDBRANCH  14  15
ENDBRANCH  13  14
ENDBRANCH   7  13
ENDBRANCH   1   4
BRANCH   1  18
HETATM   18  N1  UNL     1      -8.521   3.422 -17.208  1.00  0.00    -0.245 N 
ATOM     19  H1  UNL     1      -8.362   2.864 -18.047  1.00  0.00     0.182 HD
BRANCH  18  20
HETATM   20  C5  UNL     1      -9.688   3.392 -16.694  1.00  0.00     0.239 A 
HETATM   21  N2  UNL     1     -10.424   4.454 -16.348  1.00  0.00    -0.319 N 
HETATM   22  C6  UNL     1     -11.609   4.010 -15.832  1.00  0.00     0.071 A 
ATOM     23  H2  UNL     1     -10.148   5.431 -16.451  1.00  0.00     0.169 HD
HETATM   24  C7  UNL     1     -12.715   4.661 -15.333  1.00  0.00     0.058 A 
HETATM   25  C11 UNL     1     -11.514   2.636 -15.900  1.00  0.00     0.107 A 
HETATM   26  C8  UNL     1     -13.768   3.895 -14.882  1.00  0.00     0.058 A 
HETATM   27 CL1  UNL     1     -15.185   4.677 -14.241  1.00  0.00    -0.082 Cl
HETATM   28  C9  UNL     1     -13.716   2.523 -14.930  1.00  0.00     0.058 A 
HETATM   29 CL2  UNL     1     -15.064   1.545 -14.353  1.00  0.00    -0.082 Cl
HETATM   30  C10 UNL     1     -12.601   1.919 -15.433  1.00  0.00     0.065 A 
HETATM   31  O4  UNL     1     -10.358   2.309 -16.417  1.00  0.00    -0.277 OA
ENDBRANCH  18  20
ENDBRANCH   1  18
TORSDOF 7
ENDMDL
MODEL 2
REMARK VINA RESULT: -8.681934101      0.810      1.472
REMARK  7 active torsions:
REMARK  status: ('A' for Active; 'I' for Inactive)
REMARK    1  A    between atoms: O1_2  and  C2_3 
REMARK    2  A    between atoms: C4_5  and  S1_6 
REMARK    3  A    between atoms: S1_6  and  N1_9 
REMARK    4  A    between atoms: N1_9  and  C5_11 
REMARK    5  A    between atoms: C14_26  and  O5_27 
REMARK    6  A    between atoms: O5_27  and  C15_28 
REMARK    7  A    between atoms: C15_28  and  C16_29 
ROOT
HETATM    1  S1  UNL     1      -7.181   4.360 -16.610  1.00  0.00     0.265 S 
HETATM    2  O2  UNL     1      -6.258   4.784 -17.740  1.00  0.00    -0.200 OA
HETATM    3  O3  UNL     1      -7.677   5.614 -15.947  1.00  0.00    -0.200 OA
ENDROOT
BRANCH   1   4
HETATM    4  C4  UNL     1      -6.303   3.360 -15.473  1.00  0.00     0.084 A 
HETATM    5  C3  UNL     1      -6.941   2.461 -14.646  1.00  0.00     0.065 A 
HETATM    6  C2  UNL     1      -6.237   1.686 -13.763  1.00  0.00     0.104 A 
HETATM    7  C14 UNL     1      -4.875   1.801 -13.691  1.00  0.00     0.120 A 
HETATM    8  C13 UNL     1      -4.182   2.689 -14.500  1.00  0.00     0.048 A 
HETATM    9  C12 UNL     1      -4.922   3.445 -15.370  1.00  0.00     0.047 A 
HETATM   10 BR1  UNL     1      -2.301   2.847 -14.403  1.00  0.00    -0.048 Br
BRANCH   6  11
HETATM   11  O1  UNL     1      -6.852   0.766 -12.910  1.00  0.00    -0.353 OA
HETATM   12  C1  UNL     1      -7.771  -0.149 -13.482  1.00  0.00     0.210 C 
ENDBRANCH   6  11
BRANCH   7  13
HETATM   13  O5  UNL     1      -4.117   1.038 -12.812  1.00  0.00    -0.337 OA
BRANCH  13  14
HETATM   14  C15 UNL     1      -4.074  -0.361 -13.041  1.00  0.00     0.288 C 
BRANCH  14  15
HETATM   15  C16 UNL     1      -4.076  -1.092 -11.754  1.00  0.00     0.198 C 
HETATM   16  O6  UNL     1      -5.058  -1.048 -10.989  1.00  0.00    -0.646 OA
HETATM   17  O7  UNL     1      -2.945  -1.828 -11.424  1.00  0.00    -0.646 OA
ENDBRANCH  14  15
ENDBRANCH  13  14
ENDBRANCH   7  13
ENDBRANCH   1   4
BRANCH   1  18
HETATM   18  N1  UNL     1      -8.441   3.443 -17.299  1.00  0.00    -0.245 N 
ATOM     19  H1  UNL     1      -8.290   3.066 -18.234  1.00  0.00     0.182 HD
BRANCH  18  20
HETATM   20  C5  UNL     1      -9.558   3.190 -16.736  1.00  0.00     0.239 A 
HETATM   21  N2  UNL     1     -10.403   2.208 -17.066  1.00  0.00    -0.319 N 
HETATM   22  C6  UNL     1     -11.484   2.268 -16.232  1.00  0.00     0.071 A 
ATOM     23  H2  UNL     1     -10.265   1.528 -17.814  1.00  0.00     0.169 HD
HETATM   24  C7  UNL     1     -12.629   1.511 -16.129  1.00  0.00     0.058 A 
HETATM   25  C11 UNL     1     -11.214   3.338 -15.405  1.00  0.00     0.107 A 
HETATM   26  C8  UNL     1     -13.542   1.848 -15.151  1.00  0.00     0.058 A 
HETATM   27 CL1  UNL     1     -15.004   0.918 -14.987  1.00  0.00    -0.082 Cl
HETATM   28  C9  UNL     1     -13.314   2.907 -14.306  1.00  0.00     0.058 A 
HETATM   29 CL2  UNL     1     -14.481   3.336 -13.058  1.00  0.00    -0.082 Cl
HETATM   30  C10 UNL     1     -12.165   3.630 -14.444  1.00  0.00     0.065 A 
HETATM   31  O4  UNL     1     -10.061   3.860 -15.737  1.00  0.00    -0.277 OA
ENDBRANCH  18  20
ENDBRANCH   1  18
TORSDOF 7
ENDMDL
MODEL 3
REMARK VINA RESULT: -8.641081926      4.773      6.031
REMARK  7 active torsions:
REMARK  status: ('A' for Active; 'I' for Inactive)
REMARK    1  A    between atoms: O1_2  and  C2_3 
REMARK    2  A    between atoms: C4_5  and  S1_6 
REMARK    3  A    between atoms: S1_6  and  N1_9 
REMARK    4  A    between atoms: N1_9  and  C5_11 
REMARK    5  A    between atoms: C14_26  and  O5_27 
REMARK    6  A    between atoms: O5_27  and  C15_28 
REMARK    7  A    between atoms: C15_28  and  C16_29 
ROOT
HETATM    1  S1  UNL     1      -7.293   4.270 -16.741  1.00  0.00     0.265 S 
HETATM    2  O2  UNL     1      -8.505   3.495 -17.230  1.00  0.00    -0.200 OA
HETATM    3  O3  UNL     1      -6.422   4.531 -17.936  1.00  0.00    -0.200 OA
ENDROOT
BRANCH   1   4
HETATM    4  C4  UNL     1      -6.437   3.330 -15.538  1.00  0.00     0.084 A 
HETATM    5  C3  UNL     1      -7.080   2.413 -14.734  1.00  0.00     0.065 A 
HETATM    6  C2  UNL     1      -6.393   1.686 -13.798  1.00  0.00     0.104 A 
HETATM    7  C14 UNL     1      -5.045   1.867 -13.650  1.00  0.00     0.120 A 
HETATM    8  C13 UNL     1      -4.348   2.776 -14.432  1.00  0.00     0.048 A 
HETATM    9  C12 UNL     1      -5.070   3.483 -15.356  1.00  0.00     0.047 A 
HETATM   10 BR1  UNL     1      -2.485   3.026 -14.228  1.00  0.00    -0.048 Br
BRANCH   6  11
HETATM   11  O1  UNL     1      -7.013   0.749 -12.968  1.00  0.00    -0.353 OA
HETATM   12  C1  UNL     1      -7.681  -0.337 -13.585  1.00  0.00     0.210 C 
ENDBRANCH   6  11
BRANCH   7  13
HETATM   13  O5  UNL     1      -4.305   1.155 -12.715  1.00  0.00    -0.337 OA
BRANCH  13  14
HETATM   14  C15 UNL     1      -4.019  -0.202 -13.014  1.00  0.00     0.288 C 
BRANCH  14  15
HETATM   15  C16 UNL     1      -4.073  -1.021 -11.783  1.00  0.00     0.198 C 
HETATM   16  O6  UNL     1      -5.070  -1.000 -11.037  1.00  0.00    -0.646 OA
HETATM   17  O7  UNL     1      -2.974  -1.815 -11.482  1.00  0.00    -0.646 OA
ENDBRANCH  14  15
ENDBRANCH  13  14
ENDBRANCH   7  13
ENDBRANCH   1   4
BRANCH   1  18
HETATM   18  N1  UNL     1      -7.864   5.706 -16.022  1.00  0.00    -0.245 N 
ATOM     19  H1  UNL     1      -8.633   5.624 -15.357  1.00  0.00     0.182 HD
BRANCH  18  20
HETATM   20  C5  UNL     1      -7.403   6.873 -16.249  1.00  0.00     0.239 A 
HETATM   21  N2  UNL     1      -6.269   7.161 -16.899  1.00  0.00    -0.319 N 
HETATM   22  C6  UNL     1      -6.124   8.520 -16.934  1.00  0.00     0.071 A 
ATOM     23  H2  UNL     1      -5.623   6.482 -17.300  1.00  0.00     0.169 HD
HETATM   24  C7  UNL     1      -5.159   9.343 -17.469  1.00  0.00     0.058 A 
HETATM   25  C11 UNL     1      -7.234   8.996 -16.270  1.00  0.00     0.107 A 
HETATM   26  C8  UNL     1      -5.319  10.705 -17.325  1.00  0.00     0.058 A 
HETATM   27 CL1  UNL     1      -4.122  11.783 -17.985  1.00  0.00    -0.082 Cl
HETATM   28  C9  UNL     1      -6.409  11.224 -16.670  1.00  0.00     0.058 A 
HETATM   29 CL2  UNL     1      -6.612  12.965 -16.489  1.00  0.00    -0.082 Cl
HETATM   30  C10 UNL     1      -7.342  10.371 -16.156  1.00  0.00     0.065 A 
HETATM   31  O4  UNL     1      -7.969   7.988 -15.877  1.00  0.00    -0.277 OA
ENDBRANCH  18  20
ENDBRANCH   1  18
TORSDOF 7
ENDMDL
MODEL 4
REMARK VINA RESULT: -8.608732877      4.369      5.265
REMARK  7 active torsions:
REMARK  status: ('A' for Active; 'I' for Inactive)
REMARK    1  A    between atoms: O1_2  and  C2_3 
REMARK    2  A    between atoms: C4_5  and  S1_6 
REMARK    3  A    between atoms: S1_6  and  N1_9 
REMARK    4  A    between atoms: N1_9  and  C5_11 
REMARK    5  A    between atoms: C14_26  and  O5_27 
REMARK    6  A    between atoms: O5_27  and  C15_28 
REMARK    7  A    between atoms: C15_28  and  C16_29 
ROOT
HETATM    1  S1  UNL     1      -7.390   4.281 -16.657  1.00  0.00     0.265 S 
HETATM    2  O2  UNL     1      -8.305   3.374 -17.463  1.00  0.00    -0.200 OA
HETATM    3  O3  UNL     1      -6.465   4.956 -17.629  1.00  0.00    -0.200 OA
ENDROOT
BRANCH   1   4
HETATM    4  C4  UNL     1      -6.488   3.329 -15.496  1.00  0.00     0.084 A 
HETATM    5  C3  UNL     1      -7.100   2.405 -14.677  1.00  0.00     0.065 A 
HETATM    6  C2  UNL     1      -6.378   1.670 -13.775  1.00  0.00     0.104 A 
HETATM    7  C14 UNL     1      -5.025   1.849 -13.677  1.00  0.00     0.120 A 
HETATM    8  C13 UNL     1      -4.358   2.764 -14.478  1.00  0.00     0.048 A 
HETATM    9  C12 UNL     1      -5.115   3.480 -15.367  1.00  0.00     0.047 A 
HETATM   10 BR1  UNL     1      -2.488   3.011 -14.345  1.00  0.00    -0.048 Br
BRANCH   6  11
HETATM   11  O1  UNL     1      -6.966   0.726 -12.928  1.00  0.00    -0.353 OA
HETATM   12  C1  UNL     1      -7.775  -0.275 -13.521  1.00  0.00     0.210 C 
ENDBRANCH   6  11
BRANCH   7  13
HETATM   13  O5  UNL     1      -4.249   1.127 -12.779  1.00  0.00    -0.337 OA
BRANCH  13  14
HETATM   14  C15 UNL     1      -4.071  -0.255 -13.042  1.00  0.00     0.288 C 
BRANCH  14  15
HETATM   15  C16 UNL     1      -4.080  -1.023 -11.777  1.00  0.00     0.198 C 
HETATM   16  O6  UNL     1      -5.065  -1.001 -11.015  1.00  0.00    -0.646 OA
HETATM   17  O7  UNL     1      -2.952  -1.771 -11.464  1.00  0.00    -0.646 OA
ENDBRANCH  14  15
ENDBRANCH  13  14
ENDBRANCH   7  13
ENDBRANCH   1   4
BRANCH   1  18
HETATM   18  N1  UNL     1      -8.379   5.386 -15.819  1.00  0.00    -0.245 N 
ATOM     19  H1  UNL     1      -9.104   5.003 -15.213  1.00  0.00     0.182 HD
BRANCH  18  20
HETATM   20  C5  UNL     1      -8.284   6.657 -15.891  1.00  0.00     0.239 A 
HETATM   21  N2  UNL     1      -7.186   7.348 -16.218  1.00  0.00    -0.319 N 
HETATM   22  C6  UNL     1      -7.486   8.680 -16.181  1.00  0.00     0.071 A 
ATOM     23  H2  UNL     1      -6.278   6.948 -16.456  1.00  0.00     0.169 HD
HETATM   24  C7  UNL     1      -6.744   9.814 -16.428  1.00  0.00     0.058 A 
HETATM   25  C11 UNL     1      -8.815   8.718 -15.814  1.00  0.00     0.107 A 
HETATM   26  C8  UNL     1      -7.368  11.036 -16.297  1.00  0.00     0.058 A 
HETATM   27 CL1  UNL     1      -6.466  12.494 -16.598  1.00  0.00    -0.082 Cl
HETATM   28  C9  UNL     1      -8.689  11.121 -15.932  1.00  0.00     0.058 A 
HETATM   29 CL2  UNL     1      -9.485  12.684 -15.766  1.00  0.00    -0.082 Cl
HETATM   30  C10 UNL     1      -9.387   9.972 -15.698  1.00  0.00     0.065 A 
HETATM   31  O4  UNL     1      -9.252   7.496 -15.650  1.00  0.00    -0.277 OA
ENDBRANCH  18  20
ENDBRANCH   1  18
TORSDOF 7
ENDMDL
MODEL 5
REMARK VINA RESULT: -8.306046435      4.685      5.860
REMARK  7 active torsions:
REMARK  status: ('A' for Active; 'I' for Inactive)
REMARK    1  A    between atoms: O1_2  and  C2_3 
REMARK    2  A    between atoms: C4_5  and  S1_6 
REMARK    3  A    between atoms: S1_6  and  N1_9 
REMARK    4  A    between atoms: N1_9  and  C5_11 
REMARK    5  A    between atoms: C14_26  and  O5_27 
REMARK    6  A    between atoms: O5_27  and  C15_28 
REMARK    7  A    between atoms: C15_28  and  C16_29 
ROOT
HETATM    1  S1  UNL     1      -7.174   4.485 -16.436  1.00  0.00     0.265 S 
HETATM    2  O2  UNL     1      -8.254   5.199 -15.641  1.00  0.00    -0.200 OA
HETATM    3  O3  UNL     1      -7.864   3.695 -17.512  1.00  0.00    -0.200 OA
ENDROOT
BRANCH   1   4
HETATM    4  C4  UNL     1      -6.260   3.432 -15.378  1.00  0.00     0.084 A 
HETATM    5  C3  UNL     1      -6.873   2.509 -14.559  1.00  0.00     0.065 A 
HETATM    6  C2  UNL     1      -6.141   1.693 -13.737  1.00  0.00     0.104 A 
HETATM    7  C14 UNL     1      -4.776   1.789 -13.722  1.00  0.00     0.120 A 
HETATM    8  C13 UNL     1      -4.108   2.700 -14.526  1.00  0.00     0.048 A 
HETATM    9  C12 UNL     1      -4.874   3.497 -15.333  1.00  0.00     0.047 A 
HETATM   10 BR1  UNL     1      -2.222   2.833 -14.506  1.00  0.00    -0.048 Br
BRANCH   6  11
HETATM   11  O1  UNL     1      -6.731   0.748 -12.894  1.00  0.00    -0.353 OA
HETATM   12  C1  UNL     1      -7.768  -0.055 -13.430  1.00  0.00     0.210 C 
ENDBRANCH   6  11
BRANCH   7  13
HETATM   13  O5  UNL     1      -3.991   0.984 -12.907  1.00  0.00    -0.337 OA
BRANCH  13  14
HETATM   14  C15 UNL     1      -4.050  -0.415 -13.128  1.00  0.00     0.288 C 
BRANCH  14  15
HETATM   15  C16 UNL     1      -3.964  -1.142 -11.842  1.00  0.00     0.198 C 
HETATM   16  O6  UNL     1      -2.963  -1.825 -11.553  1.00  0.00    -0.646 OA
HETATM   17  O7  UNL     1      -5.036  -1.041 -10.965  1.00  0.00    -0.646 OA
ENDBRANCH  14  15
ENDBRANCH  13  14
ENDBRANCH   7  13
ENDBRANCH   1   4
BRANCH   1  18
HETATM   18  N1  UNL     1      -6.134   5.679 -17.066  1.00  0.00    -0.245 N 
ATOM     19  H1  UNL     1      -5.318   5.362 -17.589  1.00  0.00     0.182 HD
BRANCH  18  20
HETATM   20  C5  UNL     1      -6.297   6.937 -16.935  1.00  0.00     0.239 A 
HETATM   21  N2  UNL     1      -7.469   7.579 -16.877  1.00  0.00    -0.319 N 
HETATM   22  C6  UNL     1      -7.223   8.916 -16.734  1.00  0.00     0.071 A 
ATOM     23  H2  UNL     1      -8.390   7.145 -16.930  1.00  0.00     0.169 HD
HETATM   24  C7  UNL     1      -8.050  10.012 -16.624  1.00  0.00     0.058 A 
HETATM   25  C11 UNL     1      -5.848   9.008 -16.714  1.00  0.00     0.107 A 
HETATM   26  C8  UNL     1      -7.464  11.253 -16.490  1.00  0.00     0.058 A 
HETATM   27 CL1  UNL     1      -8.471  12.665 -16.349  1.00  0.00    -0.082 Cl
HETATM   28  C9  UNL     1      -6.097  11.391 -16.466  1.00  0.00     0.058 A 
HETATM   29 CL2  UNL     1      -5.350  12.977 -16.292  1.00  0.00    -0.082 Cl
HETATM   30  C10 UNL     1      -5.316  10.278 -16.577  1.00  0.00     0.065 A 
HETATM   31  O4  UNL     1      -5.334   7.811 -16.836  1.00  0.00    -0.277 OA
ENDBRANCH  18  20
ENDBRANCH   1  18
TORSDOF 7
ENDMDL
