MODEL 1
REMARK VINA RESULT: -6.308318377      0.000      0.000
REMARK  9 active torsions:
REMARK  status: ('A' for Active; 'I' for Inactive)
REMARK    1  A    between atoms: C3_6  and  O1_7 
REMARK    2  A    between atoms: C3_6  and  C4_9 
REMARK    3  A    between atoms: C4_9  and  O2_10 
REMARK    4  A    between atoms: C4_9  and  C5_12 
REMARK       I    between atoms: C5_12  and  N2_14 
REMARK    5  A    between atoms: N2_14  and  C6_16 
REMARK    6  A    between atoms: C8_20  and  S1_21 
REMARK    7  A    between atoms: S1_21  and  N4_22 
REMARK    8  A    between atoms: N5_27  and  N6_28 
REMARK    9  A    between atoms: N6_28  and  N7_30 
ROOT
HETATM    1  C6  UNL     1      19.357  29.061   9.723  1.00  0.00     0.708 A 
HETATM    2  N3  UNL     1      19.285  27.908  10.413  1.00  0.00    -0.197 N 
ATOM      3  H3  UNL     1      19.861  27.668  11.219  1.00  0.00     0.183 HD
HETATM    4  C7  UNL     1      18.340  27.125   9.879  1.00  0.00     0.152 A 
HETATM    5  C8  UNL     1      17.793  27.793   8.817  1.00  0.00     0.206 A 
HETATM    6  N5  UNL     1      18.434  28.968   8.749  1.00  0.00    -0.058 N 
ENDROOT
BRANCH   1   7
HETATM    7  N2  UNL     1      20.166  30.027   9.984  1.00  0.00    -0.155 N 
HETATM    8  C5  UNL     1      19.985  30.773  11.175  1.00  0.00     0.269 C 
HETATM    9  O3  UNL     1      20.136  30.168  12.266  1.00  0.00    -0.270 OA
ATOM     10  H2  UNL     1      20.927  30.253   9.343  1.00  0.00     0.187 HD
BRANCH   8  11
HETATM   11  C4  UNL     1      19.631  32.216  11.196  1.00  0.00     0.276 C 
BRANCH  11  12
HETATM   12  C3  UNL     1      18.492  32.548  10.287  1.00  0.00     0.287 A 
HETATM   13  C2  UNL     1      17.443  33.472  10.865  1.00  0.00     0.251 A 
HETATM   14  C1  UNL     1      17.437  33.727  12.351  1.00  0.00     0.045 C 
HETATM   15  N1  UNL     1      17.177  32.023  10.554  1.00  0.00    -0.029 N 
ATOM     16  H12 UNL     1      16.826  31.235  11.097  1.00  0.00     0.281 HD
ATOM     17  H11 UNL     1      16.480  31.536   9.990  1.00  0.00     0.281 HD
BRANCH  12  18
HETATM   18  O1  UNL     1      18.762  32.742   8.924  1.00  0.00    -0.361 OA
ATOM     19  H1  UNL     1      18.590  31.988   8.372  1.00  0.00     0.212 HD
ENDBRANCH  12  18
ENDBRANCH  11  12
BRANCH  11  20
HETATM   20  O2  UNL     1      20.723  33.010  10.823  1.00  0.00    -0.381 OA
ATOM     21  H2  UNL     1      21.418  32.430  10.535  1.00  0.00     0.210 HD
ENDBRANCH  11  20
ENDBRANCH   8  11
ENDBRANCH   1   7
BRANCH   6  22
HETATM   22  N6  UNL     1      18.193  29.978   7.805  1.00  0.00    -0.227 N 
ATOM     23  H6  UNL     1      17.703  30.822   8.103  1.00  0.00     0.209 HD
BRANCH  22  24
HETATM   24  N7  UNL     1      18.594  29.873   6.490  1.00  0.00    -0.330 N 
ATOM     25  H72 UNL     1      17.879  29.957   5.768  1.00  0.00     0.178 HD
ATOM     26  H71 UNL     1      19.566  29.716   6.225  1.00  0.00     0.178 HD
ENDBRANCH  22  24
ENDBRANCH   6  22
BRANCH   5  27
HETATM   27  S1  UNL     1      16.520  27.202   7.785  1.00  0.00     0.276 S 
HETATM   28  O4  UNL     1      15.328  26.828   8.613  1.00  0.00    -0.199 OA
HETATM   29  O5  UNL     1      16.094  28.251   6.788  1.00  0.00    -0.199 OA
BRANCH  27  30
HETATM   30  N4  UNL     1      17.016  25.821   6.910  1.00  0.00    -0.323 N 
ATOM     31  H42 UNL     1      17.409  24.989   7.350  1.00  0.00     0.169 HD
ATOM     32  H41 UNL     1      16.868  25.942   5.908  1.00  0.00     0.169 HD
ENDBRANCH  27  30
ENDBRANCH   5  27
TORSDOF 9
ENDMDL
MODEL 2
REMARK VINA RESULT: -6.162475824      3.974      7.027
REMARK  9 active torsions:
REMARK  status: ('A' for Active; 'I' for Inactive)
REMARK    1  A    between atoms: C3_6  and  O1_7 
REMARK    2  A    between atoms: C3_6  and  C4_9 
REMARK    3  A    between atoms: C4_9  and  O2_10 
REMARK    4  A    between atoms: C4_9  and  C5_12 
REMARK       I    between atoms: C5_12  and  N2_14 
REMARK    5  A    between atoms: N2_14  and  C6_16 
REMARK    6  A    between atoms: C8_20  and  S1_21 
REMARK    7  A    between atoms: S1_21  and  N4_22 
REMARK    8  A    between atoms: N5_27  and  N6_28 
REMARK    9  A    between atoms: N6_28  and  N7_30 
ROOT
HETATM    1  C6  UNL     1      19.316  27.097  11.341  1.00  0.00     0.708 A 
HETATM    2  N3  UNL     1      19.451  27.381  12.649  1.00  0.00    -0.197 N 
ATOM      3  H3  UNL     1      19.419  26.698  13.406  1.00  0.00     0.183 HD
HETATM    4  C7  UNL     1      19.632  28.698  12.805  1.00  0.00     0.152 A 
HETATM    5  C8  UNL     1      19.613  29.273  11.564  1.00  0.00     0.206 A 
HETATM    6  N5  UNL     1      19.418  28.272  10.694  1.00  0.00    -0.058 N 
ENDROOT
BRANCH   1   7
HETATM    7  N2  UNL     1      19.128  25.919  10.858  1.00  0.00    -0.155 N 
HETATM    8  C5  UNL     1      20.253  25.117  10.545  1.00  0.00     0.269 C 
HETATM    9  O3  UNL     1      20.991  24.759  11.497  1.00  0.00    -0.270 OA
ATOM     10  H2  UNL     1      18.183  25.569  10.702  1.00  0.00     0.187 HD
BRANCH   8  11
HETATM   11  C4  UNL     1      20.597  24.683   9.166  1.00  0.00     0.276 C 
BRANCH  11  12
HETATM   12  C3  UNL     1      21.988  24.150   9.055  1.00  0.00     0.287 A 
HETATM   13  C2  UNL     1      22.149  22.923   8.184  1.00  0.00     0.251 A 
HETATM   14  C1  UNL     1      20.918  22.159   7.768  1.00  0.00     0.045 C 
HETATM   15  N1  UNL     1      22.334  22.898   9.678  1.00  0.00    -0.029 N 
ATOM     16  H12 UNL     1      21.928  22.346  10.433  1.00  0.00     0.281 HD
ATOM     17  H11 UNL     1      23.091  22.598  10.293  1.00  0.00     0.281 HD
BRANCH  12  18
HETATM   18  O1  UNL     1      23.049  25.065   8.986  1.00  0.00    -0.361 OA
ATOM     19  H1  UNL     1      22.800  25.947   8.734  1.00  0.00     0.212 HD
ENDBRANCH  12  18
ENDBRANCH  11  12
BRANCH  11  20
HETATM   20  O2  UNL     1      20.468  25.741   8.258  1.00  0.00    -0.381 OA
ATOM     21  H2  UNL     1      19.549  25.816   8.027  1.00  0.00     0.210 HD
ENDBRANCH  11  20
ENDBRANCH   8  11
ENDBRANCH   1   7
BRANCH   6  22
HETATM   22  N6  UNL     1      19.332  28.404   9.300  1.00  0.00    -0.227 N 
ATOM     23  H6  UNL     1      19.948  27.841   8.714  1.00  0.00     0.209 HD
BRANCH  22  24
HETATM   24  N7  UNL     1      18.444  29.266   8.692  1.00  0.00    -0.330 N 
ATOM     25  H72 UNL     1      17.841  29.827   9.292  1.00  0.00     0.178 HD
ATOM     26  H71 UNL     1      18.376  29.357   7.678  1.00  0.00     0.178 HD
ENDBRANCH  22  24
ENDBRANCH   6  22
BRANCH   5  27
HETATM   27  S1  UNL     1      19.806  30.971  11.222  1.00  0.00     0.276 S 
HETATM   28  O4  UNL     1      20.713  31.150  10.042  1.00  0.00    -0.199 OA
HETATM   29  O5  UNL     1      18.481  31.618  10.902  1.00  0.00    -0.199 OA
BRANCH  27  30
HETATM   30  N4  UNL     1      20.487  31.802  12.550  1.00  0.00    -0.323 N 
ATOM     31  H42 UNL     1      20.803  31.337  13.401  1.00  0.00     0.169 HD
ATOM     32  H41 UNL     1      20.532  32.806  12.377  1.00  0.00     0.169 HD
ENDBRANCH  27  30
ENDBRANCH   5  27
TORSDOF 9
ENDMDL
MODEL 3
REMARK VINA RESULT: -6.065648040      2.564      6.404
REMARK  9 active torsions:
REMARK  status: ('A' for Active; 'I' for Inactive)
REMARK    1  A    between atoms: C3_6  and  O1_7 
REMARK    2  A    between atoms: C3_6  and  C4_9 
REMARK    3  A    between atoms: C4_9  and  O2_10 
REMARK    4  A    between atoms: C4_9  and  C5_12 
REMARK       I    between atoms: C5_12  and  N2_14 
REMARK    5  A    between atoms: N2_14  and  C6_16 
REMARK    6  A    between atoms: C8_20  and  S1_21 
REMARK    7  A    between atoms: S1_21  and  N4_22 
REMARK    8  A    between atoms: N5_27  and  N6_28 
REMARK    9  A    between atoms: N6_28  and  N7_30 
ROOT
HETATM    1  C6  UNL     1      19.533  28.413  10.452  1.00  0.00     0.708 A 
HETATM    2  N3  UNL     1      19.578  28.169  11.774  1.00  0.00    -0.197 N 
ATOM      3  H3  UNL     1      19.478  27.250  12.206  1.00  0.00     0.183 HD
HETATM    4  C7  UNL     1      19.773  29.315  12.435  1.00  0.00     0.152 A 
HETATM    5  C8  UNL     1      19.854  30.323  11.514  1.00  0.00     0.206 A 
HETATM    6  N5  UNL     1      19.704  29.741  10.315  1.00  0.00    -0.058 N 
ENDROOT
BRANCH   1   7
HETATM    7  N2  UNL     1      19.358  27.521   9.542  1.00  0.00    -0.155 N 
HETATM    8  C5  UNL     1      18.051  27.292   9.046  1.00  0.00     0.269 C 
HETATM    9  O3  UNL     1      17.493  28.233   8.426  1.00  0.00    -0.270 OA
ATOM     10  H2  UNL     1      20.149  26.986   9.182  1.00  0.00     0.187 HD
BRANCH   8  11
HETATM   11  C4  UNL     1      17.318  26.011   9.220  1.00  0.00     0.276 C 
BRANCH  11  12
HETATM   12  C3  UNL     1      16.099  25.918   8.362  1.00  0.00     0.287 A 
HETATM   13  C2  UNL     1      15.779  24.538   7.829  1.00  0.00     0.251 A 
HETATM   14  C1  UNL     1      16.830  23.462   7.919  1.00  0.00     0.045 C 
HETATM   15  N1  UNL     1      16.228  25.673   6.947  1.00  0.00    -0.029 N 
ATOM     16  H12 UNL     1      16.985  25.791   6.274  1.00  0.00     0.281 HD
ATOM     17  H11 UNL     1      15.843  26.117   6.113  1.00  0.00     0.281 HD
BRANCH  12  18
HETATM   18  O1  UNL     1      14.980  26.690   8.706  1.00  0.00    -0.361 OA
ATOM     19  H1  UNL     1      14.915  26.910   9.629  1.00  0.00     0.212 HD
ENDBRANCH  12  18
ENDBRANCH  11  12
BRANCH  11  20
HETATM   20  O2  UNL     1      16.920  25.835  10.551  1.00  0.00    -0.381 OA
ATOM     21  H2  UNL     1      17.670  25.517  11.040  1.00  0.00     0.210 HD
ENDBRANCH  11  20
ENDBRANCH   8  11
ENDBRANCH   1   7
BRANCH   6  22
HETATM   22  N6  UNL     1      19.721  30.401   9.077  1.00  0.00    -0.227 N 
ATOM     23  H6  UNL     1      20.555  30.329   8.494  1.00  0.00     0.209 HD
BRANCH  22  24
HETATM   24  N7  UNL     1      18.654  31.144   8.620  1.00  0.00    -0.330 N 
ATOM     25  H72 UNL     1      17.812  30.642   8.340  1.00  0.00     0.178 HD
ATOM     26  H71 UNL     1      18.682  32.162   8.555  1.00  0.00     0.178 HD
ENDBRANCH  22  24
ENDBRANCH   6  22
BRANCH   5  27
HETATM   27  S1  UNL     1      20.103  32.011  11.864  1.00  0.00     0.276 S 
HETATM   28  O4  UNL     1      21.041  32.155  13.025  1.00  0.00    -0.199 OA
HETATM   29  O5  UNL     1      20.700  32.733  10.682  1.00  0.00    -0.199 OA
BRANCH  27  30
HETATM   30  N4  UNL     1      18.636  32.788  12.265  1.00  0.00    -0.323 N 
ATOM     31  H42 UNL     1      18.340  33.675  11.858  1.00  0.00     0.169 HD
ATOM     32  H41 UNL     1      18.107  32.254  12.955  1.00  0.00     0.169 HD
ENDBRANCH  27  30
ENDBRANCH   5  27
TORSDOF 9
ENDMDL
MODEL 4
REMARK VINA RESULT: -6.040825682      4.969      7.534
REMARK  9 active torsions:
REMARK  status: ('A' for Active; 'I' for Inactive)
REMARK    1  A    between atoms: C3_6  and  O1_7 
REMARK    2  A    between atoms: C3_6  and  C4_9 
REMARK    3  A    between atoms: C4_9  and  O2_10 
REMARK    4  A    between atoms: C4_9  and  C5_12 
REMARK       I    between atoms: C5_12  and  N2_14 
REMARK    5  A    between atoms: N2_14  and  C6_16 
REMARK    6  A    between atoms: C8_20  and  S1_21 
REMARK    7  A    between atoms: S1_21  and  N4_22 
REMARK    8  A    between atoms: N5_27  and  N6_28 
REMARK    9  A    between atoms: N6_28  and  N7_30 
ROOT
HETATM    1  C6  UNL     1      15.830  24.680  10.248  1.00  0.00     0.708 A 
HETATM    2  N3  UNL     1      15.361  25.317   9.160  1.00  0.00    -0.197 N 
ATOM      3  H3  UNL     1      14.460  25.137   8.715  1.00  0.00     0.183 HD
HETATM    4  C7  UNL     1      16.257  26.222   8.749  1.00  0.00     0.152 A 
HETATM    5  C8  UNL     1      17.329  26.164   9.596  1.00  0.00     0.206 A 
HETATM    6  N5  UNL     1      17.038  25.216  10.497  1.00  0.00    -0.058 N 
ENDROOT
BRANCH   1   7
HETATM    7  N2  UNL     1      15.207  23.752  10.885  1.00  0.00    -0.155 N 
HETATM    8  C5  UNL     1      14.290  24.113  11.903  1.00  0.00     0.269 C 
HETATM    9  O3  UNL     1      13.266  24.755  11.559  1.00  0.00    -0.270 OA
ATOM     10  H2  UNL     1      15.371  22.771  10.661  1.00  0.00     0.187 HD
BRANCH   8  11
HETATM   11  C4  UNL     1      14.478  23.773  13.338  1.00  0.00     0.276 C 
BRANCH  11  12
HETATM   12  C3  UNL     1      14.378  24.964  14.234  1.00  0.00     0.287 A 
HETATM   13  C2  UNL     1      13.253  24.926  15.246  1.00  0.00     0.251 A 
HETATM   14  C1  UNL     1      12.161  23.899  15.083  1.00  0.00     0.045 C 
HETATM   15  N1  UNL     1      13.281  25.888  14.088  1.00  0.00    -0.029 N 
ATOM     16  H12 UNL     1      12.633  26.105  13.331  1.00  0.00     0.281 HD
ATOM     17  H11 UNL     1      13.216  26.903  14.009  1.00  0.00     0.281 HD
BRANCH  12  18
HETATM   18  O1  UNL     1      15.563  25.555  14.694  1.00  0.00    -0.361 OA
ATOM     19  H1  UNL     1      15.738  26.422  14.346  1.00  0.00     0.212 HD
ENDBRANCH  12  18
ENDBRANCH  11  12
BRANCH  11  20
HETATM   20  O2  UNL     1      15.726  23.176  13.556  1.00  0.00    -0.381 OA
ATOM     21  H2  UNL     1      15.600  22.450  14.155  1.00  0.00     0.210 HD
ENDBRANCH  11  20
ENDBRANCH   8  11
ENDBRANCH   1   7
BRANCH   6  22
HETATM   22  N6  UNL     1      17.861  24.819  11.563  1.00  0.00    -0.227 N 
ATOM     23  H6  UNL     1      18.524  24.058  11.414  1.00  0.00     0.209 HD
BRANCH  22  24
HETATM   24  N7  UNL     1      17.807  25.419  12.803  1.00  0.00    -0.330 N 
ATOM     25  H72 UNL     1      17.084  26.121  12.959  1.00  0.00     0.178 HD
ATOM     26  H71 UNL     1      18.457  25.185  13.553  1.00  0.00     0.178 HD
ENDBRANCH  22  24
ENDBRANCH   6  22
BRANCH   5  27
HETATM   27  S1  UNL     1      18.767  27.142   9.492  1.00  0.00     0.276 S 
HETATM   28  O4  UNL     1      19.268  27.455  10.870  1.00  0.00    -0.199 OA
HETATM   29  O5  UNL     1      19.863  26.427   8.742  1.00  0.00    -0.199 OA
BRANCH  27  30
HETATM   30  N4  UNL     1      18.461  28.618   8.688  1.00  0.00    -0.323 N 
ATOM     31  H42 UNL     1      17.872  29.356   9.073  1.00  0.00     0.169 HD
ATOM     32  H41 UNL     1      18.940  28.658   7.788  1.00  0.00     0.169 HD
ENDBRANCH  27  30
ENDBRANCH   5  27
TORSDOF 9
ENDMDL
MODEL 5
REMARK VINA RESULT: -6.033567052      2.915      6.770
REMARK  9 active torsions:
REMARK  status: ('A' for Active; 'I' for Inactive)
REMARK    1  A    between atoms: C3_6  and  O1_7 
REMARK    2  A    between atoms: C3_6  and  C4_9 
REMARK    3  A    between atoms: C4_9  and  O2_10 
REMARK    4  A    between atoms: C4_9  and  C5_12 
REMARK       I    between atoms: C5_12  and  N2_14 
REMARK    5  A    between atoms: N2_14  and  C6_16 
REMARK    6  A    between atoms: C8_20  and  S1_21 
REMARK    7  A    between atoms: S1_21  and  N4_22 
REMARK    8  A    between atoms: N5_27  and  N6_28 
REMARK    9  A    between atoms: N6_28  and  N7_30 
ROOT
HETATM    1  C6  UNL     1      18.433  27.337   9.296  1.00  0.00     0.708 A 
HETATM    2  N3  UNL     1      19.073  26.869  10.382  1.00  0.00    -0.197 N 
ATOM      3  H3  UNL     1      19.151  25.885  10.641  1.00  0.00     0.183 HD
HETATM    4  C7  UNL     1      19.592  27.891  11.073  1.00  0.00     0.152 A 
HETATM    5  C8  UNL     1      19.275  29.046  10.413  1.00  0.00     0.206 A 
HETATM    6  N5  UNL     1      18.570  28.675   9.335  1.00  0.00    -0.058 N 
ENDROOT
BRANCH   1   7
HETATM    7  N2  UNL     1      17.827  26.609   8.425  1.00  0.00    -0.155 N 
HETATM    8  C5  UNL     1      16.436  26.382   8.568  1.00  0.00     0.269 C 
HETATM    9  O3  UNL     1      15.673  27.377   8.471  1.00  0.00    -0.270 OA
ATOM     10  H2  UNL     1      18.340  26.202   7.644  1.00  0.00     0.187 HD
BRANCH   8  11
HETATM   11  C4  UNL     1      15.842  25.043   8.823  1.00  0.00     0.276 C 
BRANCH  11  12
HETATM   12  C3  UNL     1      14.453  24.914   8.291  1.00  0.00     0.287 A 
HETATM   13  C2  UNL     1      14.240  23.804   7.284  1.00  0.00     0.251 A 
HETATM   14  C1  UNL     1      15.445  23.143   6.664  1.00  0.00     0.045 C 
HETATM   15  N1  UNL     1      14.167  25.264   6.922  1.00  0.00    -0.029 N 
ATOM     16  H12 UNL     1      14.634  25.847   6.228  1.00  0.00     0.281 HD
ATOM     17  H11 UNL     1      13.461  25.848   6.473  1.00  0.00     0.281 HD
BRANCH  12  18
HETATM   18  O1  UNL     1      13.380  25.126   9.169  1.00  0.00    -0.361 OA
ATOM     19  H1  UNL     1      13.613  25.540   9.992  1.00  0.00     0.212 HD
ENDBRANCH  12  18
ENDBRANCH  11  12
BRANCH  11  20
HETATM   20  O2  UNL     1      15.806  24.760  10.194  1.00  0.00    -0.381 OA
ATOM     21  H2  UNL     1      16.114  25.530  10.658  1.00  0.00     0.210 HD
ENDBRANCH  11  20
ENDBRANCH   8  11
ENDBRANCH   1   7
BRANCH   6  22
HETATM   22  N6  UNL     1      18.038  29.541   8.367  1.00  0.00    -0.227 N 
ATOM     23  H6  UNL     1      17.037  29.508   8.175  1.00  0.00     0.209 HD
BRANCH  22  24
HETATM   24  N7  UNL     1      18.818  30.435   7.664  1.00  0.00    -0.330 N 
ATOM     25  H72 UNL     1      19.454  31.029   8.196  1.00  0.00     0.178 HD
ATOM     26  H71 UNL     1      18.778  30.516   6.649  1.00  0.00     0.178 HD
ENDBRANCH  22  24
ENDBRANCH   6  22
BRANCH   5  27
HETATM   27  S1  UNL     1      19.718  30.658  10.904  1.00  0.00     0.276 S 
HETATM   28  O4  UNL     1      20.861  31.148  10.065  1.00  0.00    -0.199 OA
HETATM   29  O5  UNL     1      18.565  31.617  10.738  1.00  0.00    -0.199 OA
BRANCH  27  30
HETATM   30  N4  UNL     1      20.202  30.701  12.541  1.00  0.00    -0.323 N 
ATOM     31  H42 UNL     1      21.155  30.904  12.841  1.00  0.00     0.169 HD
ATOM     32  H41 UNL     1      19.421  30.498  13.166  1.00  0.00     0.169 HD
ENDBRANCH  27  30
ENDBRANCH   5  27
TORSDOF 9
ENDMDL
