MODEL 1
REMARK VINA RESULT: -8.048058173      0.000      0.000
REMARK  5 active torsions:
REMARK  status: ('A' for Active; 'I' for Inactive)
REMARK    1  A    between atoms: C7_8  and  N2_9 
REMARK    2  A    between atoms: N2_9  and  C8_11 
REMARK    3  A    between atoms: C8_11  and  C9_15 
REMARK    4  A    between atoms: C15_23  and  C16_24 
REMARK    5  A    between atoms: C16_24  and  C17_25 
ROOT
HETATM    1  N1  UNL     1      -5.241  19.535  11.555  1.00  0.00    -0.191 NA
HETATM    2  C1  UNL     1      -4.241  19.206  11.042  1.00  0.00     0.102 C 
HETATM    3  C2  UNL     1      -3.036  18.793  10.408  1.00  0.00     0.072 A 
HETATM    4  C3  UNL     1      -2.956  18.805   9.044  1.00  0.00     0.025 A 
HETATM    5  C4  UNL     1      -1.766  18.393   8.488  1.00  0.00     0.003 A 
HETATM    6  C5  UNL     1      -0.706  17.988   9.260  1.00  0.00     0.017 A 
HETATM    7  C6  UNL     1      -0.798  17.980  10.643  1.00  0.00     0.036 A 
HETATM    8  C7  UNL     1       0.274  17.570  11.420  1.00  0.00     0.120 A 
HETATM    9  N4  UNL     1       0.028  17.617  12.795  1.00  0.00    -0.331 N 
ATOM     10  H4  UNL     1       0.782  17.326  13.418  1.00  0.00     0.168 HD
HETATM   11  C15 UNL     1      -1.097  18.006  13.349  1.00  0.00     0.087 A 
HETATM   12  N6  UNL     1      -2.101  18.391  12.554  1.00  0.00    -0.344 N 
ATOM     13  H6  UNL     1      -2.980  18.694  12.973  1.00  0.00     0.167 HD
HETATM   14  C25 UNL     1      -1.980  18.388  11.204  1.00  0.00     0.068 A 
ENDROOT
BRANCH   8  15
HETATM   15  N2  UNL     1       1.346  17.195  11.034  1.00  0.00    -0.328 N 
ATOM     16  H2  UNL     1       1.172  16.262  10.663  1.00  0.00     0.169 HD
BRANCH  15  17
HETATM   17  C8  UNL     1       2.661  17.391  10.846  1.00  0.00     0.110 C 
HETATM   18  N3  UNL     1       3.367  16.625  10.042  1.00  0.00    -0.385 N 
ATOM     19  H32 UNL     1       2.855  15.872   9.583  1.00  0.00     0.157 HD
ATOM     20  H31 UNL     1       4.366  16.774   9.900  1.00  0.00     0.157 HD
BRANCH  17  21
HETATM   21  C9  UNL     1       3.408  18.489  11.514  1.00  0.00     0.007 A 
HETATM   22  C10 UNL     1       3.365  19.753  10.923  1.00  0.00     0.015 A 
HETATM   23  C11 UNL     1       4.030  20.824  11.483  1.00  0.00     0.001 A 
HETATM   24  C12 UNL     1       4.761  20.658  12.658  1.00  0.00     0.000 A 
HETATM   25  C13 UNL     1       4.807  19.413  13.247  1.00  0.00     0.001 A 
HETATM   26  C14 UNL     1       4.123  18.343  12.655  1.00  0.00     0.015 A 
ENDBRANCH  17  21
ENDBRANCH  15  17
ENDBRANCH   8  15
BRANCH  11  27
HETATM   27  C16 UNL     1      -1.237  18.002  14.824  1.00  0.00     0.117 C 
BRANCH  27  28
HETATM   28  C17 UNL     1      -0.795  19.254  15.477  1.00  0.00    -0.023 A 
HETATM   29  C18 UNL     1      -1.633  20.252  15.993  1.00  0.00     0.096 A 
HETATM   30  N5  UNL     1      -0.895  21.240  16.523  1.00  0.00    -0.365 N 
HETATM   31  C19 UNL     1       0.423  20.934  16.378  1.00  0.00     0.042 A 
ATOM     32  H5  UNL     1      -1.263  22.084  16.963  1.00  0.00     0.165 HD
HETATM   33  C20 UNL     1       1.566  21.609  16.746  1.00  0.00     0.030 A 
HETATM   34  C24 UNL     1       0.477  19.706  15.732  1.00  0.00    -0.001 A 
HETATM   35  C21 UNL     1       2.812  21.090  16.484  1.00  0.00     0.002 A 
HETATM   36  C22 UNL     1       2.858  19.872  15.842  1.00  0.00     0.001 A 
HETATM   37  C23 UNL     1       1.717  19.196  15.473  1.00  0.00     0.014 A 
ENDBRANCH  27  28
ENDBRANCH  11  27
TORSDOF 5
ENDMDL
MODEL 2
REMARK VINA RESULT: -7.865641396      2.296      5.661
REMARK  5 active torsions:
REMARK  status: ('A' for Active; 'I' for Inactive)
REMARK    1  A    between atoms: C7_8  and  N2_9 
REMARK    2  A    between atoms: N2_9  and  C8_11 
REMARK    3  A    between atoms: C8_11  and  C9_15 
REMARK    4  A    between atoms: C15_23  and  C16_24 
REMARK    5  A    between atoms: C16_24  and  C17_25 
ROOT
HETATM    1  N1  UNL     1       7.510  18.656   8.615  1.00  0.00    -0.191 NA
HETATM    2  C1  UNL     1       6.417  18.236   8.616  1.00  0.00     0.102 C 
HETATM    3  C2  UNL     1       5.085  17.737   8.600  1.00  0.00     0.072 A 
HETATM    4  C3  UNL     1       4.605  17.135   7.471  1.00  0.00     0.025 A 
HETATM    5  C4  UNL     1       3.309  16.674   7.515  1.00  0.00     0.003 A 
HETATM    6  C5  UNL     1       2.529  16.808   8.638  1.00  0.00     0.017 A 
HETATM    7  C6  UNL     1       3.026  17.419   9.777  1.00  0.00     0.036 A 
HETATM    8  C7  UNL     1       2.237  17.554  10.909  1.00  0.00     0.120 A 
HETATM    9  N4  UNL     1       2.877  18.191  11.975  1.00  0.00    -0.331 N 
ATOM     10  H4  UNL     1       2.343  18.319  12.835  1.00  0.00     0.168 HD
HETATM   11  C15 UNL     1       4.111  18.639  11.957  1.00  0.00     0.087 A 
HETATM   12  N6  UNL     1       4.830  18.485  10.840  1.00  0.00    -0.344 N 
ATOM     13  H6  UNL     1       5.789  18.830  10.814  1.00  0.00     0.167 HD
HETATM   14  C25 UNL     1       4.315  17.882   9.741  1.00  0.00     0.068 A 
ENDROOT
BRANCH   8  15
HETATM   15  N2  UNL     1       1.102  17.187  11.047  1.00  0.00    -0.328 N 
ATOM     16  H2  UNL     1       1.152  16.171  10.979  1.00  0.00     0.169 HD
BRANCH  15  17
HETATM   17  C8  UNL     1      -0.200  17.448  11.246  1.00  0.00     0.110 C 
HETATM   18  N3  UNL     1      -1.130  16.984  10.439  1.00  0.00    -0.385 N 
ATOM     19  H32 UNL     1      -0.797  16.429   9.651  1.00  0.00     0.157 HD
ATOM     20  H31 UNL     1      -2.119  17.182  10.590  1.00  0.00     0.157 HD
BRANCH  17  21
HETATM   21  C9  UNL     1      -0.685  18.257  12.394  1.00  0.00     0.007 A 
HETATM   22  C10 UNL     1      -0.626  19.647  12.278  1.00  0.00     0.015 A 
HETATM   23  C11 UNL     1      -1.060  20.467  13.299  1.00  0.00     0.001 A 
HETATM   24  C12 UNL     1      -1.568  19.914  14.473  1.00  0.00     0.000 A 
HETATM   25  C13 UNL     1      -1.630  18.543  14.594  1.00  0.00     0.001 A 
HETATM   26  C14 UNL     1      -1.182  17.735  13.541  1.00  0.00     0.015 A 
ENDBRANCH  17  21
ENDBRANCH  15  17
ENDBRANCH   8  15
BRANCH  11  27
HETATM   27  C16 UNL     1       4.674  19.308  13.153  1.00  0.00     0.117 C 
BRANCH  27  28
HETATM   28  C17 UNL     1       3.931  20.514  13.577  1.00  0.00    -0.023 A 
HETATM   29  C18 UNL     1       4.081  21.802  13.044  1.00  0.00     0.096 A 
HETATM   30  N5  UNL     1       3.241  22.652  13.656  1.00  0.00    -0.365 N 
HETATM   31  C19 UNL     1       2.525  21.969  14.590  1.00  0.00     0.042 A 
ATOM     32  H5  UNL     1       3.155  23.648  13.454  1.00  0.00     0.165 HD
HETATM   33  C20 UNL     1       1.548  22.375  15.473  1.00  0.00     0.030 A 
HETATM   34  C24 UNL     1       2.955  20.650  14.535  1.00  0.00    -0.001 A 
HETATM   35  C21 UNL     1       0.961  21.484  16.341  1.00  0.00     0.002 A 
HETATM   36  C22 UNL     1       1.394  20.179  16.281  1.00  0.00     0.001 A 
HETATM   37  C23 UNL     1       2.369  19.770  15.399  1.00  0.00     0.014 A 
ENDBRANCH  27  28
ENDBRANCH  11  27
TORSDOF 5
ENDMDL
MODEL 3
REMARK VINA RESULT: -7.829433854      1.539      4.639
REMARK  5 active torsions:
REMARK  status: ('A' for Active; 'I' for Inactive)
REMARK    1  A    between atoms: C7_8  and  N2_9 
REMARK    2  A    between atoms: N2_9  and  C8_11 
REMARK    3  A    between atoms: C8_11  and  C9_15 
REMARK    4  A    between atoms: C15_23  and  C16_24 
REMARK    5  A    between atoms: C16_24  and  C17_25 
ROOT
HETATM    1  N1  UNL     1      -2.501  18.674   7.817  1.00  0.00    -0.191 NA
HETATM    2  C1  UNL     1      -2.698  18.796   8.965  1.00  0.00     0.102 C 
HETATM    3  C2  UNL     1      -2.943  18.964  10.356  1.00  0.00     0.072 A 
HETATM    4  C3  UNL     1      -4.154  19.441  10.774  1.00  0.00     0.025 A 
HETATM    5  C4  UNL     1      -4.331  19.584  12.131  1.00  0.00     0.003 A 
HETATM    6  C5  UNL     1      -3.343  19.263  13.030  1.00  0.00     0.017 A 
HETATM    7  C6  UNL     1      -2.120  18.779  12.595  1.00  0.00     0.036 A 
HETATM    8  C7  UNL     1      -1.125  18.457  13.505  1.00  0.00     0.120 A 
HETATM    9  N4  UNL     1       0.051  17.983  12.916  1.00  0.00    -0.331 N 
ATOM     10  H4  UNL     1       0.819  17.731  13.537  1.00  0.00     0.168 HD
HETATM   11  C15 UNL     1       0.244  17.838  11.625  1.00  0.00     0.087 A 
HETATM   12  N6  UNL     1      -0.748  18.165  10.790  1.00  0.00    -0.344 N 
ATOM     13  H6  UNL     1      -0.609  18.058   9.785  1.00  0.00     0.167 HD
HETATM   14  C25 UNL     1      -1.935  18.636  11.246  1.00  0.00     0.068 A 
ENDROOT
BRANCH   8  15
HETATM   15  N2  UNL     1      -1.181  18.545  14.701  1.00  0.00    -0.328 N 
ATOM     16  H2  UNL     1      -2.052  18.078  14.950  1.00  0.00     0.169 HD
BRANCH  15  17
HETATM   17  C8  UNL     1      -0.669  18.951  15.874  1.00  0.00     0.110 C 
HETATM   18  N3  UNL     1      -1.277  18.710  17.015  1.00  0.00    -0.385 N 
ATOM     19  H32 UNL     1      -2.163  18.207  16.948  1.00  0.00     0.157 HD
ATOM     20  H31 UNL     1      -0.889  19.018  17.906  1.00  0.00     0.157 HD
BRANCH  17  21
HETATM   21  C9  UNL     1       0.621  19.683  15.971  1.00  0.00     0.007 A 
HETATM   22  C10 UNL     1       0.577  21.023  16.362  1.00  0.00     0.015 A 
HETATM   23  C11 UNL     1       1.732  21.769  16.478  1.00  0.00     0.001 A 
HETATM   24  C12 UNL     1       2.970  21.191  16.204  1.00  0.00     0.000 A 
HETATM   25  C13 UNL     1       3.020  19.869  15.819  1.00  0.00     0.001 A 
HETATM   26  C14 UNL     1       1.831  19.135  15.708  1.00  0.00     0.015 A 
ENDBRANCH  17  21
ENDBRANCH  15  17
ENDBRANCH   8  15
BRANCH  11  27
HETATM   27  C16 UNL     1       1.543  17.333  11.122  1.00  0.00     0.117 C 
BRANCH  27  28
HETATM   28  C17 UNL     1       2.721  18.011  11.705  1.00  0.00    -0.023 A 
HETATM   29  C18 UNL     1       3.882  17.381  12.176  1.00  0.00     0.096 A 
HETATM   30  N5  UNL     1       4.751  18.301  12.626  1.00  0.00    -0.365 N 
HETATM   31  C19 UNL     1       4.206  19.537  12.470  1.00  0.00     0.042 A 
ATOM     32  H5  UNL     1       5.670  18.104  13.022  1.00  0.00     0.165 HD
HETATM   33  C20 UNL     1       4.683  20.794  12.771  1.00  0.00     0.030 A 
HETATM   34  C24 UNL     1       2.953  19.351  11.900  1.00  0.00    -0.001 A 
HETATM   35  C21 UNL     1       3.932  21.918  12.520  1.00  0.00     0.002 A 
HETATM   36  C22 UNL     1       2.691  21.725  11.956  1.00  0.00     0.001 A 
HETATM   37  C23 UNL     1       2.211  20.470  11.653  1.00  0.00     0.014 A 
ENDBRANCH  27  28
ENDBRANCH  11  27
TORSDOF 5
ENDMDL
MODEL 4
REMARK VINA RESULT: -7.674178331      3.343      5.129
REMARK  5 active torsions:
REMARK  status: ('A' for Active; 'I' for Inactive)
REMARK    1  A    between atoms: C7_8  and  N2_9 
REMARK    2  A    between atoms: N2_9  and  C8_11 
REMARK    3  A    between atoms: C8_11  and  C9_15 
REMARK    4  A    between atoms: C15_23  and  C16_24 
REMARK    5  A    between atoms: C16_24  and  C17_25 
ROOT
HETATM    1  N1  UNL     1       2.826  22.748  11.385  1.00  0.00    -0.191 NA
HETATM    2  C1  UNL     1       2.956  21.894  10.595  1.00  0.00     0.102 C 
HETATM    3  C2  UNL     1       3.095  20.862   9.626  1.00  0.00     0.072 A 
HETATM    4  C3  UNL     1       3.115  21.185   8.298  1.00  0.00     0.025 A 
HETATM    5  C4  UNL     1       3.251  20.144   7.407  1.00  0.00     0.003 A 
HETATM    6  C5  UNL     1       3.362  18.841   7.826  1.00  0.00     0.017 A 
HETATM    7  C6  UNL     1       3.342  18.525   9.175  1.00  0.00     0.036 A 
HETATM    8  C7  UNL     1       3.455  17.209   9.594  1.00  0.00     0.120 A 
HETATM    9  N4  UNL     1       3.417  17.050  10.982  1.00  0.00    -0.331 N 
ATOM     10  H4  UNL     1       3.495  16.102  11.349  1.00  0.00     0.168 HD
HETATM   11  C15 UNL     1       3.288  18.026  11.851  1.00  0.00     0.087 A 
HETATM   12  N6  UNL     1       3.182  19.279  11.394  1.00  0.00    -0.344 N 
ATOM     13  H6  UNL     1       3.081  20.045  12.060  1.00  0.00     0.167 HD
HETATM   14  C25 UNL     1       3.206  19.556  10.067  1.00  0.00     0.068 A 
ENDROOT
BRANCH   8  15
HETATM   15  N2  UNL     1       3.576  16.237   8.901  1.00  0.00    -0.328 N 
ATOM     16  H2  UNL     1       2.911  15.565   9.284  1.00  0.00     0.169 HD
BRANCH  15  17
HETATM   17  C8  UNL     1       4.150  15.591   7.873  1.00  0.00     0.110 C 
HETATM   18  N3  UNL     1       3.436  14.943   6.977  1.00  0.00    -0.385 N 
ATOM     19  H32 UNL     1       2.427  14.953   7.123  1.00  0.00     0.157 HD
ATOM     20  H31 UNL     1       3.872  14.453   6.197  1.00  0.00     0.157 HD
BRANCH  17  21
HETATM   21  C9  UNL     1       5.621  15.577   7.661  1.00  0.00     0.007 A 
HETATM   22  C10 UNL     1       6.243  14.334   7.525  1.00  0.00     0.015 A 
HETATM   23  C11 UNL     1       7.604  14.237   7.323  1.00  0.00     0.001 A 
HETATM   24  C12 UNL     1       8.385  15.389   7.251  1.00  0.00     0.000 A 
HETATM   25  C13 UNL     1       7.778  16.619   7.383  1.00  0.00     0.001 A 
HETATM   26  C14 UNL     1       6.393  16.687   7.588  1.00  0.00     0.015 A 
ENDBRANCH  17  21
ENDBRANCH  15  17
ENDBRANCH   8  15
BRANCH  11  27
HETATM   27  C16 UNL     1       3.252  17.727  13.301  1.00  0.00     0.117 C 
BRANCH  27  28
HETATM   28  C17 UNL     1       2.124  18.356  14.021  1.00  0.00    -0.023 A 
HETATM   29  C18 UNL     1       0.778  17.969  13.938  1.00  0.00     0.096 A 
HETATM   30  N5  UNL     1       0.028  18.750  14.732  1.00  0.00    -0.365 N 
HETATM   31  C19 UNL     1       0.834  19.655  15.351  1.00  0.00     0.042 A 
ATOM     32  H5  UNL     1      -0.982  18.677  14.851  1.00  0.00     0.165 HD
HETATM   33  C20 UNL     1       0.560  20.663  16.249  1.00  0.00     0.030 A 
HETATM   34  C24 UNL     1       2.126  19.405  14.907  1.00  0.00    -0.001 A 
HETATM   35  C21 UNL     1       1.562  21.466  16.742  1.00  0.00     0.002 A 
HETATM   36  C22 UNL     1       2.840  21.213  16.297  1.00  0.00     0.001 A 
HETATM   37  C23 UNL     1       3.117  20.206  15.400  1.00  0.00     0.014 A 
ENDBRANCH  27  28
ENDBRANCH  11  27
TORSDOF 5
ENDMDL
MODEL 5
REMARK VINA RESULT: -7.462686979      2.141      5.982
REMARK  5 active torsions:
REMARK  status: ('A' for Active; 'I' for Inactive)
REMARK    1  A    between atoms: C7_8  and  N2_9 
REMARK    2  A    between atoms: N2_9  and  C8_11 
REMARK    3  A    between atoms: C8_11  and  C9_15 
REMARK    4  A    between atoms: C15_23  and  C16_24 
REMARK    5  A    between atoms: C16_24  and  C17_25 
ROOT
HETATM    1  N1  UNL     1       7.400  18.732   8.676  1.00  0.00    -0.191 NA
HETATM    2  C1  UNL     1       6.316  18.292   8.715  1.00  0.00     0.102 C 
HETATM    3  C2  UNL     1       4.993  17.768   8.745  1.00  0.00     0.072 A 
HETATM    4  C3  UNL     1       4.515  17.086   7.661  1.00  0.00     0.025 A 
HETATM    5  C4  UNL     1       3.229  16.604   7.748  1.00  0.00     0.003 A 
HETATM    6  C5  UNL     1       2.456  16.795   8.867  1.00  0.00     0.017 A 
HETATM    7  C6  UNL     1       2.951  17.487   9.961  1.00  0.00     0.036 A 
HETATM    8  C7  UNL     1       2.170  17.678  11.089  1.00  0.00     0.120 A 
HETATM    9  N4  UNL     1       2.806  18.394  12.106  1.00  0.00    -0.331 N 
ATOM     10  H4  UNL     1       2.278  18.566  12.962  1.00  0.00     0.168 HD
HETATM   11  C15 UNL     1       4.031  18.864  12.047  1.00  0.00     0.087 A 
HETATM   12  N6  UNL     1       4.743  18.653  10.935  1.00  0.00    -0.344 N 
ATOM     13  H6  UNL     1       5.696  19.014  10.877  1.00  0.00     0.167 HD
HETATM   14  C25 UNL     1       4.231  17.971   9.881  1.00  0.00     0.068 A 
ENDROOT
BRANCH   8  15
HETATM   15  N2  UNL     1       1.044  17.300  11.262  1.00  0.00    -0.328 N 
ATOM     16  H2  UNL     1       0.979  16.436  10.724  1.00  0.00     0.169 HD
BRANCH  15  17
HETATM   17  C8  UNL     1      -0.174  17.446  11.810  1.00  0.00     0.110 C 
HETATM   18  N3  UNL     1      -0.391  17.209  13.086  1.00  0.00    -0.385 N 
ATOM     19  H32 UNL     1       0.418  16.898  13.623  1.00  0.00     0.157 HD
ATOM     20  H31 UNL     1      -1.315  17.320  13.502  1.00  0.00     0.157 HD
BRANCH  17  21
HETATM   21  C9  UNL     1      -1.352  17.900  11.026  1.00  0.00     0.007 A 
HETATM   22  C10 UNL     1      -1.508  17.389   9.736  1.00  0.00     0.015 A 
HETATM   23  C11 UNL     1      -2.577  17.759   8.947  1.00  0.00     0.001 A 
HETATM   24  C12 UNL     1      -3.526  18.658   9.431  1.00  0.00     0.000 A 
HETATM   25  C13 UNL     1      -3.379  19.166  10.703  1.00  0.00     0.001 A 
HETATM   26  C14 UNL     1      -2.282  18.772  11.482  1.00  0.00     0.015 A 
ENDBRANCH  17  21
ENDBRANCH  15  17
ENDBRANCH   8  15
BRANCH  11  27
HETATM   27  C16 UNL     1       4.592  19.617  13.193  1.00  0.00     0.117 C 
BRANCH  27  28
HETATM   28  C17 UNL     1       3.776  20.779  13.609  1.00  0.00    -0.023 A 
HETATM   29  C18 UNL     1       3.921  22.094  13.144  1.00  0.00     0.096 A 
HETATM   30  N5  UNL     1       3.007  22.888  13.725  1.00  0.00    -0.365 N 
HETATM   31  C19 UNL     1       2.246  22.141  14.571  1.00  0.00     0.042 A 
ATOM     32  H5  UNL     1       2.900  23.888  13.560  1.00  0.00     0.165 HD
HETATM   33  C20 UNL     1       1.192  22.475  15.393  1.00  0.00     0.030 A 
HETATM   34  C24 UNL     1       2.727  20.840  14.493  1.00  0.00    -0.001 A 
HETATM   35  C21 UNL     1       0.573  21.527  16.174  1.00  0.00     0.002 A 
HETATM   36  C22 UNL     1       1.056  20.240  16.092  1.00  0.00     0.001 A 
HETATM   37  C23 UNL     1       2.109  19.903  15.272  1.00  0.00     0.014 A 
ENDBRANCH  27  28
ENDBRANCH  11  27
TORSDOF 5
ENDMDL
