MODEL 1
REMARK VINA RESULT: -7.154312771      0.000      0.000
REMARK  11 active torsions:
REMARK  status: ('A' for Active; 'I' for Inactive)
REMARK    1  A    between atoms: C2_2  and  C4_4 
REMARK    2  A    between atoms: C4_4  and  N1_5 
REMARK       I    between atoms: N1_5  and  C5_7 
REMARK    3  A    between atoms: C5_7  and  C6_9 
REMARK    4  A    between atoms: C6_9  and  C7_10 
REMARK    5  A    between atoms: C6_9  and  N2_14 
REMARK    6  A    between atoms: C7_10  and  C8_11 
REMARK       I    between atoms: N2_14  and  C11_16 
REMARK    7  A    between atoms: C11_16  and  C12_18 
REMARK    8  A    between atoms: C12_18  and  N3_19 
REMARK       I    between atoms: N3_19  and  C13_21 
REMARK    9  A    between atoms: C13_21  and  C14_23 
REMARK   10  A    between atoms: C14_23  and  C15_24 
REMARK   11  A    between atoms: C14_23  and  N4_27 
ROOT
HETATM    1  C12 UNL     1     -11.298  47.918   0.731  1.00  0.00     0.114 A 
HETATM    2  C23 UNL     1     -11.080  49.332   0.217  1.00  0.00     0.041 A 
HETATM    3  C24 UNL     1     -12.021  50.239   0.933  1.00  0.00     0.003 A 
HETATM    4  C25 UNL     1     -12.764  49.437   1.948  1.00  0.00     0.003 A 
HETATM    5  C26 UNL     1     -12.334  47.992   1.788  1.00  0.00     0.041 A 
ENDROOT
BRANCH   1   6
HETATM    6  C11 UNL     1     -11.693  47.003  -0.354  1.00  0.00     0.246 C 
HETATM    7  N2  UNL     1     -12.664  45.975  -0.236  1.00  0.00    -0.346 N 
ATOM      8  H2  UNL     1     -13.120  45.829   0.664  1.00  0.00     0.163 HD
HETATM    9  O2  UNL     1     -11.145  47.112  -1.508  1.00  0.00    -0.271 OA
BRANCH   7  10
HETATM   10  C6  UNL     1     -13.028  45.131  -1.349  1.00  0.00     0.177 C 
BRANCH  10  11
HETATM   11  C5  UNL     1     -14.470  45.417  -1.659  1.00  0.00     0.240 C 
HETATM   12  N1  UNL     1     -14.920  45.804  -2.954  1.00  0.00    -0.359 N 
ATOM     13  H1  UNL     1     -14.243  45.895  -3.711  1.00  0.00     0.162 HD
HETATM   14  O1  UNL     1     -15.309  45.310  -0.746  1.00  0.00    -0.271 OA
BRANCH  12  15
HETATM   15  C4  UNL     1     -16.315  46.072  -3.217  1.00  0.00     0.126 C 
BRANCH  15  16
HETATM   16  C2  UNL     1     -16.643  45.676  -4.629  1.00  0.00    -0.005 C 
HETATM   17  C1  UNL     1     -16.196  46.712  -5.616  1.00  0.00     0.011 C 
HETATM   18  C3  UNL     1     -16.050  44.306  -4.898  1.00  0.00     0.011 C 
ENDBRANCH  15  16
ENDBRANCH  12  15
ENDBRANCH  10  11
BRANCH  10  19
HETATM   19  C7  UNL     1     -12.820  43.679  -1.209  1.00  0.00     0.038 C 
BRANCH  19  20
HETATM   20  C8  UNL     1     -11.688  43.052  -1.934  1.00  0.00    -0.020 C 
HETATM   21  C9  UNL     1     -10.547  44.003  -2.214  1.00  0.00     0.009 C 
HETATM   22  C10 UNL     1     -11.216  41.737  -1.402  1.00  0.00     0.009 C 
ENDBRANCH  19  20
ENDBRANCH  10  19
ENDBRANCH   7  10
ENDBRANCH   1   6
BRANCH   1  23
HETATM   23  N3  UNL     1     -10.022  47.446   1.278  1.00  0.00    -0.341 N 
HETATM   24  C13 UNL     1      -9.835  46.223   1.940  1.00  0.00     0.241 C 
HETATM   25  O3  UNL     1     -10.797  45.446   2.107  1.00  0.00    -0.271 OA
ATOM     26  H3  UNL     1      -9.209  48.052   1.169  1.00  0.00     0.163 HD
BRANCH  24  27
HETATM   27  C14 UNL     1      -8.500  45.801   2.469  1.00  0.00     0.178 C 
BRANCH  27  28
HETATM   28  C15 UNL     1      -7.707  47.056   2.597  1.00  0.00     0.009 C 
HETATM   29  C16 UNL     1      -7.445  47.556   3.971  1.00  0.00     0.012 C 
HETATM   30  C17 UNL     1      -6.438  47.086   1.773  1.00  0.00     0.012 C 
ENDBRANCH  27  28
BRANCH  27  31
HETATM   31  N4  UNL     1      -7.949  44.681   1.860  1.00  0.00    -0.380 N 
HETATM   32  C18 UNL     1      -7.219  43.783   2.689  1.00  0.00     0.123 C 
HETATM   33  C19 UNL     1      -6.455  42.731   1.911  1.00  0.00     0.020 C 
HETATM   34  C20 UNL     1      -7.497  42.072   1.001  1.00  0.00     0.007 C 
HETATM   35  C21 UNL     1      -7.808  43.095  -0.060  1.00  0.00     0.044 C 
HETATM   36  C22 UNL     1      -7.981  44.454   0.498  1.00  0.00     0.059 C 
ENDBRANCH  27  31
ENDBRANCH  24  27
ENDBRANCH   1  23
TORSDOF 11
ENDMDL
MODEL 2
REMARK VINA RESULT: -7.021786298      1.081      1.785
REMARK  11 active torsions:
REMARK  status: ('A' for Active; 'I' for Inactive)
REMARK    1  A    between atoms: C2_2  and  C4_4 
REMARK    2  A    between atoms: C4_4  and  N1_5 
REMARK       I    between atoms: N1_5  and  C5_7 
REMARK    3  A    between atoms: C5_7  and  C6_9 
REMARK    4  A    between atoms: C6_9  and  C7_10 
REMARK    5  A    between atoms: C6_9  and  N2_14 
REMARK    6  A    between atoms: C7_10  and  C8_11 
REMARK       I    between atoms: N2_14  and  C11_16 
REMARK    7  A    between atoms: C11_16  and  C12_18 
REMARK    8  A    between atoms: C12_18  and  N3_19 
REMARK       I    between atoms: N3_19  and  C13_21 
REMARK    9  A    between atoms: C13_21  and  C14_23 
REMARK   10  A    between atoms: C14_23  and  C15_24 
REMARK   11  A    between atoms: C14_23  and  N4_27 
ROOT
HETATM    1  C12 UNL     1     -11.272  47.482   0.461  1.00  0.00     0.114 A 
HETATM    2  C23 UNL     1     -11.510  48.908  -0.009  1.00  0.00     0.041 A 
HETATM    3  C24 UNL     1     -12.644  49.475   0.776  1.00  0.00     0.003 A 
HETATM    4  C25 UNL     1     -13.065  48.464   1.788  1.00  0.00     0.003 A 
HETATM    5  C26 UNL     1     -12.231  47.218   1.560  1.00  0.00     0.041 A 
ENDROOT
BRANCH   1   6
HETATM    6  C11 UNL     1     -11.426  46.516  -0.640  1.00  0.00     0.246 C 
HETATM    7  N2  UNL     1     -12.077  45.260  -0.532  1.00  0.00    -0.346 N 
ATOM      8  H2  UNL     1     -12.455  44.976   0.371  1.00  0.00     0.163 HD
HETATM    9  O2  UNL     1     -10.957  46.794  -1.799  1.00  0.00    -0.271 OA
BRANCH   7  10
HETATM   10  C6  UNL     1     -12.223  44.371  -1.661  1.00  0.00     0.177 C 
BRANCH  10  11
HETATM   11  C5  UNL     1     -13.664  44.433  -2.081  1.00  0.00     0.240 C 
HETATM   12  N1  UNL     1     -14.199  45.507  -2.847  1.00  0.00    -0.359 N 
ATOM     13  H1  UNL     1     -13.588  46.273  -3.129  1.00  0.00     0.162 HD
HETATM   14  O1  UNL     1     -14.423  43.506  -1.745  1.00  0.00    -0.271 OA
BRANCH  12  15
HETATM   15  C4  UNL     1     -15.592  45.535  -3.233  1.00  0.00     0.126 C 
BRANCH  15  16
HETATM   16  C2  UNL     1     -15.721  45.107  -4.668  1.00  0.00    -0.005 C 
HETATM   17  C1  UNL     1     -16.649  43.940  -4.820  1.00  0.00     0.011 C 
HETATM   18  C3  UNL     1     -16.137  46.308  -5.496  1.00  0.00     0.011 C 
ENDBRANCH  15  16
ENDBRANCH  12  15
ENDBRANCH  10  11
BRANCH  10  19
HETATM   19  C7  UNL     1     -11.806  42.968  -1.490  1.00  0.00     0.038 C 
BRANCH  19  20
HETATM   20  C8  UNL     1     -10.416  42.690  -1.052  1.00  0.00    -0.020 C 
HETATM   21  C9  UNL     1     -10.020  41.237  -1.181  1.00  0.00     0.009 C 
HETATM   22  C10 UNL     1      -9.365  43.615  -1.575  1.00  0.00     0.009 C 
ENDBRANCH  19  20
ENDBRANCH  10  19
ENDBRANCH   7  10
ENDBRANCH   1   6
BRANCH   1  23
HETATM   23  N3  UNL     1      -9.889  47.401   0.942  1.00  0.00    -0.341 N 
HETATM   24  C13 UNL     1      -9.300  46.260   1.508  1.00  0.00     0.241 C 
HETATM   25  O3  UNL     1      -9.963  45.212   1.640  1.00  0.00    -0.271 OA
ATOM     26  H3  UNL     1      -9.311  48.237   0.859  1.00  0.00     0.163 HD
BRANCH  24  27
HETATM   27  C14 UNL     1      -7.878  46.247   1.972  1.00  0.00     0.178 C 
BRANCH  27  28
HETATM   28  C15 UNL     1      -7.153  47.180   1.064  1.00  0.00     0.009 C 
HETATM   29  C16 UNL     1      -5.773  47.570   1.453  1.00  0.00     0.012 C 
HETATM   30  C17 UNL     1      -7.201  46.799  -0.399  1.00  0.00     0.012 C 
ENDBRANCH  27  28
BRANCH  27  31
HETATM   31  N4  UNL     1      -7.356  44.988   2.249  1.00  0.00    -0.380 N 
HETATM   32  C18 UNL     1      -7.282  44.064   1.169  1.00  0.00     0.123 C 
HETATM   33  C19 UNL     1      -6.934  42.656   1.605  1.00  0.00     0.020 C 
HETATM   34  C20 UNL     1      -5.648  42.798   2.427  1.00  0.00     0.007 C 
HETATM   35  C21 UNL     1      -6.069  43.443   3.722  1.00  0.00     0.044 C 
HETATM   36  C22 UNL     1      -7.013  44.562   3.516  1.00  0.00     0.059 C 
ENDBRANCH  27  31
ENDBRANCH  24  27
ENDBRANCH   1  23
TORSDOF 11
ENDMDL
MODEL 3
REMARK VINA RESULT: -6.833734494      1.527      7.832
REMARK  11 active torsions:
REMARK  status: ('A' for Active; 'I' for Inactive)
REMARK    1  A    between atoms: C2_2  and  C4_4 
REMARK    2  A    between atoms: C4_4  and  N1_5 
REMARK       I    between atoms: N1_5  and  C5_7 
REMARK    3  A    between atoms: C5_7  and  C6_9 
REMARK    4  A    between atoms: C6_9  and  C7_10 
REMARK    5  A    between atoms: C6_9  and  N2_14 
REMARK    6  A    between atoms: C7_10  and  C8_11 
REMARK       I    between atoms: N2_14  and  C11_16 
REMARK    7  A    between atoms: C11_16  and  C12_18 
REMARK    8  A    between atoms: C12_18  and  N3_19 
REMARK       I    between atoms: N3_19  and  C13_21 
REMARK    9  A    between atoms: C13_21  and  C14_23 
REMARK   10  A    between atoms: C14_23  and  C15_24 
REMARK   11  A    between atoms: C14_23  and  N4_27 
ROOT
HETATM    1  C12 UNL     1     -12.565  47.465   0.086  1.00  0.00     0.114 A 
HETATM    2  C23 UNL     1     -13.811  48.121   0.656  1.00  0.00     0.041 A 
HETATM    3  C24 UNL     1     -13.677  49.597   0.496  1.00  0.00     0.003 A 
HETATM    4  C25 UNL     1     -12.409  49.875  -0.242  1.00  0.00     0.003 A 
HETATM    5  C26 UNL     1     -11.710  48.547  -0.458  1.00  0.00     0.041 A 
ENDROOT
BRANCH   1   6
HETATM    6  C11 UNL     1     -11.856  46.673   1.106  1.00  0.00     0.246 C 
HETATM    7  N2  UNL     1     -10.754  45.817   0.847  1.00  0.00    -0.346 N 
ATOM      8  H2  UNL     1     -10.425  45.712  -0.112  1.00  0.00     0.163 HD
HETATM    9  O2  UNL     1     -12.228  46.736   2.330  1.00  0.00    -0.271 OA
BRANCH   7  10
HETATM   10  C6  UNL     1     -10.083  45.091   1.899  1.00  0.00     0.177 C 
BRANCH  10  11
HETATM   11  C5  UNL     1      -8.831  45.855   2.225  1.00  0.00     0.240 C 
HETATM   12  N1  UNL     1      -8.049  45.596   3.388  1.00  0.00    -0.359 N 
ATOM     13  H1  UNL     1      -8.342  44.863   4.034  1.00  0.00     0.162 HD
HETATM   14  O1  UNL     1      -8.459  46.751   1.446  1.00  0.00    -0.271 OA
BRANCH  12  15
HETATM   15  C4  UNL     1      -6.850  46.351   3.671  1.00  0.00     0.126 C 
BRANCH  15  16
HETATM   16  C2  UNL     1      -5.768  45.415   4.134  1.00  0.00    -0.005 C 
HETATM   17  C1  UNL     1      -6.286  44.411   5.119  1.00  0.00     0.011 C 
HETATM   18  C3  UNL     1      -5.125  44.778   2.918  1.00  0.00     0.011 C 
ENDBRANCH  15  16
ENDBRANCH  12  15
ENDBRANCH  10  11
BRANCH  10  19
HETATM   19  C7  UNL     1      -9.761  43.673   1.660  1.00  0.00     0.038 C 
BRANCH  19  20
HETATM   20  C8  UNL     1      -8.651  43.344   0.733  1.00  0.00    -0.020 C 
HETATM   21  C9  UNL     1      -7.611  42.426   1.334  1.00  0.00     0.009 C 
HETATM   22  C10 UNL     1      -9.050  42.927  -0.647  1.00  0.00     0.009 C 
ENDBRANCH  19  20
ENDBRANCH  10  19
ENDBRANCH   7  10
ENDBRANCH   1   6
BRANCH   1  23
HETATM   23  N3  UNL     1     -12.994  46.551  -0.978  1.00  0.00    -0.341 N 
HETATM   24  C13 UNL     1     -13.965  45.548  -0.833  1.00  0.00     0.241 C 
HETATM   25  O3  UNL     1     -14.530  45.377   0.266  1.00  0.00    -0.271 OA
ATOM     26  H3  UNL     1     -12.554  46.652  -1.893  1.00  0.00     0.163 HD
BRANCH  24  27
HETATM   27  C14 UNL     1     -14.360  44.654  -1.965  1.00  0.00     0.178 C 
BRANCH  27  28
HETATM   28  C15 UNL     1     -13.101  43.989  -2.407  1.00  0.00     0.009 C 
HETATM   29  C16 UNL     1     -11.954  44.868  -2.749  1.00  0.00     0.012 C 
HETATM   30  C17 UNL     1     -12.648  42.849  -1.521  1.00  0.00     0.012 C 
ENDBRANCH  27  28
BRANCH  27  31
HETATM   31  N4  UNL     1     -15.218  45.223  -2.899  1.00  0.00    -0.380 N 
HETATM   32  C18 UNL     1     -16.026  46.310  -2.460  1.00  0.00     0.123 C 
HETATM   33  C19 UNL     1     -17.095  46.706  -3.459  1.00  0.00     0.020 C 
HETATM   34  C20 UNL     1     -16.344  46.944  -4.773  1.00  0.00     0.007 C 
HETATM   35  C21 UNL     1     -15.941  45.577  -5.259  1.00  0.00     0.044 C 
HETATM   36  C22 UNL     1     -15.401  44.729  -4.174  1.00  0.00     0.059 C 
ENDBRANCH  27  31
ENDBRANCH  24  27
ENDBRANCH   1  23
TORSDOF 11
ENDMDL
MODEL 4
REMARK VINA RESULT: -6.815073303      1.381      2.978
REMARK  11 active torsions:
REMARK  status: ('A' for Active; 'I' for Inactive)
REMARK    1  A    between atoms: C2_2  and  C4_4 
REMARK    2  A    between atoms: C4_4  and  N1_5 
REMARK       I    between atoms: N1_5  and  C5_7 
REMARK    3  A    between atoms: C5_7  and  C6_9 
REMARK    4  A    between atoms: C6_9  and  C7_10 
REMARK    5  A    between atoms: C6_9  and  N2_14 
REMARK    6  A    between atoms: C7_10  and  C8_11 
REMARK       I    between atoms: N2_14  and  C11_16 
REMARK    7  A    between atoms: C11_16  and  C12_18 
REMARK    8  A    between atoms: C12_18  and  N3_19 
REMARK       I    between atoms: N3_19  and  C13_21 
REMARK    9  A    between atoms: C13_21  and  C14_23 
REMARK   10  A    between atoms: C14_23  and  C15_24 
REMARK   11  A    between atoms: C14_23  and  N4_27 
ROOT
HETATM    1  C12 UNL     1     -10.431  47.057   1.067  1.00  0.00     0.114 A 
HETATM    2  C23 UNL     1     -10.412  48.570   0.933  1.00  0.00     0.041 A 
HETATM    3  C24 UNL     1     -11.434  49.135   1.859  1.00  0.00     0.003 A 
HETATM    4  C25 UNL     1     -12.034  48.011   2.636  1.00  0.00     0.003 A 
HETATM    5  C26 UNL     1     -11.430  46.723   2.110  1.00  0.00     0.041 A 
ENDROOT
BRANCH   1   6
HETATM    6  C11 UNL     1     -10.745  46.403  -0.216  1.00  0.00     0.246 C 
HETATM    7  N2  UNL     1     -11.428  45.168  -0.351  1.00  0.00    -0.346 N 
ATOM      8  H2  UNL     1     -11.715  44.667   0.490  1.00  0.00     0.163 HD
HETATM    9  O2  UNL     1     -10.395  46.962  -1.315  1.00  0.00    -0.271 OA
BRANCH   7  10
HETATM   10  C6  UNL     1     -11.733  44.596  -1.641  1.00  0.00     0.177 C 
BRANCH  10  11
HETATM   11  C5  UNL     1     -13.224  44.659  -1.805  1.00  0.00     0.240 C 
HETATM   12  N1  UNL     1     -13.862  44.674  -3.079  1.00  0.00    -0.359 N 
ATOM     13  H1  UNL     1     -13.291  44.640  -3.924  1.00  0.00     0.162 HD
HETATM   14  O1  UNL     1     -13.936  44.699  -0.784  1.00  0.00    -0.271 OA
BRANCH  12  15
HETATM   15  C4  UNL     1     -15.300  44.735  -3.200  1.00  0.00     0.126 C 
BRANCH  15  16
HETATM   16  C2  UNL     1     -15.684  44.665  -4.651  1.00  0.00    -0.005 C 
HETATM   17  C1  UNL     1     -16.779  43.670  -4.890  1.00  0.00     0.011 C 
HETATM   18  C3  UNL     1     -16.035  46.061  -5.128  1.00  0.00     0.011 C 
ENDBRANCH  15  16
ENDBRANCH  12  15
ENDBRANCH  10  11
BRANCH  10  19
HETATM   19  C7  UNL     1     -11.251  43.231  -1.921  1.00  0.00     0.038 C 
BRANCH  19  20
HETATM   20  C8  UNL     1     -10.086  42.721  -1.158  1.00  0.00    -0.020 C 
HETATM   21  C9  UNL     1      -9.941  41.217  -1.208  1.00  0.00     0.009 C 
HETATM   22  C10 UNL     1      -8.788  43.426  -1.393  1.00  0.00     0.009 C 
ENDBRANCH  19  20
ENDBRANCH  10  19
ENDBRANCH   7  10
ENDBRANCH   1   6
BRANCH   1  23
HETATM   23  N3  UNL     1      -9.087  46.633   1.473  1.00  0.00    -0.341 N 
HETATM   24  C13 UNL     1      -8.746  45.339   1.895  1.00  0.00     0.241 C 
HETATM   25  O3  UNL     1      -9.617  44.447   1.951  1.00  0.00    -0.271 OA
ATOM     26  H3  UNL     1      -8.344  47.331   1.448  1.00  0.00     0.163 HD
BRANCH  24  27
HETATM   27  C14 UNL     1      -7.350  44.973   2.289  1.00  0.00     0.178 C 
BRANCH  27  28
HETATM   28  C15 UNL     1      -7.384  43.510   2.570  1.00  0.00     0.009 C 
HETATM   29  C16 UNL     1      -6.720  42.616   1.587  1.00  0.00     0.012 C 
HETATM   30  C17 UNL     1      -6.990  43.131   3.981  1.00  0.00     0.012 C 
ENDBRANCH  27  28
BRANCH  27  31
HETATM   31  N4  UNL     1      -6.739  45.846   3.182  1.00  0.00    -0.380 N 
HETATM   32  C18 UNL     1      -5.343  46.072   3.017  1.00  0.00     0.123 C 
HETATM   33  C19 UNL     1      -4.718  46.835   4.167  1.00  0.00     0.020 C 
HETATM   34  C20 UNL     1      -5.567  48.102   4.315  1.00  0.00     0.007 C 
HETATM   35  C21 UNL     1      -6.874  47.641   4.907  1.00  0.00     0.044 C 
HETATM   36  C22 UNL     1      -7.382  46.410   4.265  1.00  0.00     0.059 C 
ENDBRANCH  27  31
ENDBRANCH  24  27
ENDBRANCH   1  23
TORSDOF 11
ENDMDL
MODEL 5
REMARK VINA RESULT: -6.760725799      2.185      8.121
REMARK  11 active torsions:
REMARK  status: ('A' for Active; 'I' for Inactive)
REMARK    1  A    between atoms: C2_2  and  C4_4 
REMARK    2  A    between atoms: C4_4  and  N1_5 
REMARK       I    between atoms: N1_5  and  C5_7 
REMARK    3  A    between atoms: C5_7  and  C6_9 
REMARK    4  A    between atoms: C6_9  and  C7_10 
REMARK    5  A    between atoms: C6_9  and  N2_14 
REMARK    6  A    between atoms: C7_10  and  C8_11 
REMARK       I    between atoms: N2_14  and  C11_16 
REMARK    7  A    between atoms: C11_16  and  C12_18 
REMARK    8  A    between atoms: C12_18  and  N3_19 
REMARK       I    between atoms: N3_19  and  C13_21 
REMARK    9  A    between atoms: C13_21  and  C14_23 
REMARK   10  A    between atoms: C14_23  and  C15_24 
REMARK   11  A    between atoms: C14_23  and  N4_27 
ROOT
HETATM    1  C12 UNL     1      -9.629  43.310  -0.185  1.00  0.00     0.114 A 
HETATM    2  C23 UNL     1      -9.821  42.501  -1.457  1.00  0.00     0.041 A 
HETATM    3  C24 UNL     1      -9.617  41.061  -1.131  1.00  0.00     0.003 A 
HETATM    4  C25 UNL     1      -9.386  40.942   0.338  1.00  0.00     0.003 A 
HETATM    5  C26 UNL     1      -9.360  42.347   0.909  1.00  0.00     0.041 A 
ENDROOT
BRANCH   1   6
HETATM    6  C11 UNL     1      -8.540  44.291  -0.326  1.00  0.00     0.246 C 
HETATM    7  N2  UNL     1      -8.571  45.616   0.181  1.00  0.00    -0.346 N 
ATOM      8  H2  UNL     1      -9.409  45.941   0.663  1.00  0.00     0.163 HD
HETATM    9  O2  UNL     1      -7.464  43.962  -0.940  1.00  0.00    -0.271 OA
BRANCH   7  10
HETATM   10  C6  UNL     1      -7.454  46.520   0.035  1.00  0.00     0.177 C 
BRANCH  10  11
HETATM   11  C5  UNL     1      -6.669  46.451   1.314  1.00  0.00     0.240 C 
HETATM   12  N1  UNL     1      -6.453  45.234   2.023  1.00  0.00    -0.359 N 
ATOM     13  H1  UNL     1      -6.842  44.366   1.655  1.00  0.00     0.162 HD
HETATM   14  O1  UNL     1      -6.187  47.501   1.776  1.00  0.00    -0.271 OA
BRANCH  12  15
HETATM   15  C4  UNL     1      -5.693  45.204   3.252  1.00  0.00     0.126 C 
BRANCH  15  16
HETATM   16  C2  UNL     1      -5.443  43.777   3.650  1.00  0.00    -0.005 C 
HETATM   17  C1  UNL     1      -6.262  43.379   4.840  1.00  0.00     0.011 C 
HETATM   18  C3  UNL     1      -5.679  42.889   2.443  1.00  0.00     0.011 C 
ENDBRANCH  15  16
ENDBRANCH  12  15
ENDBRANCH  10  11
BRANCH  10  19
HETATM   19  C7  UNL     1      -7.744  47.925  -0.304  1.00  0.00     0.038 C 
BRANCH  19  20
HETATM   20  C8  UNL     1      -9.120  48.436  -0.088  1.00  0.00    -0.020 C 
HETATM   21  C9  UNL     1      -9.221  49.452   1.026  1.00  0.00     0.009 C 
HETATM   22  C10 UNL     1      -9.862  48.861  -1.315  1.00  0.00     0.009 C 
ENDBRANCH  19  20
ENDBRANCH  10  19
ENDBRANCH   7  10
ENDBRANCH   1   6
BRANCH   1  23
HETATM   23  N3  UNL     1     -10.873  44.048   0.061  1.00  0.00    -0.341 N 
HETATM   24  C13 UNL     1     -11.379  45.065  -0.762  1.00  0.00     0.241 C 
HETATM   25  O3  UNL     1     -10.759  45.409  -1.788  1.00  0.00    -0.271 OA
ATOM     26  H3  UNL     1     -11.410  43.803   0.892  1.00  0.00     0.163 HD
BRANCH  24  27
HETATM   27  C14 UNL     1     -12.661  45.773  -0.453  1.00  0.00     0.178 C 
BRANCH  27  28
HETATM   28  C15 UNL     1     -12.807  45.707   1.028  1.00  0.00     0.009 C 
HETATM   29  C16 UNL     1     -11.969  46.631   1.834  1.00  0.00     0.012 C 
HETATM   30  C17 UNL     1     -14.238  45.725   1.521  1.00  0.00     0.012 C 
ENDBRANCH  27  28
BRANCH  27  31
HETATM   31  N4  UNL     1     -13.731  45.449  -1.280  1.00  0.00    -0.380 N 
HETATM   32  C18 UNL     1     -13.783  44.119  -1.783  1.00  0.00     0.123 C 
HETATM   33  C19 UNL     1     -14.834  43.924  -2.857  1.00  0.00     0.020 C 
HETATM   34  C20 UNL     1     -16.139  44.436  -2.238  1.00  0.00     0.007 C 
HETATM   35  C21 UNL     1     -16.000  45.935  -2.192  1.00  0.00     0.044 C 
HETATM   36  C22 UNL     1     -14.668  46.365  -1.715  1.00  0.00     0.059 C 
ENDBRANCH  27  31
ENDBRANCH  24  27
ENDBRANCH   1  23
TORSDOF 11
ENDMDL
