MODEL 1
REMARK VINA RESULT: -7.499949305      0.000      0.000
REMARK  2 active torsions:
REMARK  status: ('A' for Active; 'I' for Inactive)
REMARK    1  A    between atoms: C2_2  and  N1_3 
REMARK    2  A    between atoms: N2_11  and  N3_13 
ROOT
HETATM    1  C1  UNL     1       4.558  67.411  66.277  1.00  0.00     0.090 C 
HETATM    2  C2  UNL     1       4.951  65.978  66.216  1.00  0.00     0.091 C 
HETATM    3  N2  UNL     1       4.921  65.398  65.058  1.00  0.00    -0.287 N 
ATOM      4  H2  UNL     1       5.187  64.416  64.994  1.00  0.00     0.188 HD
ENDROOT
BRANCH   2   5
HETATM    5  N1  UNL     1       5.327  65.337  67.400  1.00  0.00    -0.352 N 
HETATM    6  C3  UNL     1       4.553  65.058  68.376  1.00  0.00    -0.012 C 
HETATM    7  C4  UNL     1       5.075  64.374  69.578  1.00  0.00     0.052 C 
HETATM    8  C8  UNL     1       3.122  65.441  68.264  1.00  0.00     0.052 C 
HETATM    9  C5  UNL     1       4.176  63.241  70.022  1.00  0.00     0.006 C 
HETATM   10  C6  UNL     1       2.767  63.387  69.532  1.00  0.00     0.001 C 
HETATM   11  C7  UNL     1       2.413  64.852  69.465  1.00  0.00     0.006 C 
ATOM     12  H1  UNL     1       6.307  65.067  67.492  1.00  0.00     0.166 HD
ENDBRANCH   2   5
BRANCH   3  13
HETATM   13  N3  UNL     1       4.540  66.065  63.898  1.00  0.00    -0.275 N 
HETATM   14  C9  UNL     1       4.513  65.463  62.736  1.00  0.00     0.215 C 
HETATM   15  N4  UNL     1       4.869  64.105  62.594  1.00  0.00    -0.065 NA
HETATM   16  N5  UNL     1       4.115  66.196  61.586  1.00  0.00    -0.065 NA
ATOM     17  H3  UNL     1       4.274  67.048  63.954  1.00  0.00     0.189 HD
ENDBRANCH   3  13
TORSDOF 2
ENDMDL
MODEL 2
REMARK VINA RESULT: -7.388854140      2.805      3.373
REMARK  2 active torsions:
REMARK  status: ('A' for Active; 'I' for Inactive)
REMARK    1  A    between atoms: C2_2  and  N1_3 
REMARK    2  A    between atoms: N2_11  and  N3_13 
ROOT
HETATM    1  C1  UNL     1       4.200  68.755  65.079  1.00  0.00     0.090 C 
HETATM    2  C2  UNL     1       2.910  68.124  65.465  1.00  0.00     0.091 C 
HETATM    3  N2  UNL     1       2.024  67.955  64.535  1.00  0.00    -0.287 N 
ATOM      4  H2  UNL     1       1.133  67.523  64.779  1.00  0.00     0.188 HD
ENDROOT
BRANCH   2   5
HETATM    5  N1  UNL     1       2.722  67.750  66.799  1.00  0.00    -0.352 N 
HETATM    6  C3  UNL     1       2.966  66.597  67.292  1.00  0.00    -0.012 C 
HETATM    7  C4  UNL     1       2.724  66.327  68.725  1.00  0.00     0.052 C 
HETATM    8  C8  UNL     1       3.498  65.548  66.385  1.00  0.00     0.052 C 
HETATM    9  C5  UNL     1       3.881  65.593  69.368  1.00  0.00     0.006 C 
HETATM   10  C6  UNL     1       4.725  64.850  68.375  1.00  0.00     0.001 C 
HETATM   11  C7  UNL     1       3.850  64.356  67.250  1.00  0.00     0.006 C 
ATOM     12  H1  UNL     1       2.357  68.460  67.435  1.00  0.00     0.166 HD
ENDBRANCH   2   5
BRANCH   3  13
HETATM   13  N3  UNL     1       2.243  68.340  63.216  1.00  0.00    -0.275 N 
HETATM   14  C9  UNL     1       1.312  68.224  62.304  1.00  0.00     0.215 C 
HETATM   15  N4  UNL     1       0.035  67.704  62.605  1.00  0.00    -0.065 NA
HETATM   16  N5  UNL     1       1.594  68.634  60.973  1.00  0.00    -0.065 NA
ATOM     17  H3  UNL     1       3.151  68.722  62.954  1.00  0.00     0.189 HD
ENDBRANCH   3  13
TORSDOF 2
ENDMDL
MODEL 3
REMARK VINA RESULT: -7.373741219      2.922      5.703
REMARK  2 active torsions:
REMARK  status: ('A' for Active; 'I' for Inactive)
REMARK    1  A    between atoms: C2_2  and  N1_3 
REMARK    2  A    between atoms: N2_11  and  N3_13 
ROOT
HETATM    1  C1  UNL     1       4.844  64.545  69.137  1.00  0.00     0.090 C 
HETATM    2  C2  UNL     1       3.719  64.736  68.184  1.00  0.00     0.091 C 
HETATM    3  N2  UNL     1       3.103  63.676  67.764  1.00  0.00    -0.287 N 
ATOM      4  H2  UNL     1       2.329  63.785  67.109  1.00  0.00     0.188 HD
ENDROOT
BRANCH   2   5
HETATM    5  N1  UNL     1       3.388  66.037  67.792  1.00  0.00    -0.352 N 
HETATM    6  C3  UNL     1       4.012  66.736  66.924  1.00  0.00    -0.012 C 
HETATM    7  C4  UNL     1       3.559  68.104  66.595  1.00  0.00     0.052 C 
HETATM    8  C8  UNL     1       5.196  66.133  66.260  1.00  0.00     0.052 C 
HETATM    9  C5  UNL     1       3.525  68.349  65.103  1.00  0.00     0.006 C 
HETATM   10  C6  UNL     1       4.420  67.420  64.339  1.00  0.00     0.001 C 
HETATM   11  C7  UNL     1       5.632  67.095  65.177  1.00  0.00     0.006 C 
ATOM     12  H1  UNL     1       2.577  66.466  68.239  1.00  0.00     0.166 HD
ENDBRANCH   2   5
BRANCH   3  13
HETATM   13  N3  UNL     1       3.459  62.395  68.172  1.00  0.00    -0.275 N 
HETATM   14  C9  UNL     1       2.657  61.658  68.898  1.00  0.00     0.215 C 
HETATM   15  N4  UNL     1       1.387  62.119  69.305  1.00  0.00    -0.065 NA
HETATM   16  N5  UNL     1       3.075  60.356  69.285  1.00  0.00    -0.065 NA
ATOM     17  H3  UNL     1       4.368  62.020  67.900  1.00  0.00     0.189 HD
ENDBRANCH   3  13
TORSDOF 2
ENDMDL
MODEL 4
REMARK VINA RESULT: -7.351001784      4.456      6.610
REMARK  2 active torsions:
REMARK  status: ('A' for Active; 'I' for Inactive)
REMARK    1  A    between atoms: C2_2  and  N1_3 
REMARK    2  A    between atoms: N2_11  and  N3_13 
ROOT
HETATM    1  C1  UNL     1       1.225  61.272  70.985  1.00  0.00     0.090 C 
HETATM    2  C2  UNL     1       1.940  61.795  69.791  1.00  0.00     0.091 C 
HETATM    3  N2  UNL     1       2.599  60.945  69.068  1.00  0.00    -0.287 N 
ATOM      4  H2  UNL     1       3.097  61.284  68.244  1.00  0.00     0.188 HD
ENDROOT
BRANCH   2   5
HETATM    5  N1  UNL     1       1.866  63.163  69.513  1.00  0.00    -0.352 N 
HETATM    6  C3  UNL     1       2.855  63.970  69.469  1.00  0.00    -0.012 C 
HETATM    7  C4  UNL     1       2.645  65.400  69.162  1.00  0.00     0.052 C 
HETATM    8  C8  UNL     1       4.212  63.427  69.733  1.00  0.00     0.052 C 
HETATM    9  C5  UNL     1       3.640  65.916  68.146  1.00  0.00     0.006 C 
HETATM   10  C6  UNL     1       4.890  65.090  68.082  1.00  0.00     0.001 C 
HETATM   11  C7  UNL     1       5.196  64.543  69.454  1.00  0.00     0.006 C 
ATOM     12  H1  UNL     1       0.940  63.552  69.330  1.00  0.00     0.166 HD
ENDBRANCH   2   5
BRANCH   3  13
HETATM   13  N3  UNL     1       2.654  59.589  69.373  1.00  0.00    -0.275 N 
HETATM   14  C9  UNL     1       3.730  59.041  69.878  1.00  0.00     0.215 C 
HETATM   15  N4  UNL     1       4.894  59.794  70.143  1.00  0.00    -0.065 NA
HETATM   16  N5  UNL     1       3.726  57.651  70.170  1.00  0.00    -0.065 NA
ATOM     17  H3  UNL     1       1.835  59.007  69.199  1.00  0.00     0.189 HD
ENDBRANCH   3  13
TORSDOF 2
ENDMDL
MODEL 5
REMARK VINA RESULT: -7.333463366      3.105      3.980
REMARK  2 active torsions:
REMARK  status: ('A' for Active; 'I' for Inactive)
REMARK    1  A    between atoms: C2_2  and  N1_3 
REMARK    2  A    between atoms: N2_11  and  N3_13 
ROOT
HETATM    1  C1  UNL     1       4.181  68.656  63.816  1.00  0.00     0.090 C 
HETATM    2  C2  UNL     1       3.181  67.662  64.286  1.00  0.00     0.091 C 
HETATM    3  N2  UNL     1       2.081  67.553  63.609  1.00  0.00    -0.287 N 
ATOM      4  H2  UNL     1       1.383  66.876  63.915  1.00  0.00     0.188 HD
ENDROOT
BRANCH   2   5
HETATM    5  N1  UNL     1       3.476  66.902  65.422  1.00  0.00    -0.352 N 
HETATM    6  C3  UNL     1       3.216  67.232  66.628  1.00  0.00    -0.012 C 
HETATM    7  C4  UNL     1       3.579  66.338  67.747  1.00  0.00     0.052 C 
HETATM    8  C8  UNL     1       2.541  68.534  66.866  1.00  0.00     0.052 C 
HETATM    9  C5  UNL     1       2.451  66.187  68.743  1.00  0.00     0.006 C 
HETATM   10  C6  UNL     1       1.474  67.324  68.696  1.00  0.00     0.001 C 
HETATM   11  C7  UNL     1       2.207  68.594  68.341  1.00  0.00     0.006 C 
ATOM     12  H1  UNL     1       3.940  66.005  65.276  1.00  0.00     0.166 HD
ENDBRANCH   2   5
BRANCH   3  13
HETATM   13  N3  UNL     1       1.818  68.325  62.483  1.00  0.00    -0.275 N 
HETATM   14  C9  UNL     1       0.630  68.358  61.935  1.00  0.00     0.215 C 
HETATM   15  N4  UNL     1      -0.450  67.614  62.455  1.00  0.00    -0.065 NA
HETATM   16  N5  UNL     1       0.421  69.166  60.785  1.00  0.00    -0.065 NA
ATOM     17  H3  UNL     1       2.570  68.880  62.073  1.00  0.00     0.189 HD
ENDBRANCH   3  13
TORSDOF 2
ENDMDL
