MODEL 1
REMARK VINA RESULT: -8.116863658      0.000      0.000
REMARK  2 active torsions:
REMARK  status: ('A' for Active; 'I' for Inactive)
REMARK    1  A    between atoms: C2_2  and  C3_3 
REMARK    2  A    between atoms: C11_13  and  C12_14 
ROOT
HETATM    1  C1  UNL     1     -23.376  80.763  13.026  1.00  0.00     0.058 C 
HETATM    2  C2  UNL     1     -24.414  81.782  12.542  1.00  0.00     0.145 C 
HETATM    3  C4  UNL     1     -25.613  81.623  13.448  1.00  0.00     0.049 C 
HETATM    4  C5  UNL     1     -26.418  80.455  12.913  1.00  0.00     0.004 C 
HETATM    5  C6  UNL     1     -27.507  81.040  12.029  1.00  0.00     0.012 C 
HETATM    6  C7  UNL     1     -26.955  81.197  10.628  1.00  0.00    -0.014 C 
HETATM    7  C8  UNL     1     -26.372  79.851  10.219  1.00  0.00     0.018 C 
HETATM    8  C9  UNL     1     -25.793  82.159  10.717  1.00  0.00     0.132 C 
HETATM    9  C10 UNL     1     -25.422  82.519   9.290  1.00  0.00     0.038 C 
HETATM   10  C11 UNL     1     -26.506  83.347   8.643  1.00  0.00     0.003 C 
HETATM   11  C13 UNL     1     -27.865  82.987   9.111  1.00  0.00    -0.005 C 
HETATM   12  C14 UNL     1     -28.912  83.167   8.030  1.00  0.00     0.005 C 
HETATM   13  C15 UNL     1     -30.271  83.156   8.737  1.00  0.00     0.000 C 
HETATM   14  C16 UNL     1     -30.490  81.857   9.431  1.00  0.00     0.000 C 
HETATM   15  C17 UNL     1     -29.349  81.403  10.283  1.00  0.00     0.006 C 
HETATM   16  C18 UNL     1     -27.997  81.592   9.636  1.00  0.00     0.001 C 
HETATM   17  O3  UNL     1     -24.668  81.508  11.234  1.00  0.00    -0.363 OA
ENDROOT
BRANCH   2  18
HETATM   18  C3  UNL     1     -23.831  83.117  12.783  1.00  0.00     0.208 C 
HETATM   19  O1  UNL     1     -24.316  83.776  13.760  1.00  0.00    -0.646 OA
HETATM   20  O2  UNL     1     -22.821  83.680  12.035  1.00  0.00    -0.646 OA
ENDBRANCH   2  18
BRANCH  10  21
HETATM   21  C12 UNL     1     -26.320  83.237   7.148  1.00  0.00     0.091 C 
HETATM   22  S1  UNL     1     -24.877  82.203   6.732  1.00  0.00    -0.097 SA
ENDBRANCH  10  21
TORSDOF 2
ENDMDL
MODEL 2
REMARK VINA RESULT: -7.229509959      1.184      1.481
REMARK  2 active torsions:
REMARK  status: ('A' for Active; 'I' for Inactive)
REMARK    1  A    between atoms: C2_2  and  C3_3 
REMARK    2  A    between atoms: C11_13  and  C12_14 
ROOT
HETATM    1  C1  UNL     1     -24.384  79.842  13.426  1.00  0.00     0.058 C 
HETATM    2  C2  UNL     1     -24.834  81.160  12.785  1.00  0.00     0.145 C 
HETATM    3  C4  UNL     1     -26.235  81.414  13.290  1.00  0.00     0.049 C 
HETATM    4  C5  UNL     1     -27.173  80.599  12.421  1.00  0.00     0.004 C 
HETATM    5  C6  UNL     1     -27.687  81.530  11.336  1.00  0.00     0.012 C 
HETATM    6  C7  UNL     1     -26.715  81.500  10.176  1.00  0.00    -0.014 C 
HETATM    7  C8  UNL     1     -26.506  80.040   9.800  1.00  0.00     0.018 C 
HETATM    8  C9  UNL     1     -25.390  82.004  10.699  1.00  0.00     0.132 C 
HETATM    9  C10 UNL     1     -24.506  82.227   9.486  1.00  0.00     0.038 C 
HETATM   10  C11 UNL     1     -25.009  83.383   8.656  1.00  0.00     0.003 C 
HETATM   11  C13 UNL     1     -26.486  83.507   8.676  1.00  0.00    -0.005 C 
HETATM   12  C14 UNL     1     -27.035  84.046   7.369  1.00  0.00     0.005 C 
HETATM   13  C15 UNL     1     -28.471  84.496   7.656  1.00  0.00     0.000 C 
HETATM   14  C16 UNL     1     -29.300  83.345   8.108  1.00  0.00     0.000 C 
HETATM   15  C17 UNL     1     -28.686  82.520   9.192  1.00  0.00     0.006 C 
HETATM   16  C18 UNL     1     -27.217  82.238   8.981  1.00  0.00     0.001 C 
HETATM   17  O3  UNL     1     -24.752  81.001  11.437  1.00  0.00    -0.363 OA
ENDROOT
BRANCH   2  18
HETATM   18  C3  UNL     1     -23.952  82.211  13.331  1.00  0.00     0.208 C 
HETATM   19  O1  UNL     1     -24.532  83.217  13.856  1.00  0.00    -0.646 OA
HETATM   20  O2  UNL     1     -22.576  82.171  13.307  1.00  0.00    -0.646 OA
ENDBRANCH   2  18
BRANCH  10  21
HETATM   21  C12 UNL     1     -24.422  83.229   7.273  1.00  0.00     0.091 C 
HETATM   22  S1  UNL     1     -22.629  83.560   7.270  1.00  0.00    -0.097 SA
ENDBRANCH  10  21
TORSDOF 2
ENDMDL
MODEL 3
REMARK VINA RESULT: -6.848512332      2.023      2.564
REMARK  2 active torsions:
REMARK  status: ('A' for Active; 'I' for Inactive)
REMARK    1  A    between atoms: C2_2  and  C3_3 
REMARK    2  A    between atoms: C11_13  and  C12_14 
ROOT
HETATM    1  C1  UNL     1     -22.249  83.038   9.883  1.00  0.00     0.058 C 
HETATM    2  C2  UNL     1     -23.661  83.620  10.017  1.00  0.00     0.145 C 
HETATM    3  C4  UNL     1     -24.171  83.176  11.368  1.00  0.00     0.049 C 
HETATM    4  C5  UNL     1     -24.700  81.766  11.199  1.00  0.00     0.004 C 
HETATM    5  C6  UNL     1     -26.199  81.883  10.975  1.00  0.00     0.012 C 
HETATM    6  C7  UNL     1     -26.450  82.068   9.494  1.00  0.00    -0.014 C 
HETATM    7  C8  UNL     1     -25.722  80.945   8.769  1.00  0.00     0.018 C 
HETATM    8  C9  UNL     1     -25.769  83.355   9.089  1.00  0.00     0.132 C 
HETATM    9  C10 UNL     1     -26.247  83.671   7.684  1.00  0.00     0.038 C 
HETATM   10  C11 UNL     1     -27.711  84.043   7.683  1.00  0.00     0.003 C 
HETATM   11  C13 UNL     1     -28.491  83.316   8.712  1.00  0.00    -0.005 C 
HETATM   12  C14 UNL     1     -29.915  83.045   8.268  1.00  0.00     0.005 C 
HETATM   13  C15 UNL     1     -30.699  82.671   9.530  1.00  0.00     0.000 C 
HETATM   14  C16 UNL     1     -30.130  81.445  10.156  1.00  0.00     0.000 C 
HETATM   15  C17 UNL     1     -28.647  81.466  10.335  1.00  0.00     0.006 C 
HETATM   16  C18 UNL     1     -27.899  82.011   9.141  1.00  0.00     0.001 C 
HETATM   17  O3  UNL     1     -24.390  83.151   8.969  1.00  0.00    -0.363 OA
ENDROOT
BRANCH   2  18
HETATM   18  C3  UNL     1     -23.506  85.088  10.044  1.00  0.00     0.208 C 
HETATM   19  O1  UNL     1     -22.645  85.579   9.245  1.00  0.00    -0.646 OA
HETATM   20  O2  UNL     1     -24.217  85.937  10.862  1.00  0.00    -0.646 OA
ENDBRANCH   2  18
BRANCH  10  21
HETATM   21  C12 UNL     1     -28.219  83.851   6.274  1.00  0.00     0.091 C 
HETATM   22  S1  UNL     1     -27.413  85.002   5.113  1.00  0.00    -0.097 SA
ENDBRANCH  10  21
TORSDOF 2
ENDMDL
MODEL 4
REMARK VINA RESULT: -6.654245852      3.014      5.424
REMARK  2 active torsions:
REMARK  status: ('A' for Active; 'I' for Inactive)
REMARK    1  A    between atoms: C2_2  and  C3_3 
REMARK    2  A    between atoms: C11_13  and  C12_14 
ROOT
HETATM    1  C1  UNL     1     -23.870  84.309   5.452  1.00  0.00     0.058 C 
HETATM    2  C2  UNL     1     -24.871  83.246   5.918  1.00  0.00     0.145 C 
HETATM    3  C4  UNL     1     -25.995  83.257   4.908  1.00  0.00     0.049 C 
HETATM    4  C5  UNL     1     -26.924  84.391   5.295  1.00  0.00     0.004 C 
HETATM    5  C6  UNL     1     -28.041  83.780   6.126  1.00  0.00     0.012 C 
HETATM    6  C7  UNL     1     -27.602  83.752   7.574  1.00  0.00    -0.014 C 
HETATM    7  C8  UNL     1     -27.154  85.161   7.937  1.00  0.00     0.018 C 
HETATM    8  C9  UNL     1     -26.372  82.878   7.646  1.00  0.00     0.132 C 
HETATM    9  C10 UNL     1     -26.101  82.636   9.119  1.00  0.00     0.038 C 
HETATM   10  C11 UNL     1     -27.174  81.768   9.730  1.00  0.00     0.003 C 
HETATM   11  C13 UNL     1     -28.511  81.994   9.129  1.00  0.00    -0.005 C 
HETATM   12  C14 UNL     1     -29.632  81.801  10.131  1.00  0.00     0.005 C 
HETATM   13  C15 UNL     1     -30.922  81.665   9.316  1.00  0.00     0.000 C 
HETATM   14  C16 UNL     1     -31.171  82.899   8.521  1.00  0.00     0.000 C 
HETATM   15  C17 UNL     1     -29.997  83.385   7.736  1.00  0.00     0.006 C 
HETATM   16  C18 UNL     1     -28.695  83.340   8.502  1.00  0.00     0.001 C 
HETATM   17  O3  UNL     1     -25.255  83.579   7.179  1.00  0.00    -0.363 OA
ENDROOT
BRANCH   2  18
HETATM   18  C3  UNL     1     -24.176  81.947   5.815  1.00  0.00     0.208 C 
HETATM   19  O1  UNL     1     -22.955  81.930   6.177  1.00  0.00    -0.646 OA
HETATM   20  O2  UNL     1     -24.754  80.782   5.362  1.00  0.00    -0.646 OA
ENDBRANCH   2  18
BRANCH  10  21
HETATM   21  C12 UNL     1     -27.127  81.983  11.224  1.00  0.00     0.091 C 
HETATM   22  S1  UNL     1     -26.595  80.474  12.097  1.00  0.00    -0.097 SA
ENDBRANCH  10  21
TORSDOF 2
ENDMDL
MODEL 5
REMARK VINA RESULT: -6.475355425      5.351      6.963
REMARK  2 active torsions:
REMARK  status: ('A' for Active; 'I' for Inactive)
REMARK    1  A    between atoms: C2_2  and  C3_3 
REMARK    2  A    between atoms: C11_13  and  C12_14 
ROOT
HETATM    1  C1  UNL     1     -22.975  83.843  17.315  1.00  0.00     0.058 C 
HETATM    2  C2  UNL     1     -22.332  84.882  16.388  1.00  0.00     0.145 C 
HETATM    3  C4  UNL     1     -23.356  85.979  16.213  1.00  0.00     0.049 C 
HETATM    4  C5  UNL     1     -24.316  85.518  15.134  1.00  0.00     0.004 C 
HETATM    5  C6  UNL     1     -23.837  86.131  13.829  1.00  0.00     0.012 C 
HETATM    6  C7  UNL     1     -22.818  85.201  13.207  1.00  0.00    -0.014 C 
HETATM    7  C8  UNL     1     -23.452  83.818  13.136  1.00  0.00     0.018 C 
HETATM    8  C9  UNL     1     -21.665  85.096  14.178  1.00  0.00     0.132 C 
HETATM    9  C10 UNL     1     -20.543  84.390  13.440  1.00  0.00     0.038 C 
HETATM   10  C11 UNL     1     -19.987  85.263  12.341  1.00  0.00     0.003 C 
HETATM   11  C13 UNL     1     -21.015  86.127  11.714  1.00  0.00    -0.005 C 
HETATM   12  C14 UNL     1     -20.741  86.373  10.244  1.00  0.00     0.005 C 
HETATM   13  C15 UNL     1     -21.613  87.565   9.834  1.00  0.00     0.000 C 
HETATM   14  C16 UNL     1     -23.055  87.249  10.027  1.00  0.00     0.000 C 
HETATM   15  C17 UNL     1     -23.395  86.668  11.360  1.00  0.00     0.006 C 
HETATM   16  C18 UNL     1     -22.417  85.617  11.831  1.00  0.00     0.001 C 
HETATM   17  O3  UNL     1     -22.002  84.242  15.234  1.00  0.00    -0.363 OA
ENDROOT
BRANCH   2  18
HETATM   18  C3  UNL     1     -21.181  85.442  17.125  1.00  0.00     0.208 C 
HETATM   19  O1  UNL     1     -21.302  86.644  17.529  1.00  0.00    -0.646 OA
HETATM   20  O2  UNL     1     -20.015  84.761  17.395  1.00  0.00    -0.646 OA
ENDBRANCH   2  18
BRANCH  10  21
HETATM   21  C12 UNL     1     -19.270  84.355  11.370  1.00  0.00     0.091 C 
HETATM   22  S1  UNL     1     -20.085  82.728  11.254  1.00  0.00    -0.097 SA
ENDBRANCH  10  21
TORSDOF 2
ENDMDL
