MODEL 1
REMARK VINA RESULT: -6.848130452      0.000      0.000
REMARK  10 active torsions:
REMARK  status: ('A' for Active; 'I' for Inactive)
REMARK    1  A    between atoms: C2_2  and  O1_3 
REMARK    2  A    between atoms: O1_3  and  C3_4 
REMARK    3  A    between atoms: C3_4  and  O3_6 
REMARK    4  A    between atoms: O3_6  and  C4_7 
REMARK    5  A    between atoms: C4_7  and  C5_8 
REMARK    6  A    between atoms: C6_13  and  S1_14 
REMARK    7  A    between atoms: S1_14  and  C7_15 
REMARK    8  A    between atoms: C7_15  and  C8_16 
REMARK       I    between atoms: C8_16  and  N3_18 
REMARK       I    between atoms: N3_18  and  C9_20 
REMARK    9  A    between atoms: C9_20  and  O6_22 
REMARK   10  A    between atoms: O6_22  and  C10_23 
ROOT
HETATM    1  C5  UNL     1      21.822  86.006   4.943  1.00  0.00     0.124 A 
HETATM    2  N1  UNL     1      20.988  85.990   3.879  1.00  0.00    -0.285 N 
ATOM      3  H1  UNL     1      19.976  86.113   3.912  1.00  0.00     0.188 HD
HETATM    4  N2  UNL     1      21.709  85.788   2.789  1.00  0.00    -0.278 N 
ATOM      5  H2  UNL     1      21.343  85.730   1.838  1.00  0.00     0.189 HD
HETATM    6  C6  UNL     1      23.023  85.669   3.143  1.00  0.00     0.162 A 
HETATM    7  N4  UNL     1      23.046  85.809   4.469  1.00  0.00    -0.318 N 
HETATM    8  C14 UNL     1      24.260  85.751   5.259  1.00  0.00     0.160 C 
ENDROOT
BRANCH   6   9
HETATM    9  S1  UNL     1      24.390  85.385   2.015  1.00  0.00    -0.083 SA
BRANCH   9  10
HETATM   10  C7  UNL     1      24.469  83.594   1.731  1.00  0.00     0.185 C 
BRANCH  10  11
HETATM   11  C8  UNL     1      23.247  83.080   1.095  1.00  0.00     0.235 C 
HETATM   12  O4  UNL     1      23.143  83.118  -0.158  1.00  0.00    -0.272 OA
HETATM   13  N3  UNL     1      22.205  82.553   1.870  1.00  0.00    -0.272 N 
HETATM   14  C9  UNL     1      21.016  82.050   1.281  1.00  0.00     0.368 C 
ATOM     15  H3  UNL     1      22.305  82.529   2.885  1.00  0.00     0.174 HD
HETATM   16  O5  UNL     1      20.899  82.083   0.035  1.00  0.00    -0.238 OA
BRANCH  14  17
HETATM   17  O6  UNL     1      19.973  81.525   2.008  1.00  0.00    -0.294 OA
BRANCH  17  18
HETATM   18  C10 UNL     1      18.716  82.132   2.143  1.00  0.00     0.061 C 
HETATM   19  C11 UNL     1      17.746  81.755   1.056  1.00  0.00     0.046 C 
HETATM   20  C12 UNL     1      18.806  83.653   2.155  1.00  0.00     0.046 C 
HETATM   21  C13 UNL     1      18.159  81.706   3.499  1.00  0.00     0.046 C 
ENDBRANCH  17  18
ENDBRANCH  14  17
ENDBRANCH  10  11
ENDBRANCH   9  10
ENDBRANCH   6   9
BRANCH   1  22
HETATM   22  C4  UNL     1      21.457  86.204   6.376  1.00  0.00     0.259 C 
BRANCH  22  23
HETATM   23  O3  UNL     1      20.435  85.267   6.748  1.00  0.00    -0.291 OA
BRANCH  23  24
HETATM   24  C3  UNL     1      19.145  85.745   6.925  1.00  0.00     0.406 C 
HETATM   25  O2  UNL     1      18.733  86.686   6.172  1.00  0.00    -0.229 OA
BRANCH  24  26
HETATM   26  O1  UNL     1      18.274  85.259   7.873  1.00  0.00    -0.298 OA
BRANCH  26  27
HETATM   27  C2  UNL     1      18.451  83.967   8.473  1.00  0.00     0.176 C 
HETATM   28  C1  UNL     1      18.036  82.943   7.447  1.00  0.00     0.034 C 
ENDBRANCH  26  27
ENDBRANCH  24  26
ENDBRANCH  23  24
ENDBRANCH  22  23
ENDBRANCH   1  22
TORSDOF 10
ENDMDL
MODEL 2
REMARK VINA RESULT: -6.801001117      1.464      2.078
REMARK  10 active torsions:
REMARK  status: ('A' for Active; 'I' for Inactive)
REMARK    1  A    between atoms: C2_2  and  O1_3 
REMARK    2  A    between atoms: O1_3  and  C3_4 
REMARK    3  A    between atoms: C3_4  and  O3_6 
REMARK    4  A    between atoms: O3_6  and  C4_7 
REMARK    5  A    between atoms: C4_7  and  C5_8 
REMARK    6  A    between atoms: C6_13  and  S1_14 
REMARK    7  A    between atoms: S1_14  and  C7_15 
REMARK    8  A    between atoms: C7_15  and  C8_16 
REMARK       I    between atoms: C8_16  and  N3_18 
REMARK       I    between atoms: N3_18  and  C9_20 
REMARK    9  A    between atoms: C9_20  and  O6_22 
REMARK   10  A    between atoms: O6_22  and  C10_23 
ROOT
HETATM    1  C5  UNL     1      20.712  85.829   6.142  1.00  0.00     0.124 A 
HETATM    2  N1  UNL     1      20.281  86.050   4.880  1.00  0.00    -0.285 N 
ATOM      3  H1  UNL     1      19.323  86.266   4.605  1.00  0.00     0.188 HD
HETATM    4  N2  UNL     1      21.315  85.938   4.062  1.00  0.00    -0.278 N 
ATOM      5  H2  UNL     1      21.286  86.055   3.049  1.00  0.00     0.189 HD
HETATM    6  C6  UNL     1      22.428  85.640   4.795  1.00  0.00     0.162 A 
HETATM    7  N4  UNL     1      22.015  85.583   6.061  1.00  0.00    -0.318 N 
HETATM    8  C14 UNL     1      22.891  85.291   7.177  1.00  0.00     0.160 C 
ENDROOT
BRANCH   6   9
HETATM    9  S1  UNL     1      24.080  85.389   4.136  1.00  0.00    -0.083 SA
BRANCH   9  10
HETATM   10  C7  UNL     1      23.920  85.350   2.328  1.00  0.00     0.185 C 
BRANCH  10  11
HETATM   11  C8  UNL     1      23.492  84.031   1.839  1.00  0.00     0.235 C 
HETATM   12  O4  UNL     1      24.326  83.291   1.258  1.00  0.00    -0.272 OA
HETATM   13  N3  UNL     1      22.171  83.597   2.017  1.00  0.00    -0.272 N 
HETATM   14  C9  UNL     1      21.734  82.328   1.555  1.00  0.00     0.368 C 
ATOM     15  H3  UNL     1      21.507  84.209   2.491  1.00  0.00     0.174 HD
HETATM   16  O5  UNL     1      22.553  81.582   0.974  1.00  0.00    -0.238 OA
BRANCH  14  17
HETATM   17  O6  UNL     1      20.447  81.868   1.711  1.00  0.00    -0.294 OA
BRANCH  17  18
HETATM   18  C10 UNL     1      19.354  82.295   0.944  1.00  0.00     0.061 C 
HETATM   19  C11 UNL     1      19.729  82.734  -0.446  1.00  0.00     0.046 C 
HETATM   20  C12 UNL     1      18.608  83.455   1.594  1.00  0.00     0.046 C 
HETATM   21  C13 UNL     1      18.378  81.123   0.866  1.00  0.00     0.046 C 
ENDBRANCH  17  18
ENDBRANCH  14  17
ENDBRANCH  10  11
ENDBRANCH   9  10
ENDBRANCH   6   9
BRANCH   1  22
HETATM   22  C4  UNL     1      19.899  85.852   7.392  1.00  0.00     0.259 C 
BRANCH  22  23
HETATM   23  O3  UNL     1      18.597  85.307   7.132  1.00  0.00    -0.291 OA
BRANCH  23  24
HETATM   24  C3  UNL     1      18.338  84.010   7.551  1.00  0.00     0.406 C 
HETATM   25  O2  UNL     1      18.019  83.813   8.768  1.00  0.00    -0.229 OA
BRANCH  24  26
HETATM   26  O1  UNL     1      18.402  82.912   6.723  1.00  0.00    -0.298 OA
BRANCH  26  27
HETATM   27  C2  UNL     1      18.383  83.039   5.294  1.00  0.00     0.176 C 
HETATM   28  C1  UNL     1      17.993  81.694   4.736  1.00  0.00     0.034 C 
ENDBRANCH  26  27
ENDBRANCH  24  26
ENDBRANCH  23  24
ENDBRANCH  22  23
ENDBRANCH   1  22
TORSDOF 10
ENDMDL
MODEL 3
REMARK VINA RESULT: -6.704936034      4.344      9.103
REMARK  10 active torsions:
REMARK  status: ('A' for Active; 'I' for Inactive)
REMARK    1  A    between atoms: C2_2  and  O1_3 
REMARK    2  A    between atoms: O1_3  and  C3_4 
REMARK    3  A    between atoms: C3_4  and  O3_6 
REMARK    4  A    between atoms: O3_6  and  C4_7 
REMARK    5  A    between atoms: C4_7  and  C5_8 
REMARK    6  A    between atoms: C6_13  and  S1_14 
REMARK    7  A    between atoms: S1_14  and  C7_15 
REMARK    8  A    between atoms: C7_15  and  C8_16 
REMARK       I    between atoms: C8_16  and  N3_18 
REMARK       I    between atoms: N3_18  and  C9_20 
REMARK    9  A    between atoms: C9_20  and  O6_22 
REMARK   10  A    between atoms: O6_22  and  C10_23 
ROOT
HETATM    1  C5  UNL     1      17.302  79.427   0.701  1.00  0.00     0.124 A 
HETATM    2  N1  UNL     1      17.064  79.310   2.027  1.00  0.00    -0.285 N 
ATOM      3  H1  UNL     1      16.438  78.634   2.464  1.00  0.00     0.188 HD
HETATM    4  N2  UNL     1      17.782  80.222   2.660  1.00  0.00    -0.278 N 
ATOM      5  H2  UNL     1      17.803  80.365   3.670  1.00  0.00     0.189 HD
HETATM    6  C6  UNL     1      18.493  80.941   1.742  1.00  0.00     0.162 A 
HETATM    7  N4  UNL     1      18.169  80.421   0.558  1.00  0.00    -0.318 N 
HETATM    8  C14 UNL     1      18.708  80.898  -0.700  1.00  0.00     0.160 C 
ENDROOT
BRANCH   6   9
HETATM    9  S1  UNL     1      19.615  82.293   2.111  1.00  0.00    -0.083 SA
BRANCH   9  10
HETATM   10  C7  UNL     1      18.638  83.565   2.961  1.00  0.00     0.185 C 
BRANCH  10  11
HETATM   11  C8  UNL     1      18.680  83.410   4.423  1.00  0.00     0.235 C 
HETATM   12  O4  UNL     1      18.142  82.404   4.950  1.00  0.00    -0.272 OA
HETATM   13  N3  UNL     1      19.312  84.370   5.225  1.00  0.00    -0.272 N 
HETATM   14  C9  UNL     1      19.366  84.244   6.638  1.00  0.00     0.368 C 
ATOM     15  H3  UNL     1      19.743  85.181   4.782  1.00  0.00     0.174 HD
HETATM   16  O5  UNL     1      18.834  83.247   7.175  1.00  0.00    -0.238 OA
BRANCH  14  17
HETATM   17  O6  UNL     1      19.977  85.164   7.457  1.00  0.00    -0.294 OA
BRANCH  17  18
HETATM   18  C10 UNL     1      21.187  85.809   7.162  1.00  0.00     0.061 C 
HETATM   19  C11 UNL     1      22.026  85.079   6.147  1.00  0.00     0.046 C 
HETATM   20  C12 UNL     1      22.054  86.009   8.399  1.00  0.00     0.046 C 
HETATM   21  C13 UNL     1      20.835  87.197   6.634  1.00  0.00     0.046 C 
ENDBRANCH  17  18
ENDBRANCH  14  17
ENDBRANCH  10  11
ENDBRANCH   9  10
ENDBRANCH   6   9
BRANCH   1  22
HETATM   22  C4  UNL     1      16.713  78.609  -0.399  1.00  0.00     0.259 C 
BRANCH  22  23
HETATM   23  O3  UNL     1      17.621  77.555  -0.755  1.00  0.00    -0.291 OA
BRANCH  23  24
HETATM   24  C3  UNL     1      17.084  76.338  -1.149  1.00  0.00     0.406 C 
HETATM   25  O2  UNL     1      16.330  75.710  -0.336  1.00  0.00    -0.229 OA
BRANCH  24  26
HETATM   26  O1  UNL     1      17.316  75.763  -2.378  1.00  0.00    -0.298 OA
BRANCH  26  27
HETATM   27  C2  UNL     1      17.296  76.531  -3.589  1.00  0.00     0.176 C 
HETATM   28  C1  UNL     1      16.073  76.107  -4.363  1.00  0.00     0.034 C 
ENDBRANCH  26  27
ENDBRANCH  24  26
ENDBRANCH  23  24
ENDBRANCH  22  23
ENDBRANCH   1  22
TORSDOF 10
ENDMDL
MODEL 4
REMARK VINA RESULT: -6.667895759      2.842      6.521
REMARK  10 active torsions:
REMARK  status: ('A' for Active; 'I' for Inactive)
REMARK    1  A    between atoms: C2_2  and  O1_3 
REMARK    2  A    between atoms: O1_3  and  C3_4 
REMARK    3  A    between atoms: C3_4  and  O3_6 
REMARK    4  A    between atoms: O3_6  and  C4_7 
REMARK    5  A    between atoms: C4_7  and  C5_8 
REMARK    6  A    between atoms: C6_13  and  S1_14 
REMARK    7  A    between atoms: S1_14  and  C7_15 
REMARK    8  A    between atoms: C7_15  and  C8_16 
REMARK       I    between atoms: C8_16  and  N3_18 
REMARK       I    between atoms: N3_18  and  C9_20 
REMARK    9  A    between atoms: C9_20  and  O6_22 
REMARK   10  A    between atoms: O6_22  and  C10_23 
ROOT
HETATM    1  C5  UNL     1      18.479  82.883   4.381  1.00  0.00     0.124 A 
HETATM    2  N1  UNL     1      18.965  83.902   3.638  1.00  0.00    -0.285 N 
ATOM      3  H1  UNL     1      19.074  83.903   2.624  1.00  0.00     0.188 HD
HETATM    4  N2  UNL     1      19.274  84.898   4.451  1.00  0.00    -0.278 N 
ATOM      5  H2  UNL     1      19.662  85.798   4.166  1.00  0.00     0.189 HD
HETATM    6  C6  UNL     1      18.991  84.527   5.734  1.00  0.00     0.162 A 
HETATM    7  N4  UNL     1      18.506  83.288   5.645  1.00  0.00    -0.318 N 
HETATM    8  C14 UNL     1      18.075  82.512   6.790  1.00  0.00     0.160 C 
ENDROOT
BRANCH   6   9
HETATM    9  S1  UNL     1      19.238  85.539   7.197  1.00  0.00    -0.083 SA
BRANCH   9  10
HETATM   10  C7  UNL     1      20.732  84.915   8.016  1.00  0.00     0.185 C 
BRANCH  10  11
HETATM   11  C8  UNL     1      21.960  85.430   7.391  1.00  0.00     0.235 C 
HETATM   12  O4  UNL     1      22.543  86.419   7.904  1.00  0.00    -0.272 OA
HETATM   13  N3  UNL     1      22.481  84.828   6.237  1.00  0.00    -0.272 N 
HETATM   14  C9  UNL     1      23.665  85.305   5.616  1.00  0.00     0.368 C 
ATOM     15  H3  UNL     1      21.997  84.027   5.833  1.00  0.00     0.174 HD
HETATM   16  O5  UNL     1      24.254  86.290   6.116  1.00  0.00    -0.238 OA
BRANCH  14  17
HETATM   17  O6  UNL     1      24.206  84.741   4.484  1.00  0.00    -0.294 OA
BRANCH  17  18
HETATM   18  C10 UNL     1      23.798  85.043   3.176  1.00  0.00     0.061 C 
HETATM   19  C11 UNL     1      23.402  83.832   2.374  1.00  0.00     0.046 C 
HETATM   20  C12 UNL     1      24.880  85.769   2.385  1.00  0.00     0.046 C 
HETATM   21  C13 UNL     1      22.611  85.996   3.288  1.00  0.00     0.046 C 
ENDBRANCH  17  18
ENDBRANCH  14  17
ENDBRANCH  10  11
ENDBRANCH   9  10
ENDBRANCH   6   9
BRANCH   1  22
HETATM   22  C4  UNL     1      18.002  81.556   3.894  1.00  0.00     0.259 C 
BRANCH  22  23
HETATM   23  O3  UNL     1      18.797  81.139   2.774  1.00  0.00    -0.291 OA
BRANCH  23  24
HETATM   24  C3  UNL     1      18.260  81.287   1.503  1.00  0.00     0.406 C 
HETATM   25  O2  UNL     1      18.214  82.452   0.991  1.00  0.00    -0.229 OA
BRANCH  24  26
HETATM   26  O1  UNL     1      17.772  80.240   0.754  1.00  0.00    -0.298 OA
BRANCH  26  27
HETATM   27  C2  UNL     1      17.267  79.043   1.363  1.00  0.00     0.176 C 
HETATM   28  C1  UNL     1      15.811  79.283   1.672  1.00  0.00     0.034 C 
ENDBRANCH  26  27
ENDBRANCH  24  26
ENDBRANCH  23  24
ENDBRANCH  22  23
ENDBRANCH   1  22
TORSDOF 10
ENDMDL
MODEL 5
REMARK VINA RESULT: -6.611028992      2.687      5.903
REMARK  10 active torsions:
REMARK  status: ('A' for Active; 'I' for Inactive)
REMARK    1  A    between atoms: C2_2  and  O1_3 
REMARK    2  A    between atoms: O1_3  and  C3_4 
REMARK    3  A    between atoms: C3_4  and  O3_6 
REMARK    4  A    between atoms: O3_6  and  C4_7 
REMARK    5  A    between atoms: C4_7  and  C5_8 
REMARK    6  A    between atoms: C6_13  and  S1_14 
REMARK    7  A    between atoms: S1_14  and  C7_15 
REMARK    8  A    between atoms: C7_15  and  C8_16 
REMARK       I    between atoms: C8_16  and  N3_18 
REMARK       I    between atoms: N3_18  and  C9_20 
REMARK    9  A    between atoms: C9_20  and  O6_22 
REMARK   10  A    between atoms: O6_22  and  C10_23 
ROOT
HETATM    1  C5  UNL     1      23.153  85.811   5.645  1.00  0.00     0.124 A 
HETATM    2  N1  UNL     1      23.338  85.788   6.984  1.00  0.00    -0.285 N 
ATOM      3  H1  UNL     1      24.238  85.771   7.462  1.00  0.00     0.188 HD
HETATM    4  N2  UNL     1      22.150  85.790   7.567  1.00  0.00    -0.278 N 
ATOM      5  H2  UNL     1      21.984  85.776   8.574  1.00  0.00     0.189 HD
HETATM    6  C6  UNL     1      21.184  85.812   6.603  1.00  0.00     0.162 A 
HETATM    7  N4  UNL     1      21.841  85.826   5.443  1.00  0.00    -0.318 N 
HETATM    8  C14 UNL     1      21.185  85.852   4.151  1.00  0.00     0.160 C 
ENDROOT
BRANCH   6   9
HETATM    9  S1  UNL     1      19.412  85.824   6.895  1.00  0.00    -0.083 SA
BRANCH   9  10
HETATM   10  C7  UNL     1      18.992  84.209   7.610  1.00  0.00     0.185 C 
BRANCH  10  11
HETATM   11  C8  UNL     1      18.553  83.249   6.586  1.00  0.00     0.235 C 
HETATM   12  O4  UNL     1      18.100  82.132   6.944  1.00  0.00    -0.272 OA
HETATM   13  N3  UNL     1      18.635  83.569   5.224  1.00  0.00    -0.272 N 
HETATM   14  C9  UNL     1      18.218  82.661   4.217  1.00  0.00     0.368 C 
ATOM     15  H3  UNL     1      19.005  84.479   4.950  1.00  0.00     0.174 HD
HETATM   16  O5  UNL     1      17.766  81.545   4.560  1.00  0.00    -0.238 OA
BRANCH  14  17
HETATM   17  O6  UNL     1      18.284  82.939   2.871  1.00  0.00    -0.294 OA
BRANCH  17  18
HETATM   18  C10 UNL     1      18.957  82.146   1.930  1.00  0.00     0.061 C 
HETATM   19  C11 UNL     1      18.304  80.812   1.689  1.00  0.00     0.046 C 
HETATM   20  C12 UNL     1      20.401  81.872   2.333  1.00  0.00     0.046 C 
HETATM   21  C13 UNL     1      18.999  82.941   0.627  1.00  0.00     0.046 C 
ENDBRANCH  17  18
ENDBRANCH  14  17
ENDBRANCH  10  11
ENDBRANCH   9  10
ENDBRANCH   6   9
BRANCH   1  22
HETATM   22  C4  UNL     1      24.205  85.819   4.587  1.00  0.00     0.259 C 
BRANCH  22  23
HETATM   23  O3  UNL     1      24.294  84.519   3.985  1.00  0.00    -0.291 OA
BRANCH  23  24
HETATM   24  C3  UNL     1      24.287  84.440   2.601  1.00  0.00     0.406 C 
HETATM   25  O2  UNL     1      23.467  83.645   2.037  1.00  0.00    -0.229 OA
BRANCH  24  26
HETATM   26  O1  UNL     1      25.120  85.178   1.789  1.00  0.00    -0.298 OA
BRANCH  26  27
HETATM   27  C2  UNL     1      25.623  84.660   0.550  1.00  0.00     0.176 C 
HETATM   28  C1  UNL     1      26.432  85.757  -0.093  1.00  0.00     0.034 C 
ENDBRANCH  26  27
ENDBRANCH  24  26
ENDBRANCH  23  24
ENDBRANCH  22  23
ENDBRANCH   1  22
TORSDOF 10
ENDMDL
