MODEL 1
REMARK VINA RESULT: -9.416530949      0.000      0.000
REMARK  14 active torsions:
REMARK  status: ('A' for Active; 'I' for Inactive)
REMARK    1  A    between atoms: N1_1  and  C1_4 
REMARK    2  A    between atoms: C2_7  and  N3_8 
REMARK    3  A    between atoms: C5_15  and  C6_16 
REMARK    4  A    between atoms: C6_16  and  N5_17 
REMARK    5  A    between atoms: N8_24  and  N9_25 
REMARK    6  A    between atoms: N9_25  and  C9_27 
REMARK    7  A    between atoms: C9_27  and  N10_29 
REMARK    8  A    between atoms: N10_29  and  C10_31 
REMARK    9  A    between atoms: C12_33  and  O2_34 
REMARK   10  A    between atoms: C14_37  and  N11_38 
REMARK   11  A    between atoms: C16_40  and  C17_41 
REMARK   12  A    between atoms: C17_41  and  O3_42 
REMARK   13  A    between atoms: C18_48  and  C19_49 
REMARK   14  A    between atoms: C19_49  and  O4_50 
ROOT
HETATM    1  N5  UNL     1       8.267   5.359  17.968  1.00  0.00    -0.253 N 
HETATM    2  N6  UNL     1       8.788   4.446  17.167  1.00  0.00    -0.018 NA
HETATM    3  N7  UNL     1      10.081   4.662  17.004  1.00  0.00    -0.275 N 
ATOM      4  H7  UNL     1      10.715   4.102  16.434  1.00  0.00     0.184 HD
HETATM    5  C7  UNL     1      10.414   5.755  17.723  1.00  0.00     0.162 A 
HETATM    6  C8  UNL     1      11.607   6.444  17.930  1.00  0.00     0.299 A 
HETATM    7  O1  UNL     1      12.583   5.934  17.314  1.00  0.00    -0.263 OA
HETATM    8  N8  UNL     1      11.662   7.517  18.703  1.00  0.00    -0.201 N 
HETATM    9  C18 UNL     1      10.462   7.893  19.279  1.00  0.00     0.132 A 
HETATM   10  N14 UNL     1       9.310   7.242  19.089  1.00  0.00    -0.326 N 
ATOM     11  H14 UNL     1       8.457   7.569  19.542  1.00  0.00     0.169 HD
HETATM   12  C20 UNL     1       9.280   6.174  18.314  1.00  0.00     0.156 A 
ENDROOT
BRANCH   8  13
HETATM   13  N9  UNL     1      12.785   8.235  18.936  1.00  0.00    -0.265 N 
ATOM     14  H9  UNL     1      13.298   7.829  19.719  1.00  0.00     0.190 HD
BRANCH  13  15
HETATM   15  C9  UNL     1      13.463   9.344  18.456  1.00  0.00     0.187 C 
HETATM   16  S1  UNL     1      13.475   9.855  16.943  1.00  0.00    -0.040 SA
BRANCH  15  17
HETATM   17  N10 UNL     1      14.236  10.178  19.382  1.00  0.00    -0.359 N 
ATOM     18  H10 UNL     1      15.227   9.970  19.509  1.00  0.00     0.162 HD
BRANCH  17  19
HETATM   19  C10 UNL     1      13.677  11.252  20.106  1.00  0.00     0.111 C 
HETATM   20  C11 UNL     1      14.144  12.566  19.534  1.00  0.00     0.059 C 
HETATM   21  C12 UNL     1      15.539  12.698  20.167  1.00  0.00     0.122 C 
HETATM   22  C13 UNL     1      15.540  11.847  21.400  1.00  0.00     0.061 C 
HETATM   23  C14 UNL     1      14.141  11.358  21.520  1.00  0.00     0.134 C 
BRANCH  21  24
HETATM   24  O2  UNL     1      15.770  14.039  20.448  1.00  0.00    -0.395 OA
ATOM     25  H2  UNL     1      15.876  14.504  19.627  1.00  0.00     0.210 HD
ENDBRANCH  21  24
BRANCH  23  26
HETATM   26  N11 UNL     1      14.011  10.139  22.275  1.00  0.00    -0.280 N 
HETATM   27  C15 UNL     1      14.853   9.807  23.268  1.00  0.00     0.140 A 
HETATM   28  C16 UNL     1      14.471   8.592  23.794  1.00  0.00     0.067 A 
HETATM   29  N12 UNL     1      13.385   8.214  23.089  1.00  0.00    -0.287 N 
HETATM   30  N13 UNL     1      13.147   9.162  22.198  1.00  0.00    -0.240 N 
ATOM     31  H12 UNL     1      12.847   7.356  23.219  1.00  0.00     0.188 HD
ATOM     32  H13 UNL     1      12.378   9.133  21.528  1.00  0.00     0.208 HD
BRANCH  28  33
HETATM   33  C17 UNL     1      15.127   7.839  24.919  1.00  0.00     0.224 C 
BRANCH  33  34
HETATM   34  O3  UNL     1      16.072   8.730  25.475  1.00  0.00    -0.395 OA
ATOM     35  H3  UNL     1      16.097   8.532  26.404  1.00  0.00     0.209 HD
ENDBRANCH  33  34
ENDBRANCH  28  33
ENDBRANCH  23  26
ENDBRANCH  17  19
ENDBRANCH  15  17
ENDBRANCH  13  15
ENDBRANCH   8  13
BRANCH   9  36
HETATM   36  C19 UNL     1      10.432   9.077  20.167  1.00  0.00     0.242 C 
BRANCH  36  37
HETATM   37  O4  UNL     1      10.545   8.625  21.482  1.00  0.00    -0.393 OA
ATOM     38  H4  UNL     1      10.601   9.387  22.046  1.00  0.00     0.209 HD
ENDBRANCH  36  37
ENDBRANCH   9  36
BRANCH   1  39
HETATM   39  C6  UNL     1       6.892   5.416  18.351  1.00  0.00     0.207 C 
BRANCH  39  40
HETATM   40  C5  UNL     1       5.961   5.824  17.290  1.00  0.00     0.046 A 
HETATM   41  C4  UNL     1       4.757   6.417  17.615  1.00  0.00     0.115 A 
HETATM   42  N4  UNL     1       3.874   6.809  16.673  1.00  0.00    -0.358 N 
HETATM   43  C3  UNL     1       4.135   6.634  15.374  1.00  0.00     0.121 A 
ATOM     44  H4  UNL     1       2.996   7.245  16.957  1.00  0.00     0.165 HD
HETATM   45  C2  UNL     1       3.223   7.040  14.406  1.00  0.00     0.145 A 
HETATM   46  C21 UNL     1       5.334   6.042  15.030  1.00  0.00     0.152 A 
HETATM   47  N2  UNL     1       3.504   6.857  13.104  1.00  0.00    -0.175 N 
HETATM   48  C1  UNL     1       4.674   6.278  12.777  1.00  0.00     0.679 A 
ATOM     49  H2  UNL     1       2.846   7.149  12.382  1.00  0.00     0.186 HD
HETATM   50  N16 UNL     1       5.576   5.877  13.717  1.00  0.00    -0.174 N 
ATOM     51  H16 UNL     1       6.451   5.444  13.419  1.00  0.00     0.186 HD
HETATM   52  N15 UNL     1       6.215   5.652  15.970  1.00  0.00    -0.341 N 
ATOM     53  H15 UNL     1       7.092   5.217  15.683  1.00  0.00     0.167 HD
BRANCH  45  54
HETATM   54  N3  UNL     1       2.100   7.595  14.715  1.00  0.00    -0.383 N 
ATOM     55  H32 UNL     1       2.051   8.537  15.104  1.00  0.00     0.157 HD
ATOM     56  H31 UNL     1       1.243   7.065  14.559  1.00  0.00     0.157 HD
ENDBRANCH  45  54
BRANCH  48  57
HETATM   57  N1  UNL     1       4.912   6.117  11.515  1.00  0.00    -0.234 N 
ATOM     58  H12 UNL     1       4.315   6.550  10.810  1.00  0.00     0.174 HD
ATOM     59  H11 UNL     1       5.717   5.541  11.270  1.00  0.00     0.174 HD
ENDBRANCH  48  57
ENDBRANCH  39  40
ENDBRANCH   1  39
TORSDOF 14
ENDMDL
MODEL 2
REMARK VINA RESULT: -9.353663851      2.383      3.704
REMARK  14 active torsions:
REMARK  status: ('A' for Active; 'I' for Inactive)
REMARK    1  A    between atoms: N1_1  and  C1_4 
REMARK    2  A    between atoms: C2_7  and  N3_8 
REMARK    3  A    between atoms: C5_15  and  C6_16 
REMARK    4  A    between atoms: C6_16  and  N5_17 
REMARK    5  A    between atoms: N8_24  and  N9_25 
REMARK    6  A    between atoms: N9_25  and  C9_27 
REMARK    7  A    between atoms: C9_27  and  N10_29 
REMARK    8  A    between atoms: N10_29  and  C10_31 
REMARK    9  A    between atoms: C12_33  and  O2_34 
REMARK   10  A    between atoms: C14_37  and  N11_38 
REMARK   11  A    between atoms: C16_40  and  C17_41 
REMARK   12  A    between atoms: C17_41  and  O3_42 
REMARK   13  A    between atoms: C18_48  and  C19_49 
REMARK   14  A    between atoms: C19_49  and  O4_50 
ROOT
HETATM    1  N5  UNL     1      12.190   6.973  18.301  1.00  0.00    -0.253 N 
HETATM    2  N6  UNL     1      13.049   7.102  17.306  1.00  0.00    -0.018 NA
HETATM    3  N7  UNL     1      13.418   8.364  17.177  1.00  0.00    -0.275 N 
ATOM      4  H7  UNL     1      14.072   8.731  16.486  1.00  0.00     0.184 HD
HETATM    5  C7  UNL     1      12.776   9.083  18.123  1.00  0.00     0.162 A 
HETATM    6  C8  UNL     1      12.768  10.433  18.465  1.00  0.00     0.299 A 
HETATM    7  O1  UNL     1      13.525  11.131  17.734  1.00  0.00    -0.263 OA
HETATM    8  N8  UNL     1      12.027  10.891  19.461  1.00  0.00    -0.201 N 
HETATM    9  C18 UNL     1      11.276   9.939  20.126  1.00  0.00     0.132 A 
HETATM   10  N14 UNL     1      11.273   8.640  19.808  1.00  0.00    -0.326 N 
ATOM     11  H14 UNL     1      10.696   7.986  20.337  1.00  0.00     0.169 HD
HETATM   12  C20 UNL     1      12.020   8.207  18.810  1.00  0.00     0.156 A 
ENDROOT
BRANCH   8  13
HETATM   13  N9  UNL     1      11.967  12.190  19.837  1.00  0.00    -0.265 N 
ATOM     14  H9  UNL     1      11.012  12.533  19.743  1.00  0.00     0.190 HD
BRANCH  13  15
HETATM   15  C9  UNL     1      12.786  13.205  20.307  1.00  0.00     0.187 C 
HETATM   16  S1  UNL     1      12.302  14.624  20.856  1.00  0.00    -0.040 SA
BRANCH  15  17
HETATM   17  N10 UNL     1      14.238  13.002  20.352  1.00  0.00    -0.359 N 
ATOM     18  H10 UNL     1      14.719  12.751  19.488  1.00  0.00     0.162 HD
BRANCH  17  19
HETATM   19  C10 UNL     1      15.001  13.136  21.531  1.00  0.00     0.111 C 
HETATM   20  C11 UNL     1      16.002  14.253  21.381  1.00  0.00     0.059 C 
HETATM   21  C12 UNL     1      17.119  13.558  20.583  1.00  0.00     0.122 C 
HETATM   22  C13 UNL     1      16.976  12.087  20.824  1.00  0.00     0.061 C 
HETATM   23  C14 UNL     1      15.889  11.975  21.832  1.00  0.00     0.134 C 
BRANCH  21  24
HETATM   24  O2  UNL     1      18.343  14.051  21.019  1.00  0.00    -0.395 OA
ATOM     25  H2  UNL     1      19.027  13.463  20.722  1.00  0.00     0.210 HD
ENDBRANCH  21  24
BRANCH  23  26
HETATM   26  N11 UNL     1      15.217  10.703  21.826  1.00  0.00    -0.280 N 
HETATM   27  C15 UNL     1      14.517  10.246  22.879  1.00  0.00     0.140 A 
HETATM   28  C16 UNL     1      13.995   9.008  22.570  1.00  0.00     0.067 A 
HETATM   29  N12 UNL     1      14.402   8.744  21.311  1.00  0.00    -0.287 N 
HETATM   30  N13 UNL     1      15.125   9.777  20.908  1.00  0.00    -0.240 N 
ATOM     31  H12 UNL     1      14.192   7.905  20.770  1.00  0.00     0.188 HD
ATOM     32  H13 UNL     1      15.560   9.843  19.988  1.00  0.00     0.208 HD
BRANCH  28  33
HETATM   33  C17 UNL     1      13.148   8.131  23.450  1.00  0.00     0.224 C 
BRANCH  33  34
HETATM   34  O3  UNL     1      12.296   7.421  22.575  1.00  0.00    -0.395 OA
ATOM     35  H3  UNL     1      11.717   6.916  23.133  1.00  0.00     0.209 HD
ENDBRANCH  33  34
ENDBRANCH  28  33
ENDBRANCH  23  26
ENDBRANCH  17  19
ENDBRANCH  15  17
ENDBRANCH  13  15
ENDBRANCH   8  13
BRANCH   9  36
HETATM   36  C19 UNL     1      10.424  10.360  21.261  1.00  0.00     0.242 C 
BRANCH  36  37
HETATM   37  O4  UNL     1       9.337  11.061  20.739  1.00  0.00    -0.393 OA
ATOM     38  H4  UNL     1       8.821  11.380  21.470  1.00  0.00     0.209 HD
ENDBRANCH  36  37
ENDBRANCH   9  36
BRANCH   1  39
HETATM   39  C6  UNL     1      11.594   5.740  18.707  1.00  0.00     0.207 C 
BRANCH  39  40
HETATM   40  C5  UNL     1      10.185   5.569  18.329  1.00  0.00     0.046 A 
HETATM   41  C4  UNL     1       9.293   5.000  19.216  1.00  0.00     0.115 A 
HETATM   42  N4  UNL     1       7.990   4.826  18.912  1.00  0.00    -0.358 N 
HETATM   43  C3  UNL     1       7.509   5.203  17.722  1.00  0.00     0.121 A 
ATOM     44  H4  UNL     1       7.365   4.402  19.597  1.00  0.00     0.165 HD
HETATM   45  C2  UNL     1       6.166   5.023  17.411  1.00  0.00     0.145 A 
HETATM   46  C21 UNL     1       8.386   5.773  16.821  1.00  0.00     0.152 A 
HETATM   47  N2  UNL     1       5.700   5.409  16.211  1.00  0.00    -0.175 N 
HETATM   48  C1  UNL     1       6.561   5.964  15.339  1.00  0.00     0.679 A 
ATOM     49  H2  UNL     1       4.718   5.285  15.967  1.00  0.00     0.186 HD
HETATM   50  N16 UNL     1       7.880   6.146  15.632  1.00  0.00    -0.174 N 
ATOM     51  H16 UNL     1       8.493   6.573  14.937  1.00  0.00     0.186 HD
HETATM   52  N15 UNL     1       9.686   5.947  17.127  1.00  0.00    -0.341 N 
ATOM     53  H15 UNL     1      10.308   6.372  16.439  1.00  0.00     0.167 HD
BRANCH  45  54
HETATM   54  N3  UNL     1       5.336   4.492  18.245  1.00  0.00    -0.383 N 
ATOM     55  H32 UNL     1       4.350   4.753  18.266  1.00  0.00     0.157 HD
ATOM     56  H31 UNL     1       5.690   3.790  18.894  1.00  0.00     0.157 HD
ENDBRANCH  45  54
BRANCH  48  57
HETATM   57  N1  UNL     1       6.079   6.324  14.193  1.00  0.00    -0.234 N 
ATOM     58  H12 UNL     1       5.417   5.730  13.693  1.00  0.00     0.174 HD
ATOM     59  H11 UNL     1       6.395   7.221  13.823  1.00  0.00     0.174 HD
ENDBRANCH  48  57
ENDBRANCH  39  40
ENDBRANCH   1  39
TORSDOF 14
ENDMDL
MODEL 3
REMARK VINA RESULT: -9.322995990      1.139      1.335
REMARK  14 active torsions:
REMARK  status: ('A' for Active; 'I' for Inactive)
REMARK    1  A    between atoms: N1_1  and  C1_4 
REMARK    2  A    between atoms: C2_7  and  N3_8 
REMARK    3  A    between atoms: C5_15  and  C6_16 
REMARK    4  A    between atoms: C6_16  and  N5_17 
REMARK    5  A    between atoms: N8_24  and  N9_25 
REMARK    6  A    between atoms: N9_25  and  C9_27 
REMARK    7  A    between atoms: C9_27  and  N10_29 
REMARK    8  A    between atoms: N10_29  and  C10_31 
REMARK    9  A    between atoms: C12_33  and  O2_34 
REMARK   10  A    between atoms: C14_37  and  N11_38 
REMARK   11  A    between atoms: C16_40  and  C17_41 
REMARK   12  A    between atoms: C17_41  and  O3_42 
REMARK   13  A    between atoms: C18_48  and  C19_49 
REMARK   14  A    between atoms: C19_49  and  O4_50 
ROOT
HETATM    1  N5  UNL     1       8.612   5.277  18.007  1.00  0.00    -0.253 N 
HETATM    2  N6  UNL     1       9.191   4.500  17.108  1.00  0.00    -0.018 NA
HETATM    3  N7  UNL     1      10.447   4.864  16.926  1.00  0.00    -0.275 N 
ATOM      4  H7  UNL     1      11.112   4.428  16.286  1.00  0.00     0.184 HD
HETATM    5  C7  UNL     1      10.697   5.915  17.736  1.00  0.00     0.162 A 
HETATM    6  C8  UNL     1      11.821   6.703  17.970  1.00  0.00     0.299 A 
HETATM    7  O1  UNL     1      12.819   6.356  17.278  1.00  0.00    -0.263 OA
HETATM    8  N8  UNL     1      11.798   7.701  18.839  1.00  0.00    -0.201 N 
HETATM    9  C18 UNL     1      10.591   7.896  19.485  1.00  0.00     0.132 A 
HETATM   10  N14 UNL     1       9.504   7.147  19.270  1.00  0.00    -0.326 N 
ATOM     11  H14 UNL     1       8.641   7.341  19.778  1.00  0.00     0.169 HD
HETATM   12  C20 UNL     1       9.551   6.158  18.398  1.00  0.00     0.156 A 
ENDROOT
BRANCH   8  13
HETATM   13  N9  UNL     1      12.851   8.509  19.105  1.00  0.00    -0.265 N 
ATOM     14  H9  UNL     1      13.433   8.090  19.831  1.00  0.00     0.190 HD
BRANCH  13  15
HETATM   15  C9  UNL     1      13.395   9.721  18.710  1.00  0.00     0.187 C 
HETATM   16  S1  UNL     1      13.531  10.245  17.208  1.00  0.00    -0.040 SA
BRANCH  15  17
HETATM   17  N10 UNL     1      13.882  10.661  19.725  1.00  0.00    -0.359 N 
ATOM     18  H10 UNL     1      14.866  10.928  19.706  1.00  0.00     0.162 HD
BRANCH  17  19
HETATM   19  C10 UNL     1      13.056  11.215  20.726  1.00  0.00     0.111 C 
HETATM   20  C11 UNL     1      12.145  12.259  20.133  1.00  0.00     0.059 C 
HETATM   21  C12 UNL     1      13.084  13.475  20.055  1.00  0.00     0.122 C 
HETATM   22  C13 UNL     1      14.174  13.249  21.057  1.00  0.00     0.061 C 
HETATM   23  C14 UNL     1      13.781  12.002  21.765  1.00  0.00     0.134 C 
BRANCH  21  24
HETATM   24  O2  UNL     1      12.344  14.620  20.325  1.00  0.00    -0.395 OA
ATOM     25  H2  UNL     1      12.840  15.165  20.924  1.00  0.00     0.210 HD
ENDBRANCH  21  24
BRANCH  23  26
HETATM   26  N11 UNL     1      14.883  11.303  22.372  1.00  0.00    -0.280 N 
HETATM   27  C15 UNL     1      14.748  10.101  22.956  1.00  0.00     0.140 A 
HETATM   28  C16 UNL     1      15.973   9.695  23.440  1.00  0.00     0.067 A 
HETATM   29  N12 UNL     1      16.835  10.685  23.128  1.00  0.00    -0.287 N 
HETATM   30  N13 UNL     1      16.145  11.620  22.495  1.00  0.00    -0.240 N 
ATOM     31  H12 UNL     1      17.832  10.708  23.342  1.00  0.00     0.188 HD
ATOM     32  H13 UNL     1      16.552  12.487  22.143  1.00  0.00     0.208 HD
BRANCH  28  33
HETATM   33  C17 UNL     1      16.288   8.416  24.165  1.00  0.00     0.224 C 
BRANCH  33  34
HETATM   34  O3  UNL     1      15.806   8.594  25.481  1.00  0.00    -0.395 OA
ATOM     35  H3  UNL     1      14.859   8.603  25.409  1.00  0.00     0.209 HD
ENDBRANCH  33  34
ENDBRANCH  28  33
ENDBRANCH  23  26
ENDBRANCH  17  19
ENDBRANCH  15  17
ENDBRANCH  13  15
ENDBRANCH   8  13
BRANCH   9  36
HETATM   36  C19 UNL     1      10.477   8.984  20.482  1.00  0.00     0.242 C 
BRANCH  36  37
HETATM   37  O4  UNL     1      11.136   8.571  21.640  1.00  0.00    -0.393 OA
ATOM     38  H4  UNL     1      11.717   7.858  21.403  1.00  0.00     0.209 HD
ENDBRANCH  36  37
ENDBRANCH   9  36
BRANCH   1  39
HETATM   39  C6  UNL     1       7.255   5.153  18.436  1.00  0.00     0.207 C 
BRANCH  39  40
HETATM   40  C5  UNL     1       6.247   5.607  17.468  1.00  0.00     0.046 A 
HETATM   41  C4  UNL     1       5.059   6.154  17.909  1.00  0.00     0.115 A 
HETATM   42  N4  UNL     1       4.107   6.585  17.056  1.00  0.00    -0.358 N 
HETATM   43  C3  UNL     1       4.282   6.496  15.733  1.00  0.00     0.121 A 
ATOM     44  H4  UNL     1       3.243   6.983  17.424  1.00  0.00     0.165 HD
HETATM   45  C2  UNL     1       3.300   6.942  14.856  1.00  0.00     0.145 A 
HETATM   46  C21 UNL     1       5.465   5.951  15.273  1.00  0.00     0.152 A 
HETATM   47  N2  UNL     1       3.495   6.846  13.529  1.00  0.00    -0.175 N 
HETATM   48  C1  UNL     1       4.649   6.314  13.089  1.00  0.00     0.679 A 
ATOM     49  H2  UNL     1       2.784   7.168  12.872  1.00  0.00     0.186 HD
HETATM   50  N16 UNL     1       5.620   5.874  13.938  1.00  0.00    -0.174 N 
ATOM     51  H16 UNL     1       6.479   5.479  13.556  1.00  0.00     0.186 HD
HETATM   52  N15 UNL     1       6.414   5.522  16.125  1.00  0.00    -0.341 N 
ATOM     53  H15 UNL     1       7.277   5.125  15.753  1.00  0.00     0.167 HD
BRANCH  45  54
HETATM   54  N3  UNL     1       2.191   7.453  15.273  1.00  0.00    -0.383 N 
ATOM     55  H32 UNL     1       2.127   7.952  16.161  1.00  0.00     0.157 HD
ATOM     56  H31 UNL     1       1.363   7.347  14.689  1.00  0.00     0.157 HD
ENDBRANCH  45  54
BRANCH  48  57
HETATM   57  N1  UNL     1       4.803   6.236  11.806  1.00  0.00    -0.234 N 
ATOM     58  H12 UNL     1       4.002   6.290  11.178  1.00  0.00     0.174 HD
ATOM     59  H11 UNL     1       5.757   6.119  11.464  1.00  0.00     0.174 HD
ENDBRANCH  48  57
ENDBRANCH  39  40
ENDBRANCH   1  39
TORSDOF 14
ENDMDL
MODEL 4
REMARK VINA RESULT: -9.114106547      2.232      4.376
REMARK  14 active torsions:
REMARK  status: ('A' for Active; 'I' for Inactive)
REMARK    1  A    between atoms: N1_1  and  C1_4 
REMARK    2  A    between atoms: C2_7  and  N3_8 
REMARK    3  A    between atoms: C5_15  and  C6_16 
REMARK    4  A    between atoms: C6_16  and  N5_17 
REMARK    5  A    between atoms: N8_24  and  N9_25 
REMARK    6  A    between atoms: N9_25  and  C9_27 
REMARK    7  A    between atoms: C9_27  and  N10_29 
REMARK    8  A    between atoms: N10_29  and  C10_31 
REMARK    9  A    between atoms: C12_33  and  O2_34 
REMARK   10  A    between atoms: C14_37  and  N11_38 
REMARK   11  A    between atoms: C16_40  and  C17_41 
REMARK   12  A    between atoms: C17_41  and  O3_42 
REMARK   13  A    between atoms: C18_48  and  C19_49 
REMARK   14  A    between atoms: C19_49  and  O4_50 
ROOT
HETATM    1  N5  UNL     1      11.681   6.220  18.360  1.00  0.00    -0.253 N 
HETATM    2  N6  UNL     1      12.654   6.216  17.465  1.00  0.00    -0.018 NA
HETATM    3  N7  UNL     1      13.241   7.398  17.420  1.00  0.00    -0.275 N 
ATOM      4  H7  UNL     1      14.020   7.658  16.814  1.00  0.00     0.184 HD
HETATM    5  C7  UNL     1      12.629   8.201  18.317  1.00  0.00     0.162 A 
HETATM    6  C8  UNL     1      12.811   9.527  18.701  1.00  0.00     0.299 A 
HETATM    7  O1  UNL     1      13.751  10.096  18.079  1.00  0.00    -0.263 OA
HETATM    8  N8  UNL     1      12.053  10.089  19.629  1.00  0.00    -0.201 N 
HETATM    9  C18 UNL     1      11.084   9.270  20.178  1.00  0.00     0.132 A 
HETATM   10  N14 UNL     1      10.898   7.995  19.818  1.00  0.00    -0.326 N 
ATOM     11  H14 UNL     1      10.164   7.441  20.259  1.00  0.00     0.169 HD
HETATM   12  C20 UNL     1      11.666   7.456  18.889  1.00  0.00     0.156 A 
ENDROOT
BRANCH   8  13
HETATM   13  N9  UNL     1      12.172  11.373  20.040  1.00  0.00    -0.265 N 
ATOM     14  H9  UNL     1      11.492  11.956  19.552  1.00  0.00     0.190 HD
BRANCH  13  15
HETATM   15  C9  UNL     1      12.920  12.152  20.910  1.00  0.00     0.187 C 
HETATM   16  S1  UNL     1      12.877  13.744  21.017  1.00  0.00    -0.040 SA
BRANCH  15  17
HETATM   17  N10 UNL     1      13.832  11.505  21.859  1.00  0.00    -0.359 N 
ATOM     18  H10 UNL     1      13.659  11.628  22.857  1.00  0.00     0.162 HD
BRANCH  17  19
HETATM   19  C10 UNL     1      14.935  10.722  21.460  1.00  0.00     0.111 C 
HETATM   20  C11 UNL     1      14.913   9.390  22.164  1.00  0.00     0.059 C 
HETATM   21  C12 UNL     1      15.506   9.759  23.534  1.00  0.00     0.122 C 
HETATM   22  C13 UNL     1      16.305  11.011  23.341  1.00  0.00     0.061 C 
HETATM   23  C14 UNL     1      16.263  11.261  21.876  1.00  0.00     0.134 C 
BRANCH  21  24
HETATM   24  O2  UNL     1      16.285   8.696  23.977  1.00  0.00    -0.395 OA
ATOM     25  H2  UNL     1      17.133   9.033  24.238  1.00  0.00     0.210 HD
ENDBRANCH  21  24
BRANCH  23  26
HETATM   26  N11 UNL     1      16.481  12.636  21.512  1.00  0.00    -0.280 N 
HETATM   27  C15 UNL     1      16.689  13.028  20.244  1.00  0.00     0.140 A 
HETATM   28  C16 UNL     1      16.864  14.395  20.218  1.00  0.00     0.067 A 
HETATM   29  N12 UNL     1      16.754  14.802  21.500  1.00  0.00    -0.287 N 
HETATM   30  N13 UNL     1      16.527  13.725  22.234  1.00  0.00    -0.240 N 
ATOM     31  H12 UNL     1      16.832  15.761  21.839  1.00  0.00     0.188 HD
ATOM     32  H13 UNL     1      16.402  13.743  23.246  1.00  0.00     0.208 HD
BRANCH  28  33
HETATM   33  C17 UNL     1      17.124  15.257  19.014  1.00  0.00     0.224 C 
BRANCH  33  34
HETATM   34  O3  UNL     1      17.420  14.364  17.960  1.00  0.00    -0.395 OA
ATOM     35  H3  UNL     1      16.688  14.423  17.359  1.00  0.00     0.209 HD
ENDBRANCH  33  34
ENDBRANCH  28  33
ENDBRANCH  23  26
ENDBRANCH  17  19
ENDBRANCH  15  17
ENDBRANCH  13  15
ENDBRANCH   8  13
BRANCH   9  36
HETATM   36  C19 UNL     1      10.195   9.812  21.230  1.00  0.00     0.242 C 
BRANCH  36  37
HETATM   37  O4  UNL     1       9.493  10.885  20.682  1.00  0.00    -0.393 OA
ATOM     38  H4  UNL     1       8.857  11.173  21.326  1.00  0.00     0.209 HD
ENDBRANCH  36  37
ENDBRANCH   9  36
BRANCH   1  39
HETATM   39  C6  UNL     1      10.845   5.100  18.658  1.00  0.00     0.207 C 
BRANCH  39  40
HETATM   40  C5  UNL     1       9.441   5.237  18.247  1.00  0.00     0.046 A 
HETATM   41  C4  UNL     1       8.429   5.068  19.171  1.00  0.00     0.115 A 
HETATM   42  N4  UNL     1       7.127   5.187  18.838  1.00  0.00    -0.358 N 
HETATM   43  C3  UNL     1       6.764   5.477  17.584  1.00  0.00     0.121 A 
ATOM     44  H4  UNL     1       6.410   5.054  19.552  1.00  0.00     0.165 HD
HETATM   45  C2  UNL     1       5.422   5.599  17.243  1.00  0.00     0.145 A 
HETATM   46  C21 UNL     1       7.764   5.649  16.646  1.00  0.00     0.152 A 
HETATM   47  N2  UNL     1       5.077   5.892  15.977  1.00  0.00    -0.175 N 
HETATM   48  C1  UNL     1       6.056   6.058  15.070  1.00  0.00     0.679 A 
ATOM     49  H2  UNL     1       4.097   5.986  15.712  1.00  0.00     0.186 HD
HETATM   50  N16 UNL     1       7.375   5.941  15.391  1.00  0.00    -0.174 N 
ATOM     51  H16 UNL     1       8.081   6.078  14.667  1.00  0.00     0.186 HD
HETATM   52  N15 UNL     1       9.062   5.531  16.980  1.00  0.00    -0.341 N 
ATOM     53  H15 UNL     1       9.776   5.665  16.263  1.00  0.00     0.167 HD
BRANCH  45  54
HETATM   54  N3  UNL     1       4.480   5.440  18.111  1.00  0.00    -0.383 N 
ATOM     55  H32 UNL     1       3.505   5.654  17.895  1.00  0.00     0.157 HD
ATOM     56  H31 UNL     1       4.730   5.090  19.034  1.00  0.00     0.157 HD
ENDBRANCH  45  54
BRANCH  48  57
HETATM   57  N1  UNL     1       5.688   6.339  13.861  1.00  0.00    -0.234 N 
ATOM     58  H12 UNL     1       4.772   6.747  13.673  1.00  0.00     0.174 HD
ATOM     59  H11 UNL     1       6.356   6.132  13.118  1.00  0.00     0.174 HD
ENDBRANCH  48  57
ENDBRANCH  39  40
ENDBRANCH   1  39
TORSDOF 14
ENDMDL
MODEL 5
REMARK VINA RESULT: -9.100865595      2.466      4.215
REMARK  14 active torsions:
REMARK  status: ('A' for Active; 'I' for Inactive)
REMARK    1  A    between atoms: N1_1  and  C1_4 
REMARK    2  A    between atoms: C2_7  and  N3_8 
REMARK    3  A    between atoms: C5_15  and  C6_16 
REMARK    4  A    between atoms: C6_16  and  N5_17 
REMARK    5  A    between atoms: N8_24  and  N9_25 
REMARK    6  A    between atoms: N9_25  and  C9_27 
REMARK    7  A    between atoms: C9_27  and  N10_29 
REMARK    8  A    between atoms: N10_29  and  C10_31 
REMARK    9  A    between atoms: C12_33  and  O2_34 
REMARK   10  A    between atoms: C14_37  and  N11_38 
REMARK   11  A    between atoms: C16_40  and  C17_41 
REMARK   12  A    between atoms: C17_41  and  O3_42 
REMARK   13  A    between atoms: C18_48  and  C19_49 
REMARK   14  A    between atoms: C19_49  and  O4_50 
ROOT
HETATM    1  N5  UNL     1      11.665   6.122  18.485  1.00  0.00    -0.253 N 
HETATM    2  N6  UNL     1      12.259   6.510  17.369  1.00  0.00    -0.018 NA
HETATM    3  N7  UNL     1      12.966   7.606  17.582  1.00  0.00    -0.275 N 
ATOM      4  H7  UNL     1      13.518   8.108  16.887  1.00  0.00     0.184 HD
HETATM    5  C7  UNL     1      12.828   7.943  18.882  1.00  0.00     0.162 A 
HETATM    6  C8  UNL     1      13.329   8.981  19.665  1.00  0.00     0.299 A 
HETATM    7  O1  UNL     1      14.071   9.771  19.018  1.00  0.00    -0.263 OA
HETATM    8  N8  UNL     1      13.030   9.085  20.950  1.00  0.00    -0.201 N 
HETATM    9  C18 UNL     1      12.197   8.099  21.446  1.00  0.00     0.132 A 
HETATM   10  N14 UNL     1      11.709   7.098  20.706  1.00  0.00    -0.326 N 
ATOM     11  H14 UNL     1      11.097   6.400  21.130  1.00  0.00     0.169 HD
HETATM   12  C20 UNL     1      12.020   7.015  19.426  1.00  0.00     0.156 A 
ENDROOT
BRANCH   8  13
HETATM   13  N9  UNL     1      13.475  10.073  21.761  1.00  0.00    -0.265 N 
ATOM     14  H9  UNL     1      12.689  10.638  22.081  1.00  0.00     0.190 HD
BRANCH  13  15
HETATM   15  C9  UNL     1      14.655  10.565  22.298  1.00  0.00     0.187 C 
HETATM   16  S1  UNL     1      15.619   9.794  23.311  1.00  0.00    -0.040 SA
BRANCH  15  17
HETATM   17  N10 UNL     1      15.124  11.900  21.914  1.00  0.00    -0.359 N 
ATOM     18  H10 UNL     1      15.083  12.646  22.609  1.00  0.00     0.162 HD
BRANCH  17  19
HETATM   19  C10 UNL     1      15.627  12.204  20.631  1.00  0.00     0.111 C 
HETATM   20  C11 UNL     1      17.069  12.631  20.724  1.00  0.00     0.059 C 
HETATM   21  C12 UNL     1      16.927  14.099  21.158  1.00  0.00     0.122 C 
HETATM   22  C13 UNL     1      15.559  14.546  20.744  1.00  0.00     0.061 C 
HETATM   23  C14 UNL     1      15.002  13.395  19.984  1.00  0.00     0.134 C 
BRANCH  21  24
HETATM   24  O2  UNL     1      17.934  14.838  20.547  1.00  0.00    -0.395 OA
ATOM     25  H2  UNL     1      18.317  15.418  21.194  1.00  0.00     0.210 HD
ENDBRANCH  21  24
BRANCH  23  26
HETATM   26  N11 UNL     1      13.564  13.359  19.950  1.00  0.00    -0.280 N 
HETATM   27  C15 UNL     1      12.799  14.223  20.639  1.00  0.00     0.140 A 
HETATM   28  C16 UNL     1      11.472  13.936  20.404  1.00  0.00     0.067 A 
HETATM   29  N12 UNL     1      11.470  12.884  19.559  1.00  0.00    -0.287 N 
HETATM   30  N13 UNL     1      12.733  12.574  19.316  1.00  0.00    -0.240 N 
ATOM     31  H12 UNL     1      10.647  12.415  19.179  1.00  0.00     0.188 HD
ATOM     32  H13 UNL     1      13.024  11.811  18.705  1.00  0.00     0.208 HD
BRANCH  28  33
HETATM   33  C17 UNL     1      10.272  14.645  20.968  1.00  0.00     0.224 C 
BRANCH  33  34
HETATM   34  O3  UNL     1       9.944  13.955  22.156  1.00  0.00    -0.395 OA
ATOM     35  H3  UNL     1      10.755  13.566  22.461  1.00  0.00     0.209 HD
ENDBRANCH  33  34
ENDBRANCH  28  33
ENDBRANCH  23  26
ENDBRANCH  17  19
ENDBRANCH  15  17
ENDBRANCH  13  15
ENDBRANCH   8  13
BRANCH   9  36
HETATM   36  C19 UNL     1      11.818   8.131  22.876  1.00  0.00     0.242 C 
BRANCH  36  37
HETATM   37  O4  UNL     1      12.889   7.623  23.611  1.00  0.00    -0.393 OA
ATOM     38  H4  UNL     1      12.918   6.684  23.469  1.00  0.00     0.209 HD
ENDBRANCH  36  37
ENDBRANCH   9  36
BRANCH   1  39
HETATM   39  C6  UNL     1      10.825   4.973  18.601  1.00  0.00     0.207 C 
BRANCH  39  40
HETATM   40  C5  UNL     1       9.427   5.174  18.194  1.00  0.00     0.046 A 
HETATM   41  C4  UNL     1       8.411   5.057  19.122  1.00  0.00     0.115 A 
HETATM   42  N4  UNL     1       7.115   5.235  18.792  1.00  0.00    -0.358 N 
HETATM   43  C3  UNL     1       6.762   5.534  17.538  1.00  0.00     0.121 A 
ATOM     44  H4  UNL     1       6.396   5.140  19.509  1.00  0.00     0.165 HD
HETATM   45  C2  UNL     1       5.426   5.717  17.201  1.00  0.00     0.145 A 
HETATM   46  C21 UNL     1       7.765   5.654  16.596  1.00  0.00     0.152 A 
HETATM   47  N2  UNL     1       5.090   6.019  15.935  1.00  0.00    -0.175 N 
HETATM   48  C1  UNL     1       6.073   6.134  15.023  1.00  0.00     0.679 A 
ATOM     49  H2  UNL     1       4.115   6.157  15.672  1.00  0.00     0.186 HD
HETATM   50  N16 UNL     1       7.387   5.957  15.340  1.00  0.00    -0.174 N 
ATOM     51  H16 UNL     1       8.095   6.056  14.614  1.00  0.00     0.186 HD
HETATM   52  N15 UNL     1       9.058   5.477  16.926  1.00  0.00    -0.341 N 
ATOM     53  H15 UNL     1       9.774   5.573  16.206  1.00  0.00     0.167 HD
BRANCH  45  54
HETATM   54  N3  UNL     1       4.480   5.608  18.072  1.00  0.00    -0.383 N 
ATOM     55  H32 UNL     1       4.155   6.405  18.620  1.00  0.00     0.157 HD
ATOM     56  H31 UNL     1       4.053   4.692  18.206  1.00  0.00     0.157 HD
ENDBRANCH  45  54
BRANCH  48  57
HETATM   57  N1  UNL     1       5.715   6.424  13.814  1.00  0.00    -0.234 N 
ATOM     58  H12 UNL     1       4.791   6.167  13.464  1.00  0.00     0.174 HD
ATOM     59  H11 UNL     1       6.398   6.918  13.238  1.00  0.00     0.174 HD
ENDBRANCH  48  57
ENDBRANCH  39  40
ENDBRANCH   1  39
TORSDOF 14
ENDMDL
