MODEL 1
REMARK VINA RESULT: -5.012187397      0.000      0.000
REMARK  6 active torsions:
REMARK  status: ('A' for Active; 'I' for Inactive)
REMARK    1  A    between atoms: C2_2  and  O1_3 
REMARK    2  A    between atoms: C2_2  and  C3_5 
REMARK    3  A    between atoms: C3_5  and  N1_6 
REMARK    4  A    between atoms: C6_16  and  C7_17 
REMARK    5  A    between atoms: C8_20  and  N7_21 
REMARK    6  A    between atoms: N7_21  and  C9_23 
ROOT
HETATM    1  C9  UNL     1      12.813   9.669   6.211  1.00  0.00     0.183 C 
HETATM    2  C10 UNL     1      14.004   8.811   6.550  1.00  0.00     0.105 C 
HETATM    3  N8  UNL     1      14.921   8.173   6.796  1.00  0.00    -0.191 NA
ENDROOT
BRANCH   1   4
HETATM    4  N7  UNL     1      11.707   9.353   6.952  1.00  0.00    -0.354 N 
ATOM      5  H7  UNL     1      10.861   9.672   6.479  1.00  0.00     0.166 HD
BRANCH   4   6
HETATM    6  C8  UNL     1      11.420   8.800   8.016  1.00  0.00     0.081 A 
HETATM    7  C6  UNL     1      11.614   9.262   9.299  1.00  0.00     0.070 A 
HETATM    8  C5  UNL     1      11.249   8.489  10.417  1.00  0.00     0.133 A 
HETATM    9  N4  UNL     1      10.708   7.290  10.232  1.00  0.00    -0.327 N 
HETATM   10  N5  UNL     1      11.492   9.059  11.689  1.00  0.00    -0.082 NA
HETATM   11  C4  UNL     1      10.488   6.776   9.026  1.00  0.00     0.153 A 
ATOM     12  H4  UNL     1      10.449   6.740  11.051  1.00  0.00     0.168 HD
HETATM   13  N3  UNL     1       9.977   5.605   8.581  1.00  0.00    -0.269 N 
HETATM   14  C11 UNL     1      10.826   7.494   7.889  1.00  0.00     0.125 A 
HETATM   15  N2  UNL     1      10.003   5.616   7.283  1.00  0.00    -0.238 N 
ATOM     16  H3  UNL     1       9.630   4.844   9.165  1.00  0.00     0.190 HD
HETATM   17  N1  UNL     1      10.524   6.775   6.816  1.00  0.00    -0.270 N 
ATOM     18  H2  UNL     1       9.675   4.851   6.693  1.00  0.00     0.208 HD
BRANCH   7  19
HETATM   19  C7  UNL     1      12.198  10.559   9.539  1.00  0.00     0.129 C 
HETATM   20  N6  UNL     1      11.506  11.769   9.469  1.00  0.00    -0.089 NA
HETATM   21  S1  UNL     1      13.822  10.580   9.858  1.00  0.00    -0.063 SA
ENDBRANCH   7  19
BRANCH  17  22
HETATM   22  C3  UNL     1      10.629   7.071   5.406  1.00  0.00     0.182 C 
BRANCH  22  23
HETATM   23  C2  UNL     1       9.389   7.730   4.835  1.00  0.00     0.134 C 
HETATM   24  C1  UNL     1       9.279   7.471   3.342  1.00  0.00     0.041 C 
BRANCH  23  25
HETATM   25  O1  UNL     1       9.272   9.075   5.055  1.00  0.00    -0.394 OA
ATOM     26  H1  UNL     1       9.907   9.529   4.512  1.00  0.00     0.210 HD
ENDBRANCH  23  25
ENDBRANCH  22  23
ENDBRANCH  17  22
ENDBRANCH   4   6
ENDBRANCH   1   4
TORSDOF 6
ENDMDL
MODEL 2
REMARK VINA RESULT: -4.896468455      3.749      4.644
REMARK  6 active torsions:
REMARK  status: ('A' for Active; 'I' for Inactive)
REMARK    1  A    between atoms: C2_2  and  O1_3 
REMARK    2  A    between atoms: C2_2  and  C3_5 
REMARK    3  A    between atoms: C3_5  and  N1_6 
REMARK    4  A    between atoms: C6_16  and  C7_17 
REMARK    5  A    between atoms: C8_20  and  N7_21 
REMARK    6  A    between atoms: N7_21  and  C9_23 
ROOT
HETATM    1  C9  UNL     1       9.748  10.366   6.575  1.00  0.00     0.183 C 
HETATM    2  C10 UNL     1       8.958  11.130   5.544  1.00  0.00     0.105 C 
HETATM    3  N8  UNL     1       8.375  11.710   4.749  1.00  0.00    -0.191 NA
ENDROOT
BRANCH   1   4
HETATM    4  N7  UNL     1       8.958   9.830   7.555  1.00  0.00    -0.354 N 
ATOM      5  H7  UNL     1       8.427   9.040   7.188  1.00  0.00     0.166 HD
BRANCH   4   6
HETATM    6  C8  UNL     1       8.690  10.010   8.744  1.00  0.00     0.081 A 
HETATM    7  C6  UNL     1       7.822  10.925   9.297  1.00  0.00     0.070 A 
HETATM    8  C5  UNL     1       7.649  11.019  10.690  1.00  0.00     0.133 A 
HETATM    9  N4  UNL     1       8.337  10.211  11.489  1.00  0.00    -0.327 N 
HETATM   10  N5  UNL     1       6.732  11.994  11.151  1.00  0.00    -0.082 NA
HETATM   11  C4  UNL     1       9.192   9.302  11.032  1.00  0.00     0.153 A 
ATOM     12  H4  UNL     1       8.202  10.290  12.497  1.00  0.00     0.168 HD
HETATM   13  N3  UNL     1      10.003   8.392  11.620  1.00  0.00    -0.269 N 
HETATM   14  C11 UNL     1       9.401   9.164   9.668  1.00  0.00     0.125 A 
HETATM   15  N2  UNL     1      10.647   7.758  10.690  1.00  0.00    -0.238 N 
ATOM     16  H3  UNL     1      10.092   8.233  12.624  1.00  0.00     0.190 HD
HETATM   17  N1  UNL     1      10.298   8.208   9.461  1.00  0.00    -0.270 N 
ATOM     18  H2  UNL     1      11.327   7.016  10.861  1.00  0.00     0.208 HD
BRANCH   7  19
HETATM   19  C7  UNL     1       7.058  11.819   8.462  1.00  0.00     0.129 C 
HETATM   20  N6  UNL     1       5.910  11.460   7.754  1.00  0.00    -0.089 NA
HETATM   21  S1  UNL     1       7.648  13.358   8.307  1.00  0.00    -0.063 SA
ENDBRANCH   7  19
BRANCH  17  22
HETATM   22  C3  UNL     1      10.831   7.645   8.243  1.00  0.00     0.182 C 
BRANCH  22  23
HETATM   23  C2  UNL     1      10.424   6.202   8.018  1.00  0.00     0.134 C 
HETATM   24  C1  UNL     1       8.930   6.097   7.759  1.00  0.00     0.041 C 
BRANCH  23  25
HETATM   25  O1  UNL     1      10.759   5.324   9.011  1.00  0.00    -0.394 OA
ATOM     26  H1  UNL     1      11.430   4.736   8.684  1.00  0.00     0.210 HD
ENDBRANCH  23  25
ENDBRANCH  22  23
ENDBRANCH  17  22
ENDBRANCH   4   6
ENDBRANCH   1   4
TORSDOF 6
ENDMDL
MODEL 3
REMARK VINA RESULT: -4.881462703      2.447      3.144
REMARK  6 active torsions:
REMARK  status: ('A' for Active; 'I' for Inactive)
REMARK    1  A    between atoms: C2_2  and  O1_3 
REMARK    2  A    between atoms: C2_2  and  C3_5 
REMARK    3  A    between atoms: C3_5  and  N1_6 
REMARK    4  A    between atoms: C6_16  and  C7_17 
REMARK    5  A    between atoms: C8_20  and  N7_21 
REMARK    6  A    between atoms: N7_21  and  C9_23 
ROOT
HETATM    1  C9  UNL     1       9.277  10.744   6.656  1.00  0.00     0.183 C 
HETATM    2  C10 UNL     1       8.132  11.715   6.532  1.00  0.00     0.105 C 
HETATM    3  N8  UNL     1       7.273  12.463   6.423  1.00  0.00    -0.191 NA
ENDROOT
BRANCH   1   4
HETATM    4  N7  UNL     1       8.949   9.631   7.382  1.00  0.00    -0.354 N 
ATOM      5  H7  UNL     1       8.077   9.229   7.037  1.00  0.00     0.166 HD
BRANCH   4   6
HETATM    6  C8  UNL     1       9.383   8.966   8.324  1.00  0.00     0.081 A 
HETATM    7  C6  UNL     1       9.580   9.359   9.630  1.00  0.00     0.070 A 
HETATM    8  C5  UNL     1      10.114   8.476  10.585  1.00  0.00     0.133 A 
HETATM    9  N4  UNL     1      10.434   7.239  10.223  1.00  0.00    -0.327 N 
HETATM   10  N5  UNL     1      10.274   8.982  11.897  1.00  0.00    -0.082 NA
HETATM   11  C4  UNL     1      10.273   6.785   8.984  1.00  0.00     0.153 A 
ATOM     12  H4  UNL     1      10.821   6.609  10.927  1.00  0.00     0.168 HD
HETATM   13  N3  UNL     1      10.527   5.605   8.374  1.00  0.00    -0.269 N 
HETATM   14  C11 UNL     1       9.751   7.611   8.002  1.00  0.00     0.125 A 
HETATM   15  N2  UNL     1      10.185   5.709   7.126  1.00  0.00    -0.238 N 
ATOM     16  H3  UNL     1      10.920   4.775   8.818  1.00  0.00     0.190 HD
HETATM   17  N1  UNL     1       9.696   6.943   6.856  1.00  0.00    -0.270 N 
ATOM     18  H2  UNL     1      10.274   4.960   6.439  1.00  0.00     0.208 HD
BRANCH   7  19
HETATM   19  C7  UNL     1       9.243  10.694  10.059  1.00  0.00     0.129 C 
HETATM   20  N6  UNL     1       7.953  11.127  10.372  1.00  0.00    -0.089 NA
HETATM   21  S1  UNL     1      10.491  11.780  10.118  1.00  0.00    -0.063 SA
ENDBRANCH   7  19
BRANCH  17  22
HETATM   22  C3  UNL     1       9.199   7.317   5.553  1.00  0.00     0.182 C 
BRANCH  22  23
HETATM   23  C2  UNL     1      10.257   7.270   4.469  1.00  0.00     0.134 C 
HETATM   24  C1  UNL     1      11.291   8.363   4.675  1.00  0.00     0.041 C 
BRANCH  23  25
HETATM   25  O1  UNL     1       9.799   7.339   3.182  1.00  0.00    -0.394 OA
ATOM     26  H1  UNL     1       9.873   6.478   2.786  1.00  0.00     0.210 HD
ENDBRANCH  23  25
ENDBRANCH  22  23
ENDBRANCH  17  22
ENDBRANCH   4   6
ENDBRANCH   1   4
TORSDOF 6
ENDMDL
MODEL 4
REMARK VINA RESULT: -4.866249572      1.230      1.309
REMARK  6 active torsions:
REMARK  status: ('A' for Active; 'I' for Inactive)
REMARK    1  A    between atoms: C2_2  and  O1_3 
REMARK    2  A    between atoms: C2_2  and  C3_5 
REMARK    3  A    between atoms: C3_5  and  N1_6 
REMARK    4  A    between atoms: C6_16  and  C7_17 
REMARK    5  A    between atoms: C8_20  and  N7_21 
REMARK    6  A    between atoms: N7_21  and  C9_23 
ROOT
HETATM    1  C9  UNL     1      13.184   8.980   6.325  1.00  0.00     0.183 C 
HETATM    2  C10 UNL     1      13.022   9.089   4.831  1.00  0.00     0.105 C 
HETATM    3  N8  UNL     1      12.919   9.169   3.694  1.00  0.00    -0.191 NA
ENDROOT
BRANCH   1   4
HETATM    4  N7  UNL     1      11.986   8.876   6.979  1.00  0.00    -0.354 N 
ATOM      5  H7  UNL     1      11.232   9.239   6.396  1.00  0.00     0.166 HD
BRANCH   4   6
HETATM    6  C8  UNL     1      11.540   8.478   8.056  1.00  0.00     0.081 A 
HETATM    7  C6  UNL     1      11.800   8.960   9.321  1.00  0.00     0.070 A 
HETATM    8  C5  UNL     1      11.223   8.370  10.460  1.00  0.00     0.133 A 
HETATM    9  N4  UNL     1      10.412   7.328  10.315  1.00  0.00    -0.327 N 
HETATM   10  N5  UNL     1      11.558   8.945  11.709  1.00  0.00    -0.082 NA
HETATM   11  C4  UNL     1      10.111   6.806   9.130  1.00  0.00     0.153 A 
ATOM     12  H4  UNL     1      10.001   6.910  11.151  1.00  0.00     0.168 HD
HETATM   13  N3  UNL     1       9.345   5.768   8.726  1.00  0.00    -0.269 N 
HETATM   14  C11 UNL     1      10.650   7.348   7.973  1.00  0.00     0.125 A 
HETATM   15  N2  UNL     1       9.414   5.689   7.432  1.00  0.00    -0.238 N 
ATOM     16  H3  UNL     1       8.805   5.152   9.334  1.00  0.00     0.190 HD
HETATM   17  N1  UNL     1      10.215   6.657   6.927  1.00  0.00    -0.270 N 
ATOM     18  H2  UNL     1       8.928   4.990   6.870  1.00  0.00     0.208 HD
BRANCH   7  19
HETATM   19  C7  UNL     1      12.675  10.090   9.516  1.00  0.00     0.129 C 
HETATM   20  N6  UNL     1      14.032  10.000   9.832  1.00  0.00    -0.089 NA
HETATM   21  S1  UNL     1      11.973  11.585   9.408  1.00  0.00    -0.063 SA
ENDBRANCH   7  19
BRANCH  17  22
HETATM   22  C3  UNL     1      10.434   6.828   5.510  1.00  0.00     0.182 C 
BRANCH  22  23
HETATM   23  C2  UNL     1       9.387   7.695   4.840  1.00  0.00     0.134 C 
HETATM   24  C1  UNL     1       9.452   7.550   3.329  1.00  0.00     0.041 C 
BRANCH  23  25
HETATM   25  O1  UNL     1       9.423   9.026   5.153  1.00  0.00    -0.394 OA
ATOM     26  H1  UNL     1       8.686   9.226   5.718  1.00  0.00     0.210 HD
ENDBRANCH  23  25
ENDBRANCH  22  23
ENDBRANCH  17  22
ENDBRANCH   4   6
ENDBRANCH   1   4
TORSDOF 6
ENDMDL
MODEL 5
REMARK VINA RESULT: -4.761686910      2.282      2.498
REMARK  6 active torsions:
REMARK  status: ('A' for Active; 'I' for Inactive)
REMARK    1  A    between atoms: C2_2  and  O1_3 
REMARK    2  A    between atoms: C2_2  and  C3_5 
REMARK    3  A    between atoms: C3_5  and  N1_6 
REMARK    4  A    between atoms: C6_16  and  C7_17 
REMARK    5  A    between atoms: C8_20  and  N7_21 
REMARK    6  A    between atoms: N7_21  and  C9_23 
ROOT
HETATM    1  C9  UNL     1       8.882  10.778   6.888  1.00  0.00     0.183 C 
HETATM    2  C10 UNL     1      10.314  10.990   6.469  1.00  0.00     0.105 C 
HETATM    3  N8  UNL     1      11.396  11.171   6.145  1.00  0.00    -0.191 NA
ENDROOT
BRANCH   1   4
HETATM    4  N7  UNL     1       8.699   9.601   7.563  1.00  0.00    -0.354 N 
ATOM      5  H7  UNL     1       7.859   9.128   7.228  1.00  0.00     0.166 HD
BRANCH   4   6
HETATM    6  C8  UNL     1       9.238   8.937   8.451  1.00  0.00     0.081 A 
HETATM    7  C6  UNL     1       9.492   9.301   9.755  1.00  0.00     0.070 A 
HETATM    8  C5  UNL     1      10.145   8.426  10.642  1.00  0.00     0.133 A 
HETATM    9  N4  UNL     1      10.525   7.227  10.216  1.00  0.00    -0.327 N 
HETATM   10  N5  UNL     1      10.355   8.900  11.960  1.00  0.00    -0.082 NA
HETATM   11  C4  UNL     1      10.315   6.803   8.973  1.00  0.00     0.153 A 
ATOM     12  H4  UNL     1      10.998   6.604  10.870  1.00  0.00     0.168 HD
HETATM   13  N3  UNL     1      10.609   5.665   8.305  1.00  0.00    -0.269 N 
HETATM   14  C11 UNL     1       9.675   7.623   8.056  1.00  0.00     0.125 A 
HETATM   15  N2  UNL     1      10.180   5.785   7.086  1.00  0.00    -0.238 N 
ATOM     16  H3  UNL     1      11.085   4.851   8.693  1.00  0.00     0.190 HD
HETATM   17  N1  UNL     1       9.592   6.990   6.893  1.00  0.00    -0.270 N 
ATOM     18  H2  UNL     1      10.275   5.068   6.367  1.00  0.00     0.208 HD
BRANCH   7  19
HETATM   19  C7  UNL     1       9.094  10.594  10.254  1.00  0.00     0.129 C 
HETATM   20  N6  UNL     1       7.800  10.927  10.660  1.00  0.00    -0.089 NA
HETATM   21  S1  UNL     1      10.267  11.761  10.279  1.00  0.00    -0.063 SA
ENDBRANCH   7  19
BRANCH  17  22
HETATM   22  C3  UNL     1       8.987   7.371   5.638  1.00  0.00     0.182 C 
BRANCH  22  23
HETATM   23  C2  UNL     1       9.963   8.008   4.668  1.00  0.00     0.134 C 
HETATM   24  C1  UNL     1       9.872   7.352   3.301  1.00  0.00     0.041 C 
BRANCH  23  25
HETATM   25  O1  UNL     1      11.273   8.021   5.060  1.00  0.00    -0.394 OA
ATOM     26  H1  UNL     1      11.552   7.127   5.218  1.00  0.00     0.210 HD
ENDBRANCH  23  25
ENDBRANCH  22  23
ENDBRANCH  17  22
ENDBRANCH   4   6
ENDBRANCH   1   4
TORSDOF 6
ENDMDL
