MODEL 1
REMARK VINA RESULT: -5.070883915      0.000      0.000
REMARK  9 active torsions:
REMARK  status: ('A' for Active; 'I' for Inactive)
REMARK    1  A    between atoms: C2_3  and  N2_4 
REMARK    2  A    between atoms: C5_13  and  N5_14 
REMARK    3  A    between atoms: N5_14  and  C6_16 
REMARK    4  A    between atoms: C6_16  and  C7_17 
REMARK    5  A    between atoms: N8_23  and  C9_24 
REMARK    6  A    between atoms: C9_24  and  O1_25 
REMARK    7  A    between atoms: C9_24  and  C10_27 
REMARK    8  A    between atoms: C10_27  and  C11_28 
REMARK    9  A    between atoms: C11_28  and  C12_29 
ROOT
HETATM    1  C7  UNL     1       9.340   9.731   8.769  1.00  0.00     0.102 C 
HETATM    2  N6  UNL     1       8.291   9.585   8.062  1.00  0.00    -0.393 N 
ATOM      3  H61 UNL     1       7.458   9.151   8.459  1.00  0.00     0.156 HD
ATOM      4  H62 UNL     1       8.275   9.908   7.095  1.00  0.00     0.156 HD
HETATM    5  C8  UNL     1       9.362   9.280  10.119  1.00  0.00     0.114 C 
HETATM    6  N7  UNL     1       9.399   8.914  11.216  1.00  0.00    -0.190 NA
ENDROOT
BRANCH   1   7
HETATM    7  C6  UNL     1      10.548  10.360   8.193  1.00  0.00     0.206 C 
BRANCH   7   8
HETATM    8  N5  UNL     1      11.231   9.550   7.231  1.00  0.00    -0.219 N 
ATOM      9  H5  UNL     1      10.814   9.403   6.311  1.00  0.00     0.178 HD
BRANCH   8  10
HETATM   10  C5  UNL     1      12.359   9.006   7.506  1.00  0.00     0.690 A 
HETATM   11  N4  UNL     1      13.546   9.613   7.163  1.00  0.00    -0.172 N 
HETATM   12  C4  UNL     1      14.547   8.862   7.603  1.00  0.00     0.184 A 
ATOM     13  H4  UNL     1      13.640  10.493   6.657  1.00  0.00     0.186 HD
HETATM   14  N1  UNL     1      15.906   8.715   7.696  1.00  0.00    -0.168 N 
HETATM   15  C3  UNL     1      13.983   7.795   8.215  1.00  0.00     0.191 A 
HETATM   16  C1  UNL     1      16.812   9.673   7.147  1.00  0.00     0.177 C 
HETATM   17  C2  UNL     1      16.168   7.576   8.353  1.00  0.00     0.681 A 
HETATM   18  N3  UNL     1      14.988   7.022   8.667  1.00  0.00    -0.172 N 
ATOM     19  H3  UNL     1      14.870   6.144   9.174  1.00  0.00     0.186 HD
HETATM   20  N8  UNL     1      12.604   7.874   8.160  1.00  0.00    -0.107 N 
BRANCH  17  21
HETATM   21  N2  UNL     1      17.344   7.135   8.613  1.00  0.00    -0.234 N 
ATOM     22  H22 UNL     1      17.850   6.380   8.150  1.00  0.00     0.174 HD
ATOM     23  H21 UNL     1      17.951   7.495   9.349  1.00  0.00     0.174 HD
ENDBRANCH  17  21
BRANCH  20  24
HETATM   24  C9  UNL     1      11.746   6.934   8.751  1.00  0.00     0.165 C 
BRANCH  24  25
HETATM   25  O1  UNL     1      12.134   6.600  10.019  1.00  0.00    -0.345 OA
ATOM     26  H1  UNL     1      11.931   5.697  10.234  1.00  0.00     0.219 HD
ENDBRANCH  24  25
BRANCH  24  27
HETATM   27  C10 UNL     1      10.593   6.217   8.435  1.00  0.00     0.060 C 
BRANCH  27  28
HETATM   28  C11 UNL     1       9.830   6.129   7.396  1.00  0.00     0.045 C 
BRANCH  28  29
HETATM   29  C12 UNL     1       8.331   6.040   7.580  1.00  0.00     0.258 C 
HETATM   30  O2  UNL     1       7.863   6.454   8.642  1.00  0.00    -0.302 OA
ENDBRANCH  28  29
ENDBRANCH  27  28
ENDBRANCH  24  27
ENDBRANCH  20  24
ENDBRANCH   8  10
ENDBRANCH   7   8
ENDBRANCH   1   7
TORSDOF 9
ENDMDL
MODEL 2
REMARK VINA RESULT: -5.035925190      1.819      2.458
REMARK  9 active torsions:
REMARK  status: ('A' for Active; 'I' for Inactive)
REMARK    1  A    between atoms: C2_3  and  N2_4 
REMARK    2  A    between atoms: C5_13  and  N5_14 
REMARK    3  A    between atoms: N5_14  and  C6_16 
REMARK    4  A    between atoms: C6_16  and  C7_17 
REMARK    5  A    between atoms: N8_23  and  C9_24 
REMARK    6  A    between atoms: C9_24  and  O1_25 
REMARK    7  A    between atoms: C9_24  and  C10_27 
REMARK    8  A    between atoms: C10_27  and  C11_28 
REMARK    9  A    between atoms: C11_28  and  C12_29 
ROOT
HETATM    1  C7  UNL     1      10.256   8.275   6.204  1.00  0.00     0.102 C 
HETATM    2  N6  UNL     1       9.271   9.066   6.358  1.00  0.00    -0.393 N 
ATOM      3  H61 UNL     1       8.416   8.743   6.811  1.00  0.00     0.156 HD
ATOM      4  H62 UNL     1       9.333  10.031   6.036  1.00  0.00     0.156 HD
HETATM    5  C8  UNL     1      10.170   6.927   6.654  1.00  0.00     0.114 C 
HETATM    6  N7  UNL     1      10.114   5.827   7.009  1.00  0.00    -0.190 NA
ENDROOT
BRANCH   1   7
HETATM    7  C6  UNL     1      11.496   8.743   5.548  1.00  0.00     0.206 C 
BRANCH   7   8
HETATM    8  N5  UNL     1      12.444   9.339   6.441  1.00  0.00    -0.219 N 
ATOM      9  H5  UNL     1      12.342  10.321   6.700  1.00  0.00     0.178 HD
BRANCH   8  10
HETATM   10  C5  UNL     1      13.419   8.658   6.920  1.00  0.00     0.690 A 
HETATM   11  N4  UNL     1      14.634   8.602   6.277  1.00  0.00    -0.172 N 
HETATM   12  C4  UNL     1      15.465   7.871   7.008  1.00  0.00     0.184 A 
ATOM     13  H4  UNL     1      14.858   9.049   5.388  1.00  0.00     0.186 HD
HETATM   14  N1  UNL     1      16.728   7.351   7.120  1.00  0.00    -0.168 N 
HETATM   15  C3  UNL     1      14.768   7.476   8.098  1.00  0.00     0.191 A 
HETATM   16  C1  UNL     1      17.731   7.576   6.128  1.00  0.00     0.177 C 
HETATM   17  C2  UNL     1      16.801   6.649   8.259  1.00  0.00     0.681 A 
HETATM   18  N3  UNL     1      15.600   6.732   8.851  1.00  0.00    -0.172 N 
ATOM     19  H3  UNL     1      15.354   6.295   9.740  1.00  0.00     0.186 HD
HETATM   20  N8  UNL     1      13.476   7.965   8.054  1.00  0.00    -0.107 N 
BRANCH  17  21
HETATM   21  N2  UNL     1      17.845   6.028   8.672  1.00  0.00    -0.234 N 
ATOM     22  H22 UNL     1      18.158   5.090   8.423  1.00  0.00     0.174 HD
ATOM     23  H21 UNL     1      18.526   6.408   9.329  1.00  0.00     0.174 HD
ENDBRANCH  17  21
BRANCH  20  24
HETATM   24  C9  UNL     1      12.531   7.760   9.071  1.00  0.00     0.165 C 
BRANCH  24  25
HETATM   25  O1  UNL     1      12.589   6.496   9.589  1.00  0.00    -0.345 OA
ATOM     26  H1  UNL     1      12.963   6.479  10.462  1.00  0.00     0.219 HD
ENDBRANCH  24  25
BRANCH  24  27
HETATM   27  C10 UNL     1      11.525   8.464   9.730  1.00  0.00     0.060 C 
BRANCH  27  28
HETATM   28  C11 UNL     1      10.423   8.139  10.325  1.00  0.00     0.045 C 
BRANCH  28  29
HETATM   29  C12 UNL     1       9.137   8.835   9.938  1.00  0.00     0.258 C 
HETATM   30  O2  UNL     1       8.329   8.199   9.258  1.00  0.00    -0.302 OA
ENDBRANCH  28  29
ENDBRANCH  27  28
ENDBRANCH  24  27
ENDBRANCH  20  24
ENDBRANCH   8  10
ENDBRANCH   7   8
ENDBRANCH   1   7
TORSDOF 9
ENDMDL
MODEL 3
REMARK VINA RESULT: -4.953074210      2.887      5.337
REMARK  9 active torsions:
REMARK  status: ('A' for Active; 'I' for Inactive)
REMARK    1  A    between atoms: C2_3  and  N2_4 
REMARK    2  A    between atoms: C5_13  and  N5_14 
REMARK    3  A    between atoms: N5_14  and  C6_16 
REMARK    4  A    between atoms: C6_16  and  C7_17 
REMARK    5  A    between atoms: N8_23  and  C9_24 
REMARK    6  A    between atoms: C9_24  and  O1_25 
REMARK    7  A    between atoms: C9_24  and  C10_27 
REMARK    8  A    between atoms: C10_27  and  C11_28 
REMARK    9  A    between atoms: C11_28  and  C12_29 
ROOT
HETATM    1  C7  UNL     1       8.898   6.087   7.757  1.00  0.00     0.102 C 
HETATM    2  N6  UNL     1       9.935   5.631   7.177  1.00  0.00    -0.393 N 
ATOM      3  H61 UNL     1       9.853   5.127   6.293  1.00  0.00     0.156 HD
ATOM      4  H62 UNL     1      10.857   5.773   7.588  1.00  0.00     0.156 HD
HETATM    5  C8  UNL     1       7.611   5.890   7.181  1.00  0.00     0.114 C 
HETATM    6  N7  UNL     1       6.557   5.733   6.730  1.00  0.00    -0.190 NA
ENDROOT
BRANCH   1   7
HETATM    7  C6  UNL     1       9.017   6.818   9.037  1.00  0.00     0.206 C 
BRANCH   7   8
HETATM    8  N5  UNL     1      10.312   6.737   9.641  1.00  0.00    -0.219 N 
ATOM      9  H5  UNL     1      10.764   5.828   9.743  1.00  0.00     0.178 HD
BRANCH   8  10
HETATM   10  C5  UNL     1      10.914   7.791  10.055  1.00  0.00     0.690 A 
HETATM   11  N4  UNL     1      10.585   8.375  11.257  1.00  0.00    -0.172 N 
HETATM   12  C4  UNL     1      11.386   9.413  11.456  1.00  0.00     0.184 A 
ATOM     13  H4  UNL     1       9.849   8.061  11.889  1.00  0.00     0.186 HD
HETATM   14  N1  UNL     1      11.728  10.446  12.289  1.00  0.00    -0.168 N 
HETATM   15  C3  UNL     1      12.207   9.472  10.382  1.00  0.00     0.191 A 
HETATM   16  C1  UNL     1      11.052  10.677  13.526  1.00  0.00     0.177 C 
HETATM   17  C2  UNL     1      12.741  11.125  11.733  1.00  0.00     0.681 A 
HETATM   18  N3  UNL     1      13.028  10.523  10.569  1.00  0.00    -0.172 N 
ATOM     19  H3  UNL     1      13.760  10.818   9.923  1.00  0.00     0.186 HD
HETATM   20  N8  UNL     1      11.919   8.455   9.492  1.00  0.00    -0.107 N 
BRANCH  17  21
HETATM   21  N2  UNL     1      13.304  12.155  12.251  1.00  0.00    -0.234 N 
ATOM     22  H22 UNL     1      14.298  12.312  12.416  1.00  0.00     0.174 HD
ATOM     23  H21 UNL     1      12.810  12.984  12.581  1.00  0.00     0.174 HD
ENDBRANCH  17  21
BRANCH  20  24
HETATM   24  C9  UNL     1      12.636   8.233   8.306  1.00  0.00     0.165 C 
BRANCH  24  25
HETATM   25  O1  UNL     1      11.816   8.070   7.224  1.00  0.00    -0.345 OA
ATOM     26  H1  UNL     1      12.299   7.861   6.433  1.00  0.00     0.219 HD
ENDBRANCH  24  25
BRANCH  24  27
HETATM   27  C10 UNL     1      13.960   8.121   7.881  1.00  0.00     0.060 C 
BRANCH  27  28
HETATM   28  C11 UNL     1      15.056   7.692   8.416  1.00  0.00     0.045 C 
BRANCH  28  29
HETATM   29  C12 UNL     1      16.047   8.687   8.979  1.00  0.00     0.258 C 
HETATM   30  O2  UNL     1      15.728   9.289  10.007  1.00  0.00    -0.302 OA
ENDBRANCH  28  29
ENDBRANCH  27  28
ENDBRANCH  24  27
ENDBRANCH  20  24
ENDBRANCH   8  10
ENDBRANCH   7   8
ENDBRANCH   1   7
TORSDOF 9
ENDMDL
MODEL 4
REMARK VINA RESULT: -4.940527253      1.920      2.807
REMARK  9 active torsions:
REMARK  status: ('A' for Active; 'I' for Inactive)
REMARK    1  A    between atoms: C2_3  and  N2_4 
REMARK    2  A    between atoms: C5_13  and  N5_14 
REMARK    3  A    between atoms: N5_14  and  C6_16 
REMARK    4  A    between atoms: C6_16  and  C7_17 
REMARK    5  A    between atoms: N8_23  and  C9_24 
REMARK    6  A    between atoms: C9_24  and  O1_25 
REMARK    7  A    between atoms: C9_24  and  C10_27 
REMARK    8  A    between atoms: C10_27  and  C11_28 
REMARK    9  A    between atoms: C11_28  and  C12_29 
ROOT
HETATM    1  C7  UNL     1      10.183   8.149   4.947  1.00  0.00     0.102 C 
HETATM    2  N6  UNL     1       9.198   7.522   5.453  1.00  0.00    -0.393 N 
ATOM      3  H61 UNL     1       8.841   6.677   5.009  1.00  0.00     0.156 HD
ATOM      4  H62 UNL     1       8.762   7.859   6.312  1.00  0.00     0.156 HD
HETATM    5  C8  UNL     1      10.791   7.679   3.748  1.00  0.00     0.114 C 
HETATM    6  N7  UNL     1      11.293   7.315   2.772  1.00  0.00    -0.190 NA
ENDROOT
BRANCH   1   7
HETATM    7  C6  UNL     1      10.701   9.375   5.591  1.00  0.00     0.206 C 
BRANCH   7   8
HETATM    8  N5  UNL     1      11.070   9.206   6.964  1.00  0.00    -0.219 N 
ATOM      9  H5  UNL     1      10.410   9.464   7.698  1.00  0.00     0.178 HD
BRANCH   8  10
HETATM   10  C5  UNL     1      12.219   8.735   7.286  1.00  0.00     0.690 A 
HETATM   11  N4  UNL     1      13.379   9.291   6.800  1.00  0.00    -0.172 N 
HETATM   12  C4  UNL     1      14.411   8.641   7.323  1.00  0.00     0.184 A 
ATOM     13  H4  UNL     1      13.437  10.073   6.148  1.00  0.00     0.186 HD
HETATM   14  N1  UNL     1      15.775   8.533   7.389  1.00  0.00    -0.168 N 
HETATM   15  C3  UNL     1      13.891   7.687   8.129  1.00  0.00     0.191 A 
HETATM   16  C1  UNL     1      16.641   9.397   6.651  1.00  0.00     0.177 C 
HETATM   17  C2  UNL     1      16.083   7.527   8.220  1.00  0.00     0.681 A 
HETATM   18  N3  UNL     1      14.927   7.017   8.669  1.00  0.00    -0.172 N 
ATOM     19  H3  UNL     1      14.845   6.238   9.322  1.00  0.00     0.186 HD
HETATM   20  N8  UNL     1      12.510   7.735   8.114  1.00  0.00    -0.107 N 
BRANCH  17  21
HETATM   21  N2  UNL     1      17.277   7.155   8.507  1.00  0.00    -0.234 N 
ATOM     22  H22 UNL     1      18.137   7.349   7.995  1.00  0.00     0.174 HD
ATOM     23  H21 UNL     1      17.531   6.592   9.318  1.00  0.00     0.174 HD
ENDBRANCH  17  21
BRANCH  20  24
HETATM   24  C9  UNL     1      11.693   6.898   8.888  1.00  0.00     0.165 C 
BRANCH  24  25
HETATM   25  O1  UNL     1      12.101   6.832  10.192  1.00  0.00    -0.345 OA
ATOM     26  H1  UNL     1      12.757   6.160  10.332  1.00  0.00     0.219 HD
ENDBRANCH  24  25
BRANCH  24  27
HETATM   27  C10 UNL     1      10.567   6.090   8.734  1.00  0.00     0.060 C 
BRANCH  27  28
HETATM   28  C11 UNL     1       9.290   6.288   8.778  1.00  0.00     0.045 C 
BRANCH  28  29
HETATM   29  C12 UNL     1       8.761   7.643   9.194  1.00  0.00     0.258 C 
HETATM   30  O2  UNL     1       8.355   8.393   8.304  1.00  0.00    -0.302 OA
ENDBRANCH  28  29
ENDBRANCH  27  28
ENDBRANCH  24  27
ENDBRANCH  20  24
ENDBRANCH   8  10
ENDBRANCH   7   8
ENDBRANCH   1   7
TORSDOF 9
ENDMDL
MODEL 5
REMARK VINA RESULT: -4.937370164      2.912      5.641
REMARK  9 active torsions:
REMARK  status: ('A' for Active; 'I' for Inactive)
REMARK    1  A    between atoms: C2_3  and  N2_4 
REMARK    2  A    between atoms: C5_13  and  N5_14 
REMARK    3  A    between atoms: N5_14  and  C6_16 
REMARK    4  A    between atoms: C6_16  and  C7_17 
REMARK    5  A    between atoms: N8_23  and  C9_24 
REMARK    6  A    between atoms: C9_24  and  O1_25 
REMARK    7  A    between atoms: C9_24  and  C10_27 
REMARK    8  A    between atoms: C10_27  and  C11_28 
REMARK    9  A    between atoms: C11_28  and  C12_29 
ROOT
HETATM    1  C7  UNL     1       9.711   6.606   6.956  1.00  0.00     0.102 C 
HETATM    2  N6  UNL     1      10.147   5.475   7.347  1.00  0.00    -0.393 N 
ATOM      3  H61 UNL     1      10.733   4.908   6.734  1.00  0.00     0.156 HD
ATOM      4  H62 UNL     1       9.919   5.132   8.279  1.00  0.00     0.156 HD
HETATM    5  C8  UNL     1      10.030   7.085   5.654  1.00  0.00     0.114 C 
HETATM    6  N7  UNL     1      10.275   7.487   4.597  1.00  0.00    -0.190 NA
ENDROOT
BRANCH   1   7
HETATM    7  C6  UNL     1       8.863   7.428   7.845  1.00  0.00     0.206 C 
BRANCH   7   8
HETATM    8  N5  UNL     1       9.118   7.239   9.241  1.00  0.00    -0.219 N 
ATOM      9  H5  UNL     1       8.797   6.386   9.700  1.00  0.00     0.178 HD
BRANCH   8  10
HETATM   10  C5  UNL     1       9.745   8.126   9.924  1.00  0.00     0.690 A 
HETATM   11  N4  UNL     1       9.078   8.958  10.794  1.00  0.00    -0.172 N 
HETATM   12  C4  UNL     1       9.967   9.739  11.395  1.00  0.00     0.184 A 
ATOM     13  H4  UNL     1       8.071   8.971  10.951  1.00  0.00     0.186 HD
HETATM   14  N1  UNL     1      10.170  10.745  12.302  1.00  0.00    -0.168 N 
HETATM   15  C3  UNL     1      11.177   9.392  10.899  1.00  0.00     0.191 A 
HETATM   16  C1  UNL     1       9.092  11.350  13.018  1.00  0.00     0.177 C 
HETATM   17  C2  UNL     1      11.483  11.009  12.359  1.00  0.00     0.681 A 
HETATM   18  N3  UNL     1      12.090  10.177  11.500  1.00  0.00    -0.172 N 
ATOM     19  H3  UNL     1      13.095  10.145  11.328  1.00  0.00     0.186 HD
HETATM   20  N8  UNL     1      11.050   8.376   9.970  1.00  0.00    -0.107 N 
BRANCH  17  21
HETATM   21  N2  UNL     1      12.019  11.900  13.111  1.00  0.00    -0.234 N 
ATOM     22  H22 UNL     1      12.037  12.911  12.974  1.00  0.00     0.174 HD
ATOM     23  H21 UNL     1      12.518  11.706  13.979  1.00  0.00     0.174 HD
ENDBRANCH  17  21
BRANCH  20  24
HETATM   24  C9  UNL     1      12.139   7.776   9.320  1.00  0.00     0.165 C 
BRANCH  24  25
HETATM   25  O1  UNL     1      12.289   6.460   9.661  1.00  0.00    -0.345 OA
ATOM     26  H1  UNL     1      11.664   5.898   9.218  1.00  0.00     0.219 HD
ENDBRANCH  24  25
BRANCH  24  27
HETATM   27  C10 UNL     1      13.141   8.117   8.413  1.00  0.00     0.060 C 
BRANCH  27  28
HETATM   28  C11 UNL     1      14.400   8.395   8.507  1.00  0.00     0.045 C 
BRANCH  28  29
HETATM   29  C12 UNL     1      14.825   9.741   9.051  1.00  0.00     0.258 C 
HETATM   30  O2  UNL     1      14.815   9.889  10.275  1.00  0.00    -0.302 OA
ENDBRANCH  28  29
ENDBRANCH  27  28
ENDBRANCH  24  27
ENDBRANCH  20  24
ENDBRANCH   8  10
ENDBRANCH   7   8
ENDBRANCH   1   7
TORSDOF 9
ENDMDL
