MODEL 1
REMARK VINA RESULT: -7.895133739      0.000      0.000
REMARK  4 active torsions:
REMARK  status: ('A' for Active; 'I' for Inactive)
REMARK    1  A    between atoms: C10_11  and  C11_12 
REMARK    2  A    between atoms: C11_12  and  S1_13 
REMARK    3  A    between atoms: S1_13  and  C12_14 
REMARK    4  A    between atoms: C14_21  and  C15_22 
ROOT
HETATM    1  C12 UNL     1       1.038  -6.734  21.302  1.00  0.00     0.174 A 
HETATM    2  N2  UNL     1       0.277  -6.353  20.267  1.00  0.00    -0.167 N 
ATOM      3  H2  UNL     1       0.116  -5.388  19.978  1.00  0.00     0.186 HD
HETATM    4  C13 UNL     1      -0.250  -7.457  19.658  1.00  0.00     0.704 A 
HETATM    5  N3  UNL     1       0.189  -8.526  20.325  1.00  0.00    -0.111 N 
HETATM    6  N4  UNL     1       0.967  -8.064  21.315  1.00  0.00    -0.262 N 
ATOM      7  H4  UNL     1       1.446  -8.657  21.993  1.00  0.00     0.190 HD
HETATM    8  C14 UNL     1      -0.222  -9.832  19.925  1.00  0.00     0.175 C 
HETATM    9  C19 UNL     1      -0.405  -9.934  18.450  1.00  0.00     0.137 C 
HETATM   10  C20 UNL     1      -1.445  -8.905  18.090  1.00  0.00     0.238 C 
HETATM   11  O1  UNL     1      -2.497  -9.162  17.502  1.00  0.00    -0.273 OA
HETATM   12  N5  UNL     1      -1.096  -7.566  18.501  1.00  0.00    -0.158 N 
ATOM     13  H5  UNL     1      -1.431  -6.743  17.999  1.00  0.00     0.187 HD
ENDROOT
BRANCH   1  14
HETATM   14  S1  UNL     1       1.961  -5.663  22.426  1.00  0.00    -0.092 SA
BRANCH  14  15
HETATM   15  C11 UNL     1       1.443  -3.948  22.238  1.00  0.00     0.089 C 
BRANCH  15  16
HETATM   16  C10 UNL     1       2.482  -3.057  21.604  1.00  0.00     0.034 C 
HETATM   17  C5  UNL     1       3.086  -2.047  22.530  1.00  0.00     0.163 C 
HETATM   18  N1  UNL     1       2.132  -1.654  23.523  1.00  0.00     0.094 N 
HETATM   19  C4  UNL     1       3.436  -0.793  21.755  1.00  0.00     0.044 C 
HETATM   20  C6  UNL     1       4.289  -2.680  23.195  1.00  0.00     0.042 C 
HETATM   21  C1  UNL     1       2.515  -2.007  24.874  1.00  0.00     0.310 C 
HETATM   22  C2  UNL     1       1.953  -0.229  23.468  1.00  0.00     0.273 C 
HETATM   23  C3  UNL     1       3.116   0.348  22.695  1.00  0.00     0.033 C 
HETATM   24  C7  UNL     1       5.369  -2.902  22.195  1.00  0.00     0.002 C 
HETATM   25  C8  UNL     1       4.870  -3.363  20.856  1.00  0.00     0.001 C 
HETATM   26  C9  UNL     1       3.487  -3.959  20.930  1.00  0.00     0.008 C 
ENDBRANCH  15  16
ENDBRANCH  14  15
ENDBRANCH   1  14
BRANCH   8  27
HETATM   27  C15 UNL     1       0.734 -10.895  20.363  1.00  0.00     0.008 A 
HETATM   28  C16 UNL     1       1.709 -11.523  19.634  1.00  0.00     0.017 A 
HETATM   29  C17 UNL     1       2.443 -12.455  20.256  1.00  0.00     0.008 A 
HETATM   30  C18 UNL     1       2.159 -12.707  21.571  1.00  0.00     0.050 A 
HETATM   31  S2  UNL     1       0.876 -11.631  21.894  1.00  0.00    -0.104 SA
ENDBRANCH   8  27
TORSDOF 4
ENDMDL
MODEL 2
REMARK VINA RESULT: -7.592576587      3.473      7.628
REMARK  4 active torsions:
REMARK  status: ('A' for Active; 'I' for Inactive)
REMARK    1  A    between atoms: C10_11  and  C11_12 
REMARK    2  A    between atoms: C11_12  and  S1_13 
REMARK    3  A    between atoms: S1_13  and  C12_14 
REMARK    4  A    between atoms: C14_21  and  C15_22 
ROOT
HETATM    1  C12 UNL     1       0.590  -7.754  23.395  1.00  0.00     0.174 A 
HETATM    2  N2  UNL     1       1.121  -6.524  23.360  1.00  0.00    -0.167 N 
ATOM      3  H2  UNL     1       1.438  -5.996  24.173  1.00  0.00     0.186 HD
HETATM    4  C13 UNL     1       1.172  -6.087  22.067  1.00  0.00     0.704 A 
HETATM    5  N3  UNL     1       0.667  -7.055  21.299  1.00  0.00    -0.111 N 
HETATM    6  N4  UNL     1       0.322  -8.054  22.125  1.00  0.00    -0.262 N 
ATOM      7  H4  UNL     1      -0.093  -8.934  21.819  1.00  0.00     0.190 HD
HETATM    8  C14 UNL     1       0.571  -6.868  19.889  1.00  0.00     0.175 C 
HETATM    9  C19 UNL     1       1.693  -6.044  19.356  1.00  0.00     0.137 C 
HETATM   10  C20 UNL     1       1.620  -4.727  20.084  1.00  0.00     0.238 C 
HETATM   11  O1  UNL     1       1.521  -3.633  19.524  1.00  0.00    -0.273 OA
HETATM   12  N5  UNL     1       1.681  -4.859  21.520  1.00  0.00    -0.158 N 
ATOM     13  H5  UNL     1       2.061  -4.122  22.113  1.00  0.00     0.187 HD
ENDROOT
BRANCH   1  14
HETATM   14  S1  UNL     1       0.310  -8.777  24.856  1.00  0.00    -0.092 SA
BRANCH  14  15
HETATM   15  C11 UNL     1       1.254 -10.308  24.751  1.00  0.00     0.089 C 
BRANCH  15  16
HETATM   16  C10 UNL     1       0.662 -11.333  23.815  1.00  0.00     0.034 C 
HETATM   17  C5  UNL     1       1.669 -12.132  23.048  1.00  0.00     0.163 C 
HETATM   18  N1  UNL     1       2.842 -11.347  22.805  1.00  0.00     0.094 N 
HETATM   19  C4  UNL     1       1.106 -12.490  21.688  1.00  0.00     0.044 C 
HETATM   20  C6  UNL     1       2.029 -13.349  23.872  1.00  0.00     0.042 C 
HETATM   21  C1  UNL     1       4.035 -11.863  23.442  1.00  0.00     0.310 C 
HETATM   22  C2  UNL     1       3.084 -11.286  21.389  1.00  0.00     0.273 C 
HETATM   23  C3  UNL     1       2.280 -12.389  20.741  1.00  0.00     0.033 C 
HETATM   24  C7  UNL     1       0.865 -14.273  23.956  1.00  0.00     0.002 C 
HETATM   25  C8  UNL     1      -0.455 -13.573  24.109  1.00  0.00     0.001 C 
HETATM   26  C9  UNL     1      -0.304 -12.164  24.624  1.00  0.00     0.008 C 
ENDBRANCH  15  16
ENDBRANCH  14  15
ENDBRANCH   1  14
BRANCH   8  27
HETATM   27  C15 UNL     1       0.529  -8.160  19.138  1.00  0.00     0.008 A 
HETATM   28  C16 UNL     1       1.568  -8.977  18.781  1.00  0.00     0.017 A 
HETATM   29  C17 UNL     1       1.272 -10.093  18.101  1.00  0.00     0.008 A 
HETATM   30  C18 UNL     1      -0.046 -10.326  17.815  1.00  0.00     0.050 A 
HETATM   31  S2  UNL     1      -0.827  -8.978  18.508  1.00  0.00    -0.104 SA
ENDBRANCH   8  27
TORSDOF 4
ENDMDL
MODEL 3
REMARK VINA RESULT: -7.585631049      3.147      8.520
REMARK  4 active torsions:
REMARK  status: ('A' for Active; 'I' for Inactive)
REMARK    1  A    between atoms: C10_11  and  C11_12 
REMARK    2  A    between atoms: C11_12  and  S1_13 
REMARK    3  A    between atoms: S1_13  and  C12_14 
REMARK    4  A    between atoms: C14_21  and  C15_22 
ROOT
HETATM    1  C12 UNL     1       1.393 -10.989  20.165  1.00  0.00     0.174 A 
HETATM    2  N2  UNL     1       0.259 -11.300  19.524  1.00  0.00    -0.167 N 
ATOM      3  H2  UNL     1      -0.110 -12.244  19.404  1.00  0.00     0.186 HD
HETATM    4  C13 UNL     1      -0.330 -10.159  19.058  1.00  0.00     0.704 A 
HETATM    5  N3  UNL     1       0.451  -9.135  19.413  1.00  0.00    -0.111 N 
HETATM    6  N4  UNL     1       1.487  -9.662  20.083  1.00  0.00    -0.262 N 
ATOM      7  H4  UNL     1       2.250  -9.115  20.480  1.00  0.00     0.190 HD
HETATM    8  C14 UNL     1       0.095  -7.807  19.038  1.00  0.00     0.175 C 
HETATM    9  C19 UNL     1      -1.381  -7.607  19.016  1.00  0.00     0.137 C 
HETATM   10  C20 UNL     1      -1.919  -8.610  18.029  1.00  0.00     0.238 C 
HETATM   11  O1  UNL     1      -2.601  -8.315  17.045  1.00  0.00    -0.273 OA
HETATM   12  N5  UNL     1      -1.562  -9.974  18.342  1.00  0.00    -0.158 N 
ATOM     13  H5  UNL     1      -2.151 -10.761  18.070  1.00  0.00     0.187 HD
ENDROOT
BRANCH   1  14
HETATM   14  S1  UNL     1       2.538 -12.130  20.970  1.00  0.00    -0.092 SA
BRANCH  14  15
HETATM   15  C11 UNL     1       2.354 -12.056  22.761  1.00  0.00     0.089 C 
BRANCH  15  16
HETATM   16  C10 UNL     1       0.936 -12.233  23.242  1.00  0.00     0.034 C 
HETATM   17  C5  UNL     1       0.759 -13.295  24.283  1.00  0.00     0.163 C 
HETATM   18  N1  UNL     1       1.722 -14.338  24.095  1.00  0.00     0.094 N 
HETATM   19  C4  UNL     1      -0.604 -13.938  24.128  1.00  0.00     0.044 C 
HETATM   20  C6  UNL     1       0.954 -12.656  25.642  1.00  0.00     0.042 C 
HETATM   21  C1  UNL     1       2.656 -14.477  25.192  1.00  0.00     0.310 C 
HETATM   22  C2  UNL     1       1.035 -15.590  23.933  1.00  0.00     0.273 C 
HETATM   23  C3  UNL     1      -0.380 -15.403  24.430  1.00  0.00     0.033 C 
HETATM   24  C7  UNL     1      -0.164 -11.716  25.931  1.00  0.00     0.002 C 
HETATM   25  C8  UNL     1      -0.612 -10.922  24.738  1.00  0.00     0.001 C 
HETATM   26  C9  UNL     1       0.434 -10.871  23.653  1.00  0.00     0.008 C 
ENDBRANCH  15  16
ENDBRANCH  14  15
ENDBRANCH   1  14
BRANCH   8  27
HETATM   27  C15 UNL     1       0.704  -6.774  19.931  1.00  0.00     0.008 A 
HETATM   28  C16 UNL     1       0.799  -6.773  21.298  1.00  0.00     0.017 A 
HETATM   29  C17 UNL     1       1.393  -5.720  21.876  1.00  0.00     0.008 A 
HETATM   30  C18 UNL     1       1.857  -4.728  21.054  1.00  0.00     0.050 A 
HETATM   31  S2  UNL     1       1.447  -5.302  19.501  1.00  0.00    -0.104 SA
ENDBRANCH   8  27
TORSDOF 4
ENDMDL
MODEL 4
REMARK VINA RESULT: -7.502936490      3.421      7.237
REMARK  4 active torsions:
REMARK  status: ('A' for Active; 'I' for Inactive)
REMARK    1  A    between atoms: C10_11  and  C11_12 
REMARK    2  A    between atoms: C11_12  and  S1_13 
REMARK    3  A    between atoms: S1_13  and  C12_14 
REMARK    4  A    between atoms: C14_21  and  C15_22 
ROOT
HETATM    1  C12 UNL     1       1.306  -7.490  23.405  1.00  0.00     0.174 A 
HETATM    2  N2  UNL     1       1.793  -6.249  23.274  1.00  0.00    -0.167 N 
ATOM      3  H2  UNL     1       2.239  -5.711  24.017  1.00  0.00     0.186 HD
HETATM    4  C13 UNL     1       1.599  -5.816  21.993  1.00  0.00     0.704 A 
HETATM    5  N3  UNL     1       0.986  -6.798  21.329  1.00  0.00    -0.111 N 
HETATM    6  N4  UNL     1       0.820  -7.802  22.203  1.00  0.00    -0.262 N 
ATOM      7  H4  UNL     1       0.377  -8.692  21.977  1.00  0.00     0.190 HD
HETATM    8  C14 UNL     1       0.633  -6.619  19.959  1.00  0.00     0.175 C 
HETATM    9  C19 UNL     1       1.620  -5.772  19.233  1.00  0.00     0.137 C 
HETATM   10  C20 UNL     1       1.650  -4.453  19.962  1.00  0.00     0.238 C 
HETATM   11  O1  UNL     1       1.425  -3.364  19.430  1.00  0.00    -0.273 OA
HETATM   12  N5  UNL     1       1.972  -4.578  21.364  1.00  0.00    -0.158 N 
ATOM     13  H5  UNL     1       2.436  -3.830  21.879  1.00  0.00     0.187 HD
ENDROOT
BRANCH   1  14
HETATM   14  S1  UNL     1       1.318  -8.514  24.892  1.00  0.00    -0.092 SA
BRANCH  14  15
HETATM   15  C11 UNL     1       1.130 -10.254  24.467  1.00  0.00     0.089 C 
BRANCH  15  16
HETATM   16  C10 UNL     1       2.434 -10.973  24.223  1.00  0.00     0.034 C 
HETATM   17  C5  UNL     1       2.506 -11.708  22.921  1.00  0.00     0.163 C 
HETATM   18  N1  UNL     1       1.205 -12.171  22.541  1.00  0.00     0.094 N 
HETATM   19  C4  UNL     1       3.368 -12.943  23.081  1.00  0.00     0.044 C 
HETATM   20  C6  UNL     1       3.037 -10.755  21.872  1.00  0.00     0.042 C 
HETATM   21  C1  UNL     1       0.708 -11.582  21.317  1.00  0.00     0.310 C 
HETATM   22  C2  UNL     1       1.244 -13.597  22.366  1.00  0.00     0.273 C 
HETATM   23  C3  UNL     1       2.695 -14.002  22.237  1.00  0.00     0.033 C 
HETATM   24  C7  UNL     1       4.463 -10.430  22.150  1.00  0.00     0.002 C 
HETATM   25  C8  UNL     1       4.771 -10.256  23.609  1.00  0.00     0.001 C 
HETATM   26  C9  UNL     1       3.539  -9.966  24.429  1.00  0.00     0.008 C 
ENDBRANCH  15  16
ENDBRANCH  14  15
ENDBRANCH   1  14
BRANCH   8  27
HETATM   27  C15 UNL     1       0.486  -7.914  19.228  1.00  0.00     0.008 A 
HETATM   28  C16 UNL     1       1.462  -8.787  18.828  1.00  0.00     0.017 A 
HETATM   29  C17 UNL     1       1.075  -9.893  18.178  1.00  0.00     0.008 A 
HETATM   30  C18 UNL     1      -0.267 -10.062  17.965  1.00  0.00     0.050 A 
HETATM   31  S2  UNL     1      -0.941  -8.669  18.682  1.00  0.00    -0.104 SA
ENDBRANCH   8  27
TORSDOF 4
ENDMDL
MODEL 5
REMARK VINA RESULT: -7.484742988      3.420      7.214
REMARK  4 active torsions:
REMARK  status: ('A' for Active; 'I' for Inactive)
REMARK    1  A    between atoms: C10_11  and  C11_12 
REMARK    2  A    between atoms: C11_12  and  S1_13 
REMARK    3  A    between atoms: S1_13  and  C12_14 
REMARK    4  A    between atoms: C14_21  and  C15_22 
ROOT
HETATM    1  C12 UNL     1       0.884  -8.298  23.343  1.00  0.00     0.174 A 
HETATM    2  N2  UNL     1       1.564  -7.145  23.386  1.00  0.00    -0.167 N 
ATOM      3  H2  UNL     1       2.121  -6.818  24.176  1.00  0.00     0.186 HD
HETATM    4  C13 UNL     1       1.399  -6.474  22.207  1.00  0.00     0.704 A 
HETATM    5  N3  UNL     1       0.608  -7.220  21.432  1.00  0.00    -0.111 N 
HETATM    6  N4  UNL     1       0.310  -8.320  22.140  1.00  0.00    -0.262 N 
ATOM      7  H4  UNL     1      -0.282  -9.078  21.801  1.00  0.00     0.190 HD
HETATM    8  C14 UNL     1       0.239  -6.756  20.135  1.00  0.00     0.175 C 
HETATM    9  C19 UNL     1       1.326  -5.963  19.495  1.00  0.00     0.137 C 
HETATM   10  C20 UNL     1       1.600  -4.810  20.425  1.00  0.00     0.238 C 
HETATM   11  O1  UNL     1       1.539  -3.624  20.093  1.00  0.00    -0.273 OA
HETATM   12  N5  UNL     1       1.947  -5.221  21.765  1.00  0.00    -0.158 N 
ATOM     13  H5  UNL     1       2.547  -4.654  22.364  1.00  0.00     0.187 HD
ENDROOT
BRANCH   1  14
HETATM   14  S1  UNL     1       0.781  -9.549  24.641  1.00  0.00    -0.092 SA
BRANCH  14  15
HETATM   15  C11 UNL     1       1.332 -11.150  24.024  1.00  0.00     0.089 C 
BRANCH  15  16
HETATM   16  C10 UNL     1       2.170 -11.072  22.772  1.00  0.00     0.034 C 
HETATM   17  C5  UNL     1       3.558 -11.615  22.917  1.00  0.00     0.163 C 
HETATM   18  N1  UNL     1       4.026 -11.428  24.257  1.00  0.00     0.094 N 
HETATM   19  C4  UNL     1       4.504 -10.840  22.023  1.00  0.00     0.044 C 
HETATM   20  C6  UNL     1       3.521 -13.092  22.588  1.00  0.00     0.042 C 
HETATM   21  C1  UNL     1       4.278 -12.664  24.967  1.00  0.00     0.310 C 
HETATM   22  C2  UNL     1       5.248 -10.672  24.230  1.00  0.00     0.273 C 
HETATM   23  C3  UNL     1       5.785 -10.724  22.818  1.00  0.00     0.033 C 
HETATM   24  C7  UNL     1       3.236 -13.288  21.140  1.00  0.00     0.002 C 
HETATM   25  C8  UNL     1       2.225 -12.326  20.586  1.00  0.00     0.001 C 
HETATM   26  C9  UNL     1       1.369 -11.706  21.662  1.00  0.00     0.008 C 
ENDBRANCH  15  16
ENDBRANCH  14  15
ENDBRANCH   1  14
BRANCH   8  27
HETATM   27  C15 UNL     1      -0.147  -7.868  19.214  1.00  0.00     0.008 A 
HETATM   28  C16 UNL     1       0.623  -8.902  18.749  1.00  0.00     0.017 A 
HETATM   29  C17 UNL     1       0.043  -9.782  17.922  1.00  0.00     0.008 A 
HETATM   30  C18 UNL     1      -1.273  -9.577  17.606  1.00  0.00     0.050 A 
HETATM   31  S2  UNL     1      -1.655  -8.162  18.477  1.00  0.00    -0.104 SA
ENDBRANCH   8  27
TORSDOF 4
ENDMDL
