MODEL 1
REMARK VINA RESULT: -7.911135763      0.000      0.000
REMARK  5 active torsions:
REMARK  status: ('A' for Active; 'I' for Inactive)
REMARK    1  A    between atoms: C11_11  and  N1_12 
REMARK    2  A    between atoms: N1_12  and  C12_14 
REMARK    3  A    between atoms: N2_16  and  N3_18 
REMARK       I    between atoms: N3_18  and  C13_20 
REMARK    4  A    between atoms: C13_20  and  C14_22 
REMARK    5  A    between atoms: C14_22  and  C15_23 
ROOT
HETATM    1  N1  UNL     1      20.037  10.436   6.647  1.00  0.00    -0.361 N 
ATOM      2  H1  UNL     1      20.877   9.859   6.687  1.00  0.00     0.162 HD
ENDROOT
BRANCH   1   3
HETATM    3  C11 UNL     1      18.852   9.898   7.234  1.00  0.00     0.092 C 
HETATM    4  C9  UNL     1      19.202   8.857   8.310  1.00  0.00     0.009 C 
HETATM    5  C8  UNL     1      20.108   7.777   7.853  1.00  0.00     0.011 C 
HETATM    6  C10 UNL     1      17.897   8.283   8.800  1.00  0.00     0.012 C 
HETATM    7  C7  UNL     1      19.471   7.094   6.662  1.00  0.00    -0.013 C 
HETATM    8  C6  UNL     1      18.216   6.405   7.212  1.00  0.00     0.010 C 
HETATM    9  C17 UNL     1      19.089   8.060   5.593  1.00  0.00     0.012 C 
HETATM   10  C5  UNL     1      17.261   7.454   7.678  1.00  0.00    -0.004 C 
HETATM   11  C4  UNL     1      16.900   8.437   6.586  1.00  0.00    -0.028 A 
HETATM   12  C2  UNL     1      15.927   8.053   5.530  1.00  0.00    -0.009 A 
HETATM   13  C3  UNL     1      15.575   9.035   6.659  1.00  0.00     0.015 A 
HETATM   14  C16 UNL     1      18.137   9.118   6.132  1.00  0.00     0.018 C 
HETATM   15  C1  UNL     1      15.920   8.680   4.180  1.00  0.00     0.011 C 
ENDBRANCH   1   3
BRANCH   1  16
HETATM   16  C12 UNL     1      20.151  11.677   6.025  1.00  0.00     0.186 C 
HETATM   17  S1  UNL     1      20.461  13.007   7.042  1.00  0.00    -0.040 SA
HETATM   18  N2  UNL     1      20.047  11.989   4.699  1.00  0.00    -0.274 N 
ATOM     19  H2  UNL     1      20.182  12.971   4.460  1.00  0.00     0.189 HD
BRANCH  18  20
HETATM   20  N3  UNL     1      19.784  11.143   3.647  1.00  0.00    -0.267 N 
HETATM   21  C13 UNL     1      20.154  11.591   2.316  1.00  0.00     0.246 C 
HETATM   22  O1  UNL     1      20.691  12.716   2.198  1.00  0.00    -0.271 OA
ATOM     23  H3  UNL     1      19.343  10.234   3.796  1.00  0.00     0.190 HD
BRANCH  21  24
HETATM   24  C14 UNL     1      19.858  10.659   1.210  1.00  0.00     0.217 C 
BRANCH  24  25
HETATM   25  C15 UNL     1      18.649   9.880   1.537  1.00  0.00     0.181 C 
HETATM   26  O2  UNL     1      17.525  10.342   1.329  1.00  0.00    -0.648 OA
HETATM   27  O3  UNL     1      18.852   8.608   2.088  1.00  0.00    -0.648 OA
ENDBRANCH  24  25
ENDBRANCH  21  24
ENDBRANCH  18  20
ENDBRANCH   1  16
TORSDOF 5
ENDMDL
MODEL 2
REMARK VINA RESULT: -7.827895199      1.138      1.379
REMARK  5 active torsions:
REMARK  status: ('A' for Active; 'I' for Inactive)
REMARK    1  A    between atoms: C11_11  and  N1_12 
REMARK    2  A    between atoms: N1_12  and  C12_14 
REMARK    3  A    between atoms: N2_16  and  N3_18 
REMARK       I    between atoms: N3_18  and  C13_20 
REMARK    4  A    between atoms: C13_20  and  C14_22 
REMARK    5  A    between atoms: C14_22  and  C15_23 
ROOT
HETATM    1  N1  UNL     1      19.855  10.742   5.769  1.00  0.00    -0.361 N 
ATOM      2  H1  UNL     1      20.398   9.993   5.339  1.00  0.00     0.162 HD
ENDROOT
BRANCH   1   3
HETATM    3  C11 UNL     1      18.802  10.354   6.654  1.00  0.00     0.092 C 
HETATM    4  C9  UNL     1      19.374   9.723   7.934  1.00  0.00     0.009 C 
HETATM    5  C8  UNL     1      20.316   8.602   7.704  1.00  0.00     0.011 C 
HETATM    6  C10 UNL     1      18.195   9.265   8.755  1.00  0.00     0.012 C 
HETATM    7  C7  UNL     1      19.608   7.549   6.879  1.00  0.00    -0.013 C 
HETATM    8  C6  UNL     1      18.496   7.002   7.785  1.00  0.00     0.010 C 
HETATM    9  C17 UNL     1      19.014   8.109   5.633  1.00  0.00     0.012 C 
HETATM   10  C5  UNL     1      17.510   8.094   8.039  1.00  0.00    -0.004 C 
HETATM   11  C4  UNL     1      16.932   8.665   6.763  1.00  0.00    -0.028 A 
HETATM   12  C2  UNL     1      15.881   7.920   6.023  1.00  0.00    -0.009 A 
HETATM   13  C3  UNL     1      15.576   9.186   6.838  1.00  0.00     0.015 A 
HETATM   14  C16 UNL     1      18.038   9.232   5.953  1.00  0.00     0.018 C 
HETATM   15  C1  UNL     1      15.656   8.090   4.562  1.00  0.00     0.011 C 
ENDBRANCH   1   3
BRANCH   1  16
HETATM   16  C12 UNL     1      20.206  12.048   5.439  1.00  0.00     0.186 C 
HETATM   17  S1  UNL     1      21.042  12.930   6.632  1.00  0.00    -0.040 SA
HETATM   18  N2  UNL     1      19.975  12.736   4.282  1.00  0.00    -0.274 N 
ATOM     19  H2  UNL     1      20.338  13.689   4.250  1.00  0.00     0.189 HD
BRANCH  18  20
HETATM   20  N3  UNL     1      19.313  12.305   3.156  1.00  0.00    -0.267 N 
HETATM   21  C13 UNL     1      19.579  13.005   1.912  1.00  0.00     0.246 C 
HETATM   22  O1  UNL     1      20.391  13.959   1.929  1.00  0.00    -0.271 OA
ATOM     23  H3  UNL     1      18.660  11.522   3.194  1.00  0.00     0.190 HD
BRANCH  21  24
HETATM   24  C14 UNL     1      18.852  12.516   0.723  1.00  0.00     0.217 C 
BRANCH  24  25
HETATM   25  C15 UNL     1      17.624  11.822   1.151  1.00  0.00     0.181 C 
HETATM   26  O2  UNL     1      17.506  10.603   1.010  1.00  0.00    -0.648 OA
HETATM   27  O3  UNL     1      16.620  12.618   1.718  1.00  0.00    -0.648 OA
ENDBRANCH  24  25
ENDBRANCH  21  24
ENDBRANCH  18  20
ENDBRANCH   1  16
TORSDOF 5
ENDMDL
MODEL 3
REMARK VINA RESULT: -7.787320551      1.077      1.459
REMARK  5 active torsions:
REMARK  status: ('A' for Active; 'I' for Inactive)
REMARK    1  A    between atoms: C11_11  and  N1_12 
REMARK    2  A    between atoms: N1_12  and  C12_14 
REMARK    3  A    between atoms: N2_16  and  N3_18 
REMARK       I    between atoms: N3_18  and  C13_20 
REMARK    4  A    between atoms: C13_20  and  C14_22 
REMARK    5  A    between atoms: C14_22  and  C15_23 
ROOT
HETATM    1  N1  UNL     1      20.076  10.443   6.415  1.00  0.00    -0.361 N 
ATOM      2  H1  UNL     1      20.884   9.823   6.359  1.00  0.00     0.162 HD
ENDROOT
BRANCH   1   3
HETATM    3  C11 UNL     1      18.922   9.943   7.093  1.00  0.00     0.092 C 
HETATM    4  C9  UNL     1      19.326   8.951   8.195  1.00  0.00     0.009 C 
HETATM    5  C8  UNL     1      20.197   7.842   7.740  1.00  0.00     0.011 C 
HETATM    6  C10 UNL     1      18.046   8.412   8.783  1.00  0.00     0.012 C 
HETATM    7  C7  UNL     1      19.490   7.110   6.620  1.00  0.00    -0.013 C 
HETATM    8  C6  UNL     1      18.263   6.459   7.270  1.00  0.00     0.010 C 
HETATM    9  C17 UNL     1      19.055   8.029   5.529  1.00  0.00     0.012 C 
HETATM   10  C5  UNL     1      17.342   7.538   7.738  1.00  0.00    -0.004 C 
HETATM   11  C4  UNL     1      16.928   8.472   6.623  1.00  0.00    -0.028 A 
HETATM   12  C2  UNL     1      15.895   8.049   5.642  1.00  0.00    -0.009 A 
HETATM   13  C3  UNL     1      15.613   9.084   6.742  1.00  0.00     0.015 A 
HETATM   14  C16 UNL     1      18.142   9.120   6.069  1.00  0.00     0.018 C 
HETATM   15  C1  UNL     1      15.816   8.612   4.267  1.00  0.00     0.011 C 
ENDBRANCH   1   3
BRANCH   1  16
HETATM   16  C12 UNL     1      20.199  11.698   5.826  1.00  0.00     0.186 C 
HETATM   17  S1  UNL     1      20.290  13.027   6.889  1.00  0.00    -0.040 SA
HETATM   18  N2  UNL     1      20.257  12.027   4.502  1.00  0.00    -0.274 N 
ATOM     19  H2  UNL     1      20.365  13.019   4.293  1.00  0.00     0.189 HD
BRANCH  18  20
HETATM   20  N3  UNL     1      20.188  11.186   3.416  1.00  0.00    -0.267 N 
HETATM   21  C13 UNL     1      19.587  11.706   2.200  1.00  0.00     0.246 C 
HETATM   22  O1  UNL     1      19.167  12.886   2.205  1.00  0.00    -0.271 OA
ATOM     23  H3  UNL     1      20.546  10.231   3.462  1.00  0.00     0.190 HD
BRANCH  21  24
HETATM   24  C14 UNL     1      19.530  10.777   1.054  1.00  0.00     0.217 C 
BRANCH  24  25
HETATM   25  C15 UNL     1      20.799  10.843   0.307  1.00  0.00     0.181 C 
HETATM   26  O2  UNL     1      21.700  10.027   0.520  1.00  0.00    -0.648 OA
HETATM   27  O3  UNL     1      20.917  11.868  -0.641  1.00  0.00    -0.648 OA
ENDBRANCH  24  25
ENDBRANCH  21  24
ENDBRANCH  18  20
ENDBRANCH   1  16
TORSDOF 5
ENDMDL
MODEL 4
REMARK VINA RESULT: -7.033257275      2.420      6.035
REMARK  5 active torsions:
REMARK  status: ('A' for Active; 'I' for Inactive)
REMARK    1  A    between atoms: C11_11  and  N1_12 
REMARK    2  A    between atoms: N1_12  and  C12_14 
REMARK    3  A    between atoms: N2_16  and  N3_18 
REMARK       I    between atoms: N3_18  and  C13_20 
REMARK    4  A    between atoms: C13_20  and  C14_22 
REMARK    5  A    between atoms: C14_22  and  C15_23 
ROOT
HETATM    1  N1  UNL     1      20.250  10.991   4.495  1.00  0.00    -0.361 N 
ATOM      2  H1  UNL     1      20.645  10.063   4.339  1.00  0.00     0.162 HD
ENDROOT
BRANCH   1   3
HETATM    3  C11 UNL     1      19.868  11.736   3.337  1.00  0.00     0.092 C 
HETATM    4  C9  UNL     1      18.337  11.806   3.217  1.00  0.00     0.009 C 
HETATM    5  C8  UNL     1      17.653  10.491   3.253  1.00  0.00     0.011 C 
HETATM    6  C10 UNL     1      18.036  12.524   1.926  1.00  0.00     0.012 C 
HETATM    7  C7  UNL     1      18.220   9.630   2.146  1.00  0.00    -0.013 C 
HETATM    8  C6  UNL     1      17.786  10.309   0.840  1.00  0.00     0.010 C 
HETATM    9  C17 UNL     1      19.707   9.543   2.200  1.00  0.00     0.012 C 
HETATM   10  C5  UNL     1      18.460  11.639   0.748  1.00  0.00    -0.004 C 
HETATM   11  C4  UNL     1      19.967  11.533   0.825  1.00  0.00    -0.028 A 
HETATM   12  C2  UNL     1      20.744  11.084  -0.359  1.00  0.00    -0.009 A 
HETATM   13  C3  UNL     1      20.728  12.547   0.110  1.00  0.00     0.015 A 
HETATM   14  C16 UNL     1      20.335  10.928   2.128  1.00  0.00     0.018 C 
HETATM   15  C1  UNL     1      22.081  10.442  -0.245  1.00  0.00     0.011 C 
ENDBRANCH   1   3
BRANCH   1  16
HETATM   16  C12 UNL     1      20.133  11.415   5.816  1.00  0.00     0.186 C 
HETATM   17  S1  UNL     1      20.937  12.861   6.220  1.00  0.00    -0.040 SA
HETATM   18  N2  UNL     1      19.458  10.833   6.851  1.00  0.00    -0.274 N 
ATOM     19  H2  UNL     1      19.493  11.329   7.741  1.00  0.00     0.189 HD
BRANCH  18  20
HETATM   20  N3  UNL     1      18.738   9.661   6.842  1.00  0.00    -0.267 N 
HETATM   21  C13 UNL     1      19.374   8.478   7.394  1.00  0.00     0.246 C 
HETATM   22  O1  UNL     1      20.537   8.586   7.847  1.00  0.00    -0.271 OA
ATOM     23  H3  UNL     1      17.792   9.624   6.461  1.00  0.00     0.190 HD
BRANCH  21  24
HETATM   24  C14 UNL     1      18.572   7.238   7.369  1.00  0.00     0.217 C 
BRANCH  24  25
HETATM   25  C15 UNL     1      17.182   7.562   7.003  1.00  0.00     0.181 C 
HETATM   26  O2  UNL     1      16.322   7.728   7.873  1.00  0.00    -0.648 OA
HETATM   27  O3  UNL     1      16.901   7.667   5.634  1.00  0.00    -0.648 OA
ENDBRANCH  24  25
ENDBRANCH  21  24
ENDBRANCH  18  20
ENDBRANCH   1  16
TORSDOF 5
ENDMDL
MODEL 5
REMARK VINA RESULT: -6.969928412      3.288      6.104
REMARK  5 active torsions:
REMARK  status: ('A' for Active; 'I' for Inactive)
REMARK    1  A    between atoms: C11_11  and  N1_12 
REMARK    2  A    between atoms: N1_12  and  C12_14 
REMARK    3  A    between atoms: N2_16  and  N3_18 
REMARK       I    between atoms: N3_18  and  C13_20 
REMARK    4  A    between atoms: C13_20  and  C14_22 
REMARK    5  A    between atoms: C14_22  and  C15_23 
ROOT
HETATM    1  N1  UNL     1      17.016   8.838   4.542  1.00  0.00    -0.361 N 
ATOM      2  H1  UNL     1      17.600   8.006   4.474  1.00  0.00     0.162 HD
ENDROOT
BRANCH   1   3
HETATM    3  C11 UNL     1      17.437   9.989   3.808  1.00  0.00     0.092 C 
HETATM    4  C9  UNL     1      17.705   9.628   2.338  1.00  0.00     0.009 C 
HETATM    5  C8  UNL     1      18.642   8.496   2.140  1.00  0.00     0.011 C 
HETATM    6  C10 UNL     1      18.231  10.874   1.674  1.00  0.00     0.012 C 
HETATM    7  C7  UNL     1      19.944   8.830   2.835  1.00  0.00    -0.013 C 
HETATM    8  C6  UNL     1      20.527  10.018   2.058  1.00  0.00     0.010 C 
HETATM    9  C17 UNL     1      19.743   9.210   4.262  1.00  0.00     0.012 C 
HETATM   10  C5  UNL     1      19.622  11.194   2.235  1.00  0.00    -0.004 C 
HETATM   11  C4  UNL     1      19.414  11.552   3.690  1.00  0.00    -0.028 A 
HETATM   12  C2  UNL     1      20.471  12.283   4.436  1.00  0.00    -0.009 A 
HETATM   13  C3  UNL     1      19.164  12.955   3.985  1.00  0.00     0.015 A 
HETATM   14  C16 UNL     1      18.794  10.395   4.381  1.00  0.00     0.018 C 
HETATM   15  C1  UNL     1      20.612  12.200   5.915  1.00  0.00     0.011 C 
ENDBRANCH   1   3
BRANCH   1  16
HETATM   16  C12 UNL     1      15.879   8.750   5.342  1.00  0.00     0.186 C 
HETATM   17  S1  UNL     1      14.393   8.580   4.528  1.00  0.00    -0.040 SA
HETATM   18  N2  UNL     1      15.779   8.782   6.704  1.00  0.00    -0.274 N 
ATOM     19  H2  UNL     1      14.838   8.684   7.084  1.00  0.00     0.189 HD
BRANCH  18  20
HETATM   20  N3  UNL     1      16.790   8.929   7.625  1.00  0.00    -0.267 N 
HETATM   21  C13 UNL     1      17.729   7.831   7.774  1.00  0.00     0.246 C 
HETATM   22  O1  UNL     1      17.569   6.815   7.061  1.00  0.00    -0.271 OA
ATOM     23  H3  UNL     1      16.877   9.779   8.184  1.00  0.00     0.190 HD
BRANCH  21  24
HETATM   24  C14 UNL     1      18.801   8.024   8.771  1.00  0.00     0.217 C 
BRANCH  24  25
HETATM   25  C15 UNL     1      20.104   8.082   8.084  1.00  0.00     0.181 C 
HETATM   26  O2  UNL     1      20.585   9.162   7.733  1.00  0.00    -0.648 OA
HETATM   27  O3  UNL     1      20.749   6.859   7.859  1.00  0.00    -0.648 OA
ENDBRANCH  24  25
ENDBRANCH  21  24
ENDBRANCH  18  20
ENDBRANCH   1  16
TORSDOF 5
ENDMDL
