MODEL 1
REMARK VINA RESULT: -4.426921697      0.000      0.000
REMARK  3 active torsions:
REMARK  status: ('A' for Active; 'I' for Inactive)
REMARK    1  A    between atoms: C2_4  and  N2_5 
REMARK    2  A    between atoms: C2_4  and  S1_8 
REMARK    3  A    between atoms: S1_8  and  C4_9 
ROOT
HETATM    1  C4  UNL     1       8.304  43.699  17.501  1.00  0.00     0.206 C 
HETATM    2  C5  UNL     1       7.970  44.956  16.836  1.00  0.00     0.069 C 
HETATM    3  N3  UNL     1       7.723  45.960  16.315  1.00  0.00    -0.197 NA
ENDROOT
BRANCH   1   4
HETATM    4  S1  UNL     1       9.938  43.097  17.088  1.00  0.00    -0.080 SA
BRANCH   4   5
HETATM    5  C2  UNL     1      10.382  41.617  17.929  1.00  0.00     0.136 C 
HETATM    6  N1  UNL     1      11.584  41.168  17.901  1.00  0.00    -0.375 N 
HETATM    7  C1  UNL     1      12.688  41.768  17.219  1.00  0.00     0.148 C 
ATOM      8  H1  UNL     1      11.769  40.305  18.411  1.00  0.00     0.161 HD
BRANCH   5   9
HETATM    9  N2  UNL     1       9.416  40.882  18.662  1.00  0.00    -0.375 N 
HETATM   10  C3  UNL     1       9.786  39.885  19.654  1.00  0.00     0.148 C 
ATOM     11  H2  UNL     1       8.427  41.059  18.486  1.00  0.00     0.161 HD
ENDBRANCH   5   9
ENDBRANCH   4   5
ENDBRANCH   1   4
TORSDOF 3
ENDMDL
MODEL 2
REMARK VINA RESULT: -4.347379539      1.093      1.093
REMARK  3 active torsions:
REMARK  status: ('A' for Active; 'I' for Inactive)
REMARK    1  A    between atoms: C2_4  and  N2_5 
REMARK    2  A    between atoms: C2_4  and  S1_8 
REMARK    3  A    between atoms: S1_8  and  C4_9 
ROOT
HETATM    1  C4  UNL     1       7.948  43.338  17.566  1.00  0.00     0.206 C 
HETATM    2  C5  UNL     1       7.800  44.542  18.380  1.00  0.00     0.069 C 
HETATM    3  N3  UNL     1       7.697  45.490  19.036  1.00  0.00    -0.197 NA
ENDROOT
BRANCH   1   4
HETATM    4  S1  UNL     1       9.653  42.952  17.184  1.00  0.00    -0.080 SA
BRANCH   4   5
HETATM    5  C2  UNL     1      10.252  41.509  17.993  1.00  0.00     0.136 C 
HETATM    6  N1  UNL     1      11.491  41.176  17.932  1.00  0.00    -0.375 N 
HETATM    7  C1  UNL     1      12.518  41.886  17.237  1.00  0.00     0.148 C 
ATOM      8  H1  UNL     1      11.767  40.327  18.425  1.00  0.00     0.161 HD
BRANCH   5   9
HETATM    9  N2  UNL     1       9.377  40.676  18.733  1.00  0.00    -0.375 N 
HETATM   10  C3  UNL     1       9.857  39.742  19.740  1.00  0.00     0.148 C 
ATOM     11  H2  UNL     1       8.374  40.734  18.553  1.00  0.00     0.161 HD
ENDBRANCH   5   9
ENDBRANCH   4   5
ENDBRANCH   1   4
TORSDOF 3
ENDMDL
MODEL 3
REMARK VINA RESULT: -4.335516343      1.184      2.480
REMARK  3 active torsions:
REMARK  status: ('A' for Active; 'I' for Inactive)
REMARK    1  A    between atoms: C2_4  and  N2_5 
REMARK    2  A    between atoms: C2_4  and  S1_8 
REMARK    3  A    between atoms: S1_8  and  C4_9 
ROOT
HETATM    1  C4  UNL     1       7.821  42.980  18.175  1.00  0.00     0.206 C 
HETATM    2  C5  UNL     1       8.425  44.218  17.690  1.00  0.00     0.069 C 
HETATM    3  N3  UNL     1       8.921  45.193  17.310  1.00  0.00    -0.197 NA
ENDROOT
BRANCH   1   4
HETATM    4  S1  UNL     1       8.636  41.511  17.560  1.00  0.00    -0.080 SA
BRANCH   4   5
HETATM    5  C2  UNL     1      10.334  41.402  18.008  1.00  0.00     0.136 C 
HETATM    6  N1  UNL     1      10.728  40.618  18.946  1.00  0.00    -0.375 N 
HETATM    7  C1  UNL     1       9.894  39.761  19.728  1.00  0.00     0.148 C 
ATOM      8  H1  UNL     1      11.726  40.607  19.152  1.00  0.00     0.161 HD
BRANCH   5   9
HETATM    9  N2  UNL     1      11.312  42.180  17.340  1.00  0.00    -0.375 N 
HETATM   10  C3  UNL     1      12.706  41.772  17.251  1.00  0.00     0.148 C 
ATOM     11  H2  UNL     1      11.029  43.060  16.907  1.00  0.00     0.161 HD
ENDBRANCH   5   9
ENDBRANCH   4   5
ENDBRANCH   1   4
TORSDOF 3
ENDMDL
MODEL 4
REMARK VINA RESULT: -4.321209859      2.243      3.352
REMARK  3 active torsions:
REMARK  status: ('A' for Active; 'I' for Inactive)
REMARK    1  A    between atoms: C2_4  and  N2_5 
REMARK    2  A    between atoms: C2_4  and  S1_8 
REMARK    3  A    between atoms: S1_8  and  C4_9 
ROOT
HETATM    1  C4  UNL     1       6.840  43.514  19.108  1.00  0.00     0.206 C 
HETATM    2  C5  UNL     1       7.365  44.865  18.934  1.00  0.00     0.069 C 
HETATM    3  N3  UNL     1       7.799  45.930  18.799  1.00  0.00    -0.197 NA
ENDROOT
BRANCH   1   4
HETATM    4  S1  UNL     1       7.773  42.276  18.214  1.00  0.00    -0.080 SA
BRANCH   4   5
HETATM    5  C2  UNL     1       8.855  42.945  16.998  1.00  0.00     0.136 C 
HETATM    6  N1  UNL     1       8.412  43.359  15.866  1.00  0.00    -0.375 N 
HETATM    7  C1  UNL     1       7.048  43.343  15.442  1.00  0.00     0.148 C 
ATOM      8  H1  UNL     1       9.097  43.734  15.210  1.00  0.00     0.161 HD
BRANCH   5   9
HETATM    9  N2  UNL     1      10.248  43.041  17.241  1.00  0.00    -0.375 N 
HETATM   10  C3  UNL     1      11.066  41.880  17.556  1.00  0.00     0.148 C 
ATOM     11  H2  UNL     1      10.693  43.958  17.194  1.00  0.00     0.161 HD
ENDBRANCH   5   9
ENDBRANCH   4   5
ENDBRANCH   1   4
TORSDOF 3
ENDMDL
MODEL 5
REMARK VINA RESULT: -4.302388474      2.180      3.216
REMARK  3 active torsions:
REMARK  status: ('A' for Active; 'I' for Inactive)
REMARK    1  A    between atoms: C2_4  and  N2_5 
REMARK    2  A    between atoms: C2_4  and  S1_8 
REMARK    3  A    between atoms: S1_8  and  C4_9 
ROOT
HETATM    1  C4  UNL     1       7.499  45.482  17.100  1.00  0.00     0.206 C 
HETATM    2  C5  UNL     1       7.481  45.207  18.534  1.00  0.00     0.069 C 
HETATM    3  N3  UNL     1       7.456  44.973  19.668  1.00  0.00    -0.197 NA
ENDROOT
BRANCH   1   4
HETATM    4  S1  UNL     1       7.895  44.043  16.112  1.00  0.00    -0.080 SA
BRANCH   4   5
HETATM    5  C2  UNL     1       8.802  42.812  16.984  1.00  0.00     0.136 C 
HETATM    6  N1  UNL     1       8.233  41.744  17.414  1.00  0.00    -0.375 N 
HETATM    7  C1  UNL     1       6.854  41.408  17.261  1.00  0.00     0.148 C 
ATOM      8  H1  UNL     1       8.821  41.075  17.911  1.00  0.00     0.161 HD
BRANCH   5   9
HETATM    9  N2  UNL     1      10.188  42.973  17.233  1.00  0.00    -0.375 N 
HETATM   10  C3  UNL     1      11.052  41.855  17.577  1.00  0.00     0.148 C 
ATOM     11  H2  UNL     1      10.594  43.907  17.169  1.00  0.00     0.161 HD
ENDBRANCH   5   9
ENDBRANCH   4   5
ENDBRANCH   1   4
TORSDOF 3
ENDMDL
