MODEL 1
REMARK VINA RESULT: -6.940934803      0.000      0.000
REMARK  3 active torsions:
REMARK  status: ('A' for Active; 'I' for Inactive)
REMARK    1  A    between atoms: C2_2  and  N1_4 
REMARK       I    between atoms: N1_4  and  C4_5 
REMARK    2  A    between atoms: N1_4  and  C17_24 
REMARK       I    between atoms: N3_7  and  C5_9 
REMARK    3  A    between atoms: C5_9  and  C6_11 
ROOT
HETATM    1  C6  UNL     1      -9.316  48.859  -3.152  1.00  0.00     0.045 C 
HETATM    2  C7  UNL     1     -10.279  47.708  -3.019  1.00  0.00     0.024 C 
HETATM    3  C8  UNL     1      -9.761  46.709  -1.994  1.00  0.00    -0.010 C 
HETATM    4  C9  UNL     1      -8.426  46.234  -2.460  1.00  0.00     0.026 C 
HETATM    5  C10 UNL     1      -7.458  47.394  -2.487  1.00  0.00     0.021 C 
HETATM    6 BR1  UNL     1      -5.690  46.761  -2.924  1.00  0.00    -0.085 Br
HETATM    7  C11 UNL     1      -7.389  48.047  -1.125  1.00  0.00     0.045 C 
HETATM    8  C12 UNL     1      -8.758  48.603  -0.791  1.00  0.00     0.052 C 
HETATM    9  C13 UNL     1      -8.651  49.259   0.525  1.00  0.00     0.069 C 
HETATM   10  N4  UNL     1      -8.579  49.758   1.569  1.00  0.00    -0.196 NA
HETATM   11  C14 UNL     1      -9.701  47.441  -0.672  1.00  0.00     0.029 C 
HETATM   12  C15 UNL     1      -9.155  49.595  -1.844  1.00  0.00     0.044 C 
HETATM   13  C16 UNL     1      -7.943  48.363  -3.538  1.00  0.00     0.040 C 
ENDROOT
BRANCH   1  14
HETATM   14  C5  UNL     1      -9.834  49.760  -4.228  1.00  0.00     0.233 C 
HETATM   15  N3  UNL     1      -9.595  51.110  -4.297  1.00  0.00    -0.300 N 
HETATM   16  C4  UNL     1      -9.453  51.976  -5.177  1.00  0.00     0.193 C 
ATOM     17  H3  UNL     1      -9.510  51.516  -3.365  1.00  0.00     0.171 HD
HETATM   18  N1  UNL     1      -9.489  51.877  -6.594  1.00  0.00    -0.347 N 
HETATM   19  N2  UNL     1      -9.206  53.323  -4.672  1.00  0.00    -0.063 NA
HETATM   20  O1  UNL     1     -10.535  49.215  -5.116  1.00  0.00    -0.272 OA
BRANCH  18  21
HETATM   21  C2  UNL     1      -8.228  51.665  -7.262  1.00  0.00     0.079 C 
HETATM   22  C1  UNL     1      -7.050  52.300  -6.538  1.00  0.00     0.032 C 
HETATM   23  C3  UNL     1      -7.892  50.222  -7.516  1.00  0.00     0.032 C 
ENDBRANCH  18  21
BRANCH  18  24
HETATM   24  C17 UNL     1     -10.689  52.008  -7.358  1.00  0.00     0.079 C 
HETATM   25  C18 UNL     1     -11.950  52.208  -6.599  1.00  0.00     0.032 C 
HETATM   26  C19 UNL     1     -10.594  53.109  -8.403  1.00  0.00     0.032 C 
ENDBRANCH  18  24
ENDBRANCH   1  14
TORSDOF 3
ENDMDL
MODEL 2
REMARK VINA RESULT: -6.834517629      2.293      6.802
REMARK  3 active torsions:
REMARK  status: ('A' for Active; 'I' for Inactive)
REMARK    1  A    between atoms: C2_2  and  N1_4 
REMARK       I    between atoms: N1_4  and  C4_5 
REMARK    2  A    between atoms: N1_4  and  C17_24 
REMARK       I    between atoms: N3_7  and  C5_9 
REMARK    3  A    between atoms: C5_9  and  C6_11 
ROOT
HETATM    1  C6  UNL     1      -9.211  51.110  -5.358  1.00  0.00     0.045 C 
HETATM    2  C7  UNL     1      -8.379  52.325  -5.038  1.00  0.00     0.024 C 
HETATM    3  C8  UNL     1      -8.034  53.074  -6.318  1.00  0.00    -0.010 C 
HETATM    4  C9  UNL     1      -7.286  52.135  -7.203  1.00  0.00     0.026 C 
HETATM    5  C10 UNL     1      -8.181  50.979  -7.586  1.00  0.00     0.021 C 
HETATM    6 BR1  UNL     1      -7.281  49.850  -8.864  1.00  0.00    -0.085 Br
HETATM    7  C11 UNL     1      -9.446  51.493  -8.235  1.00  0.00     0.045 C 
HETATM    8  C12 UNL     1     -10.196  52.335  -7.223  1.00  0.00     0.052 C 
HETATM    9  C13 UNL     1     -11.437  52.794  -7.875  1.00  0.00     0.069 C 
HETATM   10  N4  UNL     1     -12.404  53.175  -8.388  1.00  0.00    -0.196 NA
HETATM   11  C14 UNL     1      -9.346  53.533  -6.914  1.00  0.00     0.029 C 
HETATM   12  C15 UNL     1     -10.512  51.494  -6.022  1.00  0.00     0.044 C 
HETATM   13  C16 UNL     1      -8.484  50.207  -6.324  1.00  0.00     0.040 C 
ENDROOT
BRANCH   1  14
HETATM   14  C5  UNL     1      -9.446  50.374  -4.077  1.00  0.00     0.233 C 
HETATM   15  N3  UNL     1      -9.971  49.109  -3.991  1.00  0.00    -0.300 N 
HETATM   16  C4  UNL     1      -9.863  48.115  -3.251  1.00  0.00     0.193 C 
ATOM     17  H3  UNL     1     -10.636  48.935  -4.745  1.00  0.00     0.171 HD
HETATM   18  N1  UNL     1      -9.067  47.899  -2.094  1.00  0.00    -0.347 N 
HETATM   19  N2  UNL     1     -10.693  46.977  -3.634  1.00  0.00    -0.063 NA
HETATM   20  O1  UNL     1      -9.132  50.981  -3.024  1.00  0.00    -0.272 OA
BRANCH  18  21
HETATM   21  C2  UNL     1      -7.772  47.299  -2.300  1.00  0.00     0.079 C 
HETATM   22  C1  UNL     1      -7.844  45.917  -2.933  1.00  0.00     0.032 C 
HETATM   23  C3  UNL     1      -6.821  48.133  -3.113  1.00  0.00     0.032 C 
ENDBRANCH  18  21
BRANCH  18  24
HETATM   24  C17 UNL     1      -9.505  48.217  -0.772  1.00  0.00     0.079 C 
HETATM   25  C18 UNL     1      -9.590  47.094   0.196  1.00  0.00     0.032 C 
HETATM   26  C19 UNL     1      -8.675  49.321  -0.135  1.00  0.00     0.032 C 
ENDBRANCH  18  24
ENDBRANCH   1  14
TORSDOF 3
ENDMDL
MODEL 3
REMARK VINA RESULT: -6.678867995      4.372      6.575
REMARK  3 active torsions:
REMARK  status: ('A' for Active; 'I' for Inactive)
REMARK    1  A    between atoms: C2_2  and  N1_4 
REMARK       I    between atoms: N1_4  and  C4_5 
REMARK    2  A    between atoms: N1_4  and  C17_24 
REMARK       I    between atoms: N3_7  and  C5_9 
REMARK    3  A    between atoms: C5_9  and  C6_11 
ROOT
HETATM    1  C6  UNL     1      -8.486  52.556  -5.397  1.00  0.00     0.045 C 
HETATM    2  C7  UNL     1      -9.633  52.034  -4.570  1.00  0.00     0.024 C 
HETATM    3  C8  UNL     1     -10.519  51.130  -5.417  1.00  0.00    -0.010 C 
HETATM    4  C9  UNL     1     -11.017  51.937  -6.568  1.00  0.00     0.026 C 
HETATM    5  C10 UNL     1      -9.851  52.360  -7.432  1.00  0.00     0.021 C 
HETATM    6 BR1  UNL     1     -10.499  53.258  -9.011  1.00  0.00    -0.085 Br
HETATM    7  C11 UNL     1      -9.068  51.148  -7.879  1.00  0.00     0.045 C 
HETATM    8  C12 UNL     1      -8.501  50.464  -6.651  1.00  0.00     0.052 C 
HETATM    9  C13 UNL     1      -7.718  49.307  -7.122  1.00  0.00     0.069 C 
HETATM   10  N4  UNL     1      -7.117  48.384  -7.484  1.00  0.00    -0.196 NA
HETATM   11  C14 UNL     1      -9.659  49.961  -5.840  1.00  0.00     0.029 C 
HETATM   12  C15 UNL     1      -7.623  51.430  -5.912  1.00  0.00     0.044 C 
HETATM   13  C16 UNL     1      -8.998  53.296  -6.609  1.00  0.00     0.040 C 
ENDROOT
BRANCH   1  14
HETATM   14  C5  UNL     1      -7.703  53.499  -4.539  1.00  0.00     0.233 C 
HETATM   15  N3  UNL     1      -6.581  53.155  -3.827  1.00  0.00    -0.300 N 
HETATM   16  C4  UNL     1      -5.524  53.695  -3.457  1.00  0.00     0.193 C 
ATOM     17  H3  UNL     1      -6.628  52.186  -3.514  1.00  0.00     0.171 HD
HETATM   18  N1  UNL     1      -5.033  55.013  -3.659  1.00  0.00    -0.347 N 
HETATM   19  N2  UNL     1      -4.636  52.831  -2.687  1.00  0.00    -0.063 NA
HETATM   20  O1  UNL     1      -8.127  54.679  -4.485  1.00  0.00    -0.272 OA
BRANCH  18  21
HETATM   21  C2  UNL     1      -4.186  55.221  -4.807  1.00  0.00     0.079 C 
HETATM   22  C1  UNL     1      -2.712  55.348  -4.452  1.00  0.00     0.032 C 
HETATM   23  C3  UNL     1      -4.315  54.172  -5.877  1.00  0.00     0.032 C 
ENDBRANCH  18  21
BRANCH  18  24
HETATM   24  C17 UNL     1      -5.314  56.097  -2.773  1.00  0.00     0.079 C 
HETATM   25  C18 UNL     1      -5.768  57.370  -3.391  1.00  0.00     0.032 C 
HETATM   26  C19 UNL     1      -6.317  55.719  -1.693  1.00  0.00     0.032 C 
ENDBRANCH  18  24
ENDBRANCH   1  14
TORSDOF 3
ENDMDL
MODEL 4
REMARK VINA RESULT: -6.631125173      4.552      7.030
REMARK  3 active torsions:
REMARK  status: ('A' for Active; 'I' for Inactive)
REMARK    1  A    between atoms: C2_2  and  N1_4 
REMARK       I    between atoms: N1_4  and  C4_5 
REMARK    2  A    between atoms: N1_4  and  C17_24 
REMARK       I    between atoms: N3_7  and  C5_9 
REMARK    3  A    between atoms: C5_9  and  C6_11 
ROOT
HETATM    1  C6  UNL     1      -8.445  50.443  -6.808  1.00  0.00     0.045 C 
HETATM    2  C7  UNL     1      -9.612  49.985  -5.971  1.00  0.00     0.024 C 
HETATM    3  C8  UNL     1     -10.500  51.171  -5.620  1.00  0.00    -0.010 C 
HETATM    4  C9  UNL     1      -9.664  52.156  -4.874  1.00  0.00     0.026 C 
HETATM    5  C10 UNL     1      -8.564  52.670  -5.774  1.00  0.00     0.021 C 
HETATM    6 BR1  UNL     1      -7.583  54.066  -4.876  1.00  0.00    -0.085 Br
HETATM    7  C11 UNL     1      -9.154  53.258  -7.034  1.00  0.00     0.045 C 
HETATM    8  C12 UNL     1      -9.879  52.159  -7.783  1.00  0.00     0.052 C 
HETATM    9  C13 UNL     1     -10.415  52.756  -9.020  1.00  0.00     0.069 C 
HETATM   10  N4  UNL     1     -10.856  53.225  -9.984  1.00  0.00    -0.196 NA
HETATM   11  C14 UNL     1     -11.030  51.714  -6.929  1.00  0.00     0.029 C 
HETATM   12  C15 UNL     1      -8.908  51.062  -8.105  1.00  0.00     0.044 C 
HETATM   13  C16 UNL     1      -7.654  51.505  -6.083  1.00  0.00     0.040 C 
ENDROOT
BRANCH   1  14
HETATM   14  C5  UNL     1      -7.569  49.255  -7.050  1.00  0.00     0.233 C 
HETATM   15  N3  UNL     1      -7.673  48.417  -8.132  1.00  0.00    -0.300 N 
HETATM   16  C4  UNL     1      -6.918  47.725  -8.837  1.00  0.00     0.193 C 
ATOM     17  H3  UNL     1      -8.641  48.341  -8.446  1.00  0.00     0.171 HD
HETATM   18  N1  UNL     1      -5.512  47.525  -8.775  1.00  0.00    -0.347 N 
HETATM   19  N2  UNL     1      -7.585  46.995  -9.909  1.00  0.00    -0.063 NA
HETATM   20  O1  UNL     1      -6.687  49.033  -6.184  1.00  0.00    -0.272 OA
BRANCH  18  21
HETATM   21  C2  UNL     1      -4.697  48.397  -9.585  1.00  0.00     0.079 C 
HETATM   22  C1  UNL     1      -4.586  47.942 -11.033  1.00  0.00     0.032 C 
HETATM   23  C3  UNL     1      -5.131  49.836  -9.584  1.00  0.00     0.032 C 
ENDBRANCH  18  21
BRANCH  18  24
HETATM   24  C17 UNL     1      -4.901  46.502  -7.988  1.00  0.00     0.079 C 
HETATM   25  C18 UNL     1      -3.738  46.900  -7.154  1.00  0.00     0.032 C 
HETATM   26  C19 UNL     1      -5.898  45.788  -7.089  1.00  0.00     0.032 C 
ENDBRANCH  18  24
ENDBRANCH   1  14
TORSDOF 3
ENDMDL
MODEL 5
REMARK VINA RESULT: -6.611132636      4.437      6.930
REMARK  3 active torsions:
REMARK  status: ('A' for Active; 'I' for Inactive)
REMARK    1  A    between atoms: C2_2  and  N1_4 
REMARK       I    between atoms: N1_4  and  C4_5 
REMARK    2  A    between atoms: N1_4  and  C17_24 
REMARK       I    between atoms: N3_7  and  C5_9 
REMARK    3  A    between atoms: C5_9  and  C6_11 
ROOT
HETATM    1  C6  UNL     1      -7.972  52.817  -5.782  1.00  0.00     0.045 C 
HETATM    2  C7  UNL     1      -8.922  52.566  -4.640  1.00  0.00     0.024 C 
HETATM    3  C8  UNL     1     -10.057  51.657  -5.095  1.00  0.00    -0.010 C 
HETATM    4  C9  UNL     1     -10.752  52.335  -6.226  1.00  0.00     0.026 C 
HETATM    5  C10 UNL     1      -9.800  52.482  -7.391  1.00  0.00     0.021 C 
HETATM    6 BR1  UNL     1     -10.736  53.203  -8.915  1.00  0.00    -0.085 Br
HETATM    7  C11 UNL     1      -9.248  51.132  -7.785  1.00  0.00     0.045 C 
HETATM    8  C12 UNL     1      -8.457  50.578  -6.617  1.00  0.00     0.052 C 
HETATM    9  C13 UNL     1      -7.907  49.278  -7.043  1.00  0.00     0.069 C 
HETATM   10  N4  UNL     1      -7.488  48.246  -7.365  1.00  0.00    -0.196 NA
HETATM   11  C14 UNL     1      -9.422  50.343  -5.491  1.00  0.00     0.029 C 
HETATM   12  C15 UNL     1      -7.352  51.532  -6.275  1.00  0.00     0.044 C 
HETATM   13  C16 UNL     1      -8.700  53.422  -6.958  1.00  0.00     0.040 C 
ENDROOT
BRANCH   1  14
HETATM   14  C5  UNL     1      -6.932  53.778  -5.301  1.00  0.00     0.233 C 
HETATM   15  N3  UNL     1      -7.107  54.662  -4.265  1.00  0.00    -0.300 N 
HETATM   16  C4  UNL     1      -6.415  55.188  -3.376  1.00  0.00     0.193 C 
ATOM     17  H3  UNL     1      -8.076  54.974  -4.209  1.00  0.00     0.171 HD
HETATM   18  N1  UNL     1      -5.034  55.053  -3.070  1.00  0.00    -0.347 N 
HETATM   19  N2  UNL     1      -7.142  56.098  -2.497  1.00  0.00    -0.063 NA
HETATM   20  O1  UNL     1      -5.832  53.752  -5.906  1.00  0.00    -0.272 OA
BRANCH  18  21
HETATM   21  C2  UNL     1      -4.680  54.051  -2.096  1.00  0.00     0.079 C 
HETATM   22  C1  UNL     1      -4.729  54.561  -0.663  1.00  0.00     0.032 C 
HETATM   23  C3  UNL     1      -5.502  52.794  -2.167  1.00  0.00     0.032 C 
ENDBRANCH  18  21
BRANCH  18  24
HETATM   24  C17 UNL     1      -4.019  55.872  -3.654  1.00  0.00     0.079 C 
HETATM   25  C18 UNL     1      -3.751  57.179  -3.000  1.00  0.00     0.032 C 
HETATM   26  C19 UNL     1      -2.693  55.140  -3.794  1.00  0.00     0.032 C 
ENDBRANCH  18  24
ENDBRANCH   1  14
TORSDOF 3
ENDMDL
