MODEL 1
REMARK VINA RESULT: -7.188607900      0.000      0.000
REMARK  3 active torsions:
REMARK  status: ('A' for Active; 'I' for Inactive)
REMARK       I    between atoms: N1_2  and  C2_3 
REMARK    1  A    between atoms: N1_2  and  C20_27 
REMARK    2  A    between atoms: C2_3  and  C3_5 
REMARK       I    between atoms: N2_9  and  C7_10 
REMARK       I    between atoms: C7_10  and  N3_12 
REMARK    3  A    between atoms: N3_12  and  C8_14 
ROOT
HETATM    1  C3  UNL     1      -9.049  51.018  -7.672  1.00  0.00     0.181 C 
HETATM    2  C4  UNL     1      -9.708  51.736  -8.808  1.00  0.00     0.037 C 
HETATM    3  C5  UNL     1     -10.069  53.101  -8.235  1.00  0.00     0.022 C 
HETATM    4  C6  UNL     1      -9.987  52.950  -6.742  1.00  0.00     0.129 C 
HETATM    5  N2  UNL     1      -9.585  51.606  -6.449  1.00  0.00    -0.321 N 
HETATM    6  C7  UNL     1      -9.688  50.960  -5.182  1.00  0.00     0.319 C 
HETATM    7  O2  UNL     1     -10.175  51.597  -4.222  1.00  0.00    -0.247 OA
HETATM    8  N3  UNL     1      -9.261  49.627  -4.967  1.00  0.00    -0.335 N 
ATOM      9  H3  UNL     1      -8.861  49.093  -5.738  1.00  0.00     0.164 HD
ENDROOT
BRANCH   8  10
HETATM   10  C8  UNL     1      -9.385  49.014  -3.659  1.00  0.00     0.130 C 
HETATM   11  C9  UNL     1      -9.980  47.649  -3.869  1.00  0.00     0.012 C 
HETATM   12  C10 UNL     1     -10.593  47.045  -2.664  1.00  0.00     0.011 C 
HETATM   13  C19 UNL     1      -8.981  46.682  -4.482  1.00  0.00     0.011 C 
HETATM   14  C11 UNL     1      -9.678  46.477  -1.653  1.00  0.00    -0.014 C 
HETATM   15  C12 UNL     1      -9.366  47.353  -0.488  1.00  0.00     0.005 C 
HETATM   16  C18 UNL     1      -8.391  45.909  -2.182  1.00  0.00     0.009 C 
HETATM   17  C13 UNL     1      -9.305  48.818  -0.748  1.00  0.00     0.004 C 
HETATM   18  C14 UNL     1      -8.126  49.306  -1.500  1.00  0.00     0.045 C 
HETATM   19  C15 UNL     1      -8.064  49.027  -2.955  1.00  0.00     0.124 C 
HETATM   20  F1  UNL     1      -7.347  50.104  -3.521  1.00  0.00    -0.241 F 
HETATM   21  C16 UNL     1      -7.196  47.835  -3.191  1.00  0.00     0.050 C 
HETATM   22  C17 UNL     1      -7.889  46.547  -3.421  1.00  0.00    -0.011 C 
ENDBRANCH   8  10
BRANCH   1  23
HETATM   23  C2  UNL     1      -7.563  51.125  -7.697  1.00  0.00     0.242 C 
HETATM   24  N1  UNL     1      -6.714  50.159  -8.275  1.00  0.00    -0.350 N 
HETATM   25  C1  UNL     1      -5.285  50.376  -8.264  1.00  0.00     0.153 C 
HETATM   26  O1  UNL     1      -7.022  52.150  -7.165  1.00  0.00    -0.271 OA
BRANCH  24  27
HETATM   27  C20 UNL     1      -7.262  48.974  -8.849  1.00  0.00     0.086 C 
HETATM   28  C21 UNL     1      -6.312  48.166  -9.742  1.00  0.00     0.025 C 
HETATM   29  C22 UNL     1      -7.049  46.924  -9.216  1.00  0.00     0.004 C 
HETATM   30  C23 UNL     1      -7.261  47.739  -7.932  1.00  0.00     0.025 C 
ENDBRANCH  24  27
ENDBRANCH   1  23
TORSDOF 3
ENDMDL
MODEL 2
REMARK VINA RESULT: -7.134944195      2.310      6.822
REMARK  3 active torsions:
REMARK  status: ('A' for Active; 'I' for Inactive)
REMARK       I    between atoms: N1_2  and  C2_3 
REMARK    1  A    between atoms: N1_2  and  C20_27 
REMARK    2  A    between atoms: C2_3  and  C3_5 
REMARK       I    between atoms: N2_9  and  C7_10 
REMARK       I    between atoms: C7_10  and  N3_12 
REMARK    3  A    between atoms: N3_12  and  C8_14 
ROOT
HETATM    1  C3  UNL     1      -8.866  48.831  -1.733  1.00  0.00     0.181 C 
HETATM    2  C4  UNL     1      -9.432  48.153  -0.525  1.00  0.00     0.037 C 
HETATM    3  C5  UNL     1      -9.765  46.745  -1.003  1.00  0.00     0.022 C 
HETATM    4  C6  UNL     1      -9.771  46.816  -2.504  1.00  0.00     0.129 C 
HETATM    5  N2  UNL     1      -9.442  48.156  -2.890  1.00  0.00    -0.321 N 
HETATM    6  C7  UNL     1      -9.641  48.726  -4.182  1.00  0.00     0.319 C 
HETATM    7  O2  UNL     1     -10.152  48.018  -5.078  1.00  0.00    -0.247 OA
HETATM    8  N3  UNL     1      -9.282  50.061  -4.492  1.00  0.00    -0.335 N 
ATOM      9  H3  UNL     1      -8.864  50.652  -3.774  1.00  0.00     0.164 HD
ENDROOT
BRANCH   8  10
HETATM   10  C8  UNL     1      -9.503  50.595  -5.822  1.00  0.00     0.130 C 
HETATM   11  C9  UNL     1     -10.478  51.730  -5.682  1.00  0.00     0.012 C 
HETATM   12  C10 UNL     1     -11.168  52.115  -6.934  1.00  0.00     0.011 C 
HETATM   13  C19 UNL     1      -9.839  52.954  -5.046  1.00  0.00     0.011 C 
HETATM   14  C11 UNL     1     -10.401  52.912  -7.912  1.00  0.00    -0.014 C 
HETATM   15  C12 UNL     1      -9.781  52.150  -9.033  1.00  0.00     0.005 C 
HETATM   16  C18 UNL     1      -9.365  53.836  -7.334  1.00  0.00     0.009 C 
HETATM   17  C13 UNL     1      -9.314  50.769  -8.729  1.00  0.00     0.004 C 
HETATM   18  C14 UNL     1      -8.090  50.655  -7.903  1.00  0.00     0.045 C 
HETATM   19  C15 UNL     1      -8.195  50.958  -6.455  1.00  0.00     0.124 C 
HETATM   20  F1  UNL     1      -7.231  50.142  -5.823  1.00  0.00    -0.241 F 
HETATM   21  C16 UNL     1      -7.725  52.353  -6.210  1.00  0.00     0.050 C 
HETATM   22  C17 UNL     1      -8.773  53.387  -6.052  1.00  0.00    -0.011 C 
ENDBRANCH   8  10
BRANCH   1  23
HETATM   23  C2  UNL     1      -7.378  48.784  -1.785  1.00  0.00     0.242 C 
HETATM   24  N1  UNL     1      -6.565  49.898  -2.079  1.00  0.00    -0.350 N 
HETATM   25  C1  UNL     1      -5.127  49.744  -2.080  1.00  0.00     0.153 C 
HETATM   26  O1  UNL     1      -6.800  47.671  -1.551  1.00  0.00    -0.271 OA
BRANCH  24  27
HETATM   27  C20 UNL     1      -7.158  51.157  -2.388  1.00  0.00     0.086 C 
HETATM   28  C21 UNL     1      -7.309  52.130  -1.211  1.00  0.00     0.025 C 
HETATM   29  C22 UNL     1      -7.060  53.243  -2.241  1.00  0.00     0.004 C 
HETATM   30  C23 UNL     1      -6.201  52.206  -2.980  1.00  0.00     0.025 C 
ENDBRANCH  24  27
ENDBRANCH   1  23
TORSDOF 3
ENDMDL
MODEL 3
REMARK VINA RESULT: -7.102564482      2.229      3.894
REMARK  3 active torsions:
REMARK  status: ('A' for Active; 'I' for Inactive)
REMARK       I    between atoms: N1_2  and  C2_3 
REMARK    1  A    between atoms: N1_2  and  C20_27 
REMARK    2  A    between atoms: C2_3  and  C3_5 
REMARK       I    between atoms: N2_9  and  C7_10 
REMARK       I    between atoms: C7_10  and  N3_12 
REMARK    3  A    between atoms: N3_12  and  C8_14 
ROOT
HETATM    1  C3  UNL     1      -7.576  52.249  -5.966  1.00  0.00     0.181 C 
HETATM    2  C4  UNL     1      -7.126  53.659  -6.184  1.00  0.00     0.037 C 
HETATM    3  C5  UNL     1      -5.609  53.562  -6.277  1.00  0.00     0.022 C 
HETATM    4  C6  UNL     1      -5.251  52.218  -5.705  1.00  0.00     0.129 C 
HETATM    5  N2  UNL     1      -6.464  51.557  -5.324  1.00  0.00    -0.321 N 
HETATM    6  C7  UNL     1      -6.563  50.420  -4.470  1.00  0.00     0.319 C 
HETATM    7  O2  UNL     1      -5.513  49.937  -3.990  1.00  0.00    -0.247 OA
HETATM    8  N3  UNL     1      -7.801  49.814  -4.143  1.00  0.00    -0.335 N 
ATOM      9  H3  UNL     1      -8.666  50.194  -4.526  1.00  0.00     0.164 HD
ENDROOT
BRANCH   8  10
HETATM   10  C8  UNL     1      -7.850  48.657  -3.270  1.00  0.00     0.130 C 
HETATM   11  C9  UNL     1      -8.199  49.159  -1.897  1.00  0.00     0.012 C 
HETATM   12  C10 UNL     1      -7.869  48.230  -0.792  1.00  0.00     0.011 C 
HETATM   13  C19 UNL     1      -9.655  49.583  -1.799  1.00  0.00     0.011 C 
HETATM   14  C11 UNL     1      -8.769  47.078  -0.586  1.00  0.00    -0.014 C 
HETATM   15  C12 UNL     1      -8.327  45.787  -1.187  1.00  0.00     0.005 C 
HETATM   16  C18 UNL     1     -10.211  47.302  -0.947  1.00  0.00     0.009 C 
HETATM   17  C13 UNL     1      -7.567  45.867  -2.465  1.00  0.00     0.004 C 
HETATM   18  C14 UNL     1      -8.346  46.224  -3.673  1.00  0.00     0.045 C 
HETATM   19  C15 UNL     1      -8.788  47.632  -3.826  1.00  0.00     0.124 C 
HETATM   20  F1  UNL     1      -8.826  47.870  -5.218  1.00  0.00    -0.241 F 
HETATM   21  C16 UNL     1     -10.210  47.751  -3.387  1.00  0.00     0.050 C 
HETATM   22  C17 UNL     1     -10.439  48.291  -2.027  1.00  0.00    -0.011 C 
ENDBRANCH   8  10
BRANCH   1  23
HETATM   23  C2  UNL     1      -7.965  51.558  -7.227  1.00  0.00     0.242 C 
HETATM   24  N1  UNL     1      -9.247  51.641  -7.808  1.00  0.00    -0.350 N 
HETATM   25  C1  UNL     1      -9.508  50.947  -9.049  1.00  0.00     0.153 C 
HETATM   26  O1  UNL     1      -7.088  50.848  -7.822  1.00  0.00    -0.271 OA
BRANCH  24  27
HETATM   27  C20 UNL     1     -10.278  52.387  -7.166  1.00  0.00     0.086 C 
HETATM   28  C21 UNL     1     -11.566  52.580  -7.978  1.00  0.00     0.025 C 
HETATM   29  C22 UNL     1     -12.297  52.516  -6.628  1.00  0.00     0.004 C 
HETATM   30  C23 UNL     1     -11.155  51.589  -6.187  1.00  0.00     0.025 C 
ENDBRANCH  24  27
ENDBRANCH   1  23
TORSDOF 3
ENDMDL
MODEL 4
REMARK VINA RESULT: -7.083803369      1.832      4.178
REMARK  3 active torsions:
REMARK  status: ('A' for Active; 'I' for Inactive)
REMARK       I    between atoms: N1_2  and  C2_3 
REMARK    1  A    between atoms: N1_2  and  C20_27 
REMARK    2  A    between atoms: C2_3  and  C3_5 
REMARK       I    between atoms: N2_9  and  C7_10 
REMARK       I    between atoms: C7_10  and  N3_12 
REMARK    3  A    between atoms: N3_12  and  C8_14 
ROOT
HETATM    1  C3  UNL     1      -6.646  49.984  -7.687  1.00  0.00     0.181 C 
HETATM    2  C4  UNL     1      -5.497  50.160  -8.630  1.00  0.00     0.037 C 
HETATM    3  C5  UNL     1      -5.343  48.799  -9.297  1.00  0.00     0.022 C 
HETATM    4  C6  UNL     1      -6.102  47.833  -8.431  1.00  0.00     0.129 C 
HETATM    5  N2  UNL     1      -6.683  48.566  -7.346  1.00  0.00    -0.321 N 
HETATM    6  C7  UNL     1      -7.208  48.006  -6.145  1.00  0.00     0.319 C 
HETATM    7  O2  UNL     1      -7.167  46.764  -5.994  1.00  0.00    -0.247 OA
HETATM    8  N3  UNL     1      -7.777  48.797  -5.116  1.00  0.00    -0.335 N 
ATOM      9  H3  UNL     1      -7.819  49.810  -5.223  1.00  0.00     0.164 HD
ENDROOT
BRANCH   8  10
HETATM   10  C8  UNL     1      -8.300  48.179  -3.913  1.00  0.00     0.130 C 
HETATM   11  C9  UNL     1      -7.341  48.503  -2.802  1.00  0.00     0.012 C 
HETATM   12  C10 UNL     1      -7.441  47.622  -1.616  1.00  0.00     0.011 C 
HETATM   13  C19 UNL     1      -7.437  49.958  -2.374  1.00  0.00     0.011 C 
HETATM   14  C11 UNL     1      -8.570  47.855  -0.693  1.00  0.00    -0.014 C 
HETATM   15  C12 UNL     1      -9.756  46.971  -0.875  1.00  0.00     0.005 C 
HETATM   16  C18 UNL     1      -9.046  49.277  -0.589  1.00  0.00     0.009 C 
HETATM   17  C13 UNL     1     -10.063  46.537  -2.267  1.00  0.00     0.004 C 
HETATM   18  C14 UNL     1     -10.624  47.568  -3.170  1.00  0.00     0.045 C 
HETATM   19  C15 UNL     1      -9.711  48.620  -3.679  1.00  0.00     0.124 C 
HETATM   20  F1  UNL     1     -10.211  48.975  -4.952  1.00  0.00    -0.241 F 
HETATM   21  C16 UNL     1      -9.875  49.854  -2.855  1.00  0.00     0.050 C 
HETATM   22  C17 UNL     1      -8.852  50.092  -1.811  1.00  0.00    -0.011 C 
ENDBRANCH   8  10
BRANCH   1  23
HETATM   23  C2  UNL     1      -7.948  50.418  -8.266  1.00  0.00     0.242 C 
HETATM   24  N1  UNL     1      -8.742  51.453  -7.731  1.00  0.00    -0.350 N 
HETATM   25  C1  UNL     1      -9.979  51.808  -8.390  1.00  0.00     0.153 C 
HETATM   26  O1  UNL     1      -8.375  49.820  -9.309  1.00  0.00    -0.271 OA
BRANCH  24  27
HETATM   27  C20 UNL     1      -8.334  52.129  -6.545  1.00  0.00     0.086 C 
HETATM   28  C21 UNL     1      -8.375  53.662  -6.604  1.00  0.00     0.025 C 
HETATM   29  C22 UNL     1      -8.750  53.601  -5.115  1.00  0.00     0.004 C 
HETATM   30  C23 UNL     1      -9.415  52.260  -5.458  1.00  0.00     0.025 C 
ENDBRANCH  24  27
ENDBRANCH   1  23
TORSDOF 3
ENDMDL
MODEL 5
REMARK VINA RESULT: -7.037545593      5.007      7.718
REMARK  3 active torsions:
REMARK  status: ('A' for Active; 'I' for Inactive)
REMARK       I    between atoms: N1_2  and  C2_3 
REMARK    1  A    between atoms: N1_2  and  C20_27 
REMARK    2  A    between atoms: C2_3  and  C3_5 
REMARK       I    between atoms: N2_9  and  C7_10 
REMARK       I    between atoms: C7_10  and  N3_12 
REMARK    3  A    between atoms: N3_12  and  C8_14 
ROOT
HETATM    1  C3  UNL     1      -3.525  55.125  -4.453  1.00  0.00     0.181 C 
HETATM    2  C4  UNL     1      -2.147  55.043  -3.877  1.00  0.00     0.037 C 
HETATM    3  C5  UNL     1      -1.243  54.840  -5.086  1.00  0.00     0.022 C 
HETATM    4  C6  UNL     1      -2.149  54.407  -6.204  1.00  0.00     0.129 C 
HETATM    5  N2  UNL     1      -3.492  54.378  -5.705  1.00  0.00    -0.321 N 
HETATM    6  C7  UNL     1      -4.601  53.734  -6.328  1.00  0.00     0.319 C 
HETATM    7  O2  UNL     1      -4.414  53.125  -7.406  1.00  0.00    -0.247 OA
HETATM    8  N3  UNL     1      -5.906  53.755  -5.778  1.00  0.00    -0.335 N 
ATOM      9  H3  UNL     1      -6.076  54.246  -4.901  1.00  0.00     0.164 HD
ENDROOT
BRANCH   8  10
HETATM   10  C8  UNL     1      -7.002  53.085  -6.451  1.00  0.00     0.130 C 
HETATM   11  C9  UNL     1      -6.675  51.619  -6.468  1.00  0.00     0.012 C 
HETATM   12  C10 UNL     1      -7.420  50.826  -7.473  1.00  0.00     0.011 C 
HETATM   13  C19 UNL     1      -6.826  50.985  -5.095  1.00  0.00     0.011 C 
HETATM   14  C11 UNL     1      -8.826  50.496  -7.166  1.00  0.00    -0.014 C 
HETATM   15  C12 UNL     1      -9.855  51.382  -7.781  1.00  0.00     0.005 C 
HETATM   16  C18 UNL     1      -9.154  50.323  -5.709  1.00  0.00     0.009 C 
HETATM   17  C13 UNL     1      -9.490  52.816  -7.952  1.00  0.00     0.004 C 
HETATM   18  C14 UNL     1      -9.442  53.636  -6.719  1.00  0.00     0.045 C 
HETATM   19  C15 UNL     1      -8.301  53.436  -5.794  1.00  0.00     0.124 C 
HETATM   20  F1  UNL     1      -8.085  54.689  -5.178  1.00  0.00    -0.241 F 
HETATM   21  C16 UNL     1      -8.723  52.538  -4.678  1.00  0.00     0.050 C 
HETATM   22  C17 UNL     1      -8.316  51.118  -4.781  1.00  0.00    -0.011 C 
ENDBRANCH   8  10
BRANCH   1  23
HETATM   23  C2  UNL     1      -3.976  56.525  -4.690  1.00  0.00     0.242 C 
HETATM   24  N1  UNL     1      -4.747  57.270  -3.774  1.00  0.00    -0.350 N 
HETATM   25  C1  UNL     1      -5.109  58.632  -4.098  1.00  0.00     0.153 C 
HETATM   26  O1  UNL     1      -3.647  57.088  -5.787  1.00  0.00    -0.271 OA
BRANCH  24  27
HETATM   27  C20 UNL     1      -5.176  56.679  -2.551  1.00  0.00     0.086 C 
HETATM   28  C21 UNL     1      -5.739  57.649  -1.503  1.00  0.00     0.025 C 
HETATM   29  C22 UNL     1      -6.677  56.499  -1.103  1.00  0.00     0.004 C 
HETATM   30  C23 UNL     1      -6.588  56.070  -2.575  1.00  0.00     0.025 C 
ENDBRANCH  24  27
ENDBRANCH   1  23
TORSDOF 3
ENDMDL
