MODEL 1
REMARK VINA RESULT: -7.571857850      0.000      0.000
REMARK  7 active torsions:
REMARK  status: ('A' for Active; 'I' for Inactive)
REMARK    1  A    between atoms: C2_2  and  C3_3 
REMARK    2  A    between atoms: C3_3  and  C4_4 
REMARK    3  A    between atoms: C4_4  and  C5_5 
REMARK    4  A    between atoms: C12_15  and  C13_16 
REMARK    5  A    between atoms: C13_16  and  C14_17 
REMARK    6  A    between atoms: C14_17  and  C15_18 
REMARK    7  A    between atoms: C15_18  and  N2_19 
ROOT
HETATM    1  C5  UNL     1      50.985   5.773  61.474  1.00  0.00     0.146 A 
HETATM    2  N1  UNL     1      50.260   4.583  61.658  1.00  0.00    -0.378 N 
ATOM      3  H1  UNL     1      50.440   4.194  62.584  1.00  0.00     0.160 HD
HETATM    4  C6  UNL     1      49.449   3.847  61.016  1.00  0.00     0.041 A 
HETATM    5  C7  UNL     1      49.041   2.744  61.737  1.00  0.00     0.031 A 
HETATM    6  C8  UNL     1      48.161   1.874  61.150  1.00  0.00     0.021 A 
HETATM    7  C9  UNL     1      47.672   2.057  59.876  1.00  0.00     0.011 A 
HETATM    8 BR1  UNL     1      46.446   0.837  59.069  1.00  0.00    -0.051 Br
HETATM    9  C10 UNL     1      48.124   3.194  59.198  1.00  0.00     0.034 A 
HETATM   10  C11 UNL     1      48.991   4.088  59.727  1.00  0.00     0.014 A 
HETATM   11  C12 UNL     1      49.277   5.067  58.857  1.00  0.00     0.023 A 
HETATM   12  N5  UNL     1      50.225   6.081  59.166  1.00  0.00    -0.349 N 
ATOM     13  H5  UNL     1      50.377   6.704  58.374  1.00  0.00     0.166 HD
HETATM   14  C17 UNL     1      50.931   6.418  60.164  1.00  0.00     0.116 A 
HETATM   15  N6  UNL     1      51.792   7.574  60.010  1.00  0.00    -0.085 NA
ENDROOT
BRANCH  11  16
HETATM   16  C13 UNL     1      48.642   5.089  57.546  1.00  0.00     0.059 C 
BRANCH  16  17
HETATM   17  C14 UNL     1      49.122   6.131  56.584  1.00  0.00     0.026 C 
BRANCH  17  18
HETATM   18  C15 UNL     1      48.296   7.370  56.492  1.00  0.00     0.122 C 
BRANCH  18  19
HETATM   19  N2  UNL     1      48.641   8.297  57.546  1.00  0.00    -0.367 N 
HETATM   20  C16 UNL     1      48.129   9.475  57.556  1.00  0.00     0.196 C 
HETATM   21  N3  UNL     1      48.447  10.411  58.576  1.00  0.00    -0.067 NA
HETATM   22  N4  UNL     1      47.233   9.846  56.533  1.00  0.00    -0.067 NA
ATOM     23  H2  UNL     1      49.291   8.016  58.281  1.00  0.00     0.161 HD
ENDBRANCH  18  19
ENDBRANCH  17  18
ENDBRANCH  16  17
ENDBRANCH  11  16
BRANCH   1  24
HETATM   24  C4  UNL     1      50.671   6.829  62.530  1.00  0.00     0.033 C 
BRANCH  24  25
HETATM   25  C3  UNL     1      49.893   6.300  63.685  1.00  0.00     0.002 C 
BRANCH  25  26
HETATM   26  C2  UNL     1      49.592   7.328  64.725  1.00  0.00    -0.004 C 
HETATM   27  C1  UNL     1      48.391   8.156  64.263  1.00  0.00     0.005 C 
ENDBRANCH  25  26
ENDBRANCH  24  25
ENDBRANCH   1  24
TORSDOF 7
ENDMDL
MODEL 2
REMARK VINA RESULT: -7.399560131      1.308      1.741
REMARK  7 active torsions:
REMARK  status: ('A' for Active; 'I' for Inactive)
REMARK    1  A    between atoms: C2_2  and  C3_3 
REMARK    2  A    between atoms: C3_3  and  C4_4 
REMARK    3  A    between atoms: C4_4  and  C5_5 
REMARK    4  A    between atoms: C12_15  and  C13_16 
REMARK    5  A    between atoms: C13_16  and  C14_17 
REMARK    6  A    between atoms: C14_17  and  C15_18 
REMARK    7  A    between atoms: C15_18  and  N2_19 
ROOT
HETATM    1  C5  UNL     1      50.954   6.091  61.469  1.00  0.00     0.146 A 
HETATM    2  N1  UNL     1      50.282   4.868  61.638  1.00  0.00    -0.378 N 
ATOM      3  H1  UNL     1      50.482   4.476  62.559  1.00  0.00     0.160 HD
HETATM    4  C6  UNL     1      49.502   4.106  60.989  1.00  0.00     0.041 A 
HETATM    5  C7  UNL     1      49.145   2.977  61.696  1.00  0.00     0.031 A 
HETATM    6  C8  UNL     1      48.302   2.077  61.099  1.00  0.00     0.021 A 
HETATM    7  C9  UNL     1      47.803   2.256  59.828  1.00  0.00     0.011 A 
HETATM    8 BR1  UNL     1      46.629   0.993  59.008  1.00  0.00    -0.051 Br
HETATM    9  C10 UNL     1      48.202   3.419  59.165  1.00  0.00     0.034 A 
HETATM   10  C11 UNL     1      49.032   4.344  59.703  1.00  0.00     0.014 A 
HETATM   11  C12 UNL     1      49.272   5.346  58.846  1.00  0.00     0.023 A 
HETATM   12  N5  UNL     1      50.175   6.396  59.167  1.00  0.00    -0.349 N 
ATOM     13  H5  UNL     1      50.298   7.036  58.383  1.00  0.00     0.166 HD
HETATM   14  C17 UNL     1      50.869   6.750  60.167  1.00  0.00     0.116 A 
HETATM   15  N6  UNL     1      51.679   7.945  60.027  1.00  0.00    -0.085 NA
ENDROOT
BRANCH  11  16
HETATM   16  C13 UNL     1      48.633   5.357  57.537  1.00  0.00     0.059 C 
BRANCH  16  17
HETATM   17  C14 UNL     1      49.344   6.101  56.449  1.00  0.00     0.026 C 
BRANCH  17  18
HETATM   18  C15 UNL     1      48.676   7.342  55.958  1.00  0.00     0.122 C 
BRANCH  18  19
HETATM   19  N2  UNL     1      48.268   7.194  54.579  1.00  0.00    -0.367 N 
HETATM   20  C16 UNL     1      47.537   8.095  54.027  1.00  0.00     0.196 C 
HETATM   21  N3  UNL     1      47.118   7.981  52.675  1.00  0.00    -0.067 NA
HETATM   22  N4  UNL     1      47.144   9.220  54.780  1.00  0.00    -0.067 NA
ATOM     23  H2  UNL     1      48.559   6.375  54.045  1.00  0.00     0.161 HD
ENDBRANCH  18  19
ENDBRANCH  17  18
ENDBRANCH  16  17
ENDBRANCH  11  16
BRANCH   1  24
HETATM   24  C4  UNL     1      50.597   7.118  62.539  1.00  0.00     0.033 C 
BRANCH  24  25
HETATM   25  C3  UNL     1      49.891   6.531  63.712  1.00  0.00     0.002 C 
BRANCH  25  26
HETATM   26  C2  UNL     1      49.509   7.539  64.746  1.00  0.00    -0.004 C 
HETATM   27  C1  UNL     1      48.362   8.392  64.200  1.00  0.00     0.005 C 
ENDBRANCH  25  26
ENDBRANCH  24  25
ENDBRANCH   1  24
TORSDOF 7
ENDMDL
MODEL 3
REMARK VINA RESULT: -7.177015583      4.464      7.075
REMARK  7 active torsions:
REMARK  status: ('A' for Active; 'I' for Inactive)
REMARK    1  A    between atoms: C2_2  and  C3_3 
REMARK    2  A    between atoms: C3_3  and  C4_4 
REMARK    3  A    between atoms: C4_4  and  C5_5 
REMARK    4  A    between atoms: C12_15  and  C13_16 
REMARK    5  A    between atoms: C13_16  and  C14_17 
REMARK    6  A    between atoms: C14_17  and  C15_18 
REMARK    7  A    between atoms: C15_18  and  N2_19 
ROOT
HETATM    1  C5  UNL     1      50.720   6.452  55.489  1.00  0.00     0.146 A 
HETATM    2  N1  UNL     1      49.790   6.033  56.456  1.00  0.00    -0.378 N 
ATOM      3  H1  UNL     1      49.316   6.838  56.866  1.00  0.00     0.160 HD
HETATM    4  C6  UNL     1      49.365   4.955  56.972  1.00  0.00     0.041 A 
HETATM    5  C7  UNL     1      48.394   5.165  57.929  1.00  0.00     0.031 A 
HETATM    6  C8  UNL     1      47.854   4.074  58.556  1.00  0.00     0.021 A 
HETATM    7  C9  UNL     1      48.242   2.784  58.271  1.00  0.00     0.011 A 
HETATM    8 BR1  UNL     1      47.482   1.271  59.153  1.00  0.00    -0.051 Br
HETATM    9  C10 UNL     1      49.230   2.638  57.292  1.00  0.00     0.034 A 
HETATM   10  C11 UNL     1      49.799   3.678  56.638  1.00  0.00     0.014 A 
HETATM   11  C12 UNL     1      50.733   3.260  55.772  1.00  0.00     0.023 A 
HETATM   12  N5  UNL     1      51.517   4.183  55.026  1.00  0.00    -0.349 N 
ATOM     13  H5  UNL     1      52.227   3.705  54.470  1.00  0.00     0.166 HD
HETATM   14  C17 UNL     1      51.571   5.439  54.866  1.00  0.00     0.116 A 
HETATM   15  N6  UNL     1      52.583   5.954  53.965  1.00  0.00    -0.085 NA
ENDROOT
BRANCH  11  16
HETATM   16  C13 UNL     1      50.994   1.837  55.607  1.00  0.00     0.059 C 
BRANCH  16  17
HETATM   17  C14 UNL     1      52.398   1.379  55.848  1.00  0.00     0.026 C 
BRANCH  17  18
HETATM   18  C15 UNL     1      53.116   0.815  54.666  1.00  0.00     0.122 C 
BRANCH  18  19
HETATM   19  N2  UNL     1      54.434   1.397  54.541  1.00  0.00    -0.367 N 
HETATM   20  C16 UNL     1      54.628   2.377  53.733  1.00  0.00     0.196 C 
HETATM   21  N3  UNL     1      55.909   2.971  53.586  1.00  0.00    -0.067 NA
HETATM   22  N4  UNL     1      53.544   2.871  52.978  1.00  0.00    -0.067 NA
ATOM     23  H2  UNL     1      55.209   1.029  55.093  1.00  0.00     0.161 HD
ENDBRANCH  18  19
ENDBRANCH  17  18
ENDBRANCH  16  17
ENDBRANCH  11  16
BRANCH   1  24
HETATM   24  C4  UNL     1      50.087   7.282  54.376  1.00  0.00     0.033 C 
BRANCH  24  25
HETATM   25  C3  UNL     1      48.623   7.494  54.554  1.00  0.00     0.002 C 
BRANCH  25  26
HETATM   26  C2  UNL     1      47.933   7.967  53.317  1.00  0.00    -0.004 C 
HETATM   27  C1  UNL     1      46.827   8.946  53.716  1.00  0.00     0.005 C 
ENDBRANCH  25  26
ENDBRANCH  24  25
ENDBRANCH   1  24
TORSDOF 7
ENDMDL
MODEL 4
REMARK VINA RESULT: -7.140905281      3.730      5.730
REMARK  7 active torsions:
REMARK  status: ('A' for Active; 'I' for Inactive)
REMARK    1  A    between atoms: C2_2  and  C3_3 
REMARK    2  A    between atoms: C3_3  and  C4_4 
REMARK    3  A    between atoms: C4_4  and  C5_5 
REMARK    4  A    between atoms: C12_15  and  C13_16 
REMARK    5  A    between atoms: C13_16  and  C14_17 
REMARK    6  A    between atoms: C14_17  and  C15_18 
REMARK    7  A    between atoms: C15_18  and  N2_19 
ROOT
HETATM    1  C5  UNL     1      50.978   3.770  58.466  1.00  0.00     0.146 A 
HETATM    2  N1  UNL     1      51.508   4.021  57.189  1.00  0.00    -0.378 N 
ATOM      3  H1  UNL     1      52.117   3.256  56.899  1.00  0.00     0.160 HD
HETATM    4  C6  UNL     1      51.457   4.914  56.289  1.00  0.00     0.041 A 
HETATM    5  C7  UNL     1      52.226   4.608  55.186  1.00  0.00     0.031 A 
HETATM    6  C8  UNL     1      52.249   5.497  54.144  1.00  0.00     0.021 A 
HETATM    7  C9  UNL     1      51.540   6.678  54.158  1.00  0.00     0.011 A 
HETATM    8 BR1  UNL     1      51.581   7.909  52.699  1.00  0.00    -0.051 Br
HETATM    9  C10 UNL     1      50.781   6.929  55.304  1.00  0.00     0.034 A 
HETATM   10  C11 UNL     1      50.718   6.089  56.363  1.00  0.00     0.014 A 
HETATM   11  C12 UNL     1      49.940   6.584  57.337  1.00  0.00     0.023 A 
HETATM   12  N5  UNL     1      49.786   5.907  58.578  1.00  0.00    -0.349 N 
ATOM     13  H5  UNL     1      49.221   6.450  59.231  1.00  0.00     0.166 HD
HETATM   14  C17 UNL     1      50.161   4.809  59.090  1.00  0.00     0.116 A 
HETATM   15  N6  UNL     1      49.744   4.532  60.451  1.00  0.00    -0.085 NA
ENDROOT
BRANCH  11  16
HETATM   16  C13 UNL     1      49.262   7.859  57.153  1.00  0.00     0.059 C 
BRANCH  16  17
HETATM   17  C14 UNL     1      47.777   7.810  56.968  1.00  0.00     0.026 C 
BRANCH  17  18
HETATM   18  C15 UNL     1      47.224   8.655  55.869  1.00  0.00     0.122 C 
BRANCH  18  19
HETATM   19  N2  UNL     1      47.593   8.122  54.576  1.00  0.00    -0.367 N 
HETATM   20  C16 UNL     1      47.230   8.731  53.505  1.00  0.00     0.196 C 
HETATM   21  N3  UNL     1      47.575   8.235  52.220  1.00  0.00    -0.067 NA
HETATM   22  N4  UNL     1      46.474   9.916  53.609  1.00  0.00    -0.067 NA
ATOM     23  H2  UNL     1      48.141   7.263  54.515  1.00  0.00     0.161 HD
ENDBRANCH  18  19
ENDBRANCH  17  18
ENDBRANCH  16  17
ENDBRANCH  11  16
BRANCH   1  24
HETATM   24  C4  UNL     1      50.203   2.458  58.540  1.00  0.00     0.033 C 
BRANCH  24  25
HETATM   25  C3  UNL     1      49.022   2.414  57.633  1.00  0.00     0.002 C 
BRANCH  25  26
HETATM   26  C2  UNL     1      47.884   1.611  58.171  1.00  0.00    -0.004 C 
HETATM   27  C1  UNL     1      47.020   2.515  59.054  1.00  0.00     0.005 C 
ENDBRANCH  25  26
ENDBRANCH  24  25
ENDBRANCH   1  24
TORSDOF 7
ENDMDL
MODEL 5
REMARK VINA RESULT: -7.103039398      4.120      5.785
REMARK  7 active torsions:
REMARK  status: ('A' for Active; 'I' for Inactive)
REMARK    1  A    between atoms: C2_2  and  C3_3 
REMARK    2  A    between atoms: C3_3  and  C4_4 
REMARK    3  A    between atoms: C4_4  and  C5_5 
REMARK    4  A    between atoms: C12_15  and  C13_16 
REMARK    5  A    between atoms: C13_16  and  C14_17 
REMARK    6  A    between atoms: C14_17  and  C15_18 
REMARK    7  A    between atoms: C15_18  and  N2_19 
ROOT
HETATM    1  C5  UNL     1      49.597   4.653  57.994  1.00  0.00     0.146 A 
HETATM    2  N1  UNL     1      50.496   3.645  57.608  1.00  0.00    -0.378 N 
ATOM      3  H1  UNL     1      50.348   2.802  58.163  1.00  0.00     0.160 HD
HETATM    4  C6  UNL     1      51.438   3.470  56.776  1.00  0.00     0.041 A 
HETATM    5  C7  UNL     1      51.991   2.208  56.850  1.00  0.00     0.031 A 
HETATM    6  C8  UNL     1      53.017   1.898  55.997  1.00  0.00     0.021 A 
HETATM    7  C9  UNL     1      53.515   2.793  55.076  1.00  0.00     0.011 A 
HETATM    8 BR1  UNL     1      54.946   2.348  53.893  1.00  0.00    -0.051 Br
HETATM    9  C10 UNL     1      52.912   4.054  55.051  1.00  0.00     0.034 A 
HETATM   10  C11 UNL     1      51.895   4.417  55.868  1.00  0.00     0.014 A 
HETATM   11  C12 UNL     1      51.523   5.687  55.652  1.00  0.00     0.023 A 
HETATM   12  N5  UNL     1      50.521   6.310  56.446  1.00  0.00    -0.349 N 
ATOM     13  H5  UNL     1      50.408   7.293  56.200  1.00  0.00     0.166 HD
HETATM   14  C17 UNL     1      49.730   5.971  57.377  1.00  0.00     0.116 A 
HETATM   15  N6  UNL     1      48.847   6.992  57.906  1.00  0.00    -0.085 NA
ENDROOT
BRANCH  11  16
HETATM   16  C13 UNL     1      52.174   6.474  54.614  1.00  0.00     0.059 C 
BRANCH  16  17
HETATM   17  C14 UNL     1      51.386   6.721  53.365  1.00  0.00     0.026 C 
BRANCH  17  18
HETATM   18  C15 UNL     1      50.224   7.649  53.495  1.00  0.00     0.122 C 
BRANCH  18  19
HETATM   19  N2  UNL     1      49.092   7.164  52.738  1.00  0.00    -0.367 N 
HETATM   20  C16 UNL     1      48.042   7.894  52.617  1.00  0.00     0.196 C 
HETATM   21  N3  UNL     1      46.913   7.448  51.881  1.00  0.00    -0.067 NA
HETATM   22  N4  UNL     1      48.012   9.163  53.230  1.00  0.00    -0.067 NA
ATOM     23  H2  UNL     1      49.128   6.243  52.300  1.00  0.00     0.161 HD
ENDBRANCH  18  19
ENDBRANCH  17  18
ENDBRANCH  16  17
ENDBRANCH  11  16
BRANCH   1  24
HETATM   24  C4  UNL     1      48.137   4.225  57.874  1.00  0.00     0.033 C 
BRANCH  24  25
HETATM   25  C3  UNL     1      47.717   3.248  58.917  1.00  0.00     0.002 C 
BRANCH  25  26
HETATM   26  C2  UNL     1      47.701   1.833  58.440  1.00  0.00    -0.004 C 
HETATM   27  C1  UNL     1      46.515   1.112  59.083  1.00  0.00     0.005 C 
ENDBRANCH  25  26
ENDBRANCH  24  25
ENDBRANCH   1  24
TORSDOF 7
ENDMDL
