MODEL 1
REMARK VINA RESULT: -9.218525089      0.000      0.000
REMARK  7 active torsions:
REMARK  status: ('A' for Active; 'I' for Inactive)
REMARK    1  A    between atoms: C1_2  and  C2_4 
REMARK    2  A    between atoms: C2_4  and  N2_5 
REMARK    3  A    between atoms: N2_5  and  C3_6 
REMARK       I    between atoms: N2_5  and  C10_14 
REMARK    4  A    between atoms: C3_6  and  C4_7 
REMARK    5  A    between atoms: C10_14  and  C11_16 
REMARK    6  A    between atoms: C11_16  and  C12_17 
REMARK    7  A    between atoms: C12_17  and  C13_18 
ROOT
HETATM    1  C11 UNL     1      48.065   6.283  57.039  1.00  0.00     0.149 C 
ENDROOT
BRANCH   1   2
HETATM    2  C10 UNL     1      48.258   7.012  55.768  1.00  0.00     0.223 C 
HETATM    3  N2  UNL     1      47.776   8.332  55.558  1.00  0.00    -0.340 N 
HETATM    4  O2  UNL     1      48.882   6.416  54.842  1.00  0.00    -0.273 OA
BRANCH   3   5
HETATM    5  C2  UNL     1      47.071   8.964  56.651  1.00  0.00     0.225 C 
BRANCH   5   6
HETATM    6  C1  UNL     1      47.910   9.968  57.347  1.00  0.00     0.249 C 
HETATM    7  N1  UNL     1      49.093   9.604  58.050  1.00  0.00    -0.061 NA
HETATM    8  O1  UNL     1      47.587  11.183  57.328  1.00  0.00    -0.275 OA
ENDBRANCH   5   6
ENDBRANCH   3   5
BRANCH   3   9
HETATM    9  C3  UNL     1      47.947   9.061  54.343  1.00  0.00     0.165 C 
BRANCH   9  10
HETATM   10  C4  UNL     1      46.965   8.685  53.294  1.00  0.00    -0.037 A 
HETATM   11  C5  UNL     1      45.634   9.014  53.428  1.00  0.00     0.009 A 
HETATM   12  C6  UNL     1      44.693   8.675  52.461  1.00  0.00     0.004 A 
HETATM   13  C7  UNL     1      45.070   7.990  51.324  1.00  0.00     0.042 A 
HETATM   14  C8  UNL     1      46.401   7.660  51.188  1.00  0.00     0.117 A 
HETATM   15  F1  UNL     1      46.794   6.991  50.086  1.00  0.00    -0.206 F 
HETATM   16  C9  UNL     1      47.338   8.001  52.156  1.00  0.00     0.051 A 
ENDBRANCH   9  10
ENDBRANCH   3   9
ENDBRANCH   1   2
BRANCH   1  17
HETATM   17  C12 UNL     1      49.218   5.340  57.324  1.00  0.00     0.151 C 
HETATM   18  N3  UNL     1      50.035   5.149  56.142  1.00  0.00    -0.320 N 
HETATM   19  C19 UNL     1      51.383   5.069  56.573  1.00  0.00     0.324 C 
ATOM     20  H3  UNL     1      49.702   5.085  55.180  1.00  0.00     0.165 HD
HETATM   21  O3  UNL     1      52.379   4.642  55.888  1.00  0.00    -0.247 OA
HETATM   22  N4  UNL     1      51.484   5.541  57.907  1.00  0.00    -0.277 N 
HETATM   23  C20 UNL     1      50.170   5.914  58.295  1.00  0.00     0.259 C 
ATOM     24  H4  UNL     1      52.330   5.599  58.474  1.00  0.00     0.173 HD
HETATM   25  O4  UNL     1      49.947   6.623  59.316  1.00  0.00    -0.270 OA
BRANCH  17  26
HETATM   26  C13 UNL     1      48.692   4.018  57.718  1.00  0.00    -0.020 A 
HETATM   27  C14 UNL     1      47.727   3.932  58.704  1.00  0.00     0.010 A 
HETATM   28  C15 UNL     1      47.211   2.703  59.096  1.00  0.00     0.001 A 
HETATM   29  C16 UNL     1      47.661   1.541  58.501  1.00  0.00     0.000 A 
HETATM   30  C17 UNL     1      48.618   1.600  57.521  1.00  0.00     0.001 A 
HETATM   31  C18 UNL     1      49.116   2.850  57.150  1.00  0.00     0.010 A 
ENDBRANCH  17  26
ENDBRANCH   1  17
TORSDOF 7
ENDMDL
MODEL 2
REMARK VINA RESULT: -8.999035848      1.347      1.591
REMARK  7 active torsions:
REMARK  status: ('A' for Active; 'I' for Inactive)
REMARK    1  A    between atoms: C1_2  and  C2_4 
REMARK    2  A    between atoms: C2_4  and  N2_5 
REMARK    3  A    between atoms: N2_5  and  C3_6 
REMARK       I    between atoms: N2_5  and  C10_14 
REMARK    4  A    between atoms: C3_6  and  C4_7 
REMARK    5  A    between atoms: C10_14  and  C11_16 
REMARK    6  A    between atoms: C11_16  and  C12_17 
REMARK    7  A    between atoms: C12_17  and  C13_18 
ROOT
HETATM    1  C11 UNL     1      48.615   5.713  57.515  1.00  0.00     0.149 C 
ENDROOT
BRANCH   1   2
HETATM    2  C10 UNL     1      48.983   6.389  56.253  1.00  0.00     0.223 C 
HETATM    3  N2  UNL     1      48.407   7.620  55.844  1.00  0.00    -0.340 N 
HETATM    4  O2  UNL     1      49.850   5.826  55.522  1.00  0.00    -0.273 OA
BRANCH   3   5
HETATM    5  C2  UNL     1      47.422   8.218  56.718  1.00  0.00     0.225 C 
BRANCH   5   6
HETATM    6  C1  UNL     1      47.923   9.457  57.356  1.00  0.00     0.249 C 
HETATM    7  N1  UNL     1      48.937   9.435  58.355  1.00  0.00    -0.061 NA
HETATM    8  O1  UNL     1      47.455  10.574  57.019  1.00  0.00    -0.275 OA
ENDBRANCH   5   6
ENDBRANCH   3   5
BRANCH   3   9
HETATM    9  C3  UNL     1      48.742   8.296  54.631  1.00  0.00     0.165 C 
BRANCH   9  10
HETATM   10  C4  UNL     1      47.623   8.333  53.656  1.00  0.00    -0.037 A 
HETATM   11  C5  UNL     1      46.470   9.035  53.934  1.00  0.00     0.009 A 
HETATM   12  C6  UNL     1      45.407   9.087  53.039  1.00  0.00     0.004 A 
HETATM   13  C7  UNL     1      45.475   8.428  51.830  1.00  0.00     0.042 A 
HETATM   14  C8  UNL     1      46.626   7.724  51.549  1.00  0.00     0.117 A 
HETATM   15  F1  UNL     1      46.717   7.070  50.373  1.00  0.00    -0.206 F 
HETATM   16  C9  UNL     1      47.686   7.675  52.446  1.00  0.00     0.051 A 
ENDBRANCH   9  10
ENDBRANCH   3   9
ENDBRANCH   1   2
BRANCH   1  17
HETATM   17  C12 UNL     1      49.317   4.376  57.660  1.00  0.00     0.151 C 
HETATM   18  N3  UNL     1      49.223   3.607  56.435  1.00  0.00    -0.320 N 
HETATM   19  C19 UNL     1      50.455   2.925  56.273  1.00  0.00     0.324 C 
ATOM     20  H3  UNL     1      48.420   3.565  55.807  1.00  0.00     0.165 HD
HETATM   21  O3  UNL     1      50.686   1.946  55.479  1.00  0.00    -0.247 OA
HETATM   22  N4  UNL     1      51.428   3.491  57.137  1.00  0.00    -0.277 N 
HETATM   23  C20 UNL     1      50.773   4.537  57.839  1.00  0.00     0.259 C 
ATOM     24  H4  UNL     1      52.401   3.203  57.235  1.00  0.00     0.173 HD
HETATM   25  O4  UNL     1      51.412   5.417  58.481  1.00  0.00    -0.270 OA
BRANCH  17  26
HETATM   26  C13 UNL     1      48.670   3.590  58.729  1.00  0.00    -0.020 A 
HETATM   27  C14 UNL     1      47.510   2.890  58.457  1.00  0.00     0.010 A 
HETATM   28  C15 UNL     1      46.880   2.140  59.442  1.00  0.00     0.001 A 
HETATM   29  C16 UNL     1      47.408   2.084  60.716  1.00  0.00     0.000 A 
HETATM   30  C17 UNL     1      48.558   2.770  61.010  1.00  0.00     0.001 A 
HETATM   31  C18 UNL     1      49.167   3.515  59.999  1.00  0.00     0.010 A 
ENDBRANCH  17  26
ENDBRANCH   1  17
TORSDOF 7
ENDMDL
MODEL 3
REMARK VINA RESULT: -8.975497346      2.025      2.512
REMARK  7 active torsions:
REMARK  status: ('A' for Active; 'I' for Inactive)
REMARK    1  A    between atoms: C1_2  and  C2_4 
REMARK    2  A    between atoms: C2_4  and  N2_5 
REMARK    3  A    between atoms: N2_5  and  C3_6 
REMARK       I    between atoms: N2_5  and  C10_14 
REMARK    4  A    between atoms: C3_6  and  C4_7 
REMARK    5  A    between atoms: C10_14  and  C11_16 
REMARK    6  A    between atoms: C11_16  and  C12_17 
REMARK    7  A    between atoms: C12_17  and  C13_18 
ROOT
HETATM    1  C11 UNL     1      48.437   5.362  58.165  1.00  0.00     0.149 C 
ENDROOT
BRANCH   1   2
HETATM    2  C10 UNL     1      48.725   5.668  56.748  1.00  0.00     0.223 C 
HETATM    3  N2  UNL     1      49.376   6.861  56.336  1.00  0.00    -0.340 N 
HETATM    4  O2  UNL     1      48.367   4.816  55.883  1.00  0.00    -0.273 OA
BRANCH   3   5
HETATM    5  C2  UNL     1      49.763   7.798  57.367  1.00  0.00     0.225 C 
BRANCH   5   6
HETATM    6  C1  UNL     1      51.233   7.957  57.450  1.00  0.00     0.249 C 
HETATM    7  N1  UNL     1      51.888   9.150  57.031  1.00  0.00    -0.061 NA
HETATM    8  O1  UNL     1      51.945   7.025  57.903  1.00  0.00    -0.275 OA
ENDBRANCH   5   6
ENDBRANCH   3   5
BRANCH   3   9
HETATM    9  C3  UNL     1      49.668   7.183  54.976  1.00  0.00     0.165 C 
BRANCH   9  10
HETATM   10  C4  UNL     1      48.501   7.739  54.245  1.00  0.00    -0.037 A 
HETATM   11  C5  UNL     1      47.506   8.414  54.918  1.00  0.00     0.009 A 
HETATM   12  C6  UNL     1      46.403   8.945  54.259  1.00  0.00     0.004 A 
HETATM   13  C7  UNL     1      46.269   8.810  52.893  1.00  0.00     0.042 A 
HETATM   14  C8  UNL     1      47.262   8.134  52.217  1.00  0.00     0.117 A 
HETATM   15  F1  UNL     1      47.154   7.987  50.881  1.00  0.00    -0.206 F 
HETATM   16  C9  UNL     1      48.363   7.605  52.879  1.00  0.00     0.051 A 
ENDBRANCH   9  10
ENDBRANCH   3   9
ENDBRANCH   1   2
BRANCH   1  17
HETATM   17  C12 UNL     1      49.365   4.291  58.706  1.00  0.00     0.151 C 
HETATM   18  N3  UNL     1      50.263   3.814  57.674  1.00  0.00    -0.320 N 
HETATM   19  C19 UNL     1      51.517   3.574  58.288  1.00  0.00     0.324 C 
ATOM     20  H3  UNL     1      50.035   3.676  56.690  1.00  0.00     0.165 HD
HETATM   21  O3  UNL     1      52.492   2.903  57.796  1.00  0.00    -0.247 OA
HETATM   22  N4  UNL     1      51.549   4.198  59.563  1.00  0.00    -0.277 N 
HETATM   23  C20 UNL     1      50.287   4.828  59.725  1.00  0.00     0.259 C 
ATOM     24  H4  UNL     1      52.322   4.193  60.228  1.00  0.00     0.173 HD
HETATM   25  O4  UNL     1      50.080   5.694  60.621  1.00  0.00    -0.270 OA
BRANCH  17  26
HETATM   26  C13 UNL     1      48.571   3.137  59.173  1.00  0.00    -0.020 A 
HETATM   27  C14 UNL     1      47.992   2.287  58.250  1.00  0.00     0.010 A 
HETATM   28  C15 UNL     1      47.241   1.192  58.657  1.00  0.00     0.001 A 
HETATM   29  C16 UNL     1      47.061   0.936  60.002  1.00  0.00     0.000 A 
HETATM   30  C17 UNL     1      47.625   1.765  60.937  1.00  0.00     0.001 A 
HETATM   31  C18 UNL     1      48.374   2.857  60.495  1.00  0.00     0.010 A 
ENDBRANCH  17  26
ENDBRANCH   1  17
TORSDOF 7
ENDMDL
MODEL 4
REMARK VINA RESULT: -8.855029684      1.563      2.032
REMARK  7 active torsions:
REMARK  status: ('A' for Active; 'I' for Inactive)
REMARK    1  A    between atoms: C1_2  and  C2_4 
REMARK    2  A    between atoms: C2_4  and  N2_5 
REMARK    3  A    between atoms: N2_5  and  C3_6 
REMARK       I    between atoms: N2_5  and  C10_14 
REMARK    4  A    between atoms: C3_6  and  C4_7 
REMARK    5  A    between atoms: C10_14  and  C11_16 
REMARK    6  A    between atoms: C11_16  and  C12_17 
REMARK    7  A    between atoms: C12_17  and  C13_18 
ROOT
HETATM    1  C11 UNL     1      48.304   5.397  57.817  1.00  0.00     0.149 C 
ENDROOT
BRANCH   1   2
HETATM    2  C10 UNL     1      48.816   6.019  56.578  1.00  0.00     0.223 C 
HETATM    3  N2  UNL     1      48.476   7.340  56.185  1.00  0.00    -0.340 N 
HETATM    4  O2  UNL     1      49.589   5.326  55.854  1.00  0.00    -0.273 OA
BRANCH   3   5
HETATM    5  C2  UNL     1      47.589   8.086  57.050  1.00  0.00     0.225 C 
BRANCH   5   6
HETATM    6  C1  UNL     1      48.200   9.355  57.511  1.00  0.00     0.249 C 
HETATM    7  N1  UNL     1      49.360   9.378  58.335  1.00  0.00    -0.061 NA
HETATM    8  O1  UNL     1      47.696  10.456  57.175  1.00  0.00    -0.275 OA
ENDBRANCH   5   6
ENDBRANCH   3   5
BRANCH   3   9
HETATM    9  C3  UNL     1      48.955   7.968  54.994  1.00  0.00     0.165 C 
BRANCH   9  10
HETATM   10  C4  UNL     1      47.899   8.151  53.966  1.00  0.00    -0.037 A 
HETATM   11  C5  UNL     1      48.067   7.659  52.690  1.00  0.00     0.009 A 
HETATM   12  C6  UNL     1      47.095   7.816  51.708  1.00  0.00     0.004 A 
HETATM   13  C7  UNL     1      45.917   8.478  51.986  1.00  0.00     0.042 A 
HETATM   14  C8  UNL     1      45.747   8.972  53.261  1.00  0.00     0.117 A 
HETATM   15  F1  UNL     1      44.604   9.623  53.558  1.00  0.00    -0.206 F 
HETATM   16  C9  UNL     1      46.720   8.812  54.240  1.00  0.00     0.051 A 
ENDBRANCH   9  10
ENDBRANCH   3   9
ENDBRANCH   1   2
BRANCH   1  17
HETATM   17  C12 UNL     1      49.315   4.442  58.423  1.00  0.00     0.151 C 
HETATM   18  N3  UNL     1      50.203   3.915  57.407  1.00  0.00    -0.320 N 
HETATM   19  C19 UNL     1      51.492   3.813  57.989  1.00  0.00     0.324 C 
ATOM     20  H3  UNL     1      49.949   3.665  56.452  1.00  0.00     0.165 HD
HETATM   21  O3  UNL     1      52.488   3.152  57.525  1.00  0.00    -0.247 OA
HETATM   22  N4  UNL     1      51.531   4.564  59.192  1.00  0.00    -0.277 N 
HETATM   23  C20 UNL     1      50.239   5.133  59.344  1.00  0.00     0.259 C 
ATOM     24  H4  UNL     1      52.326   4.672  59.821  1.00  0.00     0.173 HD
HETATM   25  O4  UNL     1      50.011   6.073  60.157  1.00  0.00    -0.270 OA
BRANCH  17  26
HETATM   26  C13 UNL     1      48.612   3.298  59.036  1.00  0.00    -0.020 A 
HETATM   27  C14 UNL     1      47.984   2.368  58.228  1.00  0.00     0.010 A 
HETATM   28  C15 UNL     1      47.316   1.280  58.774  1.00  0.00     0.001 A 
HETATM   29  C16 UNL     1      47.268   1.112  60.143  1.00  0.00     0.000 A 
HETATM   30  C17 UNL     1      47.883   2.021  60.966  1.00  0.00     0.001 A 
HETATM   31  C18 UNL     1      48.546   3.103  60.386  1.00  0.00     0.010 A 
ENDBRANCH  17  26
ENDBRANCH   1  17
TORSDOF 7
ENDMDL
MODEL 5
REMARK VINA RESULT: -8.668343512      3.396      7.256
REMARK  7 active torsions:
REMARK  status: ('A' for Active; 'I' for Inactive)
REMARK    1  A    between atoms: C1_2  and  C2_4 
REMARK    2  A    between atoms: C2_4  and  N2_5 
REMARK    3  A    between atoms: N2_5  and  C3_6 
REMARK       I    between atoms: N2_5  and  C10_14 
REMARK    4  A    between atoms: C3_6  and  C4_7 
REMARK    5  A    between atoms: C10_14  and  C11_16 
REMARK    6  A    between atoms: C11_16  and  C12_17 
REMARK    7  A    between atoms: C12_17  and  C13_18 
ROOT
HETATM    1  C11 UNL     1      50.166   6.454  58.505  1.00  0.00     0.149 C 
ENDROOT
BRANCH   1   2
HETATM    2  C10 UNL     1      49.487   5.209  58.086  1.00  0.00     0.223 C 
HETATM    3  N2  UNL     1      50.193   4.070  57.617  1.00  0.00    -0.340 N 
HETATM    4  O2  UNL     1      48.224   5.182  58.156  1.00  0.00    -0.273 OA
BRANCH   3   5
HETATM    5  C2  UNL     1      51.635   4.157  57.559  1.00  0.00     0.225 C 
BRANCH   5   6
HETATM    6  C1  UNL     1      52.176   3.589  56.302  1.00  0.00     0.249 C 
HETATM    7  N1  UNL     1      52.994   2.423  56.291  1.00  0.00    -0.061 NA
HETATM    8  O1  UNL     1      51.917   4.134  55.199  1.00  0.00    -0.275 OA
ENDBRANCH   5   6
ENDBRANCH   3   5
BRANCH   3   9
HETATM    9  C3  UNL     1      49.565   2.855  57.206  1.00  0.00     0.165 C 
BRANCH   9  10
HETATM   10  C4  UNL     1      48.889   2.142  58.319  1.00  0.00    -0.037 A 
HETATM   11  C5  UNL     1      49.513   1.986  59.537  1.00  0.00     0.009 A 
HETATM   12  C6  UNL     1      48.903   1.324  60.597  1.00  0.00     0.004 A 
HETATM   13  C7  UNL     1      47.636   0.795  60.458  1.00  0.00     0.042 A 
HETATM   14  C8  UNL     1      47.009   0.949  59.241  1.00  0.00     0.117 A 
HETATM   15  F1  UNL     1      45.771   0.441  59.079  1.00  0.00    -0.206 F 
HETATM   16  C9  UNL     1      47.623   1.612  58.185  1.00  0.00     0.051 A 
ENDBRANCH   9  10
ENDBRANCH   3   9
ENDBRANCH   1   2
BRANCH   1  17
HETATM   17  C12 UNL     1      49.778   7.627  57.624  1.00  0.00     0.151 C 
HETATM   18  N3  UNL     1      48.352   7.629  57.365  1.00  0.00    -0.320 N 
HETATM   19  C19 UNL     1      47.929   8.982  57.362  1.00  0.00     0.324 C 
ATOM     20  H3  UNL     1      47.764   6.811  57.212  1.00  0.00     0.165 HD
HETATM   21  O3  UNL     1      46.816   9.432  56.912  1.00  0.00    -0.247 OA
HETATM   22  N4  UNL     1      48.936   9.795  57.943  1.00  0.00    -0.277 N 
HETATM   23  C20 UNL     1      49.992   8.918  58.305  1.00  0.00     0.259 C 
ATOM     24  H4  UNL     1      48.907  10.806  58.074  1.00  0.00     0.173 HD
HETATM   25  O4  UNL     1      50.919   9.271  59.088  1.00  0.00    -0.270 OA
BRANCH  17  26
HETATM   26  C13 UNL     1      50.467   7.520  56.323  1.00  0.00    -0.020 A 
HETATM   27  C14 UNL     1      51.830   7.738  56.250  1.00  0.00     0.010 A 
HETATM   28  C15 UNL     1      52.506   7.642  55.041  1.00  0.00     0.001 A 
HETATM   29  C16 UNL     1      51.820   7.327  53.886  1.00  0.00     0.000 A 
HETATM   30  C17 UNL     1      50.468   7.106  53.932  1.00  0.00     0.001 A 
HETATM   31  C18 UNL     1      49.817   7.210  55.162  1.00  0.00     0.010 A 
ENDBRANCH  17  26
ENDBRANCH   1  17
TORSDOF 7
ENDMDL
