MODEL 1
REMARK VINA RESULT: -7.449183588      0.000      0.000
REMARK  10 active torsions:
REMARK  status: ('A' for Active; 'I' for Inactive)
REMARK    1  A    between atoms: C2_2  and  C4_4 
REMARK    2  A    between atoms: C4_4  and  C5_5 
REMARK    3  A    between atoms: C5_5  and  C6_6 
REMARK    4  A    between atoms: C6_6  and  C7_7 
REMARK    5  A    between atoms: C6_6  and  S1_15 
REMARK    6  A    between atoms: C7_7  and  C8_8 
REMARK    7  A    between atoms: C8_8  and  O2_10 
REMARK    8  A    between atoms: O2_10  and  C9_11 
REMARK    9  A    between atoms: S1_15  and  C13_16 
REMARK   10  A    between atoms: C13_16  and  C14_18 
ROOT
HETATM    1  C6  UNL     1      22.540  47.505  61.455  1.00  0.00     0.064 C 
ENDROOT
BRANCH   1   2
HETATM    2  C5  UNL     1      23.119  48.731  62.101  1.00  0.00     0.016 C 
BRANCH   2   3
HETATM    3  C4  UNL     1      23.698  48.466  63.463  1.00  0.00     0.005 C 
BRANCH   3   4
HETATM    4  C2  UNL     1      25.013  49.199  63.633  1.00  0.00    -0.023 C 
HETATM    5  C1  UNL     1      25.095  49.873  64.983  1.00  0.00     0.009 C 
HETATM    6  C3  UNL     1      26.197  48.257  63.528  1.00  0.00     0.009 C 
ENDBRANCH   3   4
ENDBRANCH   2   3
ENDBRANCH   1   2
BRANCH   1   7
HETATM    7  C7  UNL     1      21.036  47.479  61.495  1.00  0.00     0.126 C 
BRANCH   7   8
HETATM    8  C8  UNL     1      20.604  46.787  62.737  1.00  0.00     0.260 C 
HETATM    9  O1  UNL     1      20.468  45.542  62.705  1.00  0.00    -0.265 OA
BRANCH   8  10
HETATM   10  O2  UNL     1      20.340  47.425  63.930  1.00  0.00    -0.311 OA
BRANCH  10  11
HETATM   11  C9  UNL     1      19.435  48.477  64.103  1.00  0.00     0.060 C 
HETATM   12  C10 UNL     1      20.100  49.837  63.917  1.00  0.00     0.045 C 
HETATM   13  C11 UNL     1      18.242  48.426  63.205  1.00  0.00     0.045 C 
HETATM   14  C12 UNL     1      18.966  48.438  65.544  1.00  0.00     0.045 C 
ENDBRANCH  10  11
ENDBRANCH   8  10
ENDBRANCH   7   8
ENDBRANCH   1   7
BRANCH   1  15
HETATM   15  S1  UNL     1      23.157  47.442  59.745  1.00  0.00    -0.086 SA
BRANCH  15  16
HETATM   16  C13 UNL     1      24.046  45.928  59.471  1.00  0.00     0.194 C 
HETATM   17  O3  UNL     1      23.652  45.036  58.716  1.00  0.00    -0.285 OA
BRANCH  16  18
HETATM   18  C14 UNL     1      25.330  45.709  60.182  1.00  0.00     0.020 C 
HETATM   19  C15 UNL     1      26.215  44.717  59.472  1.00  0.00     0.023 C 
HETATM   20  C16 UNL     1      26.109  47.020  60.237  1.00  0.00     0.023 C 
HETATM   21  C17 UNL     1      25.137  45.250  61.605  1.00  0.00     0.023 C 
ENDBRANCH  16  18
ENDBRANCH  15  16
ENDBRANCH   1  15
TORSDOF 10
ENDMDL
MODEL 2
REMARK VINA RESULT: -7.315017434      1.092      6.016
REMARK  10 active torsions:
REMARK  status: ('A' for Active; 'I' for Inactive)
REMARK    1  A    between atoms: C2_2  and  C4_4 
REMARK    2  A    between atoms: C4_4  and  C5_5 
REMARK    3  A    between atoms: C5_5  and  C6_6 
REMARK    4  A    between atoms: C6_6  and  C7_7 
REMARK    5  A    between atoms: C6_6  and  S1_15 
REMARK    6  A    between atoms: C7_7  and  C8_8 
REMARK    7  A    between atoms: C8_8  and  O2_10 
REMARK    8  A    between atoms: O2_10  and  C9_11 
REMARK    9  A    between atoms: S1_15  and  C13_16 
REMARK   10  A    between atoms: C13_16  and  C14_18 
ROOT
HETATM    1  C6  UNL     1      22.849  47.207  61.266  1.00  0.00     0.064 C 
ENDROOT
BRANCH   1   2
HETATM    2  C5  UNL     1      23.346  47.404  62.669  1.00  0.00     0.016 C 
BRANCH   2   3
HETATM    3  C4  UNL     1      24.025  48.730  62.877  1.00  0.00     0.005 C 
BRANCH   3   4
HETATM    4  C2  UNL     1      25.098  48.616  63.942  1.00  0.00    -0.023 C 
HETATM    5  C1  UNL     1      26.414  48.170  63.349  1.00  0.00     0.009 C 
HETATM    6  C3  UNL     1      25.342  49.942  64.634  1.00  0.00     0.009 C 
ENDBRANCH   3   4
ENDBRANCH   2   3
ENDBRANCH   1   2
BRANCH   1   7
HETATM    7  C7  UNL     1      22.820  45.759  60.855  1.00  0.00     0.126 C 
BRANCH   7   8
HETATM    8  C8  UNL     1      23.618  45.600  59.612  1.00  0.00     0.260 C 
HETATM    9  O1  UNL     1      23.186  46.123  58.559  1.00  0.00    -0.265 OA
BRANCH   8  10
HETATM   10  O2  UNL     1      24.811  44.912  59.536  1.00  0.00    -0.311 OA
BRANCH  10  11
HETATM   11  C9  UNL     1      26.014  45.312  60.123  1.00  0.00     0.060 C 
HETATM   12  C10 UNL     1      26.308  46.788  59.874  1.00  0.00     0.045 C 
HETATM   13  C11 UNL     1      26.099  45.074  61.596  1.00  0.00     0.045 C 
HETATM   14  C12 UNL     1      27.128  44.546  59.438  1.00  0.00     0.045 C 
ENDBRANCH  10  11
ENDBRANCH   8  10
ENDBRANCH   7   8
ENDBRANCH   1   7
BRANCH   1  15
HETATM   15  S1  UNL     1      21.197  47.959  61.157  1.00  0.00    -0.086 SA
BRANCH  15  16
HETATM   16  C13 UNL     1      20.253  47.574  62.613  1.00  0.00     0.194 C 
HETATM   17  O3  UNL     1      20.148  46.435  63.073  1.00  0.00    -0.285 OA
BRANCH  16  18
HETATM   18  C14 UNL     1      19.549  48.670  63.324  1.00  0.00     0.020 C 
HETATM   19  C15 UNL     1      20.504  49.629  63.986  1.00  0.00     0.023 C 
HETATM   20  C16 UNL     1      18.740  49.488  62.321  1.00  0.00     0.023 C 
HETATM   21  C17 UNL     1      18.580  48.161  64.362  1.00  0.00     0.023 C 
ENDBRANCH  16  18
ENDBRANCH  15  16
ENDBRANCH   1  15
TORSDOF 10
ENDMDL
MODEL 3
REMARK VINA RESULT: -7.252119568      1.610      2.753
REMARK  10 active torsions:
REMARK  status: ('A' for Active; 'I' for Inactive)
REMARK    1  A    between atoms: C2_2  and  C4_4 
REMARK    2  A    between atoms: C4_4  and  C5_5 
REMARK    3  A    between atoms: C5_5  and  C6_6 
REMARK    4  A    between atoms: C6_6  and  C7_7 
REMARK    5  A    between atoms: C6_6  and  S1_15 
REMARK    6  A    between atoms: C7_7  and  C8_8 
REMARK    7  A    between atoms: C8_8  and  O2_10 
REMARK    8  A    between atoms: O2_10  and  C9_11 
REMARK    9  A    between atoms: S1_15  and  C13_16 
REMARK   10  A    between atoms: C13_16  and  C14_18 
ROOT
HETATM    1  C6  UNL     1      21.843  48.533  63.357  1.00  0.00     0.064 C 
ENDROOT
BRANCH   1   2
HETATM    2  C5  UNL     1      23.009  49.207  64.021  1.00  0.00     0.016 C 
BRANCH   2   3
HETATM    3  C4  UNL     1      24.266  49.168  63.195  1.00  0.00     0.005 C 
BRANCH   3   4
HETATM    4  C2  UNL     1      25.410  48.580  63.997  1.00  0.00    -0.023 C 
HETATM    5  C1  UNL     1      26.459  47.976  63.094  1.00  0.00     0.009 C 
HETATM    6  C3  UNL     1      26.097  49.632  64.845  1.00  0.00     0.009 C 
ENDBRANCH   3   4
ENDBRANCH   2   3
ENDBRANCH   1   2
BRANCH   1   7
HETATM    7  C7  UNL     1      20.546  49.266  63.570  1.00  0.00     0.126 C 
BRANCH   7   8
HETATM    8  C8  UNL     1      19.433  48.282  63.545  1.00  0.00     0.260 C 
HETATM    9  O1  UNL     1      19.665  47.115  63.938  1.00  0.00    -0.265 OA
BRANCH   8  10
HETATM   10  O2  UNL     1      18.153  48.565  63.116  1.00  0.00    -0.311 OA
BRANCH  10  11
HETATM   11  C9  UNL     1      17.791  48.877  61.803  1.00  0.00     0.060 C 
HETATM   12  C10 UNL     1      16.554  48.108  61.353  1.00  0.00     0.045 C 
HETATM   13  C11 UNL     1      17.540  50.330  61.554  1.00  0.00     0.045 C 
HETATM   14  C12 UNL     1      18.918  48.414  60.900  1.00  0.00     0.045 C 
ENDBRANCH  10  11
ENDBRANCH   8  10
ENDBRANCH   7   8
ENDBRANCH   1   7
BRANCH   1  15
HETATM   15  S1  UNL     1      22.232  48.380  61.587  1.00  0.00    -0.086 SA
BRANCH  15  16
HETATM   16  C13 UNL     1      22.391  46.667  61.142  1.00  0.00     0.194 C 
HETATM   17  O3  UNL     1      21.555  45.809  61.435  1.00  0.00    -0.285 OA
BRANCH  16  18
HETATM   18  C14 UNL     1      23.586  46.231  60.378  1.00  0.00     0.020 C 
HETATM   19  C15 UNL     1      24.454  47.390  59.961  1.00  0.00     0.023 C 
HETATM   20  C16 UNL     1      24.452  45.336  61.258  1.00  0.00     0.023 C 
HETATM   21  C17 UNL     1      23.230  45.430  59.150  1.00  0.00     0.023 C 
ENDBRANCH  16  18
ENDBRANCH  15  16
ENDBRANCH   1  15
TORSDOF 10
ENDMDL
MODEL 4
REMARK VINA RESULT: -7.146651327      1.235      6.055
REMARK  10 active torsions:
REMARK  status: ('A' for Active; 'I' for Inactive)
REMARK    1  A    between atoms: C2_2  and  C4_4 
REMARK    2  A    between atoms: C4_4  and  C5_5 
REMARK    3  A    between atoms: C5_5  and  C6_6 
REMARK    4  A    between atoms: C6_6  and  C7_7 
REMARK    5  A    between atoms: C6_6  and  S1_15 
REMARK    6  A    between atoms: C7_7  and  C8_8 
REMARK    7  A    between atoms: C8_8  and  O2_10 
REMARK    8  A    between atoms: O2_10  and  C9_11 
REMARK    9  A    between atoms: S1_15  and  C13_16 
REMARK   10  A    between atoms: C13_16  and  C14_18 
ROOT
HETATM    1  C6  UNL     1      22.822  48.001  61.328  1.00  0.00     0.064 C 
ENDROOT
BRANCH   1   2
HETATM    2  C5  UNL     1      23.114  49.070  62.341  1.00  0.00     0.016 C 
BRANCH   2   3
HETATM    3  C4  UNL     1      23.843  48.556  63.552  1.00  0.00     0.005 C 
BRANCH   3   4
HETATM    4  C2  UNL     1      25.201  49.218  63.675  1.00  0.00    -0.023 C 
HETATM    5  C1  UNL     1      25.371  49.874  65.025  1.00  0.00     0.009 C 
HETATM    6  C3  UNL     1      26.328  48.216  63.516  1.00  0.00     0.009 C 
ENDBRANCH   3   4
ENDBRANCH   2   3
ENDBRANCH   1   2
BRANCH   1   7
HETATM    7  C7  UNL     1      23.373  46.657  61.720  1.00  0.00     0.126 C 
BRANCH   7   8
HETATM    8  C8  UNL     1      24.128  46.096  60.570  1.00  0.00     0.260 C 
HETATM    9  O1  UNL     1      23.547  45.272  59.826  1.00  0.00    -0.265 OA
BRANCH   8  10
HETATM   10  O2  UNL     1      25.431  46.422  60.262  1.00  0.00    -0.311 OA
BRANCH  10  11
HETATM   11  C9  UNL     1      26.550  45.630  60.539  1.00  0.00     0.060 C 
HETATM   12  C10 UNL     1      26.465  44.984  61.918  1.00  0.00     0.045 C 
HETATM   13  C11 UNL     1      26.809  44.546  59.544  1.00  0.00     0.045 C 
HETATM   14  C12 UNL     1      27.754  46.550  60.586  1.00  0.00     0.045 C 
ENDBRANCH  10  11
ENDBRANCH   8  10
ENDBRANCH   7   8
ENDBRANCH   1   7
BRANCH   1  15
HETATM   15  S1  UNL     1      21.019  47.936  61.101  1.00  0.00    -0.086 SA
BRANCH  15  16
HETATM   16  C13 UNL     1      20.215  47.685  62.666  1.00  0.00     0.194 C 
HETATM   17  O3  UNL     1      20.331  46.653  63.331  1.00  0.00    -0.285 OA
BRANCH  16  18
HETATM   18  C14 UNL     1      19.356  48.764  63.214  1.00  0.00     0.020 C 
HETATM   19  C15 UNL     1      18.597  49.496  62.137  1.00  0.00     0.023 C 
HETATM   20  C16 UNL     1      18.309  48.156  64.143  1.00  0.00     0.023 C 
HETATM   21  C17 UNL     1      20.133  49.771  64.025  1.00  0.00     0.023 C 
ENDBRANCH  16  18
ENDBRANCH  15  16
ENDBRANCH   1  15
TORSDOF 10
ENDMDL
MODEL 5
REMARK VINA RESULT: -7.084639851      1.838      2.518
REMARK  10 active torsions:
REMARK  status: ('A' for Active; 'I' for Inactive)
REMARK    1  A    between atoms: C2_2  and  C4_4 
REMARK    2  A    between atoms: C4_4  and  C5_5 
REMARK    3  A    between atoms: C5_5  and  C6_6 
REMARK    4  A    between atoms: C6_6  and  C7_7 
REMARK    5  A    between atoms: C6_6  and  S1_15 
REMARK    6  A    between atoms: C7_7  and  C8_8 
REMARK    7  A    between atoms: C8_8  and  O2_10 
REMARK    8  A    between atoms: O2_10  and  C9_11 
REMARK    9  A    between atoms: S1_15  and  C13_16 
REMARK   10  A    between atoms: C13_16  and  C14_18 
ROOT
HETATM    1  C6  UNL     1      23.739  46.140  61.649  1.00  0.00     0.064 C 
ENDROOT
BRANCH   1   2
HETATM    2  C5  UNL     1      24.094  47.595  61.755  1.00  0.00     0.016 C 
BRANCH   2   3
HETATM    3  C4  UNL     1      25.008  47.900  62.909  1.00  0.00     0.005 C 
BRANCH   3   4
HETATM    4  C2  UNL     1      24.610  49.203  63.572  1.00  0.00    -0.023 C 
HETATM    5  C1  UNL     1      23.224  49.115  64.166  1.00  0.00     0.009 C 
HETATM    6  C3  UNL     1      25.559  49.572  64.696  1.00  0.00     0.009 C 
ENDBRANCH   3   4
ENDBRANCH   2   3
ENDBRANCH   1   2
BRANCH   1   7
HETATM    7  C7  UNL     1      22.303  45.915  61.261  1.00  0.00     0.126 C 
BRANCH   7   8
HETATM    8  C8  UNL     1      21.456  46.042  62.475  1.00  0.00     0.260 C 
HETATM    9  O1  UNL     1      21.963  45.755  63.584  1.00  0.00    -0.265 OA
BRANCH   8  10
HETATM   10  O2  UNL     1      20.141  46.455  62.467  1.00  0.00    -0.311 OA
BRANCH  10  11
HETATM   11  C9  UNL     1      19.710  47.784  62.518  1.00  0.00     0.060 C 
HETATM   12  C10 UNL     1      19.683  48.320  63.946  1.00  0.00     0.045 C 
HETATM   13  C11 UNL     1      20.516  48.733  61.691  1.00  0.00     0.045 C 
HETATM   14  C12 UNL     1      18.273  47.813  62.037  1.00  0.00     0.045 C 
ENDBRANCH  10  11
ENDBRANCH   8  10
ENDBRANCH   7   8
ENDBRANCH   1   7
BRANCH   1  15
HETATM   15  S1  UNL     1      24.874  45.385  60.445  1.00  0.00    -0.086 SA
BRANCH  15  16
HETATM   16  C13 UNL     1      26.519  45.315  61.116  1.00  0.00     0.194 C 
HETATM   17  O3  UNL     1      26.834  44.599  62.069  1.00  0.00    -0.285 OA
BRANCH  16  18
HETATM   18  C14 UNL     1      27.579  46.157  60.509  1.00  0.00     0.020 C 
HETATM   19  C15 UNL     1      28.320  46.975  61.536  1.00  0.00     0.023 C 
HETATM   20  C16 UNL     1      28.617  45.261  59.839  1.00  0.00     0.023 C 
HETATM   21  C17 UNL     1      27.048  47.086  59.446  1.00  0.00     0.023 C 
ENDBRANCH  16  18
ENDBRANCH  15  16
ENDBRANCH   1  15
TORSDOF 10
ENDMDL
