MODEL 1
REMARK VINA RESULT: -6.771662189      0.000      0.000
REMARK  20 active torsions:
REMARK  status: ('A' for Active; 'I' for Inactive)
REMARK    1  A    between atoms: C2_2  and  C3_3 
REMARK    2  A    between atoms: C3_3  and  O1_5 
REMARK    3  A    between atoms: C3_3  and  C5_7 
REMARK    4  A    between atoms: C5_7  and  C7_9 
REMARK    5  A    between atoms: C7_9  and  C8_10 
REMARK    6  A    between atoms: C8_10  and  C9_11 
REMARK    7  A    between atoms: C9_11  and  C11_13 
REMARK    8  A    between atoms: C13_15  and  O2_16 
REMARK    9  A    between atoms: C24_28  and  O3_29 
REMARK   10  A    between atoms: C27_33  and  C28_34 
REMARK   11  A    between atoms: C28_34  and  O4_35 
REMARK   12  A    between atoms: C28_34  and  C29_37 
REMARK   13  A    between atoms: C29_37  and  O5_38 
REMARK   14  A    between atoms: C29_37  and  N1_40 
REMARK   15  A    between atoms: N1_40  and  C30_42 
REMARK   16  A    between atoms: C30_42  and  O6_43 
REMARK   17  A    between atoms: C30_42  and  C31_45 
REMARK   18  A    between atoms: C32_48  and  O9_49 
REMARK   19  A    between atoms: C33_51  and  C34_52 
REMARK   20  A    between atoms: C34_52  and  O10_53 
ROOT
HETATM    1  C11 UNL     1       2.945  53.440 -52.569  1.00  0.00     0.001 C 
HETATM    2  C12 UNL     1       3.587  52.124 -52.398  1.00  0.00     0.038 C 
HETATM    3  C13 UNL     1       4.215  51.737 -51.127  1.00  0.00     0.128 C 
HETATM    4  C14 UNL     1       4.548  52.712 -50.071  1.00  0.00     0.005 C 
HETATM    5  C15 UNL     1       6.090  52.640 -50.058  1.00  0.00     0.020 C 
HETATM    6  C16 UNL     1       4.135  54.082 -50.474  1.00  0.00    -0.021 C 
HETATM    7  C17 UNL     1       5.228  54.663 -51.356  1.00  0.00     0.017 C 
HETATM    8  C18 UNL     1       3.709  55.006 -49.405  1.00  0.00     0.008 A 
HETATM    9  C19 UNL     1       2.500  55.478 -48.748  1.00  0.00     0.019 A 
HETATM   10  C20 UNL     1       2.657  54.118 -48.999  1.00  0.00    -0.003 A 
HETATM   11  C21 UNL     1       1.913  53.675 -50.279  1.00  0.00     0.023 C 
HETATM   12  C22 UNL     1       2.869  54.178 -51.322  1.00  0.00    -0.031 C 
HETATM   13  C23 UNL     1       2.689  55.654 -51.636  1.00  0.00     0.016 C 
HETATM   14  C24 UNL     1       3.059  53.045 -48.034  1.00  0.00     0.079 C 
HETATM   15  C25 UNL     1       1.860  52.332 -47.581  1.00  0.00     0.040 C 
HETATM   16  C26 UNL     1       2.081  50.902 -47.131  1.00  0.00     0.013 C 
HETATM   17  C27 UNL     1       2.766  50.219 -48.249  1.00  0.00     0.048 C 
HETATM   18  C32 UNL     1       4.117  50.797 -48.468  1.00  0.00     0.139 C 
HETATM   19  C33 UNL     1       4.209  52.298 -48.623  1.00  0.00     0.049 C 
ENDROOT
BRANCH  17  20
HETATM   20  C28 UNL     1       2.894  48.730 -48.162  1.00  0.00     0.173 C 
BRANCH  20  21
HETATM   21  O4  UNL     1       2.231  48.121 -47.133  1.00  0.00    -0.391 OA
ATOM     22  H4  UNL     1       1.311  48.336 -47.036  1.00  0.00     0.210 HD
ENDBRANCH  20  21
BRANCH  20  23
HETATM   23  C29 UNL     1       2.611  47.986 -49.449  1.00  0.00     0.245 C 
BRANCH  23  24
HETATM   24  O5  UNL     1       3.824  47.800 -50.102  1.00  0.00    -0.374 OA
ATOM     25  H5  UNL     1       3.823  46.922 -50.463  1.00  0.00     0.212 HD
ENDBRANCH  23  24
BRANCH  23  26
HETATM   26  N1  UNL     1       1.866  46.822 -49.375  1.00  0.00    -0.361 N 
ATOM     27  H1  UNL     1       0.851  46.921 -49.385  1.00  0.00     0.158 HD
BRANCH  26  28
HETATM   28  C30 UNL     1       2.373  45.533 -49.288  1.00  0.00     0.319 C 
BRANCH  28  29
HETATM   29  O6  UNL     1       3.221  45.476 -48.132  1.00  0.00    -0.367 OA
ATOM     30  H6  UNL     1       2.674  45.272 -47.383  1.00  0.00     0.212 HD
ENDBRANCH  28  29
BRANCH  28  31
HETATM   31  C31 UNL     1       1.431  44.412 -49.113  1.00  0.00     0.223 C 
HETATM   32  O7  UNL     1       0.232  44.418 -49.493  1.00  0.00    -0.645 OA
HETATM   33  O8  UNL     1       1.815  43.213 -48.487  1.00  0.00    -0.645 OA
ENDBRANCH  28  31
ENDBRANCH  26  28
ENDBRANCH  23  26
ENDBRANCH  20  23
ENDBRANCH  17  20
BRANCH  18  34
HETATM   34  O9  UNL     1       4.905  50.274 -47.403  1.00  0.00    -0.394 OA
ATOM     35  H9  UNL     1       5.161  49.410 -47.701  1.00  0.00     0.210 HD
ENDBRANCH  18  34
BRANCH  19  36
HETATM   36  C34 UNL     1       5.362  52.597 -47.647  1.00  0.00     0.180 C 
BRANCH  36  37
HETATM   37  O10 UNL     1       5.153  52.725 -46.344  1.00  0.00    -0.400 OA
ATOM     38  H10 UNL     1       5.741  52.339 -45.705  1.00  0.00     0.209 HD
ENDBRANCH  36  37
ENDBRANCH  19  36
BRANCH  14  39
HETATM   39  O3  UNL     1       3.440  53.833 -46.899  1.00  0.00    -0.388 OA
ATOM     40  H3  UNL     1       2.597  54.180 -46.631  1.00  0.00     0.210 HD
ENDBRANCH  14  39
BRANCH   3  41
HETATM   41  O2  UNL     1       5.330  50.912 -51.512  1.00  0.00    -0.395 OA
ATOM     42  H2  UNL     1       5.138  50.062 -51.133  1.00  0.00     0.210 HD
ENDBRANCH   3  41
BRANCH   1  43
HETATM   43  C9  UNL     1       1.754  53.234 -53.423  1.00  0.00    -0.014 C 
HETATM   44  C10 UNL     1       1.639  53.971 -54.686  1.00  0.00     0.010 C 
BRANCH  43  45
HETATM   45  C8  UNL     1       1.654  51.751 -53.716  1.00  0.00     0.005 C 
BRANCH  45  46
HETATM   46  C7  UNL     1       0.300  51.161 -53.540  1.00  0.00     0.007 C 
BRANCH  46  47
HETATM   47  C5  UNL     1      -0.367  51.568 -52.249  1.00  0.00     0.015 C 
HETATM   48  C6  UNL     1       0.083  50.773 -51.053  1.00  0.00     0.013 C 
BRANCH  47  49
HETATM   49  C3  UNL     1      -1.843  51.677 -52.290  1.00  0.00     0.057 C 
HETATM   50  C4  UNL     1      -2.481  51.696 -53.632  1.00  0.00     0.046 C 
BRANCH  49  51
HETATM   51  C2  UNL     1      -2.298  52.885 -51.487  1.00  0.00     0.033 C 
HETATM   52  C1  UNL     1      -1.508  54.118 -51.760  1.00  0.00     0.008 C 
ENDBRANCH  49  51
BRANCH  49  53
HETATM   53  O1  UNL     1      -2.375  50.570 -51.594  1.00  0.00    -0.390 OA
ATOM     54  H1  UNL     1      -2.051  49.813 -52.068  1.00  0.00     0.210 HD
ENDBRANCH  49  53
ENDBRANCH  47  49
ENDBRANCH  46  47
ENDBRANCH  45  46
ENDBRANCH  43  45
ENDBRANCH   1  43
TORSDOF 20
ENDMDL
MODEL 2
REMARK VINA RESULT: -6.657389661      2.337      4.554
REMARK  20 active torsions:
REMARK  status: ('A' for Active; 'I' for Inactive)
REMARK    1  A    between atoms: C2_2  and  C3_3 
REMARK    2  A    between atoms: C3_3  and  O1_5 
REMARK    3  A    between atoms: C3_3  and  C5_7 
REMARK    4  A    between atoms: C5_7  and  C7_9 
REMARK    5  A    between atoms: C7_9  and  C8_10 
REMARK    6  A    between atoms: C8_10  and  C9_11 
REMARK    7  A    between atoms: C9_11  and  C11_13 
REMARK    8  A    between atoms: C13_15  and  O2_16 
REMARK    9  A    between atoms: C24_28  and  O3_29 
REMARK   10  A    between atoms: C27_33  and  C28_34 
REMARK   11  A    between atoms: C28_34  and  O4_35 
REMARK   12  A    between atoms: C28_34  and  C29_37 
REMARK   13  A    between atoms: C29_37  and  O5_38 
REMARK   14  A    between atoms: C29_37  and  N1_40 
REMARK   15  A    between atoms: N1_40  and  C30_42 
REMARK   16  A    between atoms: C30_42  and  O6_43 
REMARK   17  A    between atoms: C30_42  and  C31_45 
REMARK   18  A    between atoms: C32_48  and  O9_49 
REMARK   19  A    between atoms: C33_51  and  C34_52 
REMARK   20  A    between atoms: C34_52  and  O10_53 
ROOT
HETATM    1  C11 UNL     1       5.495  55.157 -48.802  1.00  0.00     0.001 C 
HETATM    2  C12 UNL     1       5.714  54.043 -47.863  1.00  0.00     0.038 C 
HETATM    3  C13 UNL     1       4.600  53.430 -47.127  1.00  0.00     0.128 C 
HETATM    4  C14 UNL     1       3.275  54.068 -47.006  1.00  0.00     0.005 C 
HETATM    5  C15 UNL     1       3.208  54.356 -45.491  1.00  0.00     0.020 C 
HETATM    6  C16 UNL     1       3.247  55.359 -47.742  1.00  0.00    -0.021 C 
HETATM    7  C17 UNL     1       3.844  56.428 -46.842  1.00  0.00     0.017 C 
HETATM    8  C18 UNL     1       1.964  55.769 -48.346  1.00  0.00     0.008 A 
HETATM    9  C19 UNL     1       1.254  55.714 -49.614  1.00  0.00     0.019 A 
HETATM   10  C20 UNL     1       1.912  54.580 -49.146  1.00  0.00    -0.003 A 
HETATM   11  C21 UNL     1       3.302  54.406 -49.799  1.00  0.00     0.023 C 
HETATM   12  C22 UNL     1       4.085  55.422 -49.017  1.00  0.00    -0.031 C 
HETATM   13  C23 UNL     1       3.927  56.836 -49.550  1.00  0.00     0.016 C 
HETATM   14  C24 UNL     1       1.315  53.381 -48.476  1.00  0.00     0.079 C 
HETATM   15  C25 UNL     1       1.170  52.302 -49.459  1.00  0.00     0.040 C 
HETATM   16  C26 UNL     1       1.183  50.896 -48.894  1.00  0.00     0.013 C 
HETATM   17  C27 UNL     1       2.423  50.783 -48.097  1.00  0.00     0.048 C 
HETATM   18  C32 UNL     1       2.381  51.699 -46.928  1.00  0.00     0.139 C 
HETATM   19  C33 UNL     1       2.050  53.149 -47.198  1.00  0.00     0.049 C 
ENDROOT
BRANCH  17  20
HETATM   20  C28 UNL     1       2.802  49.416 -47.618  1.00  0.00     0.173 C 
BRANCH  20  21
HETATM   21  O4  UNL     1       2.410  49.085 -46.351  1.00  0.00    -0.391 OA
ATOM     22  H4  UNL     1       2.813  48.312 -45.972  1.00  0.00     0.210 HD
ENDBRANCH  20  21
BRANCH  20  23
HETATM   23  C29 UNL     1       2.453  48.287 -48.562  1.00  0.00     0.245 C 
BRANCH  23  24
HETATM   24  O5  UNL     1       3.516  48.132 -49.444  1.00  0.00    -0.374 OA
ATOM     25  H5  UNL     1       3.614  48.948 -49.921  1.00  0.00     0.212 HD
ENDBRANCH  23  24
BRANCH  23  26
HETATM   26  N1  UNL     1       2.044  47.084 -48.011  1.00  0.00    -0.361 N 
ATOM     27  H1  UNL     1       1.550  47.128 -47.120  1.00  0.00     0.158 HD
BRANCH  26  28
HETATM   28  C30 UNL     1       2.245  45.826 -48.560  1.00  0.00     0.319 C 
BRANCH  28  29
HETATM   29  O6  UNL     1       3.512  45.343 -48.090  1.00  0.00    -0.367 OA
ATOM     30  H6  UNL     1       3.410  44.423 -47.881  1.00  0.00     0.212 HD
ENDBRANCH  28  29
BRANCH  28  31
HETATM   31  C31 UNL     1       1.291  44.749 -48.230  1.00  0.00     0.223 C 
HETATM   32  O7  UNL     1       1.319  44.068 -47.172  1.00  0.00    -0.645 OA
HETATM   33  O8  UNL     1       0.248  44.391 -49.101  1.00  0.00    -0.645 OA
ENDBRANCH  28  31
ENDBRANCH  26  28
ENDBRANCH  23  26
ENDBRANCH  20  23
ENDBRANCH  17  20
BRANCH  18  34
HETATM   34  O9  UNL     1       1.496  51.063 -46.010  1.00  0.00    -0.394 OA
ATOM     35  H9  UNL     1       0.637  51.396 -46.240  1.00  0.00     0.210 HD
ENDBRANCH  18  34
BRANCH  19  36
HETATM   36  C34 UNL     1       0.972  53.382 -46.123  1.00  0.00     0.180 C 
BRANCH  36  37
HETATM   37  O10 UNL     1       0.603  54.603 -45.764  1.00  0.00    -0.400 OA
ATOM     38  H10 UNL     1       0.476  55.294 -46.403  1.00  0.00     0.209 HD
ENDBRANCH  36  37
ENDBRANCH  19  36
BRANCH  14  39
HETATM   39  O3  UNL     1      -0.028  53.833 -48.262  1.00  0.00    -0.388 OA
ATOM     40  H3  UNL     1       0.041  54.192 -47.385  1.00  0.00     0.210 HD
ENDBRANCH  14  39
BRANCH   3  41
HETATM   41  O2  UNL     1       5.168  53.053 -45.860  1.00  0.00    -0.395 OA
ATOM     42  H2  UNL     1       4.447  52.657 -45.384  1.00  0.00     0.210 HD
ENDBRANCH   3  41
BRANCH   1  43
HETATM   43  C9  UNL     1       6.428  54.962 -49.934  1.00  0.00    -0.014 C 
HETATM   44  C10 UNL     1       7.621  55.811 -50.036  1.00  0.00     0.010 C 
BRANCH  43  45
HETATM   45  C8  UNL     1       6.867  53.512 -49.918  1.00  0.00     0.005 C 
BRANCH  45  46
HETATM   46  C7  UNL     1       6.824  52.822 -51.235  1.00  0.00     0.007 C 
BRANCH  46  47
HETATM   47  C5  UNL     1       6.994  51.326 -51.132  1.00  0.00     0.015 C 
HETATM   48  C6  UNL     1       8.002  50.758 -52.095  1.00  0.00     0.013 C 
BRANCH  47  49
HETATM   49  C3  UNL     1       5.743  50.532 -51.141  1.00  0.00     0.057 C 
HETATM   50  C4  UNL     1       5.781  49.223 -51.843  1.00  0.00     0.046 C 
BRANCH  49  51
HETATM   51  C2  UNL     1       4.597  51.373 -51.681  1.00  0.00     0.033 C 
HETATM   52  C1  UNL     1       3.376  50.584 -52.005  1.00  0.00     0.008 C 
ENDBRANCH  49  51
BRANCH  49  53
HETATM   53  O1  UNL     1       5.389  50.273 -49.799  1.00  0.00    -0.390 OA
ATOM     54  H1  UNL     1       6.072  50.693 -49.289  1.00  0.00     0.210 HD
ENDBRANCH  49  53
ENDBRANCH  47  49
ENDBRANCH  46  47
ENDBRANCH  45  46
ENDBRANCH  43  45
ENDBRANCH   1  43
TORSDOF 20
ENDMDL
MODEL 3
REMARK VINA RESULT: -6.392799670      3.379      6.890
REMARK  20 active torsions:
REMARK  status: ('A' for Active; 'I' for Inactive)
REMARK    1  A    between atoms: C2_2  and  C3_3 
REMARK    2  A    between atoms: C3_3  and  O1_5 
REMARK    3  A    between atoms: C3_3  and  C5_7 
REMARK    4  A    between atoms: C5_7  and  C7_9 
REMARK    5  A    between atoms: C7_9  and  C8_10 
REMARK    6  A    between atoms: C8_10  and  C9_11 
REMARK    7  A    between atoms: C9_11  and  C11_13 
REMARK    8  A    between atoms: C13_15  and  O2_16 
REMARK    9  A    between atoms: C24_28  and  O3_29 
REMARK   10  A    between atoms: C27_33  and  C28_34 
REMARK   11  A    between atoms: C28_34  and  O4_35 
REMARK   12  A    between atoms: C28_34  and  C29_37 
REMARK   13  A    between atoms: C29_37  and  O5_38 
REMARK   14  A    between atoms: C29_37  and  N1_40 
REMARK   15  A    between atoms: N1_40  and  C30_42 
REMARK   16  A    between atoms: C30_42  and  O6_43 
REMARK   17  A    between atoms: C30_42  and  C31_45 
REMARK   18  A    between atoms: C32_48  and  O9_49 
REMARK   19  A    between atoms: C33_51  and  C34_52 
REMARK   20  A    between atoms: C34_52  and  O10_53 
ROOT
HETATM    1  C11 UNL     1       1.729  49.683 -52.724  1.00  0.00     0.001 C 
HETATM    2  C12 UNL     1       1.432  48.493 -51.906  1.00  0.00     0.038 C 
HETATM    3  C13 UNL     1       1.888  47.155 -52.305  1.00  0.00     0.128 C 
HETATM    4  C14 UNL     1       2.363  46.846 -53.667  1.00  0.00     0.005 C 
HETATM    5  C15 UNL     1       1.277  45.865 -54.158  1.00  0.00     0.020 C 
HETATM    6  C16 UNL     1       2.333  48.062 -54.520  1.00  0.00    -0.021 C 
HETATM    7  C17 UNL     1       0.919  48.231 -55.051  1.00  0.00     0.017 C 
HETATM    8  C18 UNL     1       3.359  48.179 -55.575  1.00  0.00     0.008 A 
HETATM    9  C19 UNL     1       4.666  48.774 -55.807  1.00  0.00     0.019 A 
HETATM   10  C20 UNL     1       4.419  48.105 -54.611  1.00  0.00    -0.003 A 
HETATM   11  C21 UNL     1       4.064  49.078 -53.465  1.00  0.00     0.023 C 
HETATM   12  C22 UNL     1       2.636  49.383 -53.816  1.00  0.00    -0.031 C 
HETATM   13  C23 UNL     1       2.499  50.462 -54.877  1.00  0.00     0.016 C 
HETATM   14  C24 UNL     1       4.842  46.720 -54.228  1.00  0.00     0.079 C 
HETATM   15  C25 UNL     1       6.035  46.799 -53.378  1.00  0.00     0.040 C 
HETATM   16  C26 UNL     1       6.236  45.639 -52.424  1.00  0.00     0.013 C 
HETATM   17  C27 UNL     1       4.985  45.523 -51.646  1.00  0.00     0.048 C 
HETATM   18  C32 UNL     1       3.852  45.141 -52.528  1.00  0.00     0.139 C 
HETATM   19  C33 UNL     1       3.633  45.974 -53.770  1.00  0.00     0.049 C 
ENDROOT
BRANCH  17  20
HETATM   20  C28 UNL     1       5.000  44.602 -50.465  1.00  0.00     0.173 C 
BRANCH  20  21
HETATM   21  O4  UNL     1       6.197  44.460 -49.820  1.00  0.00    -0.391 OA
ATOM     22  H4  UNL     1       6.467  43.571 -49.619  1.00  0.00     0.210 HD
ENDBRANCH  20  21
BRANCH  20  23
HETATM   23  C29 UNL     1       3.909  44.849 -49.447  1.00  0.00     0.245 C 
BRANCH  23  24
HETATM   24  O5  UNL     1       3.485  46.164 -49.596  1.00  0.00    -0.374 OA
ATOM     25  H5  UNL     1       2.994  46.217 -50.408  1.00  0.00     0.212 HD
ENDBRANCH  23  24
BRANCH  23  26
HETATM   26  N1  UNL     1       2.853  43.955 -49.399  1.00  0.00    -0.361 N 
ATOM     27  H1  UNL     1       3.062  42.980 -49.614  1.00  0.00     0.158 HD
BRANCH  26  28
HETATM   28  C30 UNL     1       1.537  44.263 -49.086  1.00  0.00     0.319 C 
BRANCH  28  29
HETATM   29  O6  UNL     1       0.771  43.054 -49.190  1.00  0.00    -0.367 OA
ATOM     30  H6  UNL     1      -0.123  43.257 -48.942  1.00  0.00     0.212 HD
ENDBRANCH  28  29
BRANCH  28  31
HETATM   31  C31 UNL     1       1.232  44.782 -47.739  1.00  0.00     0.223 C 
HETATM   32  O7  UNL     1       1.280  45.995 -47.411  1.00  0.00    -0.645 OA
HETATM   33  O8  UNL     1       0.852  43.930 -46.686  1.00  0.00    -0.645 OA
ENDBRANCH  28  31
ENDBRANCH  26  28
ENDBRANCH  23  26
ENDBRANCH  20  23
ENDBRANCH  17  20
BRANCH  18  34
HETATM   34  O9  UNL     1       4.054  43.755 -52.788  1.00  0.00    -0.394 OA
ATOM     35  H9  UNL     1       3.828  43.650 -53.703  1.00  0.00     0.210 HD
ENDBRANCH  18  34
BRANCH  19  36
HETATM   36  C34 UNL     1       3.489  44.857 -54.820  1.00  0.00     0.180 C 
BRANCH  36  37
HETATM   37  O10 UNL     1       4.490  44.037 -55.104  1.00  0.00    -0.400 OA
ATOM     38  H10 UNL     1       4.338  43.140 -55.379  1.00  0.00     0.209 HD
ENDBRANCH  36  37
ENDBRANCH  19  36
BRANCH  14  39
HETATM   39  O3  UNL     1       5.344  46.236 -55.481  1.00  0.00    -0.388 OA
ATOM     40  H3  UNL     1       6.051  45.675 -55.185  1.00  0.00     0.210 HD
ENDBRANCH  14  39
BRANCH   3  41
HETATM   41  O2  UNL     1       0.850  46.269 -51.849  1.00  0.00    -0.395 OA
ATOM     42  H2  UNL     1       1.312  45.489 -51.562  1.00  0.00     0.210 HD
ENDBRANCH   3  41
BRANCH   1  43
HETATM   43  C9  UNL     1       1.985  50.801 -51.788  1.00  0.00    -0.014 C 
HETATM   44  C10 UNL     1       1.625  52.167 -52.186  1.00  0.00     0.010 C 
BRANCH  43  45
HETATM   45  C8  UNL     1       1.282  50.475 -50.486  1.00  0.00     0.005 C 
BRANCH  45  46
HETATM   46  C7  UNL     1       1.905  51.057 -49.267  1.00  0.00     0.007 C 
BRANCH  46  47
HETATM   47  C5  UNL     1       3.127  50.302 -48.803  1.00  0.00     0.015 C 
HETATM   48  C6  UNL     1       2.837  49.251 -47.765  1.00  0.00     0.013 C 
BRANCH  47  49
HETATM   49  C3  UNL     1       4.289  51.133 -48.409  1.00  0.00     0.057 C 
HETATM   50  C4  UNL     1       3.997  52.432 -47.752  1.00  0.00     0.046 C 
BRANCH  49  51
HETATM   51  C2  UNL     1       5.199  51.354 -49.607  1.00  0.00     0.033 C 
HETATM   52  C1  UNL     1       5.352  50.153 -50.473  1.00  0.00     0.008 C 
ENDBRANCH  49  51
BRANCH  49  53
HETATM   53  O1  UNL     1       5.071  50.378 -47.508  1.00  0.00    -0.390 OA
ATOM     54  H1  UNL     1       5.303  50.993 -46.822  1.00  0.00     0.210 HD
ENDBRANCH  49  53
ENDBRANCH  47  49
ENDBRANCH  46  47
ENDBRANCH  45  46
ENDBRANCH  43  45
ENDBRANCH   1  43
TORSDOF 20
ENDMDL
MODEL 4
REMARK VINA RESULT: -6.330165905      0.628      1.059
REMARK  20 active torsions:
REMARK  status: ('A' for Active; 'I' for Inactive)
REMARK    1  A    between atoms: C2_2  and  C3_3 
REMARK    2  A    between atoms: C3_3  and  O1_5 
REMARK    3  A    between atoms: C3_3  and  C5_7 
REMARK    4  A    between atoms: C5_7  and  C7_9 
REMARK    5  A    between atoms: C7_9  and  C8_10 
REMARK    6  A    between atoms: C8_10  and  C9_11 
REMARK    7  A    between atoms: C9_11  and  C11_13 
REMARK    8  A    between atoms: C13_15  and  O2_16 
REMARK    9  A    between atoms: C24_28  and  O3_29 
REMARK   10  A    between atoms: C27_33  and  C28_34 
REMARK   11  A    between atoms: C28_34  and  O4_35 
REMARK   12  A    between atoms: C28_34  and  C29_37 
REMARK   13  A    between atoms: C29_37  and  O5_38 
REMARK   14  A    between atoms: C29_37  and  N1_40 
REMARK   15  A    between atoms: N1_40  and  C30_42 
REMARK   16  A    between atoms: C30_42  and  O6_43 
REMARK   17  A    between atoms: C30_42  and  C31_45 
REMARK   18  A    between atoms: C32_48  and  O9_49 
REMARK   19  A    between atoms: C33_51  and  C34_52 
REMARK   20  A    between atoms: C34_52  and  O10_53 
ROOT
HETATM    1  C11 UNL     1       2.857  53.601 -52.493  1.00  0.00     0.001 C 
HETATM    2  C12 UNL     1       3.493  52.280 -52.347  1.00  0.00     0.038 C 
HETATM    3  C13 UNL     1       4.146  51.878 -51.094  1.00  0.00     0.128 C 
HETATM    4  C14 UNL     1       4.509  52.841 -50.037  1.00  0.00     0.005 C 
HETATM    5  C15 UNL     1       6.050  52.757 -50.059  1.00  0.00     0.020 C 
HETATM    6  C16 UNL     1       4.098  54.217 -50.420  1.00  0.00    -0.021 C 
HETATM    7  C17 UNL     1       5.175  54.798 -51.321  1.00  0.00     0.017 C 
HETATM    8  C18 UNL     1       3.702  55.135 -49.334  1.00  0.00     0.008 A 
HETATM    9  C19 UNL     1       2.512  55.611 -48.647  1.00  0.00     0.019 A 
HETATM   10  C20 UNL     1       2.653  54.252 -48.913  1.00  0.00    -0.003 A 
HETATM   11  C21 UNL     1       1.877  53.825 -50.179  1.00  0.00     0.023 C 
HETATM   12  C22 UNL     1       2.814  54.329 -51.239  1.00  0.00    -0.031 C 
HETATM   13  C23 UNL     1       2.638  55.809 -51.537  1.00  0.00     0.016 C 
HETATM   14  C24 UNL     1       3.069  53.168 -47.966  1.00  0.00     0.079 C 
HETATM   15  C25 UNL     1       1.874  52.460 -47.491  1.00  0.00     0.040 C 
HETATM   16  C26 UNL     1       2.095  51.024 -47.059  1.00  0.00     0.013 C 
HETATM   17  C27 UNL     1       2.750  50.346 -48.196  1.00  0.00     0.048 C 
HETATM   18  C32 UNL     1       4.100  50.916 -48.441  1.00  0.00     0.139 C 
HETATM   19  C33 UNL     1       4.200  52.417 -48.585  1.00  0.00     0.049 C 
ENDROOT
BRANCH  17  20
HETATM   20  C28 UNL     1       2.868  48.855 -48.124  1.00  0.00     0.173 C 
BRANCH  20  21
HETATM   21  O4  UNL     1       2.183  48.238 -47.114  1.00  0.00    -0.391 OA
ATOM     22  H4  UNL     1       2.424  47.338 -46.928  1.00  0.00     0.210 HD
ENDBRANCH  20  21
BRANCH  20  23
HETATM   23  C29 UNL     1       2.605  48.128 -49.425  1.00  0.00     0.245 C 
BRANCH  23  24
HETATM   24  O5  UNL     1       3.818  48.014 -50.094  1.00  0.00    -0.374 OA
ATOM     25  H5  UNL     1       3.769  47.243 -50.647  1.00  0.00     0.212 HD
ENDBRANCH  23  24
BRANCH  23  26
HETATM   26  N1  UNL     1       1.917  46.929 -49.369  1.00  0.00    -0.361 N 
ATOM     27  H1  UNL     1       0.898  46.979 -49.391  1.00  0.00     0.158 HD
BRANCH  26  28
HETATM   28  C30 UNL     1       2.483  45.665 -49.287  1.00  0.00     0.319 C 
BRANCH  28  29
HETATM   29  O6  UNL     1       3.370  45.659 -48.158  1.00  0.00    -0.367 OA
ATOM     30  H6  UNL     1       3.270  44.824 -47.718  1.00  0.00     0.212 HD
ENDBRANCH  28  29
BRANCH  28  31
HETATM   31  C31 UNL     1       1.599  44.505 -49.070  1.00  0.00     0.223 C 
HETATM   32  O7  UNL     1       1.934  43.451 -48.471  1.00  0.00    -0.645 OA
HETATM   33  O8  UNL     1       0.272  44.489 -49.534  1.00  0.00    -0.645 OA
ENDBRANCH  28  31
ENDBRANCH  26  28
ENDBRANCH  23  26
ENDBRANCH  20  23
ENDBRANCH  17  20
BRANCH  18  34
HETATM   34  O9  UNL     1       4.907  50.378 -47.398  1.00  0.00    -0.394 OA
ATOM     35  H9  UNL     1       5.380  49.664 -47.808  1.00  0.00     0.210 HD
ENDBRANCH  18  34
BRANCH  19  36
HETATM   36  C34 UNL     1       5.376  52.700 -47.633  1.00  0.00     0.180 C 
BRANCH  36  37
HETATM   37  O10 UNL     1       5.210  52.746 -46.318  1.00  0.00    -0.400 OA
ATOM     38  H10 UNL     1       4.451  52.359 -45.898  1.00  0.00     0.209 HD
ENDBRANCH  36  37
ENDBRANCH  19  36
BRANCH  14  39
HETATM   39  O3  UNL     1       3.480  53.944 -46.833  1.00  0.00    -0.388 OA
ATOM     40  H3  UNL     1       2.997  53.514 -46.137  1.00  0.00     0.210 HD
ENDBRANCH  14  39
BRANCH   3  41
HETATM   41  O2  UNL     1       5.245  51.048 -51.510  1.00  0.00    -0.395 OA
ATOM     42  H2  UNL     1       5.615  50.717 -50.699  1.00  0.00     0.210 HD
ENDBRANCH   3  41
BRANCH   1  43
HETATM   43  C9  UNL     1       1.645  53.411 -53.322  1.00  0.00    -0.014 C 
HETATM   44  C10 UNL     1       1.335  54.385 -54.375  1.00  0.00     0.010 C 
BRANCH  43  45
HETATM   45  C8  UNL     1       1.731  52.034 -53.946  1.00  0.00     0.005 C 
BRANCH  45  46
HETATM   46  C7  UNL     1       0.440  51.474 -54.426  1.00  0.00     0.007 C 
BRANCH  46  47
HETATM   47  C5  UNL     1      -0.127  50.412 -53.515  1.00  0.00     0.015 C 
HETATM   48  C6  UNL     1      -0.381  49.095 -54.197  1.00  0.00     0.013 C 
BRANCH  47  49
HETATM   49  C3  UNL     1      -1.290  50.819 -52.693  1.00  0.00     0.057 C 
HETATM   50  C4  UNL     1      -2.314  51.673 -53.350  1.00  0.00     0.046 C 
BRANCH  49  51
HETATM   51  C2  UNL     1      -0.814  51.481 -51.410  1.00  0.00     0.033 C 
HETATM   52  C1  UNL     1       0.360  50.808 -50.788  1.00  0.00     0.008 C 
ENDBRANCH  49  51
BRANCH  49  53
HETATM   53  O1  UNL     1      -1.944  49.644 -52.262  1.00  0.00    -0.390 OA
ATOM     54  H1  UNL     1      -2.313  49.273 -53.056  1.00  0.00     0.210 HD
ENDBRANCH  49  53
ENDBRANCH  47  49
ENDBRANCH  46  47
ENDBRANCH  45  46
ENDBRANCH  43  45
ENDBRANCH   1  43
TORSDOF 20
ENDMDL
MODEL 5
REMARK VINA RESULT: -6.260672476      0.976      1.449
REMARK  20 active torsions:
REMARK  status: ('A' for Active; 'I' for Inactive)
REMARK    1  A    between atoms: C2_2  and  C3_3 
REMARK    2  A    between atoms: C3_3  and  O1_5 
REMARK    3  A    between atoms: C3_3  and  C5_7 
REMARK    4  A    between atoms: C5_7  and  C7_9 
REMARK    5  A    between atoms: C7_9  and  C8_10 
REMARK    6  A    between atoms: C8_10  and  C9_11 
REMARK    7  A    between atoms: C9_11  and  C11_13 
REMARK    8  A    between atoms: C13_15  and  O2_16 
REMARK    9  A    between atoms: C24_28  and  O3_29 
REMARK   10  A    between atoms: C27_33  and  C28_34 
REMARK   11  A    between atoms: C28_34  and  O4_35 
REMARK   12  A    between atoms: C28_34  and  C29_37 
REMARK   13  A    between atoms: C29_37  and  O5_38 
REMARK   14  A    between atoms: C29_37  and  N1_40 
REMARK   15  A    between atoms: N1_40  and  C30_42 
REMARK   16  A    between atoms: C30_42  and  O6_43 
REMARK   17  A    between atoms: C30_42  and  C31_45 
REMARK   18  A    between atoms: C32_48  and  O9_49 
REMARK   19  A    between atoms: C33_51  and  C34_52 
REMARK   20  A    between atoms: C34_52  and  O10_53 
ROOT
HETATM    1  C11 UNL     1       2.488  52.844 -52.828  1.00  0.00     0.001 C 
HETATM    2  C12 UNL     1       3.142  51.582 -52.443  1.00  0.00     0.038 C 
HETATM    3  C13 UNL     1       3.900  51.463 -51.189  1.00  0.00     0.128 C 
HETATM    4  C14 UNL     1       4.343  52.633 -50.409  1.00  0.00     0.005 C 
HETATM    5  C15 UNL     1       5.877  52.529 -50.538  1.00  0.00     0.020 C 
HETATM    6  C16 UNL     1       3.892  53.894 -51.055  1.00  0.00    -0.021 C 
HETATM    7  C17 UNL     1       4.886  54.246 -52.148  1.00  0.00     0.017 C 
HETATM    8  C18 UNL     1       3.581  55.036 -50.173  1.00  0.00     0.008 A 
HETATM    9  C19 UNL     1       2.448  55.668 -49.514  1.00  0.00     0.019 A 
HETATM   10  C20 UNL     1       2.576  54.282 -49.480  1.00  0.00    -0.003 A 
HETATM   11  C21 UNL     1       1.701  53.592 -50.551  1.00  0.00     0.023 C 
HETATM   12  C22 UNL     1       2.544  53.835 -51.770  1.00  0.00    -0.031 C 
HETATM   13  C23 UNL     1       2.333  55.213 -52.376  1.00  0.00     0.016 C 
HETATM   14  C24 UNL     1       3.076  53.433 -48.352  1.00  0.00     0.079 C 
HETATM   15  C25 UNL     1       1.930  52.863 -47.634  1.00  0.00     0.040 C 
HETATM   16  C26 UNL     1       2.196  51.558 -46.911  1.00  0.00     0.013 C 
HETATM   17  C27 UNL     1       2.759  50.635 -47.918  1.00  0.00     0.048 C 
HETATM   18  C32 UNL     1       4.080  51.120 -48.394  1.00  0.00     0.139 C 
HETATM   19  C33 UNL     1       4.157  52.549 -48.878  1.00  0.00     0.049 C 
ENDROOT
BRANCH  17  20
HETATM   20  C28 UNL     1       2.893  49.197 -47.524  1.00  0.00     0.173 C 
BRANCH  20  21
HETATM   21  O4  UNL     1       2.389  48.851 -46.300  1.00  0.00    -0.391 OA
ATOM     22  H4  UNL     1       3.004  48.843 -45.576  1.00  0.00     0.210 HD
ENDBRANCH  20  21
BRANCH  20  23
HETATM   23  C29 UNL     1       2.420  48.201 -48.560  1.00  0.00     0.245 C 
BRANCH  23  24
HETATM   24  O5  UNL     1       3.442  48.041 -49.487  1.00  0.00    -0.374 OA
ATOM     25  H5  UNL     1       4.231  47.815 -49.008  1.00  0.00     0.212 HD
ENDBRANCH  23  24
BRANCH  23  26
HETATM   26  N1  UNL     1       1.916  46.992 -48.114  1.00  0.00    -0.361 N 
ATOM     27  H1  UNL     1       1.301  47.018 -47.301  1.00  0.00     0.158 HD
BRANCH  26  28
HETATM   28  C30 UNL     1       2.170  45.747 -48.672  1.00  0.00     0.319 C 
BRANCH  28  29
HETATM   29  O6  UNL     1       3.413  45.275 -48.134  1.00  0.00    -0.367 OA
ATOM     30  H6  UNL     1       3.314  45.212 -47.192  1.00  0.00     0.212 HD
ENDBRANCH  28  29
BRANCH  28  31
HETATM   31  C31 UNL     1       1.216  44.650 -48.421  1.00  0.00     0.223 C 
HETATM   32  O7  UNL     1       0.297  44.306 -49.208  1.00  0.00    -0.645 OA
HETATM   33  O8  UNL     1       1.264  43.882 -47.244  1.00  0.00    -0.645 OA
ENDBRANCH  28  31
ENDBRANCH  26  28
ENDBRANCH  23  26
ENDBRANCH  20  23
ENDBRANCH  17  20
BRANCH  18  34
HETATM   34  O9  UNL     1       4.975  50.819 -47.327  1.00  0.00    -0.394 OA
ATOM     35  H9  UNL     1       5.520  50.119 -47.664  1.00  0.00     0.210 HD
ENDBRANCH  18  34
BRANCH  19  36
HETATM   36  C34 UNL     1       5.406  53.024 -48.113  1.00  0.00     0.180 C 
BRANCH  36  37
HETATM   37  O10 UNL     1       5.457  53.010 -46.789  1.00  0.00    -0.400 OA
ATOM     38  H10 UNL     1       6.231  53.292 -46.316  1.00  0.00     0.209 HD
ENDBRANCH  36  37
ENDBRANCH  19  36
BRANCH  14  39
HETATM   39  O3  UNL     1       3.574  54.438 -47.459  1.00  0.00    -0.388 OA
ATOM     40  H3  UNL     1       3.038  55.181 -47.708  1.00  0.00     0.210 HD
ENDBRANCH  14  39
BRANCH   3  41
HETATM   41  O2  UNL     1       4.967  50.548 -51.497  1.00  0.00    -0.395 OA
ATOM     42  H2  UNL     1       5.760  51.056 -51.373  1.00  0.00     0.210 HD
ENDBRANCH   3  41
BRANCH   1  43
HETATM   43  C9  UNL     1       1.213  52.488 -53.491  1.00  0.00    -0.014 C 
HETATM   44  C10 UNL     1       1.133  52.514 -54.956  1.00  0.00     0.010 C 
BRANCH  43  45
HETATM   45  C8  UNL     1       0.819  51.107 -53.008  1.00  0.00     0.005 C 
BRANCH  45  46
HETATM   46  C7  UNL     1      -0.404  51.056 -52.163  1.00  0.00     0.007 C 
BRANCH  46  47
HETATM   47  C5  UNL     1      -1.649  51.511 -52.885  1.00  0.00     0.015 C 
HETATM   48  C6  UNL     1      -2.451  52.538 -52.131  1.00  0.00     0.013 C 
BRANCH  47  49
HETATM   49  C3  UNL     1      -2.521  50.435 -53.410  1.00  0.00     0.057 C 
HETATM   50  C4  UNL     1      -1.995  49.635 -54.546  1.00  0.00     0.046 C 
BRANCH  49  51
HETATM   51  C2  UNL     1      -3.886  51.000 -53.767  1.00  0.00     0.033 C 
HETATM   52  C1  UNL     1      -4.780  50.022 -54.447  1.00  0.00     0.008 C 
ENDBRANCH  49  51
BRANCH  49  53
HETATM   53  O1  UNL     1      -2.777  49.536 -52.353  1.00  0.00    -0.390 OA
ATOM     54  H1  UNL     1      -3.540  49.895 -51.915  1.00  0.00     0.210 HD
ENDBRANCH  49  53
ENDBRANCH  47  49
ENDBRANCH  46  47
ENDBRANCH  45  46
ENDBRANCH  43  45
ENDBRANCH   1  43
TORSDOF 20
ENDMDL
