MODEL 1
REMARK VINA RESULT: -6.468952670      0.000      0.000
REMARK  17 active torsions:
REMARK  status: ('A' for Active; 'I' for Inactive)
REMARK    1  A    between atoms: C3_4  and  C4_5 
REMARK    2  A    between atoms: C4_5  and  C5_6 
REMARK    3  A    between atoms: C5_6  and  C6_7 
REMARK    4  A    between atoms: C6_7  and  C7_8 
REMARK    5  A    between atoms: C7_8  and  C8_9 
REMARK    6  A    between atoms: C9_14  and  N4_15 
REMARK    7  A    between atoms: C10_17  and  C11_18 
REMARK    8  A    between atoms: C11_18  and  C12_19 
REMARK    9  A    between atoms: C12_19  and  N5_20 
REMARK       I    between atoms: N5_20  and  C13_22 
REMARK   10  A    between atoms: C13_22  and  C14_24 
REMARK   11  A    between atoms: C16_27  and  C17_28 
REMARK   12  A    between atoms: C17_28  and  C18_29 
REMARK   13  A    between atoms: C18_29  and  C19_30 
REMARK   14  A    between atoms: C19_30  and  C20_31 
REMARK   15  A    between atoms: C20_31  and  N6_32 
REMARK   16  A    between atoms: C20_31  and  C21_36 
REMARK   17  A    between atoms: C21_36  and  C22_37 
ROOT
HETATM    1  N5  UNL     1      51.872  20.373 -17.950  1.00  0.00    -0.355 N 
ATOM      2  H5  UNL     1      52.548  19.827 -18.484  1.00  0.00     0.162 HD
HETATM    3  C13 UNL     1      52.363  21.326 -17.023  1.00  0.00     0.268 C 
HETATM    4  O1  UNL     1      51.503  21.982 -16.384  1.00  0.00    -0.266 OA
ENDROOT
BRANCH   1   5
HETATM    5  C12 UNL     1      50.482  20.133 -18.177  1.00  0.00     0.128 C 
BRANCH   5   6
HETATM    6  C11 UNL     1      50.307  19.014 -19.221  1.00  0.00     0.064 C 
BRANCH   6   7
HETATM    7  C10 UNL     1      49.802  19.597 -20.503  1.00  0.00     0.064 C 
HETATM    8  N4  UNL     1      50.629  19.726 -21.580  1.00  0.00    -0.350 N 
ATOM      9  H4  UNL     1      50.073  20.040 -22.376  1.00  0.00     0.166 HD
BRANCH   8  10
HETATM   10  C9  UNL     1      51.784  19.604 -21.942  1.00  0.00     0.189 A 
HETATM   11  N3  UNL     1      52.868  19.968 -21.254  1.00  0.00    -0.280 N 
HETATM   12  N2  UNL     1      54.106  19.798 -21.759  1.00  0.00    -0.287 N 
ATOM     13  H3  UNL     1      52.758  20.383 -20.328  1.00  0.00     0.189 HD
HETATM   14  C8  UNL     1      54.337  19.266 -22.954  1.00  0.00     0.098 A 
ATOM     15  H2  UNL     1      54.904  20.092 -21.196  1.00  0.00     0.188 HD
HETATM   16  N8  UNL     1      53.281  18.878 -23.699  1.00  0.00    -0.309 N 
HETATM   17  C29 UNL     1      52.054  19.041 -23.212  1.00  0.00     0.292 A 
ATOM     18  H8  UNL     1      53.422  18.465 -24.621  1.00  0.00     0.170 HD
HETATM   19  O4  UNL     1      51.051  18.680 -23.898  1.00  0.00    -0.264 OA
BRANCH  14  20
HETATM   20  C7  UNL     1      55.744  19.127 -23.382  1.00  0.00     0.078 C 
BRANCH  20  21
HETATM   21  C6  UNL     1      56.425  18.016 -22.626  1.00  0.00     0.008 C 
BRANCH  21  22
HETATM   22  C5  UNL     1      56.784  16.914 -23.568  1.00  0.00     0.005 C 
BRANCH  22  23
HETATM   23  C4  UNL     1      56.598  17.282 -25.032  1.00  0.00     0.040 C 
BRANCH  23  24
HETATM   24  C3  UNL     1      57.423  16.404 -25.872  1.00  0.00    -0.042 A 
HETATM   25  C2  UNL     1      58.388  16.948 -26.687  1.00  0.00     0.100 A 
HETATM   26  N1  UNL     1      59.156  16.146 -27.463  1.00  0.00    -0.329 N 
HETATM   27  C1  UNL     1      60.165  16.749 -28.313  1.00  0.00     0.159 C 
HETATM   28  C32 UNL     1      58.995  14.809 -27.458  1.00  0.00     0.246 A 
HETATM   29  C31 UNL     1      58.035  14.220 -26.651  1.00  0.00     0.075 A 
HETATM   30  O5  UNL     1      59.734  14.083 -28.200  1.00  0.00    -0.268 OA
HETATM   31  C30 UNL     1      57.238  15.043 -25.846  1.00  0.00     0.014 A 
ENDBRANCH  23  24
ENDBRANCH  22  23
ENDBRANCH  21  22
ENDBRANCH  20  21
ENDBRANCH  14  20
ENDBRANCH   8  10
ENDBRANCH   6   7
ENDBRANCH   5   6
ENDBRANCH   1   5
BRANCH   3  32
HETATM   32  C14 UNL     1      53.824  21.529 -16.828  1.00  0.00     0.107 A 
HETATM   33  C15 UNL     1      54.713  20.511 -17.076  1.00  0.00     0.086 A 
HETATM   34  S1  UNL     1      56.206  21.266 -16.707  1.00  0.00    -0.086 SA
HETATM   35  C16 UNL     1      55.606  22.802 -16.270  1.00  0.00     0.051 A 
HETATM   36  N7  UNL     1      54.310  22.662 -16.425  1.00  0.00    -0.349 N 
ATOM     37  H7  UNL     1      53.685  23.444 -16.229  1.00  0.00     0.166 HD
BRANCH  35  38
HETATM   38  C17 UNL     1      56.430  23.976 -15.830  1.00  0.00     0.065 C 
BRANCH  38  39
HETATM   39  C18 UNL     1      55.584  25.227 -15.831  1.00  0.00     0.008 C 
BRANCH  39  40
HETATM   40  C19 UNL     1      55.082  25.573 -14.462  1.00  0.00     0.033 C 
BRANCH  40  41
HETATM   41  C20 UNL     1      55.882  24.900 -13.373  1.00  0.00     0.187 C 
BRANCH  41  42
HETATM   42  N6  UNL     1      56.757  25.840 -12.695  1.00  0.00    -0.075 N 
ATOM     43  H63 UNL     1      57.187  26.490 -13.354  1.00  0.00     0.274 HD
ATOM     44  H62 UNL     1      56.225  26.509 -12.138  1.00  0.00     0.274 HD
ATOM     45  H61 UNL     1      57.459  25.360 -12.132  1.00  0.00     0.274 HD
ENDBRANCH  41  42
BRANCH  41  46
HETATM   46  C21 UNL     1      55.021  24.224 -12.353  1.00  0.00     0.071 C 
BRANCH  46  47
HETATM   47  C22 UNL     1      54.706  22.817 -12.717  1.00  0.00    -0.053 A 
HETATM   48  C23 UNL     1      53.422  22.378 -12.957  1.00  0.00     0.010 A 
HETATM   49  C24 UNL     1      53.104  21.077 -13.285  1.00  0.00     0.040 A 
HETATM   50  C25 UNL     1      54.139  20.158 -13.378  1.00  0.00     0.105 A 
HETATM   51  C26 UNL     1      55.429  20.567 -13.144  1.00  0.00     0.105 A 
HETATM   52  O3  UNL     1      54.193  18.793 -13.679  1.00  0.00    -0.323 OA
HETATM   53  C27 UNL     1      55.720  21.879 -12.816  1.00  0.00     0.047 A 
HETATM   54  O2  UNL     1      56.243  19.443 -13.306  1.00  0.00    -0.323 OA
HETATM   55  C28 UNL     1      55.427  18.267 -13.186  1.00  0.00     0.352 C 
ENDBRANCH  46  47
ENDBRANCH  41  46
ENDBRANCH  40  41
ENDBRANCH  39  40
ENDBRANCH  38  39
ENDBRANCH  35  38
ENDBRANCH   3  32
TORSDOF 17
ENDMDL
MODEL 2
REMARK VINA RESULT: -6.454415627      3.191      4.965
REMARK  17 active torsions:
REMARK  status: ('A' for Active; 'I' for Inactive)
REMARK    1  A    between atoms: C3_4  and  C4_5 
REMARK    2  A    between atoms: C4_5  and  C5_6 
REMARK    3  A    between atoms: C5_6  and  C6_7 
REMARK    4  A    between atoms: C6_7  and  C7_8 
REMARK    5  A    between atoms: C7_8  and  C8_9 
REMARK    6  A    between atoms: C9_14  and  N4_15 
REMARK    7  A    between atoms: C10_17  and  C11_18 
REMARK    8  A    between atoms: C11_18  and  C12_19 
REMARK    9  A    between atoms: C12_19  and  N5_20 
REMARK       I    between atoms: N5_20  and  C13_22 
REMARK   10  A    between atoms: C13_22  and  C14_24 
REMARK   11  A    between atoms: C16_27  and  C17_28 
REMARK   12  A    between atoms: C17_28  and  C18_29 
REMARK   13  A    between atoms: C18_29  and  C19_30 
REMARK   14  A    between atoms: C19_30  and  C20_31 
REMARK   15  A    between atoms: C20_31  and  N6_32 
REMARK   16  A    between atoms: C20_31  and  C21_36 
REMARK   17  A    between atoms: C21_36  and  C22_37 
ROOT
HETATM    1  N5  UNL     1      51.627  20.133 -20.636  1.00  0.00    -0.355 N 
ATOM      2  H5  UNL     1      52.336  20.864 -20.649  1.00  0.00     0.162 HD
HETATM    3  C13 UNL     1      51.102  19.730 -19.383  1.00  0.00     0.268 C 
HETATM    4  O1  UNL     1      50.227  18.828 -19.404  1.00  0.00    -0.266 OA
ENDROOT
BRANCH   1   5
HETATM    5  C12 UNL     1      51.215  19.570 -21.883  1.00  0.00     0.128 C 
BRANCH   5   6
HETATM    6  C11 UNL     1      52.439  19.381 -22.801  1.00  0.00     0.064 C 
BRANCH   6   7
HETATM    7  C10 UNL     1      53.669  19.872 -22.105  1.00  0.00     0.064 C 
HETATM    8  N4  UNL     1      54.905  19.457 -22.506  1.00  0.00    -0.350 N 
ATOM      9  H4  UNL     1      55.606  19.981 -21.982  1.00  0.00     0.166 HD
BRANCH   8  10
HETATM   10  C9  UNL     1      55.481  18.693 -23.259  1.00  0.00     0.189 A 
HETATM   11  N3  UNL     1      55.258  18.559 -24.568  1.00  0.00    -0.280 N 
HETATM   12  N2  UNL     1      55.948  17.668 -25.306  1.00  0.00    -0.287 N 
ATOM     13  H3  UNL     1      54.553  19.143 -25.018  1.00  0.00     0.189 HD
HETATM   14  C8  UNL     1      56.883  16.871 -24.798  1.00  0.00     0.098 A 
ATOM     15  H2  UNL     1      55.743  17.601 -26.303  1.00  0.00     0.188 HD
HETATM   16  N8  UNL     1      57.154  16.959 -23.480  1.00  0.00    -0.309 N 
HETATM   17  C29 UNL     1      56.479  17.835 -22.739  1.00  0.00     0.292 A 
ATOM     18  H8  UNL     1      57.866  16.363 -23.057  1.00  0.00     0.170 HD
HETATM   19  O4  UNL     1      56.723  17.931 -21.499  1.00  0.00    -0.264 OA
BRANCH  14  20
HETATM   20  C7  UNL     1      57.571  15.946 -25.722  1.00  0.00     0.078 C 
BRANCH  20  21
HETATM   21  C6  UNL     1      58.603  16.679 -26.541  1.00  0.00     0.008 C 
BRANCH  21  22
HETATM   22  C5  UNL     1      58.367  16.421 -27.993  1.00  0.00     0.005 C 
BRANCH  22  23
HETATM   23  C4  UNL     1      58.455  17.672 -28.855  1.00  0.00     0.040 C 
BRANCH  23  24
HETATM   24  C3  UNL     1      57.309  18.546 -28.576  1.00  0.00    -0.042 A 
HETATM   25  C2  UNL     1      56.031  18.088 -28.799  1.00  0.00     0.100 A 
HETATM   26  N1  UNL     1      54.967  18.887 -28.543  1.00  0.00    -0.329 N 
HETATM   27  C1  UNL     1      53.632  18.376 -28.789  1.00  0.00     0.159 C 
HETATM   28  C32 UNL     1      55.131  20.135 -28.068  1.00  0.00     0.246 A 
HETATM   29  C31 UNL     1      56.400  20.636 -27.828  1.00  0.00     0.075 A 
HETATM   30  O5  UNL     1      54.108  20.861 -27.837  1.00  0.00    -0.268 OA
HETATM   31  C30 UNL     1      57.505  19.816 -28.091  1.00  0.00     0.014 A 
ENDBRANCH  23  24
ENDBRANCH  22  23
ENDBRANCH  21  22
ENDBRANCH  20  21
ENDBRANCH  14  20
ENDBRANCH   8  10
ENDBRANCH   6   7
ENDBRANCH   5   6
ENDBRANCH   1   5
BRANCH   3  32
HETATM   32  C14 UNL     1      51.573  20.351 -18.115  1.00  0.00     0.107 A 
HETATM   33  C15 UNL     1      50.674  20.770 -17.164  1.00  0.00     0.086 A 
HETATM   34  S1  UNL     1      51.722  21.380 -15.953  1.00  0.00    -0.086 SA
HETATM   35  C16 UNL     1      53.209  21.065 -16.728  1.00  0.00     0.051 A 
HETATM   36  N7  UNL     1      52.834  20.516 -17.860  1.00  0.00    -0.349 N 
ATOM     37  H7  UNL     1      53.534  20.220 -18.540  1.00  0.00     0.166 HD
BRANCH  35  38
HETATM   38  C17 UNL     1      54.570  21.369 -16.177  1.00  0.00     0.065 C 
BRANCH  38  39
HETATM   39  C18 UNL     1      55.154  20.131 -15.538  1.00  0.00     0.008 C 
BRANCH  39  40
HETATM   40  C19 UNL     1      55.875  20.440 -14.260  1.00  0.00     0.033 C 
BRANCH  40  41
HETATM   41  C20 UNL     1      55.432  19.548 -13.125  1.00  0.00     0.187 C 
BRANCH  41  42
HETATM   42  N6  UNL     1      55.852  20.074 -11.839  1.00  0.00    -0.075 N 
ATOM     43  H63 UNL     1      56.807  20.430 -11.875  1.00  0.00     0.274 HD
ATOM     44  H62 UNL     1      55.367  20.943 -11.615  1.00  0.00     0.274 HD
ATOM     45  H61 UNL     1      55.739  19.383 -11.097  1.00  0.00     0.274 HD
ENDBRANCH  41  42
BRANCH  41  46
HETATM   46  C21 UNL     1      53.950  19.337 -13.098  1.00  0.00     0.071 C 
BRANCH  46  47
HETATM   47  C22 UNL     1      53.582  17.913 -12.883  1.00  0.00    -0.053 A 
HETATM   48  C23 UNL     1      54.510  16.895 -12.883  1.00  0.00     0.010 A 
HETATM   49  C24 UNL     1      54.192  15.566 -12.696  1.00  0.00     0.040 A 
HETATM   50  C25 UNL     1      52.859  15.238 -12.497  1.00  0.00     0.105 A 
HETATM   51  C26 UNL     1      51.911  16.232 -12.493  1.00  0.00     0.105 A 
HETATM   52  O3  UNL     1      52.184  14.032 -12.282  1.00  0.00    -0.323 OA
HETATM   53  C27 UNL     1      52.258  17.558 -12.683  1.00  0.00     0.047 A 
HETATM   54  O2  UNL     1      50.678  15.612 -12.274  1.00  0.00    -0.323 OA
HETATM   55  C28 UNL     1      50.804  14.219 -12.601  1.00  0.00     0.352 C 
ENDBRANCH  46  47
ENDBRANCH  41  46
ENDBRANCH  40  41
ENDBRANCH  39  40
ENDBRANCH  38  39
ENDBRANCH  35  38
ENDBRANCH   3  32
TORSDOF 17
ENDMDL
MODEL 3
REMARK VINA RESULT: -6.451290914      3.421      5.354
REMARK  17 active torsions:
REMARK  status: ('A' for Active; 'I' for Inactive)
REMARK    1  A    between atoms: C3_4  and  C4_5 
REMARK    2  A    between atoms: C4_5  and  C5_6 
REMARK    3  A    between atoms: C5_6  and  C6_7 
REMARK    4  A    between atoms: C6_7  and  C7_8 
REMARK    5  A    between atoms: C7_8  and  C8_9 
REMARK    6  A    between atoms: C9_14  and  N4_15 
REMARK    7  A    between atoms: C10_17  and  C11_18 
REMARK    8  A    between atoms: C11_18  and  C12_19 
REMARK    9  A    between atoms: C12_19  and  N5_20 
REMARK       I    between atoms: N5_20  and  C13_22 
REMARK   10  A    between atoms: C13_22  and  C14_24 
REMARK   11  A    between atoms: C16_27  and  C17_28 
REMARK   12  A    between atoms: C17_28  and  C18_29 
REMARK   13  A    between atoms: C18_29  and  C19_30 
REMARK   14  A    between atoms: C19_30  and  C20_31 
REMARK   15  A    between atoms: C20_31  and  N6_32 
REMARK   16  A    between atoms: C20_31  and  C21_36 
REMARK   17  A    between atoms: C21_36  and  C22_37 
ROOT
HETATM    1  N5  UNL     1      51.647  20.013 -20.606  1.00  0.00    -0.355 N 
ATOM      2  H5  UNL     1      52.385  20.716 -20.643  1.00  0.00     0.162 HD
HETATM    3  C13 UNL     1      51.136  19.647 -19.336  1.00  0.00     0.268 C 
HETATM    4  O1  UNL     1      50.226  18.780 -19.325  1.00  0.00    -0.266 OA
ENDROOT
BRANCH   1   5
HETATM    5  C12 UNL     1      51.186  19.452 -21.836  1.00  0.00     0.128 C 
BRANCH   5   6
HETATM    6  C11 UNL     1      52.354  19.354 -22.836  1.00  0.00     0.064 C 
BRANCH   6   7
HETATM    7  C10 UNL     1      53.586  19.950 -22.231  1.00  0.00     0.064 C 
HETATM    8  N4  UNL     1      54.823  19.509 -22.600  1.00  0.00    -0.350 N 
ATOM      9  H4  UNL     1      55.522  20.108 -22.159  1.00  0.00     0.166 HD
BRANCH   8  10
HETATM   10  C9  UNL     1      55.401  18.666 -23.260  1.00  0.00     0.189 A 
HETATM   11  N3  UNL     1      55.178  18.383 -24.546  1.00  0.00    -0.280 N 
HETATM   12  N2  UNL     1      55.871  17.416 -25.178  1.00  0.00    -0.287 N 
ATOM     13  H3  UNL     1      54.471  18.909 -25.059  1.00  0.00     0.189 HD
HETATM   14  C8  UNL     1      56.809  16.686 -24.583  1.00  0.00     0.098 A 
ATOM     15  H2  UNL     1      55.666  17.235 -26.161  1.00  0.00     0.188 HD
HETATM   16  N8  UNL     1      57.081  16.925 -23.284  1.00  0.00    -0.309 N 
HETATM   17  C29 UNL     1      56.403  17.877 -22.647  1.00  0.00     0.292 A 
ATOM     18  H8  UNL     1      57.795  16.384 -22.796  1.00  0.00     0.170 HD
HETATM   19  O4  UNL     1      56.647  18.115 -21.426  1.00  0.00    -0.264 OA
BRANCH  14  20
HETATM   20  C7  UNL     1      57.501  15.664 -25.396  1.00  0.00     0.078 C 
BRANCH  20  21
HETATM   21  C6  UNL     1      56.724  15.367 -26.653  1.00  0.00     0.008 C 
BRANCH  21  22
HETATM   22  C5  UNL     1      55.871  14.159 -26.443  1.00  0.00     0.005 C 
BRANCH  22  23
HETATM   23  C4  UNL     1      54.689  14.077 -27.396  1.00  0.00     0.040 C 
BRANCH  23  24
HETATM   24  C3  UNL     1      53.435  14.201 -26.641  1.00  0.00    -0.042 A 
HETATM   25  C2  UNL     1      52.680  13.081 -26.385  1.00  0.00     0.100 A 
HETATM   26  N1  UNL     1      51.523  13.185 -25.687  1.00  0.00    -0.329 N 
HETATM   27  C1  UNL     1      50.747  11.986 -25.433  1.00  0.00     0.159 C 
HETATM   28  C32 UNL     1      51.088  14.375 -25.233  1.00  0.00     0.246 A 
HETATM   29  C31 UNL     1      51.818  15.528 -25.468  1.00  0.00     0.075 A 
HETATM   30  O5  UNL     1      49.994  14.438 -24.580  1.00  0.00    -0.268 OA
HETATM   31  C30 UNL     1      53.015  15.428 -26.188  1.00  0.00     0.014 A 
ENDBRANCH  23  24
ENDBRANCH  22  23
ENDBRANCH  21  22
ENDBRANCH  20  21
ENDBRANCH  14  20
ENDBRANCH   8  10
ENDBRANCH   6   7
ENDBRANCH   5   6
ENDBRANCH   1   5
BRANCH   3  32
HETATM   32  C14 UNL     1      51.659  20.265 -18.087  1.00  0.00     0.107 A 
HETATM   33  C15 UNL     1      50.812  20.585 -17.055  1.00  0.00     0.086 A 
HETATM   34  S1  UNL     1      51.905  21.238 -15.908  1.00  0.00    -0.086 SA
HETATM   35  C16 UNL     1      53.344  21.061 -16.807  1.00  0.00     0.051 A 
HETATM   36  N7  UNL     1      52.921  20.519 -17.925  1.00  0.00    -0.349 N 
ATOM     37  H7  UNL     1      53.585  20.297 -18.667  1.00  0.00     0.166 HD
BRANCH  35  38
HETATM   38  C17 UNL     1      54.718  21.452 -16.353  1.00  0.00     0.065 C 
BRANCH  38  39
HETATM   39  C18 UNL     1      55.349  20.315 -15.584  1.00  0.00     0.008 C 
BRANCH  39  40
HETATM   40  C19 UNL     1      55.706  20.708 -14.182  1.00  0.00     0.033 C 
BRANCH  40  41
HETATM   41  C20 UNL     1      55.342  19.639 -13.180  1.00  0.00     0.187 C 
BRANCH  41  42
HETATM   42  N6  UNL     1      55.869  19.943 -11.861  1.00  0.00    -0.075 N 
ATOM     43  H63 UNL     1      56.797  20.361 -11.918  1.00  0.00     0.274 HD
ATOM     44  H62 UNL     1      55.371  20.722 -11.431  1.00  0.00     0.274 HD
ATOM     45  H61 UNL     1      55.866  19.120 -11.259  1.00  0.00     0.274 HD
ENDBRANCH  41  42
BRANCH  41  46
HETATM   46  C21 UNL     1      53.864  19.428 -13.070  1.00  0.00     0.071 C 
BRANCH  46  47
HETATM   47  C22 UNL     1      53.507  17.998 -12.879  1.00  0.00    -0.053 A 
HETATM   48  C23 UNL     1      54.436  16.982 -12.941  1.00  0.00     0.010 A 
HETATM   49  C24 UNL     1      54.128  15.648 -12.778  1.00  0.00     0.040 A 
HETATM   50  C25 UNL     1      52.804  15.311 -12.536  1.00  0.00     0.105 A 
HETATM   51  C26 UNL     1      51.855  16.302 -12.468  1.00  0.00     0.105 A 
HETATM   52  O3  UNL     1      52.140  14.098 -12.326  1.00  0.00    -0.323 OA
HETATM   53  C27 UNL     1      52.192  17.633 -12.636  1.00  0.00     0.047 A 
HETATM   54  O2  UNL     1      50.633  15.673 -12.219  1.00  0.00    -0.323 OA
HETATM   55  C28 UNL     1      50.748  14.289 -12.587  1.00  0.00     0.352 C 
ENDBRANCH  46  47
ENDBRANCH  41  46
ENDBRANCH  40  41
ENDBRANCH  39  40
ENDBRANCH  38  39
ENDBRANCH  35  38
ENDBRANCH   3  32
TORSDOF 17
ENDMDL
MODEL 4
REMARK VINA RESULT: -6.421053122      3.062     10.720
REMARK  17 active torsions:
REMARK  status: ('A' for Active; 'I' for Inactive)
REMARK    1  A    between atoms: C3_4  and  C4_5 
REMARK    2  A    between atoms: C4_5  and  C5_6 
REMARK    3  A    between atoms: C5_6  and  C6_7 
REMARK    4  A    between atoms: C6_7  and  C7_8 
REMARK    5  A    between atoms: C7_8  and  C8_9 
REMARK    6  A    between atoms: C9_14  and  N4_15 
REMARK    7  A    between atoms: C10_17  and  C11_18 
REMARK    8  A    between atoms: C11_18  and  C12_19 
REMARK    9  A    between atoms: C12_19  and  N5_20 
REMARK       I    between atoms: N5_20  and  C13_22 
REMARK   10  A    between atoms: C13_22  and  C14_24 
REMARK   11  A    between atoms: C16_27  and  C17_28 
REMARK   12  A    between atoms: C17_28  and  C18_29 
REMARK   13  A    between atoms: C18_29  and  C19_30 
REMARK   14  A    between atoms: C19_30  and  C20_31 
REMARK   15  A    between atoms: C20_31  and  N6_32 
REMARK   16  A    between atoms: C20_31  and  C21_36 
REMARK   17  A    between atoms: C21_36  and  C22_37 
ROOT
HETATM    1  N5  UNL     1      49.422  19.718 -19.378  1.00  0.00    -0.355 N 
ATOM      2  H5  UNL     1      50.134  20.423 -19.187  1.00  0.00     0.162 HD
HETATM    3  C13 UNL     1      49.473  19.034 -20.619  1.00  0.00     0.268 C 
HETATM    4  O1  UNL     1      48.583  18.171 -20.821  1.00  0.00    -0.266 OA
ENDROOT
BRANCH   1   5
HETATM    5  C12 UNL     1      48.429  19.474 -18.381  1.00  0.00     0.128 C 
BRANCH   5   6
HETATM    6  C11 UNL     1      48.927  19.980 -17.013  1.00  0.00     0.064 C 
BRANCH   6   7
HETATM    7  C10 UNL     1      49.248  21.439 -17.103  1.00  0.00     0.064 C 
HETATM    8  N4  UNL     1      50.530  21.878 -16.947  1.00  0.00    -0.350 N 
ATOM      9  H4  UNL     1      50.554  22.878 -17.149  1.00  0.00     0.166 HD
BRANCH   8  10
HETATM   10  C9  UNL     1      51.655  21.517 -16.657  1.00  0.00     0.189 A 
HETATM   11  N3  UNL     1      52.188  21.505 -15.433  1.00  0.00    -0.280 N 
HETATM   12  N2  UNL     1      53.455  21.096 -15.227  1.00  0.00    -0.287 N 
ATOM     13  H3  UNL     1      51.625  21.811 -14.639  1.00  0.00     0.189 HD
HETATM   14  C8  UNL     1      54.254  20.681 -16.205  1.00  0.00     0.098 A 
ATOM     15  H2  UNL     1      53.819  21.104 -14.274  1.00  0.00     0.188 HD
HETATM   16  N8  UNL     1      53.773  20.670 -17.465  1.00  0.00    -0.309 N 
HETATM   17  C29 UNL     1      52.523  21.073 -17.683  1.00  0.00     0.292 A 
ATOM     18  H8  UNL     1      54.358  20.358 -18.240  1.00  0.00     0.170 HD
HETATM   19  O4  UNL     1      52.055  21.068 -18.861  1.00  0.00    -0.264 OA
BRANCH  14  20
HETATM   20  C7  UNL     1      55.618  20.249 -15.839  1.00  0.00     0.078 C 
BRANCH  20  21
HETATM   21  C6  UNL     1      56.651  21.037 -16.604  1.00  0.00     0.008 C 
BRANCH  21  22
HETATM   22  C5  UNL     1      56.599  22.471 -16.188  1.00  0.00     0.005 C 
BRANCH  22  23
HETATM   23  C4  UNL     1      56.684  23.445 -17.353  1.00  0.00     0.040 C 
BRANCH  23  24
HETATM   24  C3  UNL     1      55.333  23.860 -17.751  1.00  0.00    -0.042 A 
HETATM   25  C2  UNL     1      54.453  24.320 -16.800  1.00  0.00     0.100 A 
HETATM   26  N1  UNL     1      53.204  24.708 -17.158  1.00  0.00    -0.329 N 
HETATM   27  C1  UNL     1      52.298  25.189 -16.133  1.00  0.00     0.159 C 
HETATM   28  C32 UNL     1      52.798  24.651 -18.440  1.00  0.00     0.246 A 
HETATM   29  C31 UNL     1      53.652  24.193 -19.430  1.00  0.00     0.075 A 
HETATM   30  O5  UNL     1      51.616  25.023 -18.743  1.00  0.00    -0.268 OA
HETATM   31  C30 UNL     1      54.944  23.792 -19.067  1.00  0.00     0.014 A 
ENDBRANCH  23  24
ENDBRANCH  22  23
ENDBRANCH  21  22
ENDBRANCH  20  21
ENDBRANCH  14  20
ENDBRANCH   8  10
ENDBRANCH   6   7
ENDBRANCH   5   6
ENDBRANCH   1   5
BRANCH   3  32
HETATM   32  C14 UNL     1      50.532  19.334 -21.621  1.00  0.00     0.107 A 
HETATM   33  C15 UNL     1      50.263  19.265 -22.966  1.00  0.00     0.086 A 
HETATM   34  S1  UNL     1      51.780  19.697 -23.638  1.00  0.00    -0.086 SA
HETATM   35  C16 UNL     1      52.638  19.932 -22.182  1.00  0.00     0.051 A 
HETATM   36  N7  UNL     1      51.733  19.671 -21.267  1.00  0.00    -0.349 N 
ATOM     37  H7  UNL     1      51.975  19.734 -20.278  1.00  0.00     0.166 HD
BRANCH  35  38
HETATM   38  C17 UNL     1      54.076  20.342 -22.065  1.00  0.00     0.065 C 
BRANCH  38  39
HETATM   39  C18 UNL     1      54.936  19.451 -22.930  1.00  0.00     0.008 C 
BRANCH  39  40
HETATM   40  C19 UNL     1      55.757  18.495 -22.118  1.00  0.00     0.033 C 
BRANCH  40  41
HETATM   41  C20 UNL     1      56.945  17.968 -22.887  1.00  0.00     0.187 C 
BRANCH  41  42
HETATM   42  N6  UNL     1      58.090  17.757 -22.019  1.00  0.00    -0.075 N 
ATOM     43  H63 UNL     1      57.809  17.686 -21.041  1.00  0.00     0.274 HD
ATOM     44  H62 UNL     1      58.482  16.823 -22.138  1.00  0.00     0.274 HD
ATOM     45  H61 UNL     1      58.799  18.478 -22.152  1.00  0.00     0.274 HD
ENDBRANCH  41  42
BRANCH  41  46
HETATM   46  C21 UNL     1      56.648  16.691 -23.609  1.00  0.00     0.071 C 
BRANCH  46  47
HETATM   47  C22 UNL     1      56.941  16.780 -25.064  1.00  0.00    -0.053 A 
HETATM   48  C23 UNL     1      56.376  17.734 -25.882  1.00  0.00     0.010 A 
HETATM   49  C24 UNL     1      56.624  17.830 -27.235  1.00  0.00     0.040 A 
HETATM   50  C25 UNL     1      57.494  16.911 -27.804  1.00  0.00     0.105 A 
HETATM   51  C26 UNL     1      58.072  15.948 -27.013  1.00  0.00     0.105 A 
HETATM   52  O3  UNL     1      57.966  16.707 -29.105  1.00  0.00    -0.323 OA
HETATM   53  C27 UNL     1      57.805  15.874 -25.658  1.00  0.00     0.047 A 
HETATM   54  O2  UNL     1      58.885  15.177 -27.848  1.00  0.00    -0.323 OA
HETATM   55  C28 UNL     1      58.458  15.370 -29.206  1.00  0.00     0.352 C 
ENDBRANCH  46  47
ENDBRANCH  41  46
ENDBRANCH  40  41
ENDBRANCH  39  40
ENDBRANCH  38  39
ENDBRANCH  35  38
ENDBRANCH   3  32
TORSDOF 17
ENDMDL
MODEL 5
REMARK VINA RESULT: -6.151295340      2.325     11.442
REMARK  17 active torsions:
REMARK  status: ('A' for Active; 'I' for Inactive)
REMARK    1  A    between atoms: C3_4  and  C4_5 
REMARK    2  A    between atoms: C4_5  and  C5_6 
REMARK    3  A    between atoms: C5_6  and  C6_7 
REMARK    4  A    between atoms: C6_7  and  C7_8 
REMARK    5  A    between atoms: C7_8  and  C8_9 
REMARK    6  A    between atoms: C9_14  and  N4_15 
REMARK    7  A    between atoms: C10_17  and  C11_18 
REMARK    8  A    between atoms: C11_18  and  C12_19 
REMARK    9  A    between atoms: C12_19  and  N5_20 
REMARK       I    between atoms: N5_20  and  C13_22 
REMARK   10  A    between atoms: C13_22  and  C14_24 
REMARK   11  A    between atoms: C16_27  and  C17_28 
REMARK   12  A    between atoms: C17_28  and  C18_29 
REMARK   13  A    between atoms: C18_29  and  C19_30 
REMARK   14  A    between atoms: C19_30  and  C20_31 
REMARK   15  A    between atoms: C20_31  and  N6_32 
REMARK   16  A    between atoms: C20_31  and  C21_36 
REMARK   17  A    between atoms: C21_36  and  C22_37 
ROOT
HETATM    1  N5  UNL     1      51.105  20.256 -20.931  1.00  0.00    -0.355 N 
ATOM      2  H5  UNL     1      51.810  19.845 -20.320  1.00  0.00     0.162 HD
HETATM    3  C13 UNL     1      51.472  20.563 -22.264  1.00  0.00     0.268 C 
HETATM    4  O1  UNL     1      50.579  21.066 -22.991  1.00  0.00    -0.266 OA
ENDROOT
BRANCH   1   5
HETATM    5  C12 UNL     1      49.802  20.490 -20.395  1.00  0.00     0.128 C 
BRANCH   5   6
HETATM    6  C11 UNL     1      49.877  20.585 -18.858  1.00  0.00     0.064 C 
BRANCH   6   7
HETATM    7  C10 UNL     1      51.144  19.951 -18.377  1.00  0.00     0.064 C 
HETATM    8  N4  UNL     1      52.177  20.719 -17.928  1.00  0.00    -0.350 N 
ATOM      9  H4  UNL     1      52.896  20.102 -17.550  1.00  0.00     0.166 HD
BRANCH   8  10
HETATM   10  C9  UNL     1      52.558  21.869 -17.811  1.00  0.00     0.189 A 
HETATM   11  N3  UNL     1      52.226  22.714 -16.832  1.00  0.00    -0.280 N 
HETATM   12  N2  UNL     1      52.698  23.976 -16.808  1.00  0.00    -0.287 N 
ATOM     13  H3  UNL     1      51.604  22.398 -16.088  1.00  0.00     0.189 HD
HETATM   14  C8  UNL     1      53.513  24.465 -17.737  1.00  0.00     0.098 A 
ATOM     15  H2  UNL     1      52.416  24.585 -16.039  1.00  0.00     0.188 HD
HETATM   16  N8  UNL     1      53.885  23.660 -18.753  1.00  0.00    -0.309 N 
HETATM   17  C29 UNL     1      53.426  22.412 -18.789  1.00  0.00     0.292 A 
ATOM     18  H8  UNL     1      54.511  24.003 -19.483  1.00  0.00     0.170 HD
HETATM   19  O4  UNL     1      53.767  21.641 -19.736  1.00  0.00    -0.264 OA
BRANCH  14  20
HETATM   20  C7  UNL     1      53.965  25.863 -17.584  1.00  0.00     0.078 C 
BRANCH  20  21
HETATM   21  C6  UNL     1      54.215  26.188 -16.134  1.00  0.00     0.008 C 
BRANCH  21  22
HETATM   22  C5  UNL     1      55.670  26.035 -15.829  1.00  0.00     0.005 C 
BRANCH  22  23
HETATM   23  C4  UNL     1      55.962  24.976 -14.776  1.00  0.00     0.040 C 
BRANCH  23  24
HETATM   24  C3  UNL     1      56.010  23.651 -15.407  1.00  0.00    -0.042 A 
HETATM   25  C2  UNL     1      55.304  22.607 -14.858  1.00  0.00     0.100 A 
HETATM   26  N1  UNL     1      55.341  21.382 -15.435  1.00  0.00    -0.329 N 
HETATM   27  C1  UNL     1      54.585  20.300 -14.832  1.00  0.00     0.159 C 
HETATM   28  C32 UNL     1      56.062  21.157 -16.549  1.00  0.00     0.246 A 
HETATM   29  C31 UNL     1      56.788  22.181 -17.135  1.00  0.00     0.075 A 
HETATM   30  O5  UNL     1      56.075  19.992 -17.066  1.00  0.00    -0.268 OA
HETATM   31  C30 UNL     1      56.754  23.450 -16.545  1.00  0.00     0.014 A 
ENDBRANCH  23  24
ENDBRANCH  22  23
ENDBRANCH  21  22
ENDBRANCH  20  21
ENDBRANCH  14  20
ENDBRANCH   8  10
ENDBRANCH   6   7
ENDBRANCH   5   6
ENDBRANCH   1   5
BRANCH   3  32
HETATM   32  C14 UNL     1      52.849  20.298 -22.765  1.00  0.00     0.107 A 
HETATM   33  C15 UNL     1      53.307  20.905 -23.909  1.00  0.00     0.086 A 
HETATM   34  S1  UNL     1      54.896  20.271 -24.016  1.00  0.00    -0.086 SA
HETATM   35  C16 UNL     1      54.868  19.293 -22.619  1.00  0.00     0.051 A 
HETATM   36  N7  UNL     1      53.660  19.497 -22.147  1.00  0.00    -0.349 N 
ATOM     37  H7  UNL     1      53.359  19.025 -21.294  1.00  0.00     0.166 HD
BRANCH  35  38
HETATM   38  C17 UNL     1      55.995  18.440 -22.119  1.00  0.00     0.065 C 
BRANCH  38  39
HETATM   39  C18 UNL     1      56.841  17.974 -23.281  1.00  0.00     0.008 C 
BRANCH  39  40
HETATM   40  C19 UNL     1      56.697  16.502 -23.532  1.00  0.00     0.033 C 
BRANCH  40  41
HETATM   41  C20 UNL     1      56.664  16.176 -25.006  1.00  0.00     0.187 C 
BRANCH  41  42
HETATM   42  N6  UNL     1      55.538  15.321 -25.337  1.00  0.00    -0.075 N 
ATOM     43  H63 UNL     1      55.083  14.962 -24.498  1.00  0.00     0.274 HD
ATOM     44  H62 UNL     1      54.761  15.859 -25.721  1.00  0.00     0.274 HD
ATOM     45  H61 UNL     1      55.814  14.565 -25.965  1.00  0.00     0.274 HD
ENDBRANCH  41  42
BRANCH  41  46
HETATM   46  C21 UNL     1      56.610  17.398 -25.869  1.00  0.00     0.071 C 
BRANCH  46  47
HETATM   47  C22 UNL     1      57.647  17.388 -26.934  1.00  0.00    -0.053 A 
HETATM   48  C23 UNL     1      57.725  18.360 -27.908  1.00  0.00     0.010 A 
HETATM   49  C24 UNL     1      58.671  18.367 -28.911  1.00  0.00     0.040 A 
HETATM   50  C25 UNL     1      59.597  17.334 -28.940  1.00  0.00     0.105 A 
HETATM   51  C26 UNL     1      59.543  16.351 -27.983  1.00  0.00     0.105 A 
HETATM   52  O3  UNL     1      60.667  17.022 -29.785  1.00  0.00    -0.323 OA
HETATM   53  C27 UNL     1      58.584  16.368 -26.987  1.00  0.00     0.047 A 
HETATM   54  O2  UNL     1      60.582  15.460 -28.262  1.00  0.00    -0.323 OA
HETATM   55  C28 UNL     1      60.978  15.636 -29.632  1.00  0.00     0.352 C 
ENDBRANCH  46  47
ENDBRANCH  41  46
ENDBRANCH  40  41
ENDBRANCH  39  40
ENDBRANCH  38  39
ENDBRANCH  35  38
ENDBRANCH   3  32
TORSDOF 17
ENDMDL
