MODEL 1
REMARK VINA RESULT: -5.636258479      0.000      0.000
REMARK  2 active torsions:
REMARK  status: ('A' for Active; 'I' for Inactive)
REMARK    1  A    between atoms: C2_2  and  O1_4 
REMARK    2  A    between atoms: O1_4  and  C4_5 
ROOT
HETATM    1  C4  UNL     1       1.717 -12.485  16.600  1.00  0.00     0.128 C 
HETATM    2  C5  UNL     1       2.007 -11.261  17.458  1.00  0.00     0.033 C 
HETATM    3  C6  UNL     1       1.380 -10.079  16.750  1.00  0.00     0.008 C 
HETATM    4  C7  UNL     1       0.940 -10.577  15.430  1.00  0.00    -0.001 C 
HETATM    5  C8  UNL     1      -0.313  -9.979  14.888  1.00  0.00     0.049 C 
HETATM    6  C9  UNL     1      -0.685 -10.730  13.630  1.00  0.00     0.056 C 
HETATM    7  N1  UNL     1      -0.669 -12.130  13.739  1.00  0.00    -0.398 N 
ATOM      8  H1  UNL     1      -1.412 -12.709  13.348  1.00  0.00     0.159 HD
HETATM    9  C10 UNL     1       0.453 -12.703  14.431  1.00  0.00     0.083 C 
HETATM   10  C11 UNL     1       1.667 -12.564  13.550  1.00  0.00     0.032 C 
HETATM   11  C12 UNL     1       0.600 -12.041  15.749  1.00  0.00     0.041 C 
ENDROOT
BRANCH   1  12
HETATM   12  O1  UNL     1       1.373 -13.504  17.499  1.00  0.00    -0.381 OA
BRANCH  12  13
HETATM   13  C2  UNL     1       2.214 -14.580  17.455  1.00  0.00     0.113 C 
HETATM   14  C1  UNL     1       2.097 -15.478  18.672  1.00  0.00     0.039 C 
HETATM   15  C3  UNL     1       1.792 -15.436  16.255  1.00  0.00     0.039 C 
ENDBRANCH  12  13
ENDBRANCH   1  12
TORSDOF 2
ENDMDL
MODEL 2
REMARK VINA RESULT: -5.420111227      0.895      1.264
REMARK  2 active torsions:
REMARK  status: ('A' for Active; 'I' for Inactive)
REMARK    1  A    between atoms: C2_2  and  O1_4 
REMARK    2  A    between atoms: O1_4  and  C4_5 
ROOT
HETATM    1  C4  UNL     1       2.459 -12.847  15.955  1.00  0.00     0.128 C 
HETATM    2  C5  UNL     1       2.650 -11.978  17.191  1.00  0.00     0.033 C 
HETATM    3  C6  UNL     1       1.597 -10.893  17.123  1.00  0.00     0.008 C 
HETATM    4  C7  UNL     1       0.972 -11.008  15.789  1.00  0.00    -0.001 C 
HETATM    5  C8  UNL     1      -0.483 -10.697  15.717  1.00  0.00     0.049 C 
HETATM    6  C9  UNL     1      -0.968 -11.035  14.325  1.00  0.00     0.056 C 
HETATM    7  N1  UNL     1      -0.585 -12.299  13.846  1.00  0.00    -0.398 N 
ATOM      8  H1  UNL     1      -1.240 -12.910  13.358  1.00  0.00     0.159 HD
HETATM    9  C10 UNL     1       0.780 -12.684  14.082  1.00  0.00     0.083 C 
HETATM   10  C11 UNL     1       1.661 -11.861  13.179  1.00  0.00     0.032 C 
HETATM   11  C12 UNL     1       1.090 -12.517  15.522  1.00  0.00     0.041 C 
ENDROOT
BRANCH   1  12
HETATM   12  O1  UNL     1       2.611 -14.168  16.394  1.00  0.00    -0.381 OA
BRANCH  12  13
HETATM   13  C2  UNL     1       1.513 -14.659  17.045  1.00  0.00     0.113 C 
HETATM   14  C1  UNL     1       0.807 -15.760  16.277  1.00  0.00     0.039 C 
HETATM   15  C3  UNL     1       2.008 -15.300  18.347  1.00  0.00     0.039 C 
ENDBRANCH  12  13
ENDBRANCH   1  12
TORSDOF 2
ENDMDL
MODEL 3
REMARK VINA RESULT: -5.074494251      1.427      1.801
REMARK  2 active torsions:
REMARK  status: ('A' for Active; 'I' for Inactive)
REMARK    1  A    between atoms: C2_2  and  O1_4 
REMARK    2  A    between atoms: O1_4  and  C4_5 
ROOT
HETATM    1  C4  UNL     1       1.626 -12.759  15.785  1.00  0.00     0.128 C 
HETATM    2  C5  UNL     1       3.130 -12.553  15.662  1.00  0.00     0.033 C 
HETATM    3  C6  UNL     1       3.331 -11.152  15.124  1.00  0.00     0.008 C 
HETATM    4  C7  UNL     1       1.989 -10.659  14.747  1.00  0.00    -0.001 C 
HETATM    5  C8  UNL     1       1.743  -9.205  14.955  1.00  0.00     0.049 C 
HETATM    6  C9  UNL     1       0.282  -8.932  14.678  1.00  0.00     0.056 C 
HETATM    7  N1  UNL     1      -0.622  -9.806  15.306  1.00  0.00    -0.398 N 
ATOM      8  H1  UNL     1      -1.469  -9.466  15.762  1.00  0.00     0.159 HD
HETATM    9  C10 UNL     1      -0.289 -11.203  15.270  1.00  0.00     0.083 C 
HETATM   10  C11 UNL     1      -0.491 -11.696  13.861  1.00  0.00     0.032 C 
HETATM   11  C12 UNL     1       1.096 -11.385  15.766  1.00  0.00     0.041 C 
ENDROOT
BRANCH   1  12
HETATM   12  O1  UNL     1       1.434 -13.423  17.004  1.00  0.00    -0.381 OA
BRANCH  12  13
HETATM   13  C2  UNL     1       1.849 -14.725  16.991  1.00  0.00     0.113 C 
HETATM   14  C1  UNL     1       1.810 -15.378  18.359  1.00  0.00     0.039 C 
HETATM   15  C3  UNL     1       0.858 -15.507  16.120  1.00  0.00     0.039 C 
ENDBRANCH  12  13
ENDBRANCH   1  12
TORSDOF 2
ENDMDL
MODEL 4
REMARK VINA RESULT: -4.947518976      2.215      3.102
REMARK  2 active torsions:
REMARK  status: ('A' for Active; 'I' for Inactive)
REMARK    1  A    between atoms: C2_2  and  O1_4 
REMARK    2  A    between atoms: O1_4  and  C4_5 
ROOT
HETATM    1  C4  UNL     1       1.545 -12.991  15.354  1.00  0.00     0.128 C 
HETATM    2  C5  UNL     1       0.272 -12.700  14.570  1.00  0.00     0.033 C 
HETATM    3  C6  UNL     1       0.431 -11.312  13.988  1.00  0.00     0.008 C 
HETATM    4  C7  UNL     1       1.653 -10.747  14.599  1.00  0.00    -0.001 C 
HETATM    5  C8  UNL     1       2.469  -9.854  13.729  1.00  0.00     0.049 C 
HETATM    6  C9  UNL     1       3.747  -9.521  14.465  1.00  0.00     0.056 C 
HETATM    7  N1  UNL     1       4.422 -10.619  15.025  1.00  0.00    -0.398 N 
ATOM      8  H1  UNL     1       5.433 -10.724  14.950  1.00  0.00     0.159 HD
HETATM    9  C10 UNL     1       3.608 -11.587  15.708  1.00  0.00     0.083 C 
HETATM   10  C11 UNL     1       3.136 -10.973  17.000  1.00  0.00     0.032 C 
HETATM   11  C12 UNL     1       2.502 -12.009  14.816  1.00  0.00     0.041 C 
ENDROOT
BRANCH   1  12
HETATM   12  O1  UNL     1       1.874 -14.321  15.061  1.00  0.00    -0.381 OA
BRANCH  12  13
HETATM   13  C2  UNL     1       1.849 -15.145  16.152  1.00  0.00     0.113 C 
HETATM   14  C1  UNL     1       1.950 -14.395  17.467  1.00  0.00     0.039 C 
HETATM   15  C3  UNL     1       0.482 -15.839  16.164  1.00  0.00     0.039 C 
ENDBRANCH  12  13
ENDBRANCH   1  12
TORSDOF 2
ENDMDL
MODEL 5
REMARK VINA RESULT: -4.945974253      2.664      4.160
REMARK  2 active torsions:
REMARK  status: ('A' for Active; 'I' for Inactive)
REMARK    1  A    between atoms: C2_2  and  O1_4 
REMARK    2  A    between atoms: O1_4  and  C4_5 
ROOT
HETATM    1  C4  UNL     1       3.024 -11.490  15.424  1.00  0.00     0.128 C 
HETATM    2  C5  UNL     1       3.065 -11.397  16.943  1.00  0.00     0.033 C 
HETATM    3  C6  UNL     1       2.166 -12.496  17.467  1.00  0.00     0.008 C 
HETATM    4  C7  UNL     1       1.467 -13.053  16.289  1.00  0.00    -0.001 C 
HETATM    5  C8  UNL     1       1.189 -14.516  16.323  1.00  0.00     0.049 C 
HETATM    6  C9  UNL     1       0.633 -14.920  14.976  1.00  0.00     0.056 C 
HETATM    7  N1  UNL     1       1.357 -14.456  13.864  1.00  0.00    -0.398 N 
ATOM      8  H1  UNL     1       1.562 -15.058  13.066  1.00  0.00     0.159 HD
HETATM    9  C10 UNL     1       1.792 -13.087  13.912  1.00  0.00     0.083 C 
HETATM   10  C11 UNL     1       0.583 -12.205  13.737  1.00  0.00     0.032 C 
HETATM   11  C12 UNL     1       2.516 -12.852  15.184  1.00  0.00     0.041 C 
ENDROOT
BRANCH   1  12
HETATM   12  O1  UNL     1       4.345 -11.296  14.997  1.00  0.00    -0.381 OA
BRANCH  12  13
HETATM   13  C2  UNL     1       4.908 -10.141  15.465  1.00  0.00     0.113 C 
HETATM   14  C1  UNL     1       6.419 -10.216  15.573  1.00  0.00     0.039 C 
HETATM   15  C3  UNL     1       4.609  -9.044  14.437  1.00  0.00     0.039 C 
ENDBRANCH  12  13
ENDBRANCH   1  12
TORSDOF 2
ENDMDL
