MODEL 1
REMARK VINA RESULT: -4.961745335      0.000      0.000
REMARK  2 active torsions:
REMARK  status: ('A' for Active; 'I' for Inactive)
REMARK       I    between atoms: C1_2  and  N1_3 
REMARK    1  A    between atoms: C1_2  and  C9_12 
REMARK    2  A    between atoms: N1_3  and  C2_5 
ROOT
HETATM    1  C2  UNL     1      -0.034 -12.291  14.525  1.00  0.00     0.092 C 
HETATM    2  C3  UNL     1      -0.401 -10.885  14.941  1.00  0.00     0.009 C 
HETATM    3  C4  UNL     1       0.761 -10.170  15.551  1.00  0.00     0.007 C 
HETATM    4  C5  UNL     1       1.779  -9.862  14.506  1.00  0.00     0.001 C 
HETATM    5  C6  UNL     1       1.877 -11.013  13.540  1.00  0.00     0.007 C 
HETATM    6  C7  UNL     1       0.541 -11.647  13.260  1.00  0.00     0.009 C 
HETATM    7  C8  UNL     1      -0.573 -10.604  13.436  1.00  0.00     0.013 C 
ENDROOT
BRANCH   1   8
HETATM    8  N1  UNL     1       0.903 -13.007  15.304  1.00  0.00    -0.355 N 
HETATM    9  C1  UNL     1       0.992 -14.418  15.254  1.00  0.00     0.222 C 
HETATM   10  O1  UNL     1       0.203 -15.022  14.485  1.00  0.00    -0.273 OA
ATOM     11  H1  UNL     1       1.532 -12.492  15.920  1.00  0.00     0.162 HD
BRANCH   9  12
HETATM   12  C9  UNL     1       1.946 -15.212  16.043  1.00  0.00     0.078 A 
HETATM   13  C10 UNL     1       2.627 -14.652  17.235  1.00  0.00     0.015 A 
HETATM   14  C11 UNL     1       1.433 -15.575  17.429  1.00  0.00     0.015 A 
ENDBRANCH   9  12
ENDBRANCH   1   8
TORSDOF 2
ENDMDL
MODEL 2
REMARK VINA RESULT: -4.879009977      1.320      2.253
REMARK  2 active torsions:
REMARK  status: ('A' for Active; 'I' for Inactive)
REMARK       I    between atoms: C1_2  and  N1_3 
REMARK    1  A    between atoms: C1_2  and  C9_12 
REMARK    2  A    between atoms: N1_3  and  C2_5 
ROOT
HETATM    1  C2  UNL     1       0.221 -11.368  13.671  1.00  0.00     0.092 C 
HETATM    2  C3  UNL     1      -0.914 -10.523  13.140  1.00  0.00     0.009 C 
HETATM    3  C4  UNL     1      -2.124 -10.615  14.011  1.00  0.00     0.007 C 
HETATM    4  C5  UNL     1      -1.878  -9.916  15.305  1.00  0.00     0.001 C 
HETATM    5  C6  UNL     1      -0.462 -10.167  15.754  1.00  0.00     0.007 C 
HETATM    6  C7  UNL     1       0.511 -10.193  14.607  1.00  0.00     0.009 C 
HETATM    7  C8  UNL     1      -0.015  -9.314  13.462  1.00  0.00     0.013 C 
ENDROOT
BRANCH   1   8
HETATM    8  N1  UNL     1      -0.086 -12.584  14.322  1.00  0.00    -0.355 N 
HETATM    9  C1  UNL     1       0.920 -13.508  14.692  1.00  0.00     0.222 C 
HETATM   10  O1  UNL     1       2.110 -13.210  14.418  1.00  0.00    -0.273 OA
ATOM     11  H1  UNL     1      -1.060 -12.802  14.533  1.00  0.00     0.162 HD
BRANCH   9  12
HETATM   12  C9  UNL     1       0.657 -14.786  15.370  1.00  0.00     0.078 A 
HETATM   13  C10 UNL     1       1.697 -15.838  15.481  1.00  0.00     0.015 A 
HETATM   14  C11 UNL     1       1.415 -14.944  16.680  1.00  0.00     0.015 A 
ENDBRANCH   9  12
ENDBRANCH   1   8
TORSDOF 2
ENDMDL
MODEL 3
REMARK VINA RESULT: -4.811727853      1.499      2.395
REMARK  2 active torsions:
REMARK  status: ('A' for Active; 'I' for Inactive)
REMARK       I    between atoms: C1_2  and  N1_3 
REMARK    1  A    between atoms: C1_2  and  C9_12 
REMARK    2  A    between atoms: N1_3  and  C2_5 
ROOT
HETATM    1  C2  UNL     1       1.746 -11.186  15.267  1.00  0.00     0.092 C 
HETATM    2  C3  UNL     1       2.158 -10.387  14.052  1.00  0.00     0.009 C 
HETATM    3  C4  UNL     1       1.928 -11.150  12.787  1.00  0.00     0.007 C 
HETATM    4  C5  UNL     1       0.466 -11.271  12.521  1.00  0.00     0.001 C 
HETATM    5  C6  UNL     1      -0.267 -11.496  13.817  1.00  0.00     0.007 C 
HETATM    6  C7  UNL     1       0.324 -10.712  14.958  1.00  0.00     0.009 C 
HETATM    7  C8  UNL     1       0.999  -9.443  14.419  1.00  0.00     0.013 C 
ENDROOT
BRANCH   1   8
HETATM    8  N1  UNL     1       1.922 -12.588  15.249  1.00  0.00    -0.355 N 
HETATM    9  C1  UNL     1       1.853 -13.365  16.430  1.00  0.00     0.222 C 
HETATM   10  O1  UNL     1       1.629 -12.760  17.509  1.00  0.00    -0.273 OA
ATOM     11  H1  UNL     1       2.102 -13.054  14.360  1.00  0.00     0.162 HD
BRANCH   9  12
HETATM   12  C9  UNL     1       2.028 -14.824  16.469  1.00  0.00     0.078 A 
HETATM   13  C10 UNL     1       0.868 -15.747  16.513  1.00  0.00     0.015 A 
HETATM   14  C11 UNL     1       1.586 -15.522  15.190  1.00  0.00     0.015 A 
ENDBRANCH   9  12
ENDBRANCH   1   8
TORSDOF 2
ENDMDL
MODEL 4
REMARK VINA RESULT: -4.810906540      0.902      1.163
REMARK  2 active torsions:
REMARK  status: ('A' for Active; 'I' for Inactive)
REMARK       I    between atoms: C1_2  and  N1_3 
REMARK    1  A    between atoms: C1_2  and  C9_12 
REMARK    2  A    between atoms: N1_3  and  C2_5 
ROOT
HETATM    1  C2  UNL     1       0.318 -12.158  14.444  1.00  0.00     0.092 C 
HETATM    2  C3  UNL     1      -0.526 -11.017  14.965  1.00  0.00     0.009 C 
HETATM    3  C4  UNL     1      -0.144 -10.642  16.361  1.00  0.00     0.007 C 
HETATM    4  C5  UNL     1       1.194  -9.984  16.367  1.00  0.00     0.001 C 
HETATM    5  C6  UNL     1       2.097 -10.665  15.371  1.00  0.00     0.007 C 
HETATM    6  C7  UNL     1       1.367 -11.089  14.126  1.00  0.00     0.009 C 
HETATM    7  C8  UNL     1       0.166 -10.161  13.888  1.00  0.00     0.013 C 
ENDROOT
BRANCH   1   8
HETATM    8  N1  UNL     1       0.744 -13.156  15.350  1.00  0.00    -0.355 N 
HETATM    9  C1  UNL     1       1.344 -14.359  14.907  1.00  0.00     0.222 C 
HETATM   10  O1  UNL     1       1.487 -14.514  13.668  1.00  0.00    -0.273 OA
ATOM     11  H1  UNL     1       0.616 -13.005  16.350  1.00  0.00     0.162 HD
BRANCH   9  12
HETATM   12  C9  UNL     1       1.804 -15.429  15.804  1.00  0.00     0.078 A 
HETATM   13  C10 UNL     1       1.767 -15.278  17.280  1.00  0.00     0.015 A 
HETATM   14  C11 UNL     1       0.679 -16.088  16.589  1.00  0.00     0.015 A 
ENDBRANCH   9  12
ENDBRANCH   1   8
TORSDOF 2
ENDMDL
MODEL 5
REMARK VINA RESULT: -4.767903399      1.535      2.007
REMARK  2 active torsions:
REMARK  status: ('A' for Active; 'I' for Inactive)
REMARK       I    between atoms: C1_2  and  N1_3 
REMARK    1  A    between atoms: C1_2  and  C9_12 
REMARK    2  A    between atoms: N1_3  and  C2_5 
ROOT
HETATM    1  C2  UNL     1       0.563 -11.310  15.466  1.00  0.00     0.092 C 
HETATM    2  C3  UNL     1       1.427 -10.128  15.087  1.00  0.00     0.009 C 
HETATM    3  C4  UNL     1       2.483 -10.512  14.101  1.00  0.00     0.007 C 
HETATM    4  C5  UNL     1       1.865 -10.802  12.776  1.00  0.00     0.001 C 
HETATM    5  C6  UNL     1       0.557 -11.523  12.974  1.00  0.00     0.007 C 
HETATM    6  C7  UNL     1      -0.203 -11.021  14.172  1.00  0.00     0.009 C 
HETATM    7  C8  UNL     1       0.157  -9.551  14.435  1.00  0.00     0.013 C 
ENDROOT
BRANCH   1   8
HETATM    8  N1  UNL     1       1.155 -12.591  15.531  1.00  0.00    -0.355 N 
HETATM    9  C1  UNL     1       1.761 -13.073  16.716  1.00  0.00     0.222 C 
HETATM   10  O1  UNL     1       1.756 -12.317  17.719  1.00  0.00    -0.273 OA
ATOM     11  H1  UNL     1       1.146 -13.185  14.702  1.00  0.00     0.162 HD
BRANCH   9  12
HETATM   12  C9  UNL     1       2.391 -14.396  16.839  1.00  0.00     0.078 A 
HETATM   13  C10 UNL     1       1.700 -15.530  17.501  1.00  0.00     0.015 A 
HETATM   14  C11 UNL     1       1.731 -15.465  15.981  1.00  0.00     0.015 A 
ENDBRANCH   9  12
ENDBRANCH   1   8
TORSDOF 2
ENDMDL
