MODEL 1
REMARK VINA RESULT: -5.214087811      0.000      0.000
REMARK  2 active torsions:
REMARK  status: ('A' for Active; 'I' for Inactive)
REMARK       I    between atoms: N1_2  and  C2_3 
REMARK    1  A    between atoms: N1_2  and  C7_12 
REMARK    2  A    between atoms: C2_3  and  C3_5 
ROOT
HETATM    1  C1  UNL     1      -0.311  11.265  15.533  1.00  0.00     0.153 C 
HETATM    2  N1  UNL     1      -0.592  12.171  14.457  1.00  0.00    -0.351 N 
HETATM    3  C2  UNL     1      -1.068  13.469  14.775  1.00  0.00     0.225 C 
HETATM    4  O1  UNL     1      -1.325  14.304  13.847  1.00  0.00    -0.273 OA
ENDROOT
BRANCH   3   5
HETATM    5  C3  UNL     1      -1.283  13.909  16.152  1.00  0.00     0.105 C 
HETATM    6  C4  UNL     1      -1.028  15.413  16.309  1.00  0.00     0.043 C 
HETATM    7  C5  UNL     1      -1.765  15.714  17.572  1.00  0.00     0.233 C 
HETATM    8  N2  UNL     1      -2.677  14.640  17.824  1.00  0.00    -0.074 N 
HETATM    9  C6  UNL     1      -2.757  13.881  16.565  1.00  0.00     0.246 C 
ATOM     10  H22 UNL     1      -2.423  14.068  18.630  1.00  0.00     0.277 HD
ATOM     11  H21 UNL     1      -3.585  14.947  18.174  1.00  0.00     0.277 HD
ENDBRANCH   3   5
BRANCH   2  12
HETATM   12  C7  UNL     1      -0.413  11.815  13.063  1.00  0.00     0.086 C 
HETATM   13  C8  UNL     1      -1.610  11.152  12.413  1.00  0.00     0.025 C 
HETATM   14  C9  UNL     1      -0.608  10.287  11.636  1.00  0.00     0.004 C 
HETATM   15  C10 UNL     1       0.374  10.566  12.783  1.00  0.00     0.025 C 
ENDBRANCH   2  12
TORSDOF 2
ENDMDL
MODEL 2
REMARK VINA RESULT: -4.913825444      1.266      5.293
REMARK  2 active torsions:
REMARK  status: ('A' for Active; 'I' for Inactive)
REMARK       I    between atoms: N1_2  and  C2_3 
REMARK    1  A    between atoms: N1_2  and  C7_12 
REMARK    2  A    between atoms: C2_3  and  C3_5 
ROOT
HETATM    1  C1  UNL     1      -1.604  11.844  16.203  1.00  0.00     0.153 C 
HETATM    2  N1  UNL     1      -1.743  13.014  15.385  1.00  0.00    -0.351 N 
HETATM    3  C2  UNL     1      -1.558  12.883  13.985  1.00  0.00     0.225 C 
HETATM    4  O1  UNL     1      -1.676  13.898  13.224  1.00  0.00    -0.273 OA
ENDROOT
BRANCH   3   5
HETATM    5  C3  UNL     1      -1.228  11.607  13.354  1.00  0.00     0.105 C 
HETATM    6  C4  UNL     1      -1.708  11.558  11.898  1.00  0.00     0.043 C 
HETATM    7  C5  UNL     1      -0.862  10.463  11.338  1.00  0.00     0.233 C 
HETATM    8  N2  UNL     1       0.244  10.255  12.224  1.00  0.00    -0.074 N 
HETATM    9  C6  UNL     1       0.273  11.431  13.109  1.00  0.00     0.246 C 
ATOM     10  H22 UNL     1       0.205   9.367  12.725  1.00  0.00     0.277 HD
ATOM     11  H21 UNL     1       1.127  10.083  11.742  1.00  0.00     0.277 HD
ENDBRANCH   3   5
BRANCH   2  12
HETATM   12  C7  UNL     1      -2.061  14.320  15.929  1.00  0.00     0.086 C 
HETATM   13  C8  UNL     1      -0.870  15.227  16.154  1.00  0.00     0.025 C 
HETATM   14  C9  UNL     1      -1.591  15.730  17.411  1.00  0.00     0.004 C 
HETATM   15  C10 UNL     1      -2.333  14.386  17.404  1.00  0.00     0.025 C 
ENDBRANCH   2  12
TORSDOF 2
ENDMDL
MODEL 3
REMARK VINA RESULT: -4.840357441      1.316      1.629
REMARK  2 active torsions:
REMARK  status: ('A' for Active; 'I' for Inactive)
REMARK       I    between atoms: N1_2  and  C2_3 
REMARK    1  A    between atoms: N1_2  and  C7_12 
REMARK    2  A    between atoms: C2_3  and  C3_5 
ROOT
HETATM    1  C1  UNL     1      -3.106  11.403  14.654  1.00  0.00     0.153 C 
HETATM    2  N1  UNL     1      -1.901  11.873  14.033  1.00  0.00    -0.351 N 
HETATM    3  C2  UNL     1      -1.395  13.141  14.418  1.00  0.00     0.225 C 
HETATM    4  O1  UNL     1      -0.326  13.592  13.893  1.00  0.00    -0.273 OA
ENDROOT
BRANCH   3   5
HETATM    5  C3  UNL     1      -2.058  13.980  15.415  1.00  0.00     0.105 C 
HETATM    6  C4  UNL     1      -1.800  13.473  16.840  1.00  0.00     0.043 C 
HETATM    7  C5  UNL     1      -2.103  14.688  17.652  1.00  0.00     0.233 C 
HETATM    8  N2  UNL     1      -2.079  15.825  16.782  1.00  0.00    -0.074 N 
HETATM    9  C6  UNL     1      -1.424  15.368  15.545  1.00  0.00     0.246 C 
ATOM     10  H22 UNL     1      -2.998  16.241  16.628  1.00  0.00     0.277 HD
ATOM     11  H21 UNL     1      -1.642  16.648  17.196  1.00  0.00     0.277 HD
ENDBRANCH   3   5
BRANCH   2  12
HETATM   12  C7  UNL     1      -1.184  11.110  13.031  1.00  0.00     0.086 C 
HETATM   13  C8  UNL     1      -1.640  11.338  11.605  1.00  0.00     0.025 C 
HETATM   14  C9  UNL     1      -1.374   9.847  11.365  1.00  0.00     0.004 C 
HETATM   15  C10 UNL     1      -1.574   9.668  12.877  1.00  0.00     0.025 C 
ENDBRANCH   2  12
TORSDOF 2
ENDMDL
MODEL 4
REMARK VINA RESULT: -4.833528188      1.892      2.193
REMARK  2 active torsions:
REMARK  status: ('A' for Active; 'I' for Inactive)
REMARK       I    between atoms: N1_2  and  C2_3 
REMARK    1  A    between atoms: N1_2  and  C7_12 
REMARK    2  A    between atoms: C2_3  and  C3_5 
ROOT
HETATM    1  C1  UNL     1      -0.232  11.099  15.720  1.00  0.00     0.153 C 
HETATM    2  N1  UNL     1      -1.617  11.278  15.391  1.00  0.00    -0.351 N 
HETATM    3  C2  UNL     1      -2.228  12.520  15.702  1.00  0.00     0.225 C 
HETATM    4  O1  UNL     1      -3.455  12.720  15.422  1.00  0.00    -0.273 OA
ENDROOT
BRANCH   3   5
HETATM    5  C3  UNL     1      -1.501  13.613  16.345  1.00  0.00     0.105 C 
HETATM    6  C4  UNL     1      -0.914  14.584  15.313  1.00  0.00     0.043 C 
HETATM    7  C5  UNL     1      -0.691  15.806  16.140  1.00  0.00     0.233 C 
HETATM    8  N2  UNL     1      -1.468  15.683  17.337  1.00  0.00    -0.074 N 
HETATM    9  C6  UNL     1      -2.420  14.589  17.084  1.00  0.00     0.246 C 
ATOM     10  H22 UNL     1      -0.906  15.550  18.178  1.00  0.00     0.277 HD
ATOM     11  H21 UNL     1      -1.913  16.554  17.626  1.00  0.00     0.277 HD
ENDBRANCH   3   5
BRANCH   2  12
HETATM   12  C7  UNL     1      -2.415  10.246  14.759  1.00  0.00     0.086 C 
HETATM   13  C8  UNL     1      -1.918   8.831  14.972  1.00  0.00     0.025 C 
HETATM   14  C9  UNL     1      -2.371   8.541  13.536  1.00  0.00     0.004 C 
HETATM   15  C10 UNL     1      -2.212  10.047  13.284  1.00  0.00     0.025 C 
ENDBRANCH   2  12
TORSDOF 2
ENDMDL
MODEL 5
REMARK VINA RESULT: -4.727147555      1.997      2.639
REMARK  2 active torsions:
REMARK  status: ('A' for Active; 'I' for Inactive)
REMARK       I    between atoms: N1_2  and  C2_3 
REMARK    1  A    between atoms: N1_2  and  C7_12 
REMARK    2  A    between atoms: C2_3  and  C3_5 
ROOT
HETATM    1  C1  UNL     1       0.622  10.245  15.913  1.00  0.00     0.153 C 
HETATM    2  N1  UNL     1       0.755  10.719  14.565  1.00  0.00    -0.351 N 
HETATM    3  C2  UNL     1       0.141  11.950  14.220  1.00  0.00     0.225 C 
HETATM    4  O1  UNL     1       0.239  12.407  13.035  1.00  0.00    -0.273 OA
ENDROOT
BRANCH   3   5
HETATM    5  C3  UNL     1      -0.618  12.745  15.184  1.00  0.00     0.105 C 
HETATM    6  C4  UNL     1      -0.537  14.243  14.868  1.00  0.00     0.043 C 
HETATM    7  C5  UNL     1      -1.724  14.772  15.604  1.00  0.00     0.233 C 
HETATM    8  N2  UNL     1      -2.594  13.673  15.896  1.00  0.00    -0.074 N 
HETATM    9  C6  UNL     1      -2.132  12.562  15.048  1.00  0.00     0.246 C 
ATOM     10  H22 UNL     1      -2.638  13.439  16.888  1.00  0.00     0.277 HD
ATOM     11  H21 UNL     1      -3.583  13.893  15.779  1.00  0.00     0.277 HD
ENDBRANCH   3   5
BRANCH   2  12
HETATM   12  C7  UNL     1       1.484   9.992  13.544  1.00  0.00     0.086 C 
HETATM   13  C8  UNL     1       1.778   8.544  13.876  1.00  0.00     0.025 C 
HETATM   14  C9  UNL     1       3.122   8.736  13.161  1.00  0.00     0.004 C 
HETATM   15  C10 UNL     1       2.965  10.231  13.477  1.00  0.00     0.025 C 
ENDBRANCH   2  12
TORSDOF 2
ENDMDL
