MODEL 1
REMARK VINA RESULT: -7.609253971      0.000      0.000
REMARK  11 active torsions:
REMARK  status: ('A' for Active; 'I' for Inactive)
REMARK    1  A    between atoms: O1_2  and  C2_3 
REMARK       I    between atoms: C2_3  and  N1_5 
REMARK    2  A    between atoms: C5_8  and  C6_9 
REMARK    3  A    between atoms: C6_9  and  C7_10 
REMARK    4  A    between atoms: C7_10  and  N2_11 
REMARK    5  A    between atoms: C7_10  and  C15_24 
REMARK    6  A    between atoms: N2_11  and  C8_13 
REMARK    7  A    between atoms: C8_13  and  O3_14 
REMARK    8  A    between atoms: C8_13  and  C9_16 
REMARK    9  A    between atoms: C9_16  and  C10_18 
REMARK   10  A    between atoms: C10_18  and  N3_19 
REMARK       I    between atoms: C15_24  and  N4_26 
REMARK   11  A    between atoms: N4_26  and  C16_28 
ROOT
HETATM    1  C7  UNL     1      21.165  12.644  13.438  1.00  0.00     0.172 C 
ENDROOT
BRANCH   1   2
HETATM    2  C6  UNL     1      22.434  13.335  13.038  1.00  0.00     0.039 C 
BRANCH   2   3
HETATM    3  C5  UNL     1      22.417  14.482  12.137  1.00  0.00    -0.009 C 
HETATM    4  C4  UNL     1      23.779  14.925  11.684  1.00  0.00     0.024 C 
HETATM    5  C3  UNL     1      23.773  15.175  10.165  1.00  0.00     0.128 C 
HETATM    6  N1  UNL     1      22.573  15.900   9.804  1.00  0.00    -0.328 N 
HETATM    7  C2  UNL     1      22.590  17.202   9.258  1.00  0.00     0.362 C 
HETATM    8  C21 UNL     1      21.311  15.241  10.024  1.00  0.00     0.128 C 
HETATM    9  O2  UNL     1      23.667  17.810   9.052  1.00  0.00    -0.238 OA
HETATM   10  C20 UNL     1      21.583  14.049  10.907  1.00  0.00     0.024 C 
BRANCH   7  11
HETATM   11  O1  UNL     1      21.407  17.832   8.940  1.00  0.00    -0.309 OA
HETATM   12  C1  UNL     1      21.251  18.466   7.703  1.00  0.00     0.215 C 
ENDBRANCH   7  11
ENDBRANCH   2   3
ENDBRANCH   1   2
BRANCH   1  13
HETATM   13  N2  UNL     1      20.079  13.488  13.714  1.00  0.00    -0.378 N 
ATOM     14  H2  UNL     1      20.176  14.337  14.270  1.00  0.00     0.157 HD
BRANCH  13  15
HETATM   15  C8  UNL     1      18.810  13.073  13.154  1.00  0.00     0.287 C 
BRANCH  15  16
HETATM   16  O3  UNL     1      18.179  12.354  14.236  1.00  0.00    -0.370 OA
ATOM     17  H3  UNL     1      18.029  11.489  13.873  1.00  0.00     0.212 HD
ENDBRANCH  15  16
BRANCH  15  18
HETATM   18  C9  UNL     1      17.888  14.181  12.843  1.00  0.00     0.202 C 
HETATM   19  O4  UNL     1      16.902  13.995  12.164  1.00  0.00    -0.291 OA
BRANCH  18  20
HETATM   20  C10 UNL     1      18.142  15.540  13.352  1.00  0.00     0.355 C 
BRANCH  20  21
HETATM   21  N3  UNL     1      18.525  16.456  12.293  1.00  0.00     0.095 N 
HETATM   22  C11 UNL     1      19.699  17.211  12.570  1.00  0.00     0.273 C 
HETATM   23  C12 UNL     1      19.547  18.550  11.909  1.00  0.00     0.032 C 
HETATM   24  C13 UNL     1      18.242  18.448  11.149  1.00  0.00     0.032 C 
HETATM   25  C14 UNL     1      17.507  17.434  12.017  1.00  0.00     0.273 C 
ENDBRANCH  20  21
ENDBRANCH  18  20
ENDBRANCH  15  18
ENDBRANCH  13  15
ENDBRANCH   1  13
BRANCH   1  26
HETATM   26  C15 UNL     1      21.581  11.734  14.566  1.00  0.00     0.240 C 
HETATM   27  O5  UNL     1      20.820  11.449  15.484  1.00  0.00    -0.271 OA
HETATM   28  N4  UNL     1      22.886  11.168  14.600  1.00  0.00    -0.353 N 
ATOM     29  H4  UNL     1      23.532  11.390  13.843  1.00  0.00     0.163 HD
BRANCH  28  30
HETATM   30  C16 UNL     1      23.339  10.297  15.652  1.00  0.00     0.111 C 
HETATM   31  C17 UNL     1      24.838  10.400  15.895  1.00  0.00     0.054 C 
HETATM   32  C18 UNL     1      25.355   9.807  14.612  1.00  0.00     0.234 C 
HETATM   33  N5  UNL     1      24.374   8.866  14.164  1.00  0.00    -0.073 N 
HETATM   34  C19 UNL     1      23.292   8.857  15.126  1.00  0.00     0.257 C 
ATOM     35  H52 UNL     1      24.056   9.051  13.213  1.00  0.00     0.277 HD
ATOM     36  H51 UNL     1      24.763   7.938  13.998  1.00  0.00     0.277 HD
ENDBRANCH  28  30
ENDBRANCH   1  26
TORSDOF 11
ENDMDL
MODEL 2
REMARK VINA RESULT: -7.556851282      1.780      2.485
REMARK  11 active torsions:
REMARK  status: ('A' for Active; 'I' for Inactive)
REMARK    1  A    between atoms: O1_2  and  C2_3 
REMARK       I    between atoms: C2_3  and  N1_5 
REMARK    2  A    between atoms: C5_8  and  C6_9 
REMARK    3  A    between atoms: C6_9  and  C7_10 
REMARK    4  A    between atoms: C7_10  and  N2_11 
REMARK    5  A    between atoms: C7_10  and  C15_24 
REMARK    6  A    between atoms: N2_11  and  C8_13 
REMARK    7  A    between atoms: C8_13  and  O3_14 
REMARK    8  A    between atoms: C8_13  and  C9_16 
REMARK    9  A    between atoms: C9_16  and  C10_18 
REMARK   10  A    between atoms: C10_18  and  N3_19 
REMARK       I    between atoms: C15_24  and  N4_26 
REMARK   11  A    between atoms: N4_26  and  C16_28 
ROOT
HETATM    1  C7  UNL     1      21.138  12.705  13.459  1.00  0.00     0.172 C 
ENDROOT
BRANCH   1   2
HETATM    2  C6  UNL     1      22.438  13.309  13.019  1.00  0.00     0.039 C 
BRANCH   2   3
HETATM    3  C5  UNL     1      22.470  14.459  12.121  1.00  0.00    -0.009 C 
HETATM    4  C4  UNL     1      23.854  14.906  11.748  1.00  0.00     0.024 C 
HETATM    5  C3  UNL     1      23.934  15.160  10.231  1.00  0.00     0.128 C 
HETATM    6  N1  UNL     1      22.756  15.885   9.805  1.00  0.00    -0.328 N 
HETATM    7  C2  UNL     1      22.801  17.189   9.265  1.00  0.00     0.362 C 
HETATM    8  C21 UNL     1      21.484  15.223   9.952  1.00  0.00     0.128 C 
HETATM    9  O2  UNL     1      23.887  17.799   9.122  1.00  0.00    -0.238 OA
HETATM   10  C20 UNL     1      21.707  14.029  10.844  1.00  0.00     0.024 C 
BRANCH   7  11
HETATM   11  O1  UNL     1      21.637  17.817   8.882  1.00  0.00    -0.309 OA
HETATM   12  C1  UNL     1      21.471  18.264   7.568  1.00  0.00     0.215 C 
ENDBRANCH   7  11
ENDBRANCH   2   3
ENDBRANCH   1   2
BRANCH   1  13
HETATM   13  N2  UNL     1      20.116  13.620  13.754  1.00  0.00    -0.378 N 
ATOM     14  H2  UNL     1      20.243  14.382  14.419  1.00  0.00     0.157 HD
BRANCH  13  15
HETATM   15  C8  UNL     1      18.869  13.407  13.051  1.00  0.00     0.287 C 
BRANCH  15  16
HETATM   16  O3  UNL     1      19.089  12.174  12.331  1.00  0.00    -0.370 OA
ATOM     17  H3  UNL     1      19.768  12.397  11.706  1.00  0.00     0.212 HD
ENDBRANCH  15  16
BRANCH  15  18
HETATM   18  C9  UNL     1      17.713  13.135  13.928  1.00  0.00     0.202 C 
HETATM   19  O4  UNL     1      17.570  12.049  14.444  1.00  0.00    -0.291 OA
BRANCH  18  20
HETATM   20  C10 UNL     1      16.708  14.176  14.195  1.00  0.00     0.355 C 
BRANCH  20  21
HETATM   21  N3  UNL     1      15.413  13.845  13.629  1.00  0.00     0.095 N 
HETATM   22  C11 UNL     1      15.219  14.315  12.301  1.00  0.00     0.273 C 
HETATM   23  C12 UNL     1      13.762  14.640  12.140  1.00  0.00     0.032 C 
HETATM   24  C13 UNL     1      13.135  14.212  13.450  1.00  0.00     0.032 C 
HETATM   25  C14 UNL     1      14.322  14.397  14.386  1.00  0.00     0.273 C 
ENDBRANCH  20  21
ENDBRANCH  18  20
ENDBRANCH  15  18
ENDBRANCH  13  15
ENDBRANCH   1  13
BRANCH   1  26
HETATM   26  C15 UNL     1      21.525  11.779  14.584  1.00  0.00     0.240 C 
HETATM   27  O5  UNL     1      20.761  11.529  15.509  1.00  0.00    -0.271 OA
HETATM   28  N4  UNL     1      22.804  11.157  14.606  1.00  0.00    -0.353 N 
ATOM     29  H4  UNL     1      23.452  11.350  13.843  1.00  0.00     0.163 HD
BRANCH  28  30
HETATM   30  C16 UNL     1      23.229  10.268  15.656  1.00  0.00     0.111 C 
HETATM   31  C17 UNL     1      24.720  10.374  15.947  1.00  0.00     0.054 C 
HETATM   32  C18 UNL     1      25.279   9.807  14.670  1.00  0.00     0.234 C 
HETATM   33  N5  UNL     1      24.318   8.871  14.174  1.00  0.00    -0.073 N 
HETATM   34  C19 UNL     1      23.206   8.838  15.101  1.00  0.00     0.257 C 
ATOM     35  H52 UNL     1      24.028   9.072  13.217  1.00  0.00     0.277 HD
ATOM     36  H51 UNL     1      24.717   7.948  14.004  1.00  0.00     0.277 HD
ENDBRANCH  28  30
ENDBRANCH   1  26
TORSDOF 11
ENDMDL
MODEL 3
REMARK VINA RESULT: -7.520934513      1.882      4.569
REMARK  11 active torsions:
REMARK  status: ('A' for Active; 'I' for Inactive)
REMARK    1  A    between atoms: O1_2  and  C2_3 
REMARK       I    between atoms: C2_3  and  N1_5 
REMARK    2  A    between atoms: C5_8  and  C6_9 
REMARK    3  A    between atoms: C6_9  and  C7_10 
REMARK    4  A    between atoms: C7_10  and  N2_11 
REMARK    5  A    between atoms: C7_10  and  C15_24 
REMARK    6  A    between atoms: N2_11  and  C8_13 
REMARK    7  A    between atoms: C8_13  and  O3_14 
REMARK    8  A    between atoms: C8_13  and  C9_16 
REMARK    9  A    between atoms: C9_16  and  C10_18 
REMARK   10  A    between atoms: C10_18  and  N3_19 
REMARK       I    between atoms: C15_24  and  N4_26 
REMARK   11  A    between atoms: N4_26  and  C16_28 
ROOT
HETATM    1  C7  UNL     1      21.255  13.429  13.118  1.00  0.00     0.172 C 
ENDROOT
BRANCH   1   2
HETATM    2  C6  UNL     1      19.876  13.277  12.548  1.00  0.00     0.039 C 
BRANCH   2   3
HETATM    3  C5  UNL     1      19.108  14.438  12.112  1.00  0.00    -0.009 C 
HETATM    4  C4  UNL     1      17.621  14.272  12.240  1.00  0.00     0.024 C 
HETATM    5  C3  UNL     1      17.004  15.530  12.880  1.00  0.00     0.128 C 
HETATM    6  N1  UNL     1      17.593  16.708  12.280  1.00  0.00    -0.328 N 
HETATM    7  C2  UNL     1      16.853  17.646  11.527  1.00  0.00     0.362 C 
HETATM    8  C21 UNL     1      19.005  16.912  12.474  1.00  0.00     0.128 C 
HETATM    9  O2  UNL     1      15.622  17.505  11.335  1.00  0.00    -0.238 OA
HETATM   10  C20 UNL     1      19.571  15.618  13.001  1.00  0.00     0.024 C 
BRANCH   7  11
HETATM   11  O1  UNL     1      17.482  18.745  10.985  1.00  0.00    -0.309 OA
HETATM   12  C1  UNL     1      17.479  18.955   9.602  1.00  0.00     0.215 C 
ENDBRANCH   7  11
ENDBRANCH   2   3
ENDBRANCH   1   2
BRANCH   1  13
HETATM   13  N2  UNL     1      22.307  13.266  12.205  1.00  0.00    -0.378 N 
ATOM     14  H2  UNL     1      22.431  12.411  11.663  1.00  0.00     0.157 HD
BRANCH  13  15
HETATM   15  C8  UNL     1      23.206  14.394  12.085  1.00  0.00     0.287 C 
BRANCH  15  16
HETATM   16  O3  UNL     1      24.491  13.848  12.456  1.00  0.00    -0.370 OA
ATOM     17  H3  UNL     1      25.064  14.605  12.462  1.00  0.00     0.212 HD
ENDBRANCH  15  16
BRANCH  15  18
HETATM   18  C9  UNL     1      23.387  14.886  10.705  1.00  0.00     0.202 C 
HETATM   19  O4  UNL     1      24.492  14.967  10.216  1.00  0.00    -0.291 OA
BRANCH  18  20
HETATM   20  C10 UNL     1      22.229  15.291   9.891  1.00  0.00     0.355 C 
BRANCH  20  21
HETATM   21  N3  UNL     1      22.350  16.654   9.407  1.00  0.00     0.095 N 
HETATM   22  C11 UNL     1      21.141  17.401   9.458  1.00  0.00     0.273 C 
HETATM   23  C12 UNL     1      21.150  18.363   8.305  1.00  0.00     0.032 C 
HETATM   24  C13 UNL     1      22.509  18.171   7.667  1.00  0.00     0.032 C 
HETATM   25  C14 UNL     1      22.773  16.716   8.034  1.00  0.00     0.273 C 
ENDBRANCH  20  21
ENDBRANCH  18  20
ENDBRANCH  15  18
ENDBRANCH  13  15
ENDBRANCH   1  13
BRANCH   1  26
HETATM   26  C15 UNL     1      21.269  12.491  14.299  1.00  0.00     0.240 C 
HETATM   27  O5  UNL     1      20.372  12.487  15.134  1.00  0.00    -0.271 OA
HETATM   28  N4  UNL     1      22.336  11.568  14.481  1.00  0.00    -0.353 N 
ATOM     29  H4  UNL     1      23.089  11.554  13.794  1.00  0.00     0.163 HD
BRANCH  28  30
HETATM   30  C16 UNL     1      22.404  10.654  15.591  1.00  0.00     0.111 C 
HETATM   31  C17 UNL     1      23.773  10.639  16.256  1.00  0.00     0.054 C 
HETATM   32  C18 UNL     1      24.595  10.023  15.157  1.00  0.00     0.234 C 
HETATM   33  N5  UNL     1      23.722   9.165  14.416  1.00  0.00    -0.073 N 
HETATM   34  C19 UNL     1      22.411   9.227  15.026  1.00  0.00     0.257 C 
ATOM     35  H52 UNL     1      23.706   9.383  13.420  1.00  0.00     0.277 HD
ATOM     36  H51 UNL     1      24.077   8.211  14.339  1.00  0.00     0.277 HD
ENDBRANCH  28  30
ENDBRANCH   1  26
TORSDOF 11
ENDMDL
MODEL 4
REMARK VINA RESULT: -7.471669255      2.651      5.760
REMARK  11 active torsions:
REMARK  status: ('A' for Active; 'I' for Inactive)
REMARK    1  A    between atoms: O1_2  and  C2_3 
REMARK       I    between atoms: C2_3  and  N1_5 
REMARK    2  A    between atoms: C5_8  and  C6_9 
REMARK    3  A    between atoms: C6_9  and  C7_10 
REMARK    4  A    between atoms: C7_10  and  N2_11 
REMARK    5  A    between atoms: C7_10  and  C15_24 
REMARK    6  A    between atoms: N2_11  and  C8_13 
REMARK    7  A    between atoms: C8_13  and  O3_14 
REMARK    8  A    between atoms: C8_13  and  C9_16 
REMARK    9  A    between atoms: C9_16  and  C10_18 
REMARK   10  A    between atoms: C10_18  and  N3_19 
REMARK       I    between atoms: C15_24  and  N4_26 
REMARK   11  A    between atoms: N4_26  and  C16_28 
ROOT
HETATM    1  C7  UNL     1      21.927  14.188  11.944  1.00  0.00     0.172 C 
ENDROOT
BRANCH   1   2
HETATM    2  C6  UNL     1      21.329  15.359  12.665  1.00  0.00     0.039 C 
BRANCH   2   3
HETATM    3  C5  UNL     1      20.167  16.061  12.131  1.00  0.00    -0.009 C 
HETATM    4  C4  UNL     1      20.506  17.259  11.293  1.00  0.00     0.024 C 
HETATM    5  C3  UNL     1      19.669  17.250  10.000  1.00  0.00     0.128 C 
HETATM    6  N1  UNL     1      18.301  16.902  10.318  1.00  0.00    -0.328 N 
HETATM    7  C2  UNL     1      17.213  17.780  10.123  1.00  0.00     0.362 C 
HETATM    8  C21 UNL     1      18.062  15.589  10.862  1.00  0.00     0.128 C 
HETATM    9  O2  UNL     1      17.378  18.931   9.653  1.00  0.00    -0.238 OA
HETATM   10  C20 UNL     1      19.402  15.028  11.268  1.00  0.00     0.024 C 
BRANCH   7  11
HETATM   11  O1  UNL     1      15.936  17.380  10.451  1.00  0.00    -0.309 OA
HETATM   12  C1  UNL     1      15.170  18.121  11.356  1.00  0.00     0.215 C 
ENDBRANCH   7  11
ENDBRANCH   2   3
ENDBRANCH   1   2
BRANCH   1  13
HETATM   13  N2  UNL     1      22.129  13.039  12.723  1.00  0.00    -0.378 N 
ATOM     14  H2  UNL     1      23.060  12.672  12.922  1.00  0.00     0.157 HD
BRANCH  13  15
HETATM   15  C8  UNL     1      20.927  12.408  13.224  1.00  0.00     0.287 C 
BRANCH  15  16
HETATM   16  O3  UNL     1      21.035  11.046  12.754  1.00  0.00    -0.370 OA
ATOM     17  H3  UNL     1      21.239  10.553  13.540  1.00  0.00     0.212 HD
ENDBRANCH  15  16
BRANCH  15  18
HETATM   18  C9  UNL     1      20.863  12.299  14.694  1.00  0.00     0.202 C 
HETATM   19  O4  UNL     1      21.742  11.740  15.313  1.00  0.00    -0.291 OA
BRANCH  18  20
HETATM   20  C10 UNL     1      19.730  12.867  15.444  1.00  0.00     0.355 C 
BRANCH  20  21
HETATM   21  N3  UNL     1      18.747  13.479  14.570  1.00  0.00     0.095 N 
HETATM   22  C11 UNL     1      18.316  14.769  14.987  1.00  0.00     0.273 C 
HETATM   23  C12 UNL     1      16.881  14.927  14.573  1.00  0.00     0.032 C 
HETATM   24  C13 UNL     1      16.574  13.665  13.795  1.00  0.00     0.032 C 
HETATM   25  C14 UNL     1      17.543  12.698  14.461  1.00  0.00     0.273 C 
ENDBRANCH  20  21
ENDBRANCH  18  20
ENDBRANCH  15  18
ENDBRANCH  13  15
ENDBRANCH   1  13
BRANCH   1  26
HETATM   26  C15 UNL     1      23.161  14.752  11.287  1.00  0.00     0.240 C 
HETATM   27  O5  UNL     1      24.260  14.710  11.829  1.00  0.00    -0.271 OA
HETATM   28  N4  UNL     1      23.089  15.354  10.001  1.00  0.00    -0.353 N 
ATOM     29  H4  UNL     1      22.184  15.394   9.533  1.00  0.00     0.163 HD
BRANCH  28  30
HETATM   30  C16 UNL     1      24.233  15.912   9.327  1.00  0.00     0.111 C 
HETATM   31  C17 UNL     1      24.277  17.432   9.406  1.00  0.00     0.054 C 
HETATM   32  C18 UNL     1      23.084  17.776   8.556  1.00  0.00     0.234 C 
HETATM   33  N5  UNL     1      22.944  16.727   7.592  1.00  0.00    -0.073 N 
HETATM   34  C19 UNL     1      24.007  15.770   7.817  1.00  0.00     0.257 C 
ATOM     35  H52 UNL     1      22.018  16.300   7.606  1.00  0.00     0.277 HD
ATOM     36  H51 UNL     1      22.920  17.073   6.633  1.00  0.00     0.277 HD
ENDBRANCH  28  30
ENDBRANCH   1  26
TORSDOF 11
ENDMDL
MODEL 5
REMARK VINA RESULT: -7.466558268      2.002      2.785
REMARK  11 active torsions:
REMARK  status: ('A' for Active; 'I' for Inactive)
REMARK    1  A    between atoms: O1_2  and  C2_3 
REMARK       I    between atoms: C2_3  and  N1_5 
REMARK    2  A    between atoms: C5_8  and  C6_9 
REMARK    3  A    between atoms: C6_9  and  C7_10 
REMARK    4  A    between atoms: C7_10  and  N2_11 
REMARK    5  A    between atoms: C7_10  and  C15_24 
REMARK    6  A    between atoms: N2_11  and  C8_13 
REMARK    7  A    between atoms: C8_13  and  O3_14 
REMARK    8  A    between atoms: C8_13  and  C9_16 
REMARK    9  A    between atoms: C9_16  and  C10_18 
REMARK   10  A    between atoms: C10_18  and  N3_19 
REMARK       I    between atoms: C15_24  and  N4_26 
REMARK   11  A    between atoms: N4_26  and  C16_28 
ROOT
HETATM    1  C7  UNL     1      21.171  11.446  14.241  1.00  0.00     0.172 C 
ENDROOT
BRANCH   1   2
HETATM    2  C6  UNL     1      22.120  12.476  13.706  1.00  0.00     0.039 C 
BRANCH   2   3
HETATM    3  C5  UNL     1      21.692  13.447  12.703  1.00  0.00    -0.009 C 
HETATM    4  C4  UNL     1      20.746  14.489  13.224  1.00  0.00     0.024 C 
HETATM    5  C3  UNL     1      21.180  15.884  12.737  1.00  0.00     0.128 C 
HETATM    6  N1  UNL     1      21.541  15.811  11.338  1.00  0.00    -0.328 N 
HETATM    7  C2  UNL     1      20.845  16.500  10.321  1.00  0.00     0.362 C 
HETATM    8  C21 UNL     1      22.670  14.986  10.990  1.00  0.00     0.128 C 
HETATM    9  O2  UNL     1      19.858  17.227  10.582  1.00  0.00    -0.238 OA
HETATM   10  C20 UNL     1      22.983  14.133  12.193  1.00  0.00     0.024 C 
BRANCH   7  11
HETATM   11  O1  UNL     1      21.246  16.382   9.009  1.00  0.00    -0.309 OA
HETATM   12  C1  UNL     1      21.290  17.504   8.175  1.00  0.00     0.215 C 
ENDBRANCH   7  11
ENDBRANCH   2   3
ENDBRANCH   1   2
BRANCH   1  13
HETATM   13  N2  UNL     1      20.125  11.941  15.034  1.00  0.00    -0.378 N 
ATOM     14  H2  UNL     1      20.286  12.591  15.803  1.00  0.00     0.157 HD
BRANCH  13  15
HETATM   15  C8  UNL     1      18.803  11.466  14.687  1.00  0.00     0.287 C 
BRANCH  15  16
HETATM   16  O3  UNL     1      18.715  10.186  15.352  1.00  0.00    -0.370 OA
ATOM     17  H3  UNL     1      18.347   9.614  14.689  1.00  0.00     0.212 HD
ENDBRANCH  15  16
BRANCH  15  18
HETATM   18  C9  UNL     1      17.699  12.265  15.253  1.00  0.00     0.202 C 
HETATM   19  O4  UNL     1      17.023  11.832  16.160  1.00  0.00    -0.291 OA
BRANCH  18  20
HETATM   20  C10 UNL     1      17.394  13.607  14.730  1.00  0.00     0.355 C 
BRANCH  20  21
HETATM   21  N3  UNL     1      16.552  13.554  13.549  1.00  0.00     0.095 N 
HETATM   22  C11 UNL     1      17.109  14.189  12.404  1.00  0.00     0.273 C 
HETATM   23  C12 UNL     1      15.977  14.764  11.603  1.00  0.00     0.032 C 
HETATM   24  C13 UNL     1      14.732  14.307  12.334  1.00  0.00     0.032 C 
HETATM   25  C14 UNL     1      15.279  14.194  13.750  1.00  0.00     0.273 C 
ENDBRANCH  20  21
ENDBRANCH  18  20
ENDBRANCH  15  18
ENDBRANCH  13  15
ENDBRANCH   1  13
BRANCH   1  26
HETATM   26  C15 UNL     1      22.067  10.432  14.907  1.00  0.00     0.240 C 
HETATM   27  O5  UNL     1      21.617   9.440  15.470  1.00  0.00    -0.271 OA
HETATM   28  N4  UNL     1      23.480  10.596  14.901  1.00  0.00    -0.353 N 
ATOM     29  H4  UNL     1      23.873  11.413  14.433  1.00  0.00     0.163 HD
BRANCH  28  30
HETATM   30  C16 UNL     1      24.383   9.664  15.523  1.00  0.00     0.111 C 
HETATM   31  C17 UNL     1      25.728  10.289  15.867  1.00  0.00     0.054 C 
HETATM   32  C18 UNL     1      26.268  10.532  14.484  1.00  0.00     0.234 C 
HETATM   33  N5  UNL     1      25.707   9.525  13.636  1.00  0.00    -0.073 N 
HETATM   34  C19 UNL     1      24.859   8.678  14.449  1.00  0.00     0.257 C 
ATOM     35  H52 UNL     1      25.219   9.915  12.830  1.00  0.00     0.277 HD
ATOM     36  H51 UNL     1      26.415   9.000  13.124  1.00  0.00     0.277 HD
ENDBRANCH  28  30
ENDBRANCH   1  26
TORSDOF 11
ENDMDL
