MODEL 1
REMARK VINA RESULT: -6.450537789      0.000      0.000
REMARK  11 active torsions:
REMARK  status: ('A' for Active; 'I' for Inactive)
REMARK    1  A    between atoms: C2_2  and  C4_4 
REMARK    2  A    between atoms: C4_4  and  N1_5 
REMARK    3  A    between atoms: C4_4  and  C13_21 
REMARK       I    between atoms: N1_5  and  C5_7 
REMARK    4  A    between atoms: C5_7  and  C6_9 
REMARK    5  A    between atoms: C6_9  and  C7_10 
REMARK    6  A    between atoms: C6_9  and  N2_12 
REMARK       I    between atoms: N2_12  and  C8_14 
REMARK    7  A    between atoms: C8_14  and  O4_16 
REMARK    8  A    between atoms: O4_16  and  C9_17 
REMARK    9  A    between atoms: C13_21  and  C14_22 
REMARK   10  A    between atoms: C13_21  and  N4_27 
REMARK       I    between atoms: C14_22  and  N3_24 
REMARK   11  A    between atoms: C20_31  and  N5_32 
ROOT
HETATM    1  C4  UNL     1      18.310  14.261  12.828  1.00  0.00     0.130 C 
ENDROOT
BRANCH   1   2
HETATM    2  C2  UNL     1      17.388  15.405  12.474  1.00  0.00     0.003 C 
HETATM    3  C1  UNL     1      17.925  16.787  12.579  1.00  0.00     0.011 C 
HETATM    4  C3  UNL     1      16.671  15.170  11.151  1.00  0.00     0.011 C 
ENDBRANCH   1   2
BRANCH   1   5
HETATM    5  N1  UNL     1      19.652  14.942  12.717  1.00  0.00    -0.351 N 
HETATM    6  C5  UNL     1      20.527  14.536  11.681  1.00  0.00     0.247 C 
HETATM    7  O1  UNL     1      20.157  13.627  10.900  1.00  0.00    -0.271 OA
ATOM      8  H1  UNL     1      19.923  15.675  13.372  1.00  0.00     0.163 HD
BRANCH   6   9
HETATM    9  C6  UNL     1      21.859  15.120  11.455  1.00  0.00     0.240 C 
BRANCH   9  10
HETATM   10  C7  UNL     1      22.922  14.276  12.023  1.00  0.00     0.266 C 
HETATM   11  O2  UNL     1      24.070  14.677  11.947  1.00  0.00    -0.304 OA
ENDBRANCH   9  10
BRANCH   9  12
HETATM   12  N2  UNL     1      22.095  15.435  10.063  1.00  0.00    -0.317 N 
HETATM   13  C8  UNL     1      21.546  16.589   9.494  1.00  0.00     0.362 C 
HETATM   14  O3  UNL     1      20.847  17.356  10.200  1.00  0.00    -0.238 OA
ATOM     15  H2  UNL     1      22.665  14.811   9.493  1.00  0.00     0.166 HD
BRANCH  13  16
HETATM   16  O4  UNL     1      21.738  16.939   8.167  1.00  0.00    -0.294 OA
BRANCH  16  17
HETATM   17  C9  UNL     1      22.999  17.330   7.647  1.00  0.00     0.061 C 
HETATM   18  C10 UNL     1      23.898  16.135   7.414  1.00  0.00     0.046 C 
HETATM   19  C11 UNL     1      23.721  18.254   8.613  1.00  0.00     0.046 C 
HETATM   20  C12 UNL     1      22.799  18.036   6.340  1.00  0.00     0.046 C 
ENDBRANCH  16  17
ENDBRANCH  13  16
ENDBRANCH   9  12
ENDBRANCH   6   9
ENDBRANCH   1   5
BRANCH   1  21
HETATM   21  C13 UNL     1      18.279  13.733  14.187  1.00  0.00     0.337 C 
BRANCH  21  22
HETATM   22  C14 UNL     1      16.940  14.033  14.886  1.00  0.00     0.255 C 
HETATM   23  O5  UNL     1      15.951  13.309  14.647  1.00  0.00    -0.271 OA
HETATM   24  N3  UNL     1      16.777  15.100  15.797  1.00  0.00    -0.359 N 
HETATM   25  C15 UNL     1      17.810  16.030  16.212  1.00  0.00     0.152 C 
HETATM   26  C16 UNL     1      15.421  15.269  16.366  1.00  0.00     0.152 C 
ENDBRANCH  21  22
BRANCH  21  27
HETATM   27  N4  UNL     1      18.368  12.325  14.397  1.00  0.00     0.106 N 
HETATM   28  C17 UNL     1      19.044  11.462  13.502  1.00  0.00     0.273 C 
HETATM   29  C18 UNL     1      20.515  11.259  13.744  1.00  0.00     0.032 C 
HETATM   30  C19 UNL     1      21.185  12.326  14.544  1.00  0.00     0.036 C 
HETATM   31  C20 UNL     1      20.407  12.582  15.789  1.00  0.00     0.211 C 
HETATM   32  C21 UNL     1      19.004  12.086  15.714  1.00  0.00     0.306 C 
BRANCH  31  33
HETATM   33  N5  UNL     1      21.122  12.049  16.936  1.00  0.00    -0.073 N 
ATOM     34  H53 UNL     1      20.492  11.797  17.697  1.00  0.00     0.274 HD
ATOM     35  H52 UNL     1      21.508  11.123  16.750  1.00  0.00     0.274 HD
ATOM     36  H51 UNL     1      21.839  12.710  17.234  1.00  0.00     0.274 HD
ENDBRANCH  31  33
ENDBRANCH  21  27
ENDBRANCH   1  21
TORSDOF 11
ENDMDL
MODEL 2
REMARK VINA RESULT: -6.362180861      2.463      4.802
REMARK  11 active torsions:
REMARK  status: ('A' for Active; 'I' for Inactive)
REMARK    1  A    between atoms: C2_2  and  C4_4 
REMARK    2  A    between atoms: C4_4  and  N1_5 
REMARK    3  A    between atoms: C4_4  and  C13_21 
REMARK       I    between atoms: N1_5  and  C5_7 
REMARK    4  A    between atoms: C5_7  and  C6_9 
REMARK    5  A    between atoms: C6_9  and  C7_10 
REMARK    6  A    between atoms: C6_9  and  N2_12 
REMARK       I    between atoms: N2_12  and  C8_14 
REMARK    7  A    between atoms: C8_14  and  O4_16 
REMARK    8  A    between atoms: O4_16  and  C9_17 
REMARK    9  A    between atoms: C13_21  and  C14_22 
REMARK   10  A    between atoms: C13_21  and  N4_27 
REMARK       I    between atoms: C14_22  and  N3_24 
REMARK   11  A    between atoms: C20_31  and  N5_32 
ROOT
HETATM    1  C4  UNL     1      18.264  16.130  13.529  1.00  0.00     0.130 C 
ENDROOT
BRANCH   1   2
HETATM    2  C2  UNL     1      17.606  15.200  14.521  1.00  0.00     0.003 C 
HETATM    3  C1  UNL     1      17.780  13.736  14.322  1.00  0.00     0.011 C 
HETATM    4  C3  UNL     1      17.879  15.617  15.960  1.00  0.00     0.011 C 
ENDBRANCH   1   2
BRANCH   1   5
HETATM    5  N1  UNL     1      19.237  15.185  12.866  1.00  0.00    -0.351 N 
HETATM    6  C5  UNL     1      20.618  15.482  12.941  1.00  0.00     0.247 C 
HETATM    7  O1  UNL     1      20.980  16.518  13.549  1.00  0.00    -0.271 OA
ATOM      8  H1  UNL     1      18.907  14.353  12.376  1.00  0.00     0.163 HD
BRANCH   6   9
HETATM    9  C6  UNL     1      21.673  14.644  12.347  1.00  0.00     0.240 C 
BRANCH   9  10
HETATM   10  C7  UNL     1      21.490  13.224  12.688  1.00  0.00     0.266 C 
HETATM   11  O2  UNL     1      21.165  12.949  13.830  1.00  0.00    -0.304 OA
ENDBRANCH   9  10
BRANCH   9  12
HETATM   12  N2  UNL     1      21.806  14.852  10.923  1.00  0.00    -0.317 N 
HETATM   13  C8  UNL     1      23.068  14.838  10.319  1.00  0.00     0.362 C 
HETATM   14  O3  UNL     1      24.089  14.640  11.021  1.00  0.00    -0.238 OA
ATOM     15  H2  UNL     1      20.974  15.010  10.354  1.00  0.00     0.166 HD
BRANCH  13  16
HETATM   16  O4  UNL     1      23.255  15.033   8.959  1.00  0.00    -0.294 OA
BRANCH  16  17
HETATM   17  C9  UNL     1      23.416  16.318   8.380  1.00  0.00     0.061 C 
HETATM   18  C10 UNL     1      24.168  17.252   9.304  1.00  0.00     0.046 C 
HETATM   19  C11 UNL     1      22.069  16.958   8.093  1.00  0.00     0.046 C 
HETATM   20  C12 UNL     1      24.190  16.193   7.102  1.00  0.00     0.046 C 
ENDBRANCH  16  17
ENDBRANCH  13  16
ENDBRANCH   9  12
ENDBRANCH   6   9
ENDBRANCH   1   5
BRANCH   1  21
HETATM   21  C13 UNL     1      17.464  16.660  12.431  1.00  0.00     0.337 C 
BRANCH  21  22
HETATM   22  C14 UNL     1      15.962  16.670  12.771  1.00  0.00     0.255 C 
HETATM   23  O5  UNL     1      15.492  17.621  13.428  1.00  0.00    -0.271 OA
HETATM   24  N3  UNL     1      15.082  15.642  12.367  1.00  0.00    -0.359 N 
HETATM   25  C15 UNL     1      15.440  14.473  11.586  1.00  0.00     0.152 C 
HETATM   26  C16 UNL     1      13.671  15.787  12.794  1.00  0.00     0.152 C 
ENDBRANCH  21  22
BRANCH  21  27
HETATM   27  N4  UNL     1      17.643  18.015  12.020  1.00  0.00     0.106 N 
HETATM   28  C17 UNL     1      18.916  18.565  11.741  1.00  0.00     0.273 C 
HETATM   29  C18 UNL     1      19.420  18.416  10.331  1.00  0.00     0.032 C 
HETATM   30  C19 UNL     1      18.792  17.319   9.540  1.00  0.00     0.036 C 
HETATM   31  C20 UNL     1      17.307  17.419   9.634  1.00  0.00     0.211 C 
HETATM   32  C21 UNL     1      16.849  18.241  10.789  1.00  0.00     0.306 C 
BRANCH  31  33
HETATM   33  N5  UNL     1      16.764  17.887   8.371  1.00  0.00    -0.073 N 
ATOM     34  H53 UNL     1      17.019  18.856   8.180  1.00  0.00     0.274 HD
ATOM     35  H52 UNL     1      17.223  17.452   7.571  1.00  0.00     0.274 HD
ATOM     36  H51 UNL     1      15.754  17.747   8.356  1.00  0.00     0.274 HD
ENDBRANCH  31  33
ENDBRANCH  21  27
ENDBRANCH   1  21
TORSDOF 11
ENDMDL
MODEL 3
REMARK VINA RESULT: -6.283981294      3.198      5.690
REMARK  11 active torsions:
REMARK  status: ('A' for Active; 'I' for Inactive)
REMARK    1  A    between atoms: C2_2  and  C4_4 
REMARK    2  A    between atoms: C4_4  and  N1_5 
REMARK    3  A    between atoms: C4_4  and  C13_21 
REMARK       I    between atoms: N1_5  and  C5_7 
REMARK    4  A    between atoms: C5_7  and  C6_9 
REMARK    5  A    between atoms: C6_9  and  C7_10 
REMARK    6  A    between atoms: C6_9  and  N2_12 
REMARK       I    between atoms: N2_12  and  C8_14 
REMARK    7  A    between atoms: C8_14  and  O4_16 
REMARK    8  A    between atoms: O4_16  and  C9_17 
REMARK    9  A    between atoms: C13_21  and  C14_22 
REMARK   10  A    between atoms: C13_21  and  N4_27 
REMARK       I    between atoms: C14_22  and  N3_24 
REMARK   11  A    between atoms: C20_31  and  N5_32 
ROOT
HETATM    1  C4  UNL     1      16.445  17.372  12.693  1.00  0.00     0.130 C 
ENDROOT
BRANCH   1   2
HETATM    2  C2  UNL     1      16.157  16.758  14.044  1.00  0.00     0.003 C 
HETATM    3  C1  UNL     1      17.061  15.680  14.524  1.00  0.00     0.011 C 
HETATM    4  C3  UNL     1      15.915  17.818  15.110  1.00  0.00     0.011 C 
ENDBRANCH   1   2
BRANCH   1   5
HETATM    5  N1  UNL     1      17.550  16.465  12.207  1.00  0.00    -0.351 N 
HETATM    6  C5  UNL     1      18.816  17.036  11.935  1.00  0.00     0.247 C 
HETATM    7  O1  UNL     1      18.970  18.270  12.104  1.00  0.00    -0.271 OA
ATOM      8  H1  UNL     1      17.389  15.467  12.077  1.00  0.00     0.163 HD
BRANCH   6   9
HETATM    9  C6  UNL     1      19.980  16.269  11.464  1.00  0.00     0.240 C 
BRANCH   9  10
HETATM   10  C7  UNL     1      19.859  14.842  11.805  1.00  0.00     0.266 C 
HETATM   11  O2  UNL     1      19.106  14.157  11.136  1.00  0.00    -0.304 OA
ENDBRANCH   9  10
BRANCH   9  12
HETATM   12  N2  UNL     1      20.246  16.475  10.058  1.00  0.00    -0.317 N 
HETATM   13  C8  UNL     1      21.556  16.437   9.571  1.00  0.00     0.362 C 
HETATM   14  O3  UNL     1      22.505  16.218  10.362  1.00  0.00    -0.238 OA
ATOM     15  H2  UNL     1      19.472  16.650   9.418  1.00  0.00     0.166 HD
BRANCH  13  16
HETATM   16  O4  UNL     1      21.869  16.630   8.234  1.00  0.00    -0.294 OA
BRANCH  16  17
HETATM   17  C9  UNL     1      22.194  17.900   7.695  1.00  0.00     0.061 C 
HETATM   18  C10 UNL     1      22.479  17.816   6.210  1.00  0.00     0.046 C 
HETATM   19  C11 UNL     1      23.436  18.471   8.359  1.00  0.00     0.046 C 
HETATM   20  C12 UNL     1      21.043  18.838   7.904  1.00  0.00     0.046 C 
ENDBRANCH  16  17
ENDBRANCH  13  16
ENDBRANCH   9  12
ENDBRANCH   6   9
ENDBRANCH   1   5
BRANCH   1  21
HETATM   21  C13 UNL     1      15.423  17.291  11.656  1.00  0.00     0.337 C 
BRANCH  21  22
HETATM   22  C14 UNL     1      14.185  16.511  12.134  1.00  0.00     0.255 C 
HETATM   23  O5  UNL     1      13.199  17.139  12.573  1.00  0.00    -0.271 OA
HETATM   24  N3  UNL     1      14.110  15.101  12.096  1.00  0.00    -0.359 N 
HETATM   25  C15 UNL     1      15.142  14.206  11.605  1.00  0.00     0.152 C 
HETATM   26  C16 UNL     1      12.859  14.500  12.614  1.00  0.00     0.152 C 
ENDBRANCH  21  22
BRANCH  21  27
HETATM   27  N4  UNL     1      14.806  18.486  11.182  1.00  0.00     0.106 N 
HETATM   28  C17 UNL     1      15.412  19.759  11.306  1.00  0.00     0.273 C 
HETATM   29  C18 UNL     1      16.329  20.180  10.190  1.00  0.00     0.032 C 
HETATM   30  C19 UNL     1      16.879  19.069   9.359  1.00  0.00     0.036 C 
HETATM   31  C20 UNL     1      15.769  18.178   8.915  1.00  0.00     0.211 C 
HETATM   32  C21 UNL     1      14.533  18.331   9.733  1.00  0.00     0.306 C 
BRANCH  31  33
HETATM   33  N5  UNL     1      15.521  18.371   7.496  1.00  0.00    -0.073 N 
ATOM     34  H53 UNL     1      14.582  18.729   7.317  1.00  0.00     0.274 HD
ATOM     35  H52 UNL     1      16.054  19.154   7.117  1.00  0.00     0.274 HD
ATOM     36  H51 UNL     1      15.704  17.503   6.993  1.00  0.00     0.274 HD
ENDBRANCH  31  33
ENDBRANCH  21  27
ENDBRANCH   1  21
TORSDOF 11
ENDMDL
MODEL 4
REMARK VINA RESULT: -6.210122931      1.589      1.669
REMARK  11 active torsions:
REMARK  status: ('A' for Active; 'I' for Inactive)
REMARK    1  A    between atoms: C2_2  and  C4_4 
REMARK    2  A    between atoms: C4_4  and  N1_5 
REMARK    3  A    between atoms: C4_4  and  C13_21 
REMARK       I    between atoms: N1_5  and  C5_7 
REMARK    4  A    between atoms: C5_7  and  C6_9 
REMARK    5  A    between atoms: C6_9  and  C7_10 
REMARK    6  A    between atoms: C6_9  and  N2_12 
REMARK       I    between atoms: N2_12  and  C8_14 
REMARK    7  A    between atoms: C8_14  and  O4_16 
REMARK    8  A    between atoms: O4_16  and  C9_17 
REMARK    9  A    between atoms: C13_21  and  C14_22 
REMARK   10  A    between atoms: C13_21  and  N4_27 
REMARK       I    between atoms: C14_22  and  N3_24 
REMARK   11  A    between atoms: C20_31  and  N5_32 
ROOT
HETATM    1  C4  UNL     1      16.941  14.416  12.924  1.00  0.00     0.130 C 
ENDROOT
BRANCH   1   2
HETATM    2  C2  UNL     1      15.605  14.997  12.523  1.00  0.00     0.003 C 
HETATM    3  C1  UNL     1      15.579  16.395  12.015  1.00  0.00     0.011 C 
HETATM    4  C3  UNL     1      14.818  14.050  11.627  1.00  0.00     0.011 C 
ENDBRANCH   1   2
BRANCH   1   5
HETATM    5  N1  UNL     1      17.849  15.589  12.643  1.00  0.00    -0.351 N 
HETATM    6  C5  UNL     1      18.961  15.388  11.792  1.00  0.00     0.247 C 
HETATM    7  O1  UNL     1      19.151  14.246  11.307  1.00  0.00    -0.271 OA
ATOM      8  H1  UNL     1      17.666  16.503  13.057  1.00  0.00     0.163 HD
BRANCH   6   9
HETATM    9  C6  UNL     1      19.920  16.444  11.429  1.00  0.00     0.240 C 
BRANCH   9  10
HETATM   10  C7  UNL     1      20.888  16.688  12.510  1.00  0.00     0.266 C 
HETATM   11  O2  UNL     1      20.474  16.692  13.656  1.00  0.00    -0.304 OA
ENDBRANCH   9  10
BRANCH   9  12
HETATM   12  N2  UNL     1      20.566  16.191  10.161  1.00  0.00    -0.317 N 
HETATM   13  C8  UNL     1      20.610  17.183   9.176  1.00  0.00     0.362 C 
HETATM   14  O3  UNL     1      20.086  18.301   9.399  1.00  0.00    -0.238 OA
ATOM     15  H2  UNL     1      20.994  15.282   9.984  1.00  0.00     0.166 HD
BRANCH  13  16
HETATM   16  O4  UNL     1      21.215  16.995   7.943  1.00  0.00    -0.294 OA
BRANCH  16  17
HETATM   17  C9  UNL     1      22.601  17.204   7.725  1.00  0.00     0.061 C 
HETATM   18  C10 UNL     1      23.418  16.007   8.161  1.00  0.00     0.046 C 
HETATM   19  C11 UNL     1      23.101  18.401   8.515  1.00  0.00     0.046 C 
HETATM   20  C12 UNL     1      22.844  17.437   6.264  1.00  0.00     0.046 C 
ENDBRANCH  16  17
ENDBRANCH  13  16
ENDBRANCH   9  12
ENDBRANCH   6   9
ENDBRANCH   1   5
BRANCH   1  21
HETATM   21  C13 UNL     1      17.173  14.102  14.329  1.00  0.00     0.337 C 
BRANCH  21  22
HETATM   22  C14 UNL     1      15.906  14.312  15.178  1.00  0.00     0.255 C 
HETATM   23  O5  UNL     1      15.031  13.422  15.199  1.00  0.00    -0.271 OA
HETATM   24  N3  UNL     1      15.686  15.477  15.945  1.00  0.00    -0.359 N 
HETATM   25  C15 UNL     1      16.593  16.604  16.060  1.00  0.00     0.152 C 
HETATM   26  C16 UNL     1      14.407  15.537  16.689  1.00  0.00     0.152 C 
ENDBRANCH  21  22
BRANCH  21  27
HETATM   27  N4  UNL     1      17.516  12.769  14.705  1.00  0.00     0.106 N 
HETATM   28  C17 UNL     1      18.265  11.909  13.867  1.00  0.00     0.273 C 
HETATM   29  C18 UNL     1      19.762  11.980  13.994  1.00  0.00     0.032 C 
HETATM   30  C19 UNL     1      20.295  13.241  14.588  1.00  0.00     0.036 C 
HETATM   31  C20 UNL     1      19.574  13.540  15.859  1.00  0.00     0.211 C 
HETATM   32  C21 UNL     1      18.275  12.821  15.977  1.00  0.00     0.306 C 
BRANCH  31  33
HETATM   33  N5  UNL     1      20.449  13.292  16.991  1.00  0.00    -0.073 N 
ATOM     34  H53 UNL     1      21.128  12.556  16.797  1.00  0.00     0.274 HD
ATOM     35  H52 UNL     1      21.103  14.060  17.146  1.00  0.00     0.274 HD
ATOM     36  H51 UNL     1      19.892  13.090  17.821  1.00  0.00     0.274 HD
ENDBRANCH  31  33
ENDBRANCH  21  27
ENDBRANCH   1  21
TORSDOF 11
ENDMDL
MODEL 5
REMARK VINA RESULT: -6.176887616      3.539      6.452
REMARK  11 active torsions:
REMARK  status: ('A' for Active; 'I' for Inactive)
REMARK    1  A    between atoms: C2_2  and  C4_4 
REMARK    2  A    between atoms: C4_4  and  N1_5 
REMARK    3  A    between atoms: C4_4  and  C13_21 
REMARK       I    between atoms: N1_5  and  C5_7 
REMARK    4  A    between atoms: C5_7  and  C6_9 
REMARK    5  A    between atoms: C6_9  and  C7_10 
REMARK    6  A    between atoms: C6_9  and  N2_12 
REMARK       I    between atoms: N2_12  and  C8_14 
REMARK    7  A    between atoms: C8_14  and  O4_16 
REMARK    8  A    between atoms: O4_16  and  C9_17 
REMARK    9  A    between atoms: C13_21  and  C14_22 
REMARK   10  A    between atoms: C13_21  and  N4_27 
REMARK       I    between atoms: C14_22  and  N3_24 
REMARK   11  A    between atoms: C20_31  and  N5_32 
ROOT
HETATM    1  C4  UNL     1      16.592  17.431  12.537  1.00  0.00     0.130 C 
ENDROOT
BRANCH   1   2
HETATM    2  C2  UNL     1      16.907  16.289  13.475  1.00  0.00     0.003 C 
HETATM    3  C1  UNL     1      16.980  14.919  12.902  1.00  0.00     0.011 C 
HETATM    4  C3  UNL     1      18.100  16.599  14.369  1.00  0.00     0.011 C 
ENDBRANCH   1   2
BRANCH   1   5
HETATM    5  N1  UNL     1      17.245  16.936  11.269  1.00  0.00    -0.351 N 
HETATM    6  C5  UNL     1      18.349  17.658  10.757  1.00  0.00     0.247 C 
HETATM    7  O1  UNL     1      18.738  18.681  11.371  1.00  0.00    -0.271 OA
ATOM      8  H1  UNL     1      16.900  16.102  10.793  1.00  0.00     0.163 HD
BRANCH   6   9
HETATM    9  C6  UNL     1      19.082  17.283   9.537  1.00  0.00     0.240 C 
BRANCH   9  10
HETATM   10  C7  UNL     1      19.217  18.423   8.617  1.00  0.00     0.266 C 
HETATM   11  O2  UNL     1      18.295  18.654   7.854  1.00  0.00    -0.304 OA
ENDBRANCH   9  10
BRANCH   9  12
HETATM   12  N2  UNL     1      20.353  16.659   9.827  1.00  0.00    -0.317 N 
HETATM   13  C8  UNL     1      20.409  15.329  10.255  1.00  0.00     0.362 C 
HETATM   14  O3  UNL     1      19.346  14.674  10.386  1.00  0.00    -0.238 OA
ATOM     15  H2  UNL     1      21.215  17.192   9.717  1.00  0.00     0.166 HD
BRANCH  13  16
HETATM   16  O4  UNL     1      21.599  14.680  10.548  1.00  0.00    -0.294 OA
BRANCH  16  17
HETATM   17  C9  UNL     1      22.136  14.612  11.859  1.00  0.00     0.061 C 
HETATM   18  C10 UNL     1      21.882  13.261  12.493  1.00  0.00     0.046 C 
HETATM   19  C11 UNL     1      21.503  15.657  12.762  1.00  0.00     0.046 C 
HETATM   20  C12 UNL     1      23.617  14.837  11.801  1.00  0.00     0.046 C 
ENDBRANCH  16  17
ENDBRANCH  13  16
ENDBRANCH   9  12
ENDBRANCH   6   9
ENDBRANCH   1   5
BRANCH   1  21
HETATM   21  C13 UNL     1      15.202  17.666  12.164  1.00  0.00     0.337 C 
BRANCH  21  22
HETATM   22  C14 UNL     1      14.232  17.260  13.289  1.00  0.00     0.255 C 
HETATM   23  O5  UNL     1      14.143  17.977  14.307  1.00  0.00    -0.271 OA
HETATM   24  N3  UNL     1      13.427  16.101  13.220  1.00  0.00    -0.359 N 
HETATM   25  C15 UNL     1      13.380  15.161  12.116  1.00  0.00     0.152 C 
HETATM   26  C16 UNL     1      12.564  15.837  14.394  1.00  0.00     0.152 C 
ENDBRANCH  21  22
BRANCH  21  27
HETATM   27  N4  UNL     1      14.757  18.997  11.910  1.00  0.00     0.106 N 
HETATM   28  C17 UNL     1      15.569  19.965  11.272  1.00  0.00     0.273 C 
HETATM   29  C18 UNL     1      15.510  20.009   9.770  1.00  0.00     0.032 C 
HETATM   30  C19 UNL     1      15.020  18.763   9.111  1.00  0.00     0.036 C 
HETATM   31  C20 UNL     1      13.742  18.330   9.746  1.00  0.00     0.211 C 
HETATM   32  C21 UNL     1      13.523  18.932  11.091  1.00  0.00     0.306 C 
BRANCH  31  33
HETATM   33  N5  UNL     1      12.633  18.581   8.841  1.00  0.00    -0.073 N 
ATOM     34  H53 UNL     1      11.730  18.505   9.311  1.00  0.00     0.274 HD
ATOM     35  H52 UNL     1      12.576  19.562   8.567  1.00  0.00     0.274 HD
ATOM     36  H51 UNL     1      12.699  17.960   8.034  1.00  0.00     0.274 HD
ENDBRANCH  31  33
ENDBRANCH  21  27
ENDBRANCH   1  21
TORSDOF 11
ENDMDL
