MODEL 1
REMARK VINA RESULT: -6.608154450      0.000      0.000
REMARK  7 active torsions:
REMARK  status: ('A' for Active; 'I' for Inactive)
REMARK    1  A    between atoms: N1_1  and  C1_5 
REMARK    2  A    between atoms: C4_14  and  N4_15 
REMARK    3  A    between atoms: C4_14  and  C5_19 
REMARK    4  A    between atoms: C5_19  and  O3_20 
REMARK    5  A    between atoms: C5_19  and  C6_22 
REMARK    6  A    between atoms: C6_22  and  C7_23 
REMARK    7  A    between atoms: C7_23  and  N5_24 
ROOT
HETATM    1  C1  UNL     1     -47.302  70.135 -14.930  1.00  0.00     0.334 C 
HETATM    2  N2  UNL     1     -47.298  69.015 -14.030  1.00  0.00    -0.312 N 
ATOM      3  H2  UNL     1     -46.484  68.404 -13.979  1.00  0.00     0.166 HD
HETATM    4  C2  UNL     1     -48.425  68.763 -13.215  1.00  0.00     0.324 C 
HETATM    5  O1  UNL     1     -48.761  67.605 -12.856  1.00  0.00    -0.247 OA
HETATM    6  N3  UNL     1     -49.176  69.938 -12.816  1.00  0.00    -0.277 N 
ATOM      7  H3  UNL     1     -50.002  69.839 -12.227  1.00  0.00     0.173 HD
HETATM    8  C3  UNL     1     -48.760  71.225 -13.245  1.00  0.00     0.268 C 
HETATM    9  O2  UNL     1     -49.376  72.227 -12.841  1.00  0.00    -0.270 OA
HETATM   10  C4  UNL     1     -47.611  71.394 -14.160  1.00  0.00     0.273 C 
ENDROOT
BRANCH  10  11
HETATM   11  N4  UNL     1     -46.444  71.608 -13.292  1.00  0.00    -0.055 N 
ATOM     12  H43 UNL     1     -45.910  70.760 -13.103  1.00  0.00     0.276 HD
ATOM     13  H42 UNL     1     -45.687  72.126 -13.739  1.00  0.00     0.276 HD
ATOM     14  H41 UNL     1     -46.814  72.057 -12.455  1.00  0.00     0.276 HD
ENDBRANCH  10  11
BRANCH  10  15
HETATM   15  C5  UNL     1     -47.707  72.614 -15.031  1.00  0.00     0.169 C 
BRANCH  15  16
HETATM   16  O3  UNL     1     -47.640  73.729 -14.191  1.00  0.00    -0.392 OA
ATOM     17  H3  UNL     1     -47.817  74.495 -14.725  1.00  0.00     0.210 HD
ENDBRANCH  15  16
BRANCH  15  18
HETATM   18  C6  UNL     1     -48.968  72.630 -15.882  1.00  0.00     0.055 C 
BRANCH  18  19
HETATM   19  C7  UNL     1     -49.398  74.061 -16.064  1.00  0.00     0.141 C 
BRANCH  19  20
HETATM   20  N5  UNL     1     -50.770  74.309 -15.794  1.00  0.00    -0.251 N 
HETATM   21  C8  UNL     1     -51.150  74.832 -14.610  1.00  0.00     0.334 A 
HETATM   22  O4  UNL     1     -50.250  75.084 -13.775  1.00  0.00    -0.246 OA
HETATM   23  N6  UNL     1     -52.457  75.049 -14.403  1.00  0.00    -0.260 N 
HETATM   24  C9  UNL     1     -53.379  74.761 -15.331  1.00  0.00     0.332 A 
ATOM     25  H6  UNL     1     -52.758  75.444 -13.512  1.00  0.00     0.175 HD
HETATM   26  O5  UNL     1     -54.598  74.974 -15.111  1.00  0.00    -0.246 OA
HETATM   27  N7  UNL     1     -52.997  74.237 -16.517  1.00  0.00    -0.260 N 
HETATM   28  C10 UNL     1     -51.676  74.010 -16.747  1.00  0.00     0.334 A 
ATOM     29  H7  UNL     1     -53.691  74.014 -17.231  1.00  0.00     0.175 HD
HETATM   30  O6  UNL     1     -51.368  73.521 -17.864  1.00  0.00    -0.246 OA
ENDBRANCH  19  20
ENDBRANCH  18  19
ENDBRANCH  15  18
ENDBRANCH  10  15
BRANCH   1  31
HETATM   31  N1  UNL     1     -46.008  70.284 -15.530  1.00  0.00    -0.055 N 
ATOM     32  H13 UNL     1     -45.485  71.060 -15.124  1.00  0.00     0.276 HD
ATOM     33  H12 UNL     1     -45.376  69.527 -15.270  1.00  0.00     0.276 HD
ATOM     34  H11 UNL     1     -46.103  70.374 -16.542  1.00  0.00     0.276 HD
ENDBRANCH   1  31
TORSDOF 7
ENDMDL
MODEL 2
REMARK VINA RESULT: -6.601525814      0.254      1.669
REMARK  7 active torsions:
REMARK  status: ('A' for Active; 'I' for Inactive)
REMARK    1  A    between atoms: N1_1  and  C1_5 
REMARK    2  A    between atoms: C4_14  and  N4_15 
REMARK    3  A    between atoms: C4_14  and  C5_19 
REMARK    4  A    between atoms: C5_19  and  O3_20 
REMARK    5  A    between atoms: C5_19  and  C6_22 
REMARK    6  A    between atoms: C6_22  and  C7_23 
REMARK    7  A    between atoms: C7_23  and  N5_24 
ROOT
HETATM    1  C1  UNL     1     -47.606  70.158 -14.990  1.00  0.00     0.334 C 
HETATM    2  N2  UNL     1     -47.557  69.018 -14.116  1.00  0.00    -0.312 N 
ATOM      3  H2  UNL     1     -46.778  68.363 -14.175  1.00  0.00     0.166 HD
HETATM    4  C2  UNL     1     -48.589  68.808 -13.174  1.00  0.00     0.324 C 
HETATM    5  O1  UNL     1     -48.944  67.661 -12.796  1.00  0.00    -0.247 OA
HETATM    6  N3  UNL     1     -49.218  70.012 -12.666  1.00  0.00    -0.277 N 
ATOM      7  H3  UNL     1     -49.972  69.944 -11.982  1.00  0.00     0.173 HD
HETATM    8  C3  UNL     1     -48.785  71.285 -13.121  1.00  0.00     0.268 C 
HETATM    9  O2  UNL     1     -49.291  72.308 -12.627  1.00  0.00    -0.270 OA
HETATM   10  C4  UNL     1     -47.748  71.413 -14.167  1.00  0.00     0.273 C 
ENDROOT
BRANCH  10  11
HETATM   11  N4  UNL     1     -46.474  71.542 -13.444  1.00  0.00    -0.055 N 
ATOM     12  H43 UNL     1     -46.094  70.655 -13.117  1.00  0.00     0.276 HD
ATOM     13  H42 UNL     1     -45.686  71.796 -14.040  1.00  0.00     0.276 HD
ATOM     14  H41 UNL     1     -46.659  72.212 -12.697  1.00  0.00     0.276 HD
ENDBRANCH  10  11
BRANCH  10  15
HETATM   15  C5  UNL     1     -47.880  72.656 -14.998  1.00  0.00     0.169 C 
BRANCH  15  16
HETATM   16  O3  UNL     1     -47.782  73.748 -14.131  1.00  0.00    -0.392 OA
ATOM     17  H3  UNL     1     -47.409  74.469 -14.625  1.00  0.00     0.210 HD
ENDBRANCH  15  16
BRANCH  15  18
HETATM   18  C6  UNL     1     -49.172  72.693 -15.799  1.00  0.00     0.055 C 
BRANCH  18  19
HETATM   19  C7  UNL     1     -49.599  74.129 -15.945  1.00  0.00     0.141 C 
BRANCH  19  20
HETATM   20  N5  UNL     1     -50.972  74.373 -15.682  1.00  0.00    -0.251 N 
HETATM   21  C8  UNL     1     -51.901  74.153 -16.634  1.00  0.00     0.334 A 
HETATM   22  O4  UNL     1     -51.500  73.730 -17.744  1.00  0.00    -0.246 OA
HETATM   23  N6  UNL     1     -53.185  74.397 -16.337  1.00  0.00    -0.260 N 
HETATM   24  C9  UNL     1     -53.561  74.849 -15.133  1.00  0.00     0.332 A 
ATOM     25  H6  UNL     1     -53.898  74.234 -17.048  1.00  0.00     0.175 HD
HETATM   26  O5  UNL     1     -54.772  75.069 -14.880  1.00  0.00    -0.246 OA
HETATM   27  N7  UNL     1     -52.628  75.069 -14.178  1.00  0.00    -0.260 N 
HETATM   28  C10 UNL     1     -51.320  74.827 -14.460  1.00  0.00     0.334 A 
ATOM     29  H7  UNL     1     -52.903  75.413 -13.258  1.00  0.00     0.175 HD
HETATM   30  O6  UNL     1     -50.490  75.047 -13.542  1.00  0.00    -0.246 OA
ENDBRANCH  19  20
ENDBRANCH  18  19
ENDBRANCH  15  18
ENDBRANCH  10  15
BRANCH   1  31
HETATM   31  N1  UNL     1     -46.389  70.251 -15.741  1.00  0.00    -0.055 N 
ATOM     32  H13 UNL     1     -46.227  71.195 -16.092  1.00  0.00     0.276 HD
ATOM     33  H12 UNL     1     -45.564  70.170 -15.145  1.00  0.00     0.276 HD
ATOM     34  H11 UNL     1     -46.389  69.558 -16.489  1.00  0.00     0.276 HD
ENDBRANCH   1  31
TORSDOF 7
ENDMDL
MODEL 3
REMARK VINA RESULT: -6.506309253      1.341      2.170
REMARK  7 active torsions:
REMARK  status: ('A' for Active; 'I' for Inactive)
REMARK    1  A    between atoms: N1_1  and  C1_5 
REMARK    2  A    between atoms: C4_14  and  N4_15 
REMARK    3  A    between atoms: C4_14  and  C5_19 
REMARK    4  A    between atoms: C5_19  and  O3_20 
REMARK    5  A    between atoms: C5_19  and  C6_22 
REMARK    6  A    between atoms: C6_22  and  C7_23 
REMARK    7  A    between atoms: C7_23  and  N5_24 
ROOT
HETATM    1  C1  UNL     1     -48.763  70.265 -14.944  1.00  0.00     0.334 C 
HETATM    2  N2  UNL     1     -48.837  68.895 -14.520  1.00  0.00    -0.312 N 
ATOM      3  H2  UNL     1     -49.015  68.158 -15.202  1.00  0.00     0.166 HD
HETATM    4  C2  UNL     1     -48.664  68.569 -13.156  1.00  0.00     0.324 C 
HETATM    5  O1  UNL     1     -49.233  67.588 -12.611  1.00  0.00    -0.247 OA
HETATM    6  N3  UNL     1     -47.779  69.449 -12.418  1.00  0.00    -0.277 N 
ATOM      7  H3  UNL     1     -47.601  69.280 -11.428  1.00  0.00     0.173 HD
HETATM    8  C3  UNL     1     -47.159  70.545 -13.073  1.00  0.00     0.268 C 
HETATM    9  O2  UNL     1     -46.352  71.250 -12.442  1.00  0.00    -0.270 OA
HETATM   10  C4  UNL     1     -47.454  70.859 -14.488  1.00  0.00     0.273 C 
ENDROOT
BRANCH  10  11
HETATM   11  N4  UNL     1     -46.424  70.162 -15.270  1.00  0.00    -0.055 N 
ATOM     12  H43 UNL     1     -46.717  69.249 -15.618  1.00  0.00     0.276 HD
ATOM     13  H42 UNL     1     -46.242  70.583 -16.181  1.00  0.00     0.276 HD
ATOM     14  H41 UNL     1     -45.606  70.127 -14.661  1.00  0.00     0.276 HD
ENDBRANCH  10  11
BRANCH  10  15
HETATM   15  C5  UNL     1     -47.314  72.316 -14.824  1.00  0.00     0.169 C 
BRANCH  15  16
HETATM   16  O3  UNL     1     -46.028  72.708 -14.440  1.00  0.00    -0.392 OA
ATOM     17  H3  UNL     1     -46.043  72.844 -13.500  1.00  0.00     0.210 HD
ENDBRANCH  15  16
BRANCH  15  18
HETATM   18  C6  UNL     1     -48.381  73.176 -14.166  1.00  0.00     0.055 C 
BRANCH  18  19
HETATM   19  C7  UNL     1     -48.912  74.141 -15.193  1.00  0.00     0.141 C 
BRANCH  19  20
HETATM   20  N5  UNL     1     -50.328  74.234 -15.247  1.00  0.00    -0.251 N 
HETATM   21  C8  UNL     1     -51.022  73.557 -16.184  1.00  0.00     0.334 A 
HETATM   22  O4  UNL     1     -50.369  72.853 -16.990  1.00  0.00    -0.246 OA
HETATM   23  N6  UNL     1     -52.358  73.676 -16.193  1.00  0.00    -0.260 N 
HETATM   24  C9  UNL     1     -53.007  74.442 -15.307  1.00  0.00     0.332 A 
ATOM     25  H6  UNL     1     -52.895  73.168 -16.896  1.00  0.00     0.175 HD
HETATM   26  O5  UNL     1     -54.260  74.537 -15.339  1.00  0.00    -0.246 OA
HETATM   27  N7  UNL     1     -52.310  75.121 -14.369  1.00  0.00    -0.260 N 
HETATM   28  C10 UNL     1     -50.955  75.013 -14.342  1.00  0.00     0.334 A 
ATOM     29  H7  UNL     1     -52.795  75.707 -13.689  1.00  0.00     0.175 HD
HETATM   30  O6  UNL     1     -50.349  75.662 -13.451  1.00  0.00    -0.246 OA
ENDBRANCH  19  20
ENDBRANCH  18  19
ENDBRANCH  15  18
ENDBRANCH  10  15
BRANCH   1  31
HETATM   31  N1  UNL     1     -48.810  70.337 -16.376  1.00  0.00    -0.055 N 
ATOM     32  H13 UNL     1     -48.078  70.939 -16.753  1.00  0.00     0.276 HD
ATOM     33  H12 UNL     1     -48.522  69.461 -16.813  1.00  0.00     0.276 HD
ATOM     34  H11 UNL     1     -49.740  70.628 -16.678  1.00  0.00     0.276 HD
ENDBRANCH   1  31
TORSDOF 7
ENDMDL
MODEL 4
REMARK VINA RESULT: -6.477965521      1.357      1.490
REMARK  7 active torsions:
REMARK  status: ('A' for Active; 'I' for Inactive)
REMARK    1  A    between atoms: N1_1  and  C1_5 
REMARK    2  A    between atoms: C4_14  and  N4_15 
REMARK    3  A    between atoms: C4_14  and  C5_19 
REMARK    4  A    between atoms: C5_19  and  O3_20 
REMARK    5  A    between atoms: C5_19  and  C6_22 
REMARK    6  A    between atoms: C6_22  and  C7_23 
REMARK    7  A    between atoms: C7_23  and  N5_24 
ROOT
HETATM    1  C1  UNL     1     -48.773  70.263 -14.927  1.00  0.00     0.334 C 
HETATM    2  N2  UNL     1     -48.825  68.888 -14.513  1.00  0.00    -0.312 N 
ATOM      3  H2  UNL     1     -48.996  68.155 -15.200  1.00  0.00     0.166 HD
HETATM    4  C2  UNL     1     -48.638  68.555 -13.152  1.00  0.00     0.324 C 
HETATM    5  O1  UNL     1     -49.189  67.561 -12.612  1.00  0.00    -0.247 OA
HETATM    6  N3  UNL     1     -47.761  69.442 -12.413  1.00  0.00    -0.277 N 
ATOM      7  H3  UNL     1     -47.575  69.269 -11.425  1.00  0.00     0.173 HD
HETATM    8  C3  UNL     1     -47.162  70.552 -13.063  1.00  0.00     0.268 C 
HETATM    9  O2  UNL     1     -46.361  71.264 -12.431  1.00  0.00    -0.270 OA
HETATM   10  C4  UNL     1     -47.471  70.873 -14.473  1.00  0.00     0.273 C 
ENDROOT
BRANCH  10  11
HETATM   11  N4  UNL     1     -46.435  70.197 -15.267  1.00  0.00    -0.055 N 
ATOM     12  H43 UNL     1     -46.023  69.387 -14.804  1.00  0.00     0.276 HD
ATOM     13  H42 UNL     1     -46.798  69.696 -16.079  1.00  0.00     0.276 HD
ATOM     14  H41 UNL     1     -45.760  70.926 -15.500  1.00  0.00     0.276 HD
ENDBRANCH  10  11
BRANCH  10  15
HETATM   15  C5  UNL     1     -47.354  72.334 -14.799  1.00  0.00     0.169 C 
BRANCH  15  16
HETATM   16  O3  UNL     1     -46.056  72.731 -14.464  1.00  0.00    -0.392 OA
ATOM     17  H3  UNL     1     -45.461  72.082 -14.821  1.00  0.00     0.210 HD
ENDBRANCH  15  16
BRANCH  15  18
HETATM   18  C6  UNL     1     -48.399  73.180 -14.088  1.00  0.00     0.055 C 
BRANCH  18  19
HETATM   19  C7  UNL     1     -48.906  74.217 -15.055  1.00  0.00     0.141 C 
BRANCH  19  20
HETATM   20  N5  UNL     1     -50.320  74.310 -15.141  1.00  0.00    -0.251 N 
HETATM   21  C8  UNL     1     -51.008  75.089 -14.283  1.00  0.00     0.334 A 
HETATM   22  O4  UNL     1     -50.350  75.718 -13.420  1.00  0.00    -0.246 OA
HETATM   23  N6  UNL     1     -52.342  75.145 -14.405  1.00  0.00    -0.260 N 
HETATM   24  C9  UNL     1     -52.997  74.452 -15.346  1.00  0.00     0.332 A 
ATOM     25  H6  UNL     1     -52.874  75.731 -13.762  1.00  0.00     0.175 HD
HETATM   26  O5  UNL     1     -54.248  74.522 -15.439  1.00  0.00    -0.246 OA
HETATM   27  N7  UNL     1     -52.306  73.670 -16.206  1.00  0.00    -0.260 N 
HETATM   28  C10 UNL     1     -50.953  73.601 -16.099  1.00  0.00     0.334 A 
ATOM     29  H7  UNL     1     -52.795  73.139 -16.927  1.00  0.00     0.175 HD
HETATM   30  O6  UNL     1     -50.353  72.861 -16.921  1.00  0.00    -0.246 OA
ENDBRANCH  19  20
ENDBRANCH  18  19
ENDBRANCH  15  18
ENDBRANCH  10  15
BRANCH   1  31
HETATM   31  N1  UNL     1     -48.830  70.345 -16.357  1.00  0.00    -0.055 N 
ATOM     32  H13 UNL     1     -48.194  69.685 -16.804  1.00  0.00     0.276 HD
ATOM     33  H12 UNL     1     -49.708  69.978 -16.727  1.00  0.00     0.276 HD
ATOM     34  H11 UNL     1     -48.660  71.305 -16.657  1.00  0.00     0.276 HD
ENDBRANCH   1  31
TORSDOF 7
ENDMDL
MODEL 5
REMARK VINA RESULT: -6.474826961      0.991      1.056
REMARK  7 active torsions:
REMARK  status: ('A' for Active; 'I' for Inactive)
REMARK    1  A    between atoms: N1_1  and  C1_5 
REMARK    2  A    between atoms: C4_14  and  N4_15 
REMARK    3  A    between atoms: C4_14  and  C5_19 
REMARK    4  A    between atoms: C5_19  and  O3_20 
REMARK    5  A    between atoms: C5_19  and  C6_22 
REMARK    6  A    between atoms: C6_22  and  C7_23 
REMARK    7  A    between atoms: C7_23  and  N5_24 
ROOT
HETATM    1  C1  UNL     1     -47.596  69.764 -14.912  1.00  0.00     0.334 C 
HETATM    2  N2  UNL     1     -47.707  68.682 -13.973  1.00  0.00    -0.312 N 
ATOM      3  H2  UNL     1     -46.994  67.954 -13.947  1.00  0.00     0.166 HD
HETATM    4  C2  UNL     1     -48.807  68.629 -13.086  1.00  0.00     0.324 C 
HETATM    5  O1  UNL     1     -49.293  67.547 -12.666  1.00  0.00    -0.247 OA
HETATM    6  N3  UNL     1     -49.342  69.916 -12.688  1.00  0.00    -0.277 N 
ATOM      7  H3  UNL     1     -50.136  69.963 -12.049  1.00  0.00     0.173 HD
HETATM    8  C3  UNL     1     -48.762  71.112 -13.187  1.00  0.00     0.268 C 
HETATM    9  O2  UNL     1     -49.191  72.207 -12.784  1.00  0.00    -0.270 OA
HETATM   10  C4  UNL     1     -47.659  71.076 -14.172  1.00  0.00     0.273 C 
ENDROOT
BRANCH  10  11
HETATM   11  N4  UNL     1     -46.422  71.130 -13.380  1.00  0.00    -0.055 N 
ATOM     12  H43 UNL     1     -46.570  71.031 -12.376  1.00  0.00     0.276 HD
ATOM     13  H42 UNL     1     -45.825  70.310 -13.492  1.00  0.00     0.276 HD
ATOM     14  H41 UNL     1     -45.974  72.006 -13.647  1.00  0.00     0.276 HD
ENDBRANCH  10  11
BRANCH  10  15
HETATM   15  C5  UNL     1     -47.622  72.271 -15.079  1.00  0.00     0.169 C 
BRANCH  15  16
HETATM   16  O3  UNL     1     -47.216  73.365 -14.309  1.00  0.00    -0.392 OA
ATOM     17  H3  UNL     1     -46.780  73.975 -14.892  1.00  0.00     0.210 HD
ENDBRANCH  15  16
BRANCH  15  18
HETATM   18  C6  UNL     1     -48.956  72.533 -15.762  1.00  0.00     0.055 C 
BRANCH  18  19
HETATM   19  C7  UNL     1     -49.125  74.021 -15.916  1.00  0.00     0.141 C 
BRANCH  19  20
HETATM   20  N5  UNL     1     -50.230  74.572 -15.214  1.00  0.00    -0.251 N 
HETATM   21  C8  UNL     1     -50.033  75.331 -14.118  1.00  0.00     0.334 A 
HETATM   22  O4  UNL     1     -48.849  75.526 -13.755  1.00  0.00    -0.246 OA
HETATM   23  N6  UNL     1     -51.108  75.829 -13.490  1.00  0.00    -0.260 N 
HETATM   24  C9  UNL     1     -52.354  75.591 -13.921  1.00  0.00     0.332 A 
ATOM     25  H6  UNL     1     -50.973  76.406 -12.660  1.00  0.00     0.175 HD
HETATM   26  O5  UNL     1     -53.345  76.070 -13.313  1.00  0.00    -0.246 OA
HETATM   27  N7  UNL     1     -52.550  74.829 -15.020  1.00  0.00    -0.260 N 
HETATM   28  C10 UNL     1     -51.473  74.315 -15.671  1.00  0.00     0.334 A 
ATOM     29  H7  UNL     1     -53.495  74.641 -15.357  1.00  0.00     0.175 HD
HETATM   30  O6  UNL     1     -51.704  73.612 -16.688  1.00  0.00    -0.246 OA
ENDBRANCH  19  20
ENDBRANCH  18  19
ENDBRANCH  15  18
ENDBRANCH  10  15
BRANCH   1  31
HETATM   31  N1  UNL     1     -46.334  69.694 -15.590  1.00  0.00    -0.055 N 
ATOM     32  H13 UNL     1     -45.560  69.537 -14.944  1.00  0.00     0.276 HD
ATOM     33  H12 UNL     1     -46.243  68.841 -16.142  1.00  0.00     0.276 HD
ATOM     34  H11 UNL     1     -46.197  70.532 -16.155  1.00  0.00     0.276 HD
ENDBRANCH   1  31
TORSDOF 7
ENDMDL
