MODEL 1
REMARK VINA RESULT: -5.168440971      0.000      0.000
REMARK  7 active torsions:
REMARK  status: ('A' for Active; 'I' for Inactive)
REMARK    1  A    between atoms: C3_3  and  O1_4 
REMARK    2  A    between atoms: C4_6  and  O2_7 
REMARK    3  A    between atoms: C5_9  and  O3_10 
REMARK    4  A    between atoms: C6_12  and  N1_13 
REMARK    5  A    between atoms: N1_13  and  O4_15 
REMARK    6  A    between atoms: O4_15  and  C8_16 
REMARK    7  A    between atoms: C9_17  and  C10_18 
ROOT
HETATM    1  C1  UNL     1      -0.692   0.445  15.349  1.00  0.00     0.015 C 
HETATM    2  C2  UNL     1       0.716   0.944  15.363  1.00  0.00     0.040 C 
HETATM    3  C3  UNL     1       1.438   0.703  16.679  1.00  0.00     0.155 C 
HETATM    4  C4  UNL     1       2.850   1.162  16.279  1.00  0.00     0.178 C 
HETATM    5  C5  UNL     1       2.994   0.582  14.872  1.00  0.00     0.174 C 
HETATM    6  C6  UNL     1       1.624   0.173  14.426  1.00  0.00     0.147 C 
ENDROOT
BRANCH   6   7
HETATM    7  N1  UNL     1       1.337   0.291  13.073  1.00  0.00    -0.276 N 
HETATM    8  C7  UNL     1       1.312   1.544  12.453  1.00  0.00     0.180 C 
BRANCH   7   9
HETATM    9  O4  UNL     1       1.080  -0.785  12.330  1.00  0.00    -0.187 OA
BRANCH   9  10
HETATM   10  C8  UNL     1       1.756  -1.962  12.625  1.00  0.00     0.090 C 
HETATM   11  C9  UNL     1       2.357  -2.972  12.897  1.00  0.00    -0.029 C 
BRANCH  11  12
HETATM   12  C10 UNL     1       3.083  -4.157  13.243  1.00  0.00     0.148 C 
HETATM   13  N2  UNL     1       3.102  -5.224  12.522  1.00  0.00    -0.401 N 
ATOM     14  H22 UNL     1       2.563  -5.208  11.657  1.00  0.00     0.156 HD
ATOM     15  H21 UNL     1       3.619  -6.068  12.769  1.00  0.00     0.156 HD
ENDBRANCH  11  12
ENDBRANCH   9  10
ENDBRANCH   7   9
ENDBRANCH   6   7
BRANCH   5  16
HETATM   16  O3  UNL     1       3.888  -0.481  14.959  1.00  0.00    -0.391 OA
ATOM     17  H3  UNL     1       3.393  -1.275  14.799  1.00  0.00     0.210 HD
ENDBRANCH   5  16
BRANCH   3  18
HETATM   18  O1  UNL     1       1.478  -0.647  16.953  1.00  0.00    -0.392 OA
ATOM     19  H1  UNL     1       1.778  -1.124  16.188  1.00  0.00     0.210 HD
ENDBRANCH   3  18
BRANCH   4  20
HETATM   20  O2  UNL     1       2.817   2.540  16.130  1.00  0.00    -0.390 OA
ATOM     21  H2  UNL     1       3.686   2.871  16.324  1.00  0.00     0.210 HD
ENDBRANCH   4  20
TORSDOF 7
ENDMDL
MODEL 2
REMARK VINA RESULT: -5.155284437      3.660      4.541
REMARK  7 active torsions:
REMARK  status: ('A' for Active; 'I' for Inactive)
REMARK    1  A    between atoms: C3_3  and  O1_4 
REMARK    2  A    between atoms: C4_6  and  O2_7 
REMARK    3  A    between atoms: C5_9  and  O3_10 
REMARK    4  A    between atoms: C6_12  and  N1_13 
REMARK    5  A    between atoms: N1_13  and  O4_15 
REMARK    6  A    between atoms: O4_15  and  C8_16 
REMARK    7  A    between atoms: C9_17  and  C10_18 
ROOT
HETATM    1  C1  UNL     1       1.640  -1.324  12.817  1.00  0.00     0.015 C 
HETATM    2  C2  UNL     1       1.017   0.021  13.004  1.00  0.00     0.040 C 
HETATM    3  C3  UNL     1       1.644   0.836  14.124  1.00  0.00     0.155 C 
HETATM    4  C4  UNL     1       0.902   2.166  13.913  1.00  0.00     0.178 C 
HETATM    5  C5  UNL     1       0.891   2.294  12.390  1.00  0.00     0.174 C 
HETATM    6  C6  UNL     1       1.266   0.953  11.836  1.00  0.00     0.147 C 
ENDROOT
BRANCH   6   7
HETATM    7  N1  UNL     1       0.685   0.582  10.632  1.00  0.00    -0.276 N 
HETATM    8  C7  UNL     1      -0.104  -0.569  10.540  1.00  0.00     0.180 C 
BRANCH   7   9
HETATM    9  O4  UNL     1       0.863   1.313   9.531  1.00  0.00    -0.187 OA
BRANCH   9  10
HETATM   10  C8  UNL     1       1.498   0.721   8.447  1.00  0.00     0.090 C 
HETATM   11  C9  UNL     1       2.070   0.211   7.516  1.00  0.00    -0.029 C 
BRANCH  11  12
HETATM   12  C10 UNL     1       2.776  -0.398   6.428  1.00  0.00     0.148 C 
HETATM   13  N2  UNL     1       2.322  -1.391   5.744  1.00  0.00    -0.401 N 
ATOM     14  H22 UNL     1       1.406  -1.754   6.006  1.00  0.00     0.156 HD
ATOM     15  H21 UNL     1       2.824  -1.824   4.969  1.00  0.00     0.156 HD
ENDBRANCH  11  12
ENDBRANCH   9  10
ENDBRANCH   7   9
ENDBRANCH   6   7
BRANCH   5  16
HETATM   16  O3  UNL     1       1.793   3.301  12.060  1.00  0.00    -0.391 OA
ATOM     17  H3  UNL     1       2.062   3.150  11.161  1.00  0.00     0.210 HD
ENDBRANCH   5  16
BRANCH   3  18
HETATM   18  O1  UNL     1       2.983   1.036  13.866  1.00  0.00    -0.392 OA
ATOM     19  H1  UNL     1       3.158   1.964  13.761  1.00  0.00     0.210 HD
ENDBRANCH   3  18
BRANCH   4  20
HETATM   20  O2  UNL     1      -0.416   1.977  14.297  1.00  0.00    -0.390 OA
ATOM     21  H2  UNL     1      -0.713   2.778  14.710  1.00  0.00     0.210 HD
ENDBRANCH   4  20
TORSDOF 7
ENDMDL
MODEL 3
REMARK VINA RESULT: -4.882238962      2.397      3.223
REMARK  7 active torsions:
REMARK  status: ('A' for Active; 'I' for Inactive)
REMARK    1  A    between atoms: C3_3  and  O1_4 
REMARK    2  A    between atoms: C4_6  and  O2_7 
REMARK    3  A    between atoms: C5_9  and  O3_10 
REMARK    4  A    between atoms: C6_12  and  N1_13 
REMARK    5  A    between atoms: N1_13  and  O4_15 
REMARK    6  A    between atoms: O4_15  and  C8_16 
REMARK    7  A    between atoms: C9_17  and  C10_18 
ROOT
HETATM    1  C1  UNL     1      -1.030   0.394  15.887  1.00  0.00     0.015 C 
HETATM    2  C2  UNL     1       0.402   0.820  15.909  1.00  0.00     0.040 C 
HETATM    3  C3  UNL     1       1.174   0.311  17.116  1.00  0.00     0.155 C 
HETATM    4  C4  UNL     1       2.587   0.774  16.725  1.00  0.00     0.178 C 
HETATM    5  C5  UNL     1       2.630   0.456  15.230  1.00  0.00     0.174 C 
HETATM    6  C6  UNL     1       1.220   0.195  14.798  1.00  0.00     0.147 C 
ENDROOT
BRANCH   6   7
HETATM    7  N1  UNL     1       0.874   0.572  13.507  1.00  0.00    -0.276 N 
HETATM    8  C7  UNL     1       0.791   1.922  13.152  1.00  0.00     0.180 C 
BRANCH   7   9
HETATM    9  O4  UNL     1       0.614  -0.342  12.573  1.00  0.00    -0.187 OA
BRANCH   9  10
HETATM   10  C8  UNL     1       0.606   0.062  11.244  1.00  0.00     0.090 C 
HETATM   11  C9  UNL     1       0.577   0.423  10.094  1.00  0.00    -0.029 C 
BRANCH  11  12
HETATM   12  C10 UNL     1       0.518   0.867   8.733  1.00  0.00     0.148 C 
HETATM   13  N2  UNL     1       0.101   2.032   8.376  1.00  0.00    -0.401 N 
ATOM     14  H22 UNL     1      -0.203   2.663   9.117  1.00  0.00     0.156 HD
ATOM     15  H21 UNL     1       0.059   2.348   7.407  1.00  0.00     0.156 HD
ENDBRANCH  11  12
ENDBRANCH   9  10
ENDBRANCH   7   9
ENDBRANCH   6   7
BRANCH   5  16
HETATM   16  O3  UNL     1       3.470  -0.642  15.071  1.00  0.00    -0.391 OA
ATOM     17  H3  UNL     1       4.307  -0.311  14.767  1.00  0.00     0.210 HD
ENDBRANCH   5  16
BRANCH   3  18
HETATM   18  O1  UNL     1       1.156  -1.067  17.138  1.00  0.00    -0.392 OA
ATOM     19  H1  UNL     1       2.014  -1.399  17.376  1.00  0.00     0.210 HD
ENDBRANCH   3  18
BRANCH   4  20
HETATM   20  O2  UNL     1       2.620   2.155  16.829  1.00  0.00    -0.390 OA
ATOM     21  H2  UNL     1       3.501   2.404  17.082  1.00  0.00     0.210 HD
ENDBRANCH   4  20
TORSDOF 7
ENDMDL
MODEL 4
REMARK VINA RESULT: -4.800884747      2.525      4.236
REMARK  7 active torsions:
REMARK  status: ('A' for Active; 'I' for Inactive)
REMARK    1  A    between atoms: C3_3  and  O1_4 
REMARK    2  A    between atoms: C4_6  and  O2_7 
REMARK    3  A    between atoms: C5_9  and  O3_10 
REMARK    4  A    between atoms: C6_12  and  N1_13 
REMARK    5  A    between atoms: N1_13  and  O4_15 
REMARK    6  A    between atoms: O4_15  and  C8_16 
REMARK    7  A    between atoms: C9_17  and  C10_18 
ROOT
HETATM    1  C1  UNL     1       2.417   2.156  12.479  1.00  0.00     0.015 C 
HETATM    2  C2  UNL     1       1.847   1.708  13.786  1.00  0.00     0.040 C 
HETATM    3  C3  UNL     1       1.067   2.790  14.516  1.00  0.00     0.155 C 
HETATM    4  C4  UNL     1       0.503   1.953  15.677  1.00  0.00     0.178 C 
HETATM    5  C5  UNL     1       0.107   0.653  14.977  1.00  0.00     0.174 C 
HETATM    6  C6  UNL     1       0.757   0.667  13.627  1.00  0.00     0.147 C 
ENDROOT
BRANCH   6   7
HETATM    7  N1  UNL     1       1.159  -0.554  13.106  1.00  0.00    -0.276 N 
HETATM    8  C7  UNL     1       2.192  -1.284  13.703  1.00  0.00     0.180 C 
BRANCH   7   9
HETATM    9  O4  UNL     1       0.571  -1.065  12.024  1.00  0.00    -0.187 OA
BRANCH   9  10
HETATM   10  C8  UNL     1       0.577  -0.312  10.858  1.00  0.00     0.090 C 
HETATM   11  C9  UNL     1       0.583   0.323   9.832  1.00  0.00    -0.029 C 
BRANCH  11  12
HETATM   12  C10 UNL     1       0.585   1.051   8.598  1.00  0.00     0.148 C 
HETATM   13  N2  UNL     1       0.063   2.220   8.454  1.00  0.00    -0.401 N 
ATOM     14  H22 UNL     1      -0.374   2.637   9.275  1.00  0.00     0.156 HD
ATOM     15  H21 UNL     1       0.064   2.738   7.575  1.00  0.00     0.156 HD
ENDBRANCH  11  12
ENDBRANCH   9  10
ENDBRANCH   7   9
ENDBRANCH   6   7
BRANCH   5  16
HETATM   16  O3  UNL     1      -1.283   0.628  14.921  1.00  0.00    -0.391 OA
ATOM     17  H3  UNL     1      -1.566  -0.158  15.374  1.00  0.00     0.210 HD
ENDBRANCH   5  16
BRANCH   3  18
HETATM   18  O1  UNL     1       0.016   3.220  13.736  1.00  0.00    -0.392 OA
ATOM     19  H1  UNL     1      -0.797   3.156  14.223  1.00  0.00     0.210 HD
ENDBRANCH   3  18
BRANCH   4  20
HETATM   20  O2  UNL     1       1.558   1.635  16.517  1.00  0.00    -0.390 OA
ATOM     21  H2  UNL     1       1.471   2.165  17.301  1.00  0.00     0.210 HD
ENDBRANCH   4  20
TORSDOF 7
ENDMDL
MODEL 5
REMARK VINA RESULT: -4.783460746      1.715      2.843
REMARK  7 active torsions:
REMARK  status: ('A' for Active; 'I' for Inactive)
REMARK    1  A    between atoms: C3_3  and  O1_4 
REMARK    2  A    between atoms: C4_6  and  O2_7 
REMARK    3  A    between atoms: C5_9  and  O3_10 
REMARK    4  A    between atoms: C6_12  and  N1_13 
REMARK    5  A    between atoms: N1_13  and  O4_15 
REMARK    6  A    between atoms: O4_15  and  C8_16 
REMARK    7  A    between atoms: C9_17  and  C10_18 
ROOT
HETATM    1  C1  UNL     1       2.894   2.288  16.311  1.00  0.00     0.015 C 
HETATM    2  C2  UNL     1       2.290   1.090  16.969  1.00  0.00     0.040 C 
HETATM    3  C3  UNL     1       1.532   1.410  18.248  1.00  0.00     0.155 C 
HETATM    4  C4  UNL     1       0.924   0.027  18.533  1.00  0.00     0.178 C 
HETATM    5  C5  UNL     1       0.498  -0.435  17.140  1.00  0.00     0.174 C 
HETATM    6  C6  UNL     1       1.171   0.472  16.155  1.00  0.00     0.147 C 
ENDROOT
BRANCH   6   7
HETATM    7  N1  UNL     1       1.543  -0.081  14.938  1.00  0.00    -0.276 N 
HETATM    8  C7  UNL     1       0.750   0.092  13.799  1.00  0.00     0.180 C 
BRANCH   7   9
HETATM    9  O4  UNL     1       2.666  -0.790  14.821  1.00  0.00    -0.187 OA
BRANCH   9  10
HETATM   10  C8  UNL     1       2.637  -1.940  14.044  1.00  0.00     0.090 C 
HETATM   11  C9  UNL     1       2.621  -2.926  13.350  1.00  0.00    -0.029 C 
BRANCH  11  12
HETATM   12  C10 UNL     1       2.619  -4.084  12.505  1.00  0.00     0.148 C 
HETATM   13  N2  UNL     1       3.315  -5.143  12.737  1.00  0.00    -0.401 N 
ATOM     14  H22 UNL     1       3.896  -5.141  13.574  1.00  0.00     0.156 HD
ATOM     15  H21 UNL     1       3.313  -5.966  12.135  1.00  0.00     0.156 HD
ENDBRANCH  11  12
ENDBRANCH   9  10
ENDBRANCH   7   9
ENDBRANCH   6   7
BRANCH   5  16
HETATM   16  O3  UNL     1      -0.891  -0.368  17.095  1.00  0.00    -0.391 OA
ATOM     17  H3  UNL     1      -1.126  -0.023  16.241  1.00  0.00     0.210 HD
ENDBRANCH   5  16
BRANCH   3  18
HETATM   18  O1  UNL     1       0.507   2.292  17.979  1.00  0.00    -0.392 OA
ATOM     19  H1  UNL     1      -0.311   1.818  17.880  1.00  0.00     0.210 HD
ENDBRANCH   3  18
BRANCH   4  20
HETATM   20  O2  UNL     1       1.955  -0.812  18.923  1.00  0.00    -0.390 OA
ATOM     21  H2  UNL     1       2.703  -0.268  19.140  1.00  0.00     0.210 HD
ENDBRANCH   4  20
TORSDOF 7
ENDMDL
