MODEL 1
REMARK VINA RESULT: -7.659212898      0.000      0.000
REMARK  7 active torsions:
REMARK  status: ('A' for Active; 'I' for Inactive)
REMARK    1  A    between atoms: O1_2  and  C2_3 
REMARK    2  A    between atoms: C3_6  and  N2_7 
REMARK    3  A    between atoms: C5_13  and  N4_14 
REMARK    4  A    between atoms: C7_20  and  N7_21 
REMARK    5  A    between atoms: N8_24  and  C10_25 
REMARK    6  A    between atoms: C10_25  and  C11_26 
REMARK    7  A    between atoms: C11_26  and  O2_27 
ROOT
HETATM    1  N4  UNL     1      22.157  21.284  32.444  1.00  0.00    -0.277 N 
ATOM      2  H4  UNL     1      22.930  21.883  32.155  1.00  0.00     0.179 HD
HETATM    3  C6  UNL     1      20.827  21.686  32.257  1.00  0.00     0.183 C 
HETATM    4  N5  UNL     1      19.709  22.009  32.094  1.00  0.00    -0.172 NA
ENDROOT
BRANCH   1   5
HETATM    5  C5  UNL     1      22.375  20.145  32.988  1.00  0.00     0.160 A 
HETATM    6  C4  UNL     1      23.660  19.798  33.336  1.00  0.00     0.126 A 
HETATM    7  N3  UNL     1      24.700  20.610  33.125  1.00  0.00    -0.186 N 
HETATM    8  C14 UNL     1      23.922  18.556  33.933  1.00  0.00     0.131 A 
HETATM    9  C3  UNL     1      25.951  20.261  33.467  1.00  0.00     0.678 A 
ATOM     10  H3  UNL     1      24.539  21.520  32.693  1.00  0.00     0.184 HD
HETATM   11  N1  UNL     1      26.193  19.052  34.047  1.00  0.00    -0.168 N 
HETATM   12  C2  UNL     1      25.203  18.177  34.293  1.00  0.00     0.187 A 
ATOM     13  H1  UNL     1      27.150  18.804  34.300  1.00  0.00     0.186 HD
HETATM   14  N9  UNL     1      22.902  17.718  34.155  1.00  0.00    -0.185 N 
HETATM   15  C7  UNL     1      21.648  18.049  33.819  1.00  0.00     0.682 A 
ATOM     16  H9  UNL     1      23.083  16.813  34.588  1.00  0.00     0.184 HD
HETATM   17  N6  UNL     1      21.419  19.243  33.249  1.00  0.00    -0.173 N 
ATOM     18  H6  UNL     1      20.458  19.478  32.999  1.00  0.00     0.186 HD
BRANCH   9  19
HETATM   19  N2  UNL     1      26.952  21.055  33.260  1.00  0.00    -0.234 N 
ATOM     20  H22 UNL     1      27.859  20.698  32.960  1.00  0.00     0.174 HD
ATOM     21  H21 UNL     1      26.815  22.055  33.402  1.00  0.00     0.174 HD
ENDBRANCH   9  19
BRANCH  12  22
HETATM   22  O1  UNL     1      25.450  16.938  34.886  1.00  0.00    -0.339 OA
HETATM   23  C1  UNL     1      26.248  16.011  34.132  1.00  0.00     0.211 C 
ENDBRANCH  12  22
BRANCH  15  24
HETATM   24  N7  UNL     1      20.554  17.131  34.060  1.00  0.00    -0.214 N 
HETATM   25  C8  UNL     1      20.626  16.091  35.062  1.00  0.00     0.171 C 
HETATM   26  C9  UNL     1      19.262  15.625  35.452  1.00  0.00     0.293 C 
HETATM   27  N8  UNL     1      18.398  15.298  34.361  1.00  0.00     0.093 N 
HETATM   28  C12 UNL     1      18.824  15.805  33.087  1.00  0.00     0.293 C 
HETATM   29  C13 UNL     1      19.333  17.228  33.286  1.00  0.00     0.171 C 
BRANCH  27  30
HETATM   30  C10 UNL     1      17.022  15.704  34.606  1.00  0.00     0.298 C 
BRANCH  30  31
HETATM   31  C11 UNL     1      16.919  16.489  35.911  1.00  0.00     0.194 C 
BRANCH  31  32
HETATM   32  O2  UNL     1      15.778  16.082  36.598  1.00  0.00    -0.399 OA
ATOM     33  H2  UNL     1      15.992  15.970  37.517  1.00  0.00     0.209 HD
ENDBRANCH  31  32
ENDBRANCH  30  31
ENDBRANCH  27  30
ENDBRANCH  15  24
ENDBRANCH   1   5
TORSDOF 7
ENDMDL
MODEL 2
REMARK VINA RESULT: -7.535329525      4.617      6.608
REMARK  7 active torsions:
REMARK  status: ('A' for Active; 'I' for Inactive)
REMARK    1  A    between atoms: O1_2  and  C2_3 
REMARK    2  A    between atoms: C3_6  and  N2_7 
REMARK    3  A    between atoms: C5_13  and  N4_14 
REMARK    4  A    between atoms: C7_20  and  N7_21 
REMARK    5  A    between atoms: N8_24  and  C10_25 
REMARK    6  A    between atoms: C10_25  and  C11_26 
REMARK    7  A    between atoms: C11_26  and  O2_27 
ROOT
HETATM    1  N4  UNL     1      18.192  16.810  35.344  1.00  0.00    -0.277 N 
ATOM      2  H4  UNL     1      19.088  16.380  35.576  1.00  0.00     0.179 HD
HETATM    3  C6  UNL     1      17.011  16.394  35.972  1.00  0.00     0.183 C 
HETATM    4  N5  UNL     1      16.016  16.061  36.501  1.00  0.00    -0.172 NA
ENDROOT
BRANCH   1   5
HETATM    5  C5  UNL     1      18.118  17.744  34.470  1.00  0.00     0.160 A 
HETATM    6  C4  UNL     1      19.273  18.343  34.022  1.00  0.00     0.126 A 
HETATM    7  N3  UNL     1      20.480  17.986  34.469  1.00  0.00    -0.186 N 
HETATM    8  C14 UNL     1      19.215  19.368  33.066  1.00  0.00     0.131 A 
HETATM    9  C3  UNL     1      21.602  18.579  34.027  1.00  0.00     0.678 A 
ATOM     10  H3  UNL     1      20.553  17.244  35.165  1.00  0.00     0.184 HD
HETATM   11  N1  UNL     1      21.534  19.574  33.097  1.00  0.00    -0.168 N 
HETATM   12  C2  UNL     1      20.358  19.991  32.597  1.00  0.00     0.187 A 
ATOM     13  H1  UNL     1      22.396  20.012  32.773  1.00  0.00     0.186 HD
HETATM   14  N9  UNL     1      18.020  19.750  32.600  1.00  0.00    -0.185 N 
HETATM   15  C7  UNL     1      16.891  19.171  33.031  1.00  0.00     0.682 A 
ATOM     16  H9  UNL     1      17.968  20.495  31.906  1.00  0.00     0.184 HD
HETATM   17  N6  UNL     1      16.968  18.192  33.947  1.00  0.00    -0.173 N 
ATOM     18  H6  UNL     1      16.099  17.763  34.264  1.00  0.00     0.186 HD
BRANCH   9  19
HETATM   19  N2  UNL     1      22.768  18.227  34.465  1.00  0.00    -0.234 N 
ATOM     20  H22 UNL     1      23.221  17.374  34.140  1.00  0.00     0.174 HD
ATOM     21  H21 UNL     1      23.230  18.826  35.149  1.00  0.00     0.174 HD
ENDBRANCH   9  19
BRANCH  12  22
HETATM   22  O1  UNL     1      20.287  21.010  31.646  1.00  0.00    -0.339 OA
HETATM   23  C1  UNL     1      20.923  22.252  31.985  1.00  0.00     0.211 C 
ENDBRANCH  12  22
BRANCH  15  24
HETATM   24  N7  UNL     1      15.604  19.599  32.524  1.00  0.00    -0.214 N 
HETATM   25  C8  UNL     1      15.027  19.043  31.320  1.00  0.00     0.171 C 
HETATM   26  C9  UNL     1      13.550  19.261  31.281  1.00  0.00     0.293 C 
HETATM   27  N8  UNL     1      13.128  20.601  31.542  1.00  0.00     0.093 N 
HETATM   28  C12 UNL     1      14.125  21.435  32.153  1.00  0.00     0.293 C 
HETATM   29  C13 UNL     1      14.843  20.616  33.220  1.00  0.00     0.171 C 
BRANCH  27  30
HETATM   30  C10 UNL     1      11.907  20.652  32.333  1.00  0.00     0.298 C 
BRANCH  30  31
HETATM   31  C11 UNL     1      10.700  20.277  31.479  1.00  0.00     0.194 C 
BRANCH  31  32
HETATM   32  O2  UNL     1      10.074  21.442  31.039  1.00  0.00    -0.399 OA
ATOM     33  H2  UNL     1       9.199  21.482  31.407  1.00  0.00     0.209 HD
ENDBRANCH  31  32
ENDBRANCH  30  31
ENDBRANCH  27  30
ENDBRANCH  15  24
ENDBRANCH   1   5
TORSDOF 7
ENDMDL
MODEL 3
REMARK VINA RESULT: -7.530700417      2.632      7.811
REMARK  7 active torsions:
REMARK  status: ('A' for Active; 'I' for Inactive)
REMARK    1  A    between atoms: O1_2  and  C2_3 
REMARK    2  A    between atoms: C3_6  and  N2_7 
REMARK    3  A    between atoms: C5_13  and  N4_14 
REMARK    4  A    between atoms: C7_20  and  N7_21 
REMARK    5  A    between atoms: N8_24  and  C10_25 
REMARK    6  A    between atoms: C10_25  and  C11_26 
REMARK    7  A    between atoms: C11_26  and  O2_27 
ROOT
HETATM    1  N4  UNL     1      19.778  15.215  36.249  1.00  0.00    -0.277 N 
ATOM      2  H4  UNL     1      19.098  15.136  37.004  1.00  0.00     0.179 HD
HETATM    3  C6  UNL     1      20.538  14.109  35.846  1.00  0.00     0.183 C 
HETATM    4  N5  UNL     1      21.172  13.184  35.493  1.00  0.00    -0.172 NA
ENDROOT
BRANCH   1   5
HETATM    5  C5  UNL     1      19.961  16.329  35.643  1.00  0.00     0.160 A 
HETATM    6  C4  UNL     1      18.924  17.230  35.558  1.00  0.00     0.126 A 
HETATM    7  N3  UNL     1      17.721  16.983  36.085  1.00  0.00    -0.186 N 
HETATM    8  C14 UNL     1      19.102  18.456  34.899  1.00  0.00     0.131 A 
HETATM    9  C3  UNL     1      16.714  17.868  35.994  1.00  0.00     0.678 A 
ATOM     10  H3  UNL     1      17.563  16.100  36.569  1.00  0.00     0.184 HD
HETATM   11  N1  UNL     1      16.899  19.056  35.352  1.00  0.00    -0.168 N 
HETATM   12  C2  UNL     1      18.079  19.381  34.795  1.00  0.00     0.187 A 
ATOM     13  H1  UNL     1      16.123  19.716  35.293  1.00  0.00     0.186 HD
HETATM   14  N9  UNL     1      20.295  18.731  34.358  1.00  0.00    -0.185 N 
HETATM   15  C7  UNL     1      21.310  17.860  34.437  1.00  0.00     0.682 A 
ATOM     16  H9  UNL     1      20.433  19.619  33.876  1.00  0.00     0.184 HD
HETATM   17  N6  UNL     1      21.118  16.691  35.072  1.00  0.00    -0.173 N 
ATOM     18  H6  UNL     1      21.902  16.040  35.123  1.00  0.00     0.186 HD
BRANCH   9  19
HETATM   19  N2  UNL     1      15.552  17.622  36.508  1.00  0.00    -0.234 N 
ATOM     20  H22 UNL     1      15.459  17.235  37.447  1.00  0.00     0.174 HD
ATOM     21  H21 UNL     1      14.723  17.825  35.951  1.00  0.00     0.174 HD
ENDBRANCH   9  19
BRANCH  12  22
HETATM   22  O1  UNL     1      18.269  20.597  34.137  1.00  0.00    -0.339 OA
HETATM   23  C1  UNL     1      17.619  20.748  32.864  1.00  0.00     0.211 C 
ENDBRANCH  12  22
BRANCH  15  24
HETATM   24  N7  UNL     1      22.593  18.167  33.842  1.00  0.00    -0.214 N 
HETATM   25  C8  UNL     1      23.148  17.386  32.759  1.00  0.00     0.171 C 
HETATM   26  C9  UNL     1      24.186  18.159  32.015  1.00  0.00     0.293 C 
HETATM   27  N8  UNL     1      25.182  18.778  32.832  1.00  0.00     0.093 N 
HETATM   28  C12 UNL     1      24.840  18.876  34.222  1.00  0.00     0.293 C 
HETATM   29  C13 UNL     1      23.375  19.287  34.326  1.00  0.00     0.171 C 
BRANCH  27  30
HETATM   30  C10 UNL     1      25.566  20.092  32.336  1.00  0.00     0.298 C 
BRANCH  30  31
HETATM   31  C11 UNL     1      26.952  20.473  32.847  1.00  0.00     0.194 C 
BRANCH  31  32
HETATM   32  O2  UNL     1      26.873  21.697  33.508  1.00  0.00    -0.399 OA
ATOM     33  H2  UNL     1      27.713  22.137  33.449  1.00  0.00     0.209 HD
ENDBRANCH  31  32
ENDBRANCH  30  31
ENDBRANCH  27  30
ENDBRANCH  15  24
ENDBRANCH   1   5
TORSDOF 7
ENDMDL
MODEL 4
REMARK VINA RESULT: -7.356739636      3.196      5.123
REMARK  7 active torsions:
REMARK  status: ('A' for Active; 'I' for Inactive)
REMARK    1  A    between atoms: O1_2  and  C2_3 
REMARK    2  A    between atoms: C3_6  and  N2_7 
REMARK    3  A    between atoms: C5_13  and  N4_14 
REMARK    4  A    between atoms: C7_20  and  N7_21 
REMARK    5  A    between atoms: N8_24  and  C10_25 
REMARK    6  A    between atoms: C10_25  and  C11_26 
REMARK    7  A    between atoms: C11_26  and  O2_27 
ROOT
HETATM    1  N4  UNL     1      20.603  14.209  34.032  1.00  0.00    -0.277 N 
ATOM      2  H4  UNL     1      20.969  13.521  33.374  1.00  0.00     0.179 HD
HETATM    3  C6  UNL     1      20.048  13.811  35.255  1.00  0.00     0.183 C 
HETATM    4  N5  UNL     1      19.591  13.488  36.289  1.00  0.00    -0.172 NA
ENDROOT
BRANCH   1   5
HETATM    5  C5  UNL     1      20.638  15.461  33.761  1.00  0.00     0.160 A 
HETATM    6  C4  UNL     1      21.840  16.049  33.440  1.00  0.00     0.126 A 
HETATM    7  N3  UNL     1      22.983  15.359  33.401  1.00  0.00    -0.186 N 
HETATM    8  C14 UNL     1      21.902  17.418  33.139  1.00  0.00     0.131 A 
HETATM    9  C3  UNL     1      24.152  15.943  33.089  1.00  0.00     0.678 A 
ATOM     10  H3  UNL     1      22.968  14.362  33.615  1.00  0.00     0.184 HD
HETATM   11  N1  UNL     1      24.200  17.274  32.798  1.00  0.00    -0.168 N 
HETATM   12  C2  UNL     1      23.094  18.039  32.814  1.00  0.00     0.187 A 
ATOM     13  H1  UNL     1      25.096  17.700  32.562  1.00  0.00     0.186 HD
HETATM   14  N9  UNL     1      20.774  18.138  33.172  1.00  0.00    -0.185 N 
HETATM   15  C7  UNL     1      19.600  17.573  33.484  1.00  0.00     0.682 A 
ATOM     16  H9  UNL     1      20.809  19.134  32.956  1.00  0.00     0.184 HD
HETATM   17  N6  UNL     1      19.562  16.260  33.768  1.00  0.00    -0.173 N 
ATOM     18  H6  UNL     1      18.660  15.847  34.004  1.00  0.00     0.186 HD
BRANCH   9  19
HETATM   19  N2  UNL     1      25.255  15.266  33.053  1.00  0.00    -0.234 N 
ATOM     20  H22 UNL     1      25.963  15.443  32.341  1.00  0.00     0.174 HD
ATOM     21  H21 UNL     1      25.404  14.545  33.759  1.00  0.00     0.174 HD
ENDBRANCH   9  19
BRANCH  12  22
HETATM   22  O1  UNL     1      23.142  19.402  32.518  1.00  0.00    -0.339 OA
HETATM   23  C1  UNL     1      24.442  20.014  32.512  1.00  0.00     0.211 C 
ENDBRANCH  12  22
BRANCH  15  24
HETATM   24  N7  UNL     1      18.387  18.364  33.521  1.00  0.00    -0.214 N 
HETATM   25  C8  UNL     1      18.410  19.802  33.678  1.00  0.00     0.171 C 
HETATM   26  C9  UNL     1      17.134  20.414  33.202  1.00  0.00     0.293 C 
HETATM   27  N8  UNL     1      15.944  19.809  33.714  1.00  0.00     0.093 N 
HETATM   28  C12 UNL     1      16.134  18.510  34.293  1.00  0.00     0.293 C 
HETATM   29  C13 UNL     1      17.093  17.726  33.403  1.00  0.00     0.171 C 
BRANCH  27  30
HETATM   30  C10 UNL     1      14.886  19.742  32.716  1.00  0.00     0.298 C 
BRANCH  30  31
HETATM   31  C11 UNL     1      14.628  21.122  32.116  1.00  0.00     0.194 C 
BRANCH  31  32
HETATM   32  O2  UNL     1      13.633  21.760  32.852  1.00  0.00    -0.399 OA
ATOM     33  H2  UNL     1      13.168  21.114  33.372  1.00  0.00     0.209 HD
ENDBRANCH  31  32
ENDBRANCH  30  31
ENDBRANCH  27  30
ENDBRANCH  15  24
ENDBRANCH   1   5
TORSDOF 7
ENDMDL
MODEL 5
REMARK VINA RESULT: -7.197420647      2.758      7.796
REMARK  7 active torsions:
REMARK  status: ('A' for Active; 'I' for Inactive)
REMARK    1  A    between atoms: O1_2  and  C2_3 
REMARK    2  A    between atoms: C3_6  and  N2_7 
REMARK    3  A    between atoms: C5_13  and  N4_14 
REMARK    4  A    between atoms: C7_20  and  N7_21 
REMARK    5  A    between atoms: N8_24  and  C10_25 
REMARK    6  A    between atoms: C10_25  and  C11_26 
REMARK    7  A    between atoms: C11_26  and  O2_27 
ROOT
HETATM    1  N4  UNL     1      19.818  15.483  36.690  1.00  0.00    -0.277 N 
ATOM      2  H4  UNL     1      19.324  15.517  37.583  1.00  0.00     0.179 HD
HETATM    3  C6  UNL     1      20.355  14.281  36.211  1.00  0.00     0.183 C 
HETATM    4  N5  UNL     1      20.798  13.276  35.793  1.00  0.00    -0.172 NA
ENDROOT
BRANCH   1   5
HETATM    5  C5  UNL     1      19.963  16.539  35.979  1.00  0.00     0.160 A 
HETATM    6  C4  UNL     1      18.890  17.381  35.794  1.00  0.00     0.126 A 
HETATM    7  N3  UNL     1      17.691  17.136  36.329  1.00  0.00    -0.186 N 
HETATM    8  C14 UNL     1      19.027  18.543  35.019  1.00  0.00     0.131 A 
HETATM    9  C3  UNL     1      16.650  17.964  36.140  1.00  0.00     0.678 A 
ATOM     10  H3  UNL     1      17.563  16.299  36.897  1.00  0.00     0.184 HD
HETATM   11  N1  UNL     1      16.794  19.090  35.386  1.00  0.00    -0.168 N 
HETATM   12  C2  UNL     1      17.968  19.408  34.812  1.00  0.00     0.187 A 
ATOM     13  H1  UNL     1      15.993  19.706  35.253  1.00  0.00     0.186 HD
HETATM   14  N9  UNL     1      20.215  18.814  34.466  1.00  0.00    -0.185 N 
HETATM   15  C7  UNL     1      21.264  18.000  34.643  1.00  0.00     0.682 A 
ATOM     16  H9  UNL     1      20.324  19.656  33.900  1.00  0.00     0.184 HD
HETATM   17  N6  UNL     1      21.112  16.892  35.388  1.00  0.00    -0.173 N 
ATOM     18  H6  UNL     1      21.922  16.284  35.511  1.00  0.00     0.186 HD
BRANCH   9  19
HETATM   19  N2  UNL     1      15.491  17.719  36.664  1.00  0.00    -0.234 N 
ATOM     20  H22 UNL     1      15.201  16.768  36.888  1.00  0.00     0.174 HD
ATOM     21  H21 UNL     1      14.869  18.505  36.850  1.00  0.00     0.174 HD
ENDBRANCH   9  19
BRANCH  12  22
HETATM   22  O1  UNL     1      18.117  20.560  34.039  1.00  0.00    -0.339 OA
HETATM   23  C1  UNL     1      17.268  20.675  32.885  1.00  0.00     0.211 C 
ENDBRANCH  12  22
BRANCH  15  24
HETATM   24  N7  UNL     1      22.543  18.302  34.034  1.00  0.00    -0.214 N 
HETATM   25  C8  UNL     1      23.338  19.441  34.435  1.00  0.00     0.171 C 
HETATM   26  C9  UNL     1      24.768  19.265  34.043  1.00  0.00     0.293 C 
HETATM   27  N8  UNL     1      24.980  18.880  32.683  1.00  0.00     0.093 N 
HETATM   28  C12 UNL     1      23.815  18.371  32.016  1.00  0.00     0.293 C 
HETATM   29  C13 UNL     1      23.072  17.457  32.984  1.00  0.00     0.171 C 
BRANCH  27  30
HETATM   30  C10 UNL     1      26.071  17.926  32.543  1.00  0.00     0.298 C 
BRANCH  30  31
HETATM   31  C11 UNL     1      26.951  18.291  31.351  1.00  0.00     0.194 C 
BRANCH  31  32
HETATM   32  O2  UNL     1      26.775  17.341  30.347  1.00  0.00    -0.399 OA
ATOM     33  H2  UNL     1      26.491  16.523  30.740  1.00  0.00     0.209 HD
ENDBRANCH  31  32
ENDBRANCH  30  31
ENDBRANCH  27  30
ENDBRANCH  15  24
ENDBRANCH   1   5
TORSDOF 7
ENDMDL
