MODEL 1
REMARK VINA RESULT: -9.137203697      0.000      0.000
REMARK  5 active torsions:
REMARK  status: ('A' for Active; 'I' for Inactive)
REMARK    1  A    between atoms: N1_1  and  C1_4 
REMARK    2  A    between atoms: C3_12  and  C4_13 
REMARK    3  A    between atoms: N5_14  and  C5_16 
REMARK    4  A    between atoms: C5_16  and  C6_17 
REMARK    5  A    between atoms: C6_17  and  N6_18 
ROOT
HETATM    1  N6  UNL     1      18.107  18.650  33.469  1.00  0.00    -0.233 NA
HETATM    2  C7  UNL     1      18.432  19.512  34.547  1.00  0.00     0.111 C 
HETATM    3  C8  UNL     1      19.916  19.573  34.848  1.00  0.00     0.043 C 
HETATM    4  C9  UNL     1      20.686  20.413  33.891  1.00  0.00     0.233 C 
HETATM    5  N7  UNL     1      21.354  19.695  32.846  1.00  0.00    -0.073 N 
ATOM      6  H71 UNL     1      21.705  20.342  32.141  1.00  0.00     0.277 HD
ATOM      7  H72 UNL     1      20.679  19.175  32.287  1.00  0.00     0.277 HD
HETATM    8  C10 UNL     1      22.402  18.830  33.296  1.00  0.00     0.258 C 
HETATM    9  C11 UNL     1      22.962  18.083  32.108  1.00  0.00     0.195 C 
HETATM   10  O1  UNL     1      21.994  17.446  31.361  1.00  0.00    -0.388 OA
HETATM   11  C12 UNL     1      21.892  16.118  31.771  1.00  0.00     0.195 C 
HETATM   12  C13 UNL     1      20.763  15.377  31.148  1.00  0.00     0.258 C 
HETATM   13  N8  UNL     1      19.533  16.086  31.060  1.00  0.00    -0.072 N 
ATOM     14  H81 UNL     1      19.113  15.967  30.139  1.00  0.00     0.277 HD
ATOM     15  H82 UNL     1      19.698  17.093  31.043  1.00  0.00     0.277 HD
HETATM   16  C14 UNL     1      18.581  15.739  32.108  1.00  0.00     0.249 C 
HETATM   17  C15 UNL     1      18.899  16.440  33.399  1.00  0.00     0.156 C 
HETATM   18  N9  UNL     1      17.868  17.316  33.861  1.00  0.00    -0.163 NA
ENDROOT
BRANCH   1  19
HETATM   19  C6  UNL     1      17.068  19.171  32.643  1.00  0.00     0.129 C 
BRANCH  19  20
HETATM   20  C5  UNL     1      16.325  20.346  33.161  1.00  0.00     0.135 C 
BRANCH  20  21
HETATM   21  N5  UNL     1      14.891  20.220  33.088  1.00  0.00    -0.396 N 
HETATM   22  C4  UNL     1      14.197  20.626  32.107  1.00  0.00     0.116 C 
ATOM     23  H5  UNL     1      14.406  19.778  33.869  1.00  0.00     0.159 HD
BRANCH  22  24
HETATM   24  C3  UNL     1      12.757  20.529  31.974  1.00  0.00     0.093 A 
HETATM   25  C1  UNL     1      12.125  19.728  31.058  1.00  0.00     0.142 A 
HETATM   26  N2  UNL     1      10.742  19.738  31.031  1.00  0.00    -0.283 N 
HETATM   27  N3  UNL     1      10.067  20.479  31.845  1.00  0.00    -0.295 N 
ATOM     28  H2  UNL     1      10.248  19.151  30.359  1.00  0.00     0.188 HD
HETATM   29  C2  UNL     1      10.686  21.257  32.735  1.00  0.00     0.197 A 
ATOM     30  H3  UNL     1       9.048  20.471  31.807  1.00  0.00     0.187 HD
HETATM   31  N4  UNL     1      12.000  21.299  32.819  1.00  0.00    -0.347 N 
ATOM     32  H4  UNL     1      12.451  21.901  33.508  1.00  0.00     0.167 HD
BRANCH  25  33
HETATM   33  N1  UNL     1      12.718  18.977  30.240  1.00  0.00    -0.383 N 
ATOM     34  H12 UNL     1      12.598  17.965  30.194  1.00  0.00     0.157 HD
ATOM     35  H11 UNL     1      13.357  19.413  29.576  1.00  0.00     0.157 HD
ENDBRANCH  25  33
ENDBRANCH  22  24
ENDBRANCH  20  21
ENDBRANCH  19  20
ENDBRANCH   1  19
TORSDOF 5
ENDMDL
MODEL 2
REMARK VINA RESULT: -9.078158993      1.452      2.864
REMARK  5 active torsions:
REMARK  status: ('A' for Active; 'I' for Inactive)
REMARK    1  A    between atoms: N1_1  and  C1_4 
REMARK    2  A    between atoms: C3_12  and  C4_13 
REMARK    3  A    between atoms: N5_14  and  C5_16 
REMARK    4  A    between atoms: C5_16  and  C6_17 
REMARK    5  A    between atoms: C6_17  and  N6_18 
ROOT
HETATM    1  N6  UNL     1      17.990  18.753  32.935  1.00  0.00    -0.233 NA
HETATM    2  C7  UNL     1      17.431  17.467  32.726  1.00  0.00     0.111 C 
HETATM    3  C8  UNL     1      18.464  16.360  32.658  1.00  0.00     0.043 C 
HETATM    4  C9  UNL     1      18.996  15.956  33.988  1.00  0.00     0.233 C 
HETATM    5  N7  UNL     1      20.255  16.538  34.346  1.00  0.00    -0.073 N 
ATOM      6  H71 UNL     1      20.463  16.357  35.328  1.00  0.00     0.277 HD
ATOM      7  H72 UNL     1      20.183  17.555  34.366  1.00  0.00     0.277 HD
HETATM    8  C10 UNL     1      21.353  16.133  33.521  1.00  0.00     0.258 C 
HETATM    9  C11 UNL     1      22.593  16.876  33.958  1.00  0.00     0.195 C 
HETATM   10  O1  UNL     1      22.414  18.242  34.018  1.00  0.00    -0.388 OA
HETATM   11  C12 UNL     1      22.849  18.819  32.826  1.00  0.00     0.195 C 
HETATM   12  C13 UNL     1      22.551  20.272  32.712  1.00  0.00     0.258 C 
HETATM   13  N8  UNL     1      21.258  20.672  33.150  1.00  0.00    -0.072 N 
ATOM     14  H81 UNL     1      21.317  21.512  33.726  1.00  0.00     0.277 HD
ATOM     15  H82 UNL     1      20.893  20.017  33.841  1.00  0.00     0.277 HD
HETATM   16  C14 UNL     1      20.304  20.860  32.064  1.00  0.00     0.249 C 
HETATM   17  C15 UNL     1      19.743  19.549  31.588  1.00  0.00     0.156 C 
HETATM   18  N9  UNL     1      18.327  19.426  31.742  1.00  0.00    -0.163 NA
ENDROOT
BRANCH   1  19
HETATM   19  C6  UNL     1      17.207  19.557  33.814  1.00  0.00     0.129 C 
BRANCH  19  20
HETATM   20  C5  UNL     1      16.389  20.627  33.192  1.00  0.00     0.135 C 
BRANCH  20  21
HETATM   21  N5  UNL     1      14.998  20.287  33.024  1.00  0.00    -0.396 N 
HETATM   22  C4  UNL     1      14.203  20.924  32.268  1.00  0.00     0.116 C 
ATOM     23  H5  UNL     1      14.632  19.487  33.541  1.00  0.00     0.159 HD
BRANCH  22  24
HETATM   24  C3  UNL     1      12.799  20.634  32.057  1.00  0.00     0.093 A 
HETATM   25  C1  UNL     1      12.337  19.691  31.174  1.00  0.00     0.142 A 
HETATM   26  N2  UNL     1      10.969  19.522  31.064  1.00  0.00    -0.283 N 
HETATM   27  N3  UNL     1      10.152  20.229  31.770  1.00  0.00    -0.295 N 
ATOM     28  H2  UNL     1      10.599  18.827  30.414  1.00  0.00     0.188 HD
HETATM   29  C2  UNL     1      10.606  21.144  32.628  1.00  0.00     0.197 A 
ATOM     30  H3  UNL     1       9.147  20.087  31.671  1.00  0.00     0.187 HD
HETATM   31  N4  UNL     1      11.895  21.361  32.787  1.00  0.00    -0.347 N 
ATOM     32  H4  UNL     1      12.219  22.066  33.450  1.00  0.00     0.167 HD
BRANCH  25  33
HETATM   33  N1  UNL     1      13.073  18.963  30.459  1.00  0.00    -0.383 N 
ATOM     34  H12 UNL     1      13.281  17.984  30.654  1.00  0.00     0.157 HD
ATOM     35  H11 UNL     1      13.485  19.383  29.626  1.00  0.00     0.157 HD
ENDBRANCH  25  33
ENDBRANCH  22  24
ENDBRANCH  20  21
ENDBRANCH  19  20
ENDBRANCH   1  19
TORSDOF 5
ENDMDL
MODEL 3
REMARK VINA RESULT: -9.007108950      3.804      7.265
REMARK  5 active torsions:
REMARK  status: ('A' for Active; 'I' for Inactive)
REMARK    1  A    between atoms: N1_1  and  C1_4 
REMARK    2  A    between atoms: C3_12  and  C4_13 
REMARK    3  A    between atoms: N5_14  and  C5_16 
REMARK    4  A    between atoms: C5_16  and  C6_17 
REMARK    5  A    between atoms: C6_17  and  N6_18 
ROOT
HETATM    1  N6  UNL     1      18.872  15.825  35.483  1.00  0.00    -0.233 NA
HETATM    2  C7  UNL     1      19.408  14.684  34.833  1.00  0.00     0.111 C 
HETATM    3  C8  UNL     1      19.507  14.834  33.328  1.00  0.00     0.043 C 
HETATM    4  C9  UNL     1      20.652  15.674  32.885  1.00  0.00     0.233 C 
HETATM    5  N7  UNL     1      20.330  17.036  32.579  1.00  0.00    -0.073 N 
ATOM      6  H71 UNL     1      21.182  17.583  32.458  1.00  0.00     0.277 HD
ATOM      7  H72 UNL     1      19.938  17.500  33.398  1.00  0.00     0.277 HD
HETATM    8  C10 UNL     1      19.465  17.203  31.450  1.00  0.00     0.258 C 
HETATM    9  C11 UNL     1      19.148  18.671  31.291  1.00  0.00     0.195 C 
HETATM   10  O1  UNL     1      18.674  19.253  32.448  1.00  0.00    -0.388 OA
HETATM   11  C12 UNL     1      17.280  19.254  32.428  1.00  0.00     0.195 C 
HETATM   12  C13 UNL     1      16.657  19.708  33.701  1.00  0.00     0.258 C 
HETATM   13  N8  UNL     1      17.252  19.207  34.892  1.00  0.00    -0.072 N 
ATOM     14  H81 UNL     1      17.370  19.953  35.577  1.00  0.00     0.277 HD
ATOM     15  H82 UNL     1      18.231  18.966  34.732  1.00  0.00     0.277 HD
HETATM   16  C14 UNL     1      16.535  18.081  35.476  1.00  0.00     0.249 C 
HETATM   17  C15 UNL     1      16.854  16.793  34.768  1.00  0.00     0.156 C 
HETATM   18  N9  UNL     1      17.466  15.803  35.599  1.00  0.00    -0.163 NA
ENDROOT
BRANCH   1  19
HETATM   19  C6  UNL     1      19.518  16.106  36.722  1.00  0.00     0.129 C 
BRANCH  19  20
HETATM   20  C5  UNL     1      20.015  17.490  36.919  1.00  0.00     0.135 C 
BRANCH  20  21
HETATM   21  N5  UNL     1      20.428  18.150  35.704  1.00  0.00    -0.396 N 
HETATM   22  C4  UNL     1      21.327  19.044  35.658  1.00  0.00     0.116 C 
ATOM     23  H5  UNL     1      19.971  17.881  34.832  1.00  0.00     0.159 HD
BRANCH  22  24
HETATM   24  C3  UNL     1      21.784  19.742  34.474  1.00  0.00     0.093 A 
HETATM   25  C1  UNL     1      23.039  19.602  33.940  1.00  0.00     0.142 A 
HETATM   26  N2  UNL     1      23.349  20.337  32.810  1.00  0.00    -0.283 N 
HETATM   27  N3  UNL     1      22.483  21.130  32.274  1.00  0.00    -0.295 N 
ATOM     28  H2  UNL     1      24.277  20.251  32.393  1.00  0.00     0.188 HD
HETATM   29  C2  UNL     1      21.262  21.262  32.796  1.00  0.00     0.197 A 
ATOM     30  H3  UNL     1      22.734  21.662  31.441  1.00  0.00     0.187 HD
HETATM   31  N4  UNL     1      20.896  20.595  33.871  1.00  0.00    -0.347 N 
ATOM     32  H4  UNL     1      19.957  20.712  34.253  1.00  0.00     0.167 HD
BRANCH  25  33
HETATM   33  N1  UNL     1      23.931  18.844  34.404  1.00  0.00    -0.383 N 
ATOM     34  H12 UNL     1      24.698  18.452  33.858  1.00  0.00     0.157 HD
ATOM     35  H11 UNL     1      23.883  18.613  35.396  1.00  0.00     0.157 HD
ENDBRANCH  25  33
ENDBRANCH  22  24
ENDBRANCH  20  21
ENDBRANCH  19  20
ENDBRANCH   1  19
TORSDOF 5
ENDMDL
MODEL 4
REMARK VINA RESULT: -9.000465439      1.724      3.092
REMARK  5 active torsions:
REMARK  status: ('A' for Active; 'I' for Inactive)
REMARK    1  A    between atoms: N1_1  and  C1_4 
REMARK    2  A    between atoms: C3_12  and  C4_13 
REMARK    3  A    between atoms: N5_14  and  C5_16 
REMARK    4  A    between atoms: C5_16  and  C6_17 
REMARK    5  A    between atoms: C6_17  and  N6_18 
ROOT
HETATM    1  N6  UNL     1      18.405  19.031  32.593  1.00  0.00    -0.233 NA
HETATM    2  C7  UNL     1      19.288  19.224  31.500  1.00  0.00     0.111 C 
HETATM    3  C8  UNL     1      20.385  18.182  31.416  1.00  0.00     0.043 C 
HETATM    4  C9  UNL     1      19.928  16.876  30.869  1.00  0.00     0.233 C 
HETATM    5  N7  UNL     1      19.627  15.874  31.847  1.00  0.00    -0.073 N 
ATOM      6  H71 UNL     1      19.158  15.081  31.410  1.00  0.00     0.277 HD
ATOM      7  H72 UNL     1      18.885  16.195  32.468  1.00  0.00     0.277 HD
HETATM    8  C10 UNL     1      20.755  15.428  32.608  1.00  0.00     0.258 C 
HETATM    9  C11 UNL     1      20.284  14.437  33.647  1.00  0.00     0.195 C 
HETATM   10  O1  UNL     1      19.243  14.912  34.417  1.00  0.00    -0.388 OA
HETATM   11  C12 UNL     1      19.751  15.455  35.596  1.00  0.00     0.195 C 
HETATM   12  C13 UNL     1      18.733  16.148  36.431  1.00  0.00     0.258 C 
HETATM   13  N8  UNL     1      17.812  16.970  35.725  1.00  0.00    -0.072 N 
ATOM     14  H81 UNL     1      16.861  16.813  36.056  1.00  0.00     0.277 HD
ATOM     15  H82 UNL     1      17.711  16.652  34.760  1.00  0.00     0.277 HD
HETATM   16  C14 UNL     1      18.143  18.389  35.766  1.00  0.00     0.249 C 
HETATM   17  C15 UNL     1      19.220  18.735  34.776  1.00  0.00     0.156 C 
HETATM   18  N9  UNL     1      18.819  19.676  33.777  1.00  0.00    -0.163 NA
ENDROOT
BRANCH   1  19
HETATM   19  C6  UNL     1      17.048  19.318  32.261  1.00  0.00     0.129 C 
BRANCH  19  20
HETATM   20  C5  UNL     1      16.325  20.258  33.152  1.00  0.00     0.135 C 
BRANCH  20  21
HETATM   21  N5  UNL     1      14.888  20.155  33.079  1.00  0.00    -0.396 N 
HETATM   22  C4  UNL     1      14.199  20.586  32.105  1.00  0.00     0.116 C 
ATOM     23  H5  UNL     1      14.398  19.711  33.855  1.00  0.00     0.159 HD
BRANCH  22  24
HETATM   24  C3  UNL     1      12.758  20.513  31.973  1.00  0.00     0.093 A 
HETATM   25  C1  UNL     1      12.112  19.730  31.051  1.00  0.00     0.142 A 
HETATM   26  N2  UNL     1      10.729  19.763  31.026  1.00  0.00    -0.283 N 
HETATM   27  N3  UNL     1      10.067  20.508  31.847  1.00  0.00    -0.295 N 
ATOM     28  H2  UNL     1      10.225  19.189  30.350  1.00  0.00     0.188 HD
HETATM   29  C2  UNL     1      10.700  21.268  32.743  1.00  0.00     0.197 A 
ATOM     30  H3  UNL     1       9.048  20.517  31.810  1.00  0.00     0.187 HD
HETATM   31  N4  UNL     1      12.014  21.289  32.825  1.00  0.00    -0.347 N 
ATOM     32  H4  UNL     1      12.476  21.877  33.518  1.00  0.00     0.167 HD
BRANCH  25  33
HETATM   33  N1  UNL     1      12.691  18.975  30.226  1.00  0.00    -0.383 N 
ATOM     34  H12 UNL     1      12.866  19.214  29.250  1.00  0.00     0.157 HD
ATOM     35  H11 UNL     1      13.009  18.067  30.561  1.00  0.00     0.157 HD
ENDBRANCH  25  33
ENDBRANCH  22  24
ENDBRANCH  20  21
ENDBRANCH  19  20
ENDBRANCH   1  19
TORSDOF 5
ENDMDL
MODEL 5
REMARK VINA RESULT: -8.986663495      1.619      2.365
REMARK  5 active torsions:
REMARK  status: ('A' for Active; 'I' for Inactive)
REMARK    1  A    between atoms: N1_1  and  C1_4 
REMARK    2  A    between atoms: C3_12  and  C4_13 
REMARK    3  A    between atoms: N5_14  and  C5_16 
REMARK    4  A    between atoms: C5_16  and  C6_17 
REMARK    5  A    between atoms: C6_17  and  N6_18 
ROOT
HETATM    1  N6  UNL     1      18.349  19.200  34.132  1.00  0.00    -0.233 NA
HETATM    2  C7  UNL     1      19.015  20.188  33.363  1.00  0.00     0.111 C 
HETATM    3  C8  UNL     1      20.109  19.629  32.475  1.00  0.00     0.043 C 
HETATM    4  C9  UNL     1      19.598  18.960  31.248  1.00  0.00     0.233 C 
HETATM    5  N7  UNL     1      19.507  17.532  31.322  1.00  0.00    -0.073 N 
ATOM      6  H71 UNL     1      18.990  17.168  30.522  1.00  0.00     0.277 HD
ATOM      7  H72 UNL     1      18.880  17.256  32.077  1.00  0.00     0.277 HD
HETATM    8  C10 UNL     1      20.766  16.862  31.449  1.00  0.00     0.258 C 
HETATM    9  C11 UNL     1      20.517  15.379  31.593  1.00  0.00     0.195 C 
HETATM   10  O1  UNL     1      19.619  15.074  32.594  1.00  0.00    -0.388 OA
HETATM   11  C12 UNL     1      20.315  14.771  33.764  1.00  0.00     0.195 C 
HETATM   12  C13 UNL     1      19.444  14.588  34.956  1.00  0.00     0.258 C 
HETATM   13  N8  UNL     1      18.387  15.530  35.099  1.00  0.00    -0.072 N 
ATOM     14  H81 UNL     1      17.516  15.060  35.344  1.00  0.00     0.277 HD
ATOM     15  H82 UNL     1      18.124  15.916  34.192  1.00  0.00     0.277 HD
HETATM   16  C14 UNL     1      18.680  16.598  36.047  1.00  0.00     0.249 C 
HETATM   17  C15 UNL     1      19.551  17.658  35.434  1.00  0.00     0.156 C 
HETATM   18  N9  UNL     1      18.951  18.955  35.384  1.00  0.00    -0.163 NA
ENDROOT
BRANCH   1  19
HETATM   19  C6  UNL     1      16.947  19.438  34.237  1.00  0.00     0.129 C 
BRANCH  19  20
HETATM   20  C5  UNL     1      16.328  20.270  33.176  1.00  0.00     0.135 C 
BRANCH  20  21
HETATM   21  N5  UNL     1      14.893  20.151  33.092  1.00  0.00    -0.396 N 
HETATM   22  C4  UNL     1      14.202  20.614  32.134  1.00  0.00     0.116 C 
ATOM     23  H5  UNL     1      14.406  19.665  33.845  1.00  0.00     0.159 HD
BRANCH  22  24
HETATM   24  C3  UNL     1      12.763  20.527  31.992  1.00  0.00     0.093 A 
HETATM   25  C1  UNL     1      12.131  19.737  31.066  1.00  0.00     0.142 A 
HETATM   26  N2  UNL     1      10.749  19.756  31.032  1.00  0.00    -0.283 N 
HETATM   27  N3  UNL     1      10.073  20.495  31.847  1.00  0.00    -0.295 N 
ATOM     28  H2  UNL     1      10.254  19.177  30.352  1.00  0.00     0.188 HD
HETATM   29  C2  UNL     1      10.692  21.262  32.747  1.00  0.00     0.197 A 
ATOM     30  H3  UNL     1       9.055  20.494  31.803  1.00  0.00     0.187 HD
HETATM   31  N4  UNL     1      12.006  21.295  32.838  1.00  0.00    -0.347 N 
ATOM     32  H4  UNL     1      12.457  21.889  33.534  1.00  0.00     0.167 HD
BRANCH  25  33
HETATM   33  N1  UNL     1      12.724  18.988  30.245  1.00  0.00    -0.383 N 
ATOM     34  H12 UNL     1      12.253  18.375  29.580  1.00  0.00     0.157 HD
ATOM     35  H11 UNL     1      13.743  19.001  30.246  1.00  0.00     0.157 HD
ENDBRANCH  25  33
ENDBRANCH  22  24
ENDBRANCH  20  21
ENDBRANCH  19  20
ENDBRANCH   1  19
TORSDOF 5
ENDMDL
