MODEL 1
REMARK VINA RESULT: -6.319577361      0.000      0.000
REMARK  3 active torsions:
REMARK  status: ('A' for Active; 'I' for Inactive)
REMARK    1  A    between atoms: N2_5  and  C4_6 
REMARK    2  A    between atoms: C4_6  and  N3_8 
REMARK    3  A    between atoms: N3_8  and  C5_10 
ROOT
HETATM    1  C4  UNL     1      44.643  -1.631  13.720  1.00  0.00     0.170 C 
HETATM    2  S1  UNL     1      44.514  -0.715  12.383  1.00  0.00    -0.041 SA
ENDROOT
BRANCH   1   3
HETATM    3  N2  UNL     1      45.112  -1.128  14.958  1.00  0.00    -0.355 N 
HETATM    4  C3  UNL     1      46.284  -1.684  15.600  1.00  0.00     0.155 C 
HETATM    5  C2  UNL     1      46.614  -1.051  16.898  1.00  0.00     0.291 C 
HETATM    6  N1  UNL     1      45.518  -0.740  17.744  1.00  0.00     0.087 N 
HETATM    7  C1  UNL     1      45.772   0.255  18.731  1.00  0.00     0.310 C 
HETATM    8  C10 UNL     1      44.263  -0.536  17.089  1.00  0.00     0.291 C 
HETATM    9  C9  UNL     1      44.478  -0.040  15.676  1.00  0.00     0.155 C 
ENDBRANCH   1   3
BRANCH   1  10
HETATM   10  N3  UNL     1      44.266  -2.998  13.642  1.00  0.00    -0.359 N 
ATOM     11  H3  UNL     1      43.408  -3.302  14.102  1.00  0.00     0.162 HD
BRANCH  10  12
HETATM   12  C5  UNL     1      45.059  -3.971  12.930  1.00  0.00     0.021 C 
HETATM   13  C6  UNL     1      44.129  -5.004  12.327  1.00  0.00     0.037 C 
HETATM   14  C7  UNL     1      46.036  -4.586  13.888  1.00  0.00     0.037 C 
HETATM   15  C8  UNL     1      45.833  -3.346  11.791  1.00  0.00     0.037 C 
ENDBRANCH  10  12
ENDBRANCH   1  10
TORSDOF 3
ENDMDL
MODEL 2
REMARK VINA RESULT: -6.052246088      0.768      1.809
REMARK  3 active torsions:
REMARK  status: ('A' for Active; 'I' for Inactive)
REMARK    1  A    between atoms: N2_5  and  C4_6 
REMARK    2  A    between atoms: C4_6  and  N3_8 
REMARK    3  A    between atoms: N3_8  and  C5_10 
ROOT
HETATM    1  C4  UNL     1      45.017  -1.316  14.164  1.00  0.00     0.170 C 
HETATM    2  S1  UNL     1      45.462  -0.280  12.993  1.00  0.00    -0.041 SA
ENDROOT
BRANCH   1   3
HETATM    3  N2  UNL     1      45.226  -1.061  15.541  1.00  0.00    -0.355 N 
HETATM    4  C3  UNL     1      44.290  -0.270  16.311  1.00  0.00     0.155 C 
HETATM    5  C2  UNL     1      44.681  -0.088  17.727  1.00  0.00     0.291 C 
HETATM    6  N1  UNL     1      46.058   0.146  17.976  1.00  0.00     0.087 N 
HETATM    7  C1  UNL     1      46.497  -0.144  19.300  1.00  0.00     0.310 C 
HETATM    8  C10 UNL     1      46.964  -0.359  16.990  1.00  0.00     0.291 C 
HETATM    9  C9  UNL     1      46.367  -1.557  16.287  1.00  0.00     0.155 C 
ENDBRANCH   1   3
BRANCH   1  10
HETATM   10  N3  UNL     1      44.389  -2.534  13.787  1.00  0.00    -0.359 N 
ATOM     11  H3  UNL     1      43.392  -2.652  13.966  1.00  0.00     0.162 HD
BRANCH  10  12
HETATM   12  C5  UNL     1      45.119  -3.609  13.158  1.00  0.00     0.021 C 
HETATM   13  C6  UNL     1      45.619  -3.128  11.811  1.00  0.00     0.037 C 
HETATM   14  C7  UNL     1      44.210  -4.795  13.030  1.00  0.00     0.037 C 
HETATM   15  C8  UNL     1      46.330  -4.017  13.965  1.00  0.00     0.037 C 
ENDBRANCH  10  12
ENDBRANCH   1  10
TORSDOF 3
ENDMDL
MODEL 3
REMARK VINA RESULT: -5.900758101      1.033      1.750
REMARK  3 active torsions:
REMARK  status: ('A' for Active; 'I' for Inactive)
REMARK    1  A    between atoms: N2_5  and  C4_6 
REMARK    2  A    between atoms: C4_6  and  N3_8 
REMARK    3  A    between atoms: N3_8  and  C5_10 
ROOT
HETATM    1  C4  UNL     1      45.217  -1.218  14.300  1.00  0.00     0.170 C 
HETATM    2  S1  UNL     1      45.432  -0.071  13.168  1.00  0.00    -0.041 SA
ENDROOT
BRANCH   1   3
HETATM    3  N2  UNL     1      45.308  -0.959  15.689  1.00  0.00    -0.355 N 
HETATM    4  C3  UNL     1      44.295  -0.188  16.379  1.00  0.00     0.155 C 
HETATM    5  C2  UNL     1      44.566   0.002  17.822  1.00  0.00     0.291 C 
HETATM    6  N1  UNL     1      45.913   0.265  18.182  1.00  0.00     0.087 N 
HETATM    7  C1  UNL     1      46.249  -0.016  19.537  1.00  0.00     0.310 C 
HETATM    8  C10 UNL     1      46.907  -0.219  17.273  1.00  0.00     0.291 C 
HETATM    9  C9  UNL     1      46.394  -1.430  16.525  1.00  0.00     0.155 C 
ENDBRANCH   1   3
BRANCH   1  10
HETATM   10  N3  UNL     1      44.925  -2.541  13.874  1.00  0.00    -0.359 N 
ATOM     11  H3  UNL     1      43.980  -2.904  14.000  1.00  0.00     0.162 HD
BRANCH  10  12
HETATM   12  C5  UNL     1      45.923  -3.388  13.268  1.00  0.00     0.021 C 
HETATM   13  C6  UNL     1      45.694  -4.812  13.733  1.00  0.00     0.037 C 
HETATM   14  C7  UNL     1      47.281  -2.882  13.655  1.00  0.00     0.037 C 
HETATM   15  C8  UNL     1      45.824  -3.389  11.759  1.00  0.00     0.037 C 
ENDBRANCH  10  12
ENDBRANCH   1  10
TORSDOF 3
ENDMDL
MODEL 4
REMARK VINA RESULT: -5.725920318      1.900      5.507
REMARK  3 active torsions:
REMARK  status: ('A' for Active; 'I' for Inactive)
REMARK    1  A    between atoms: N2_5  and  C4_6 
REMARK    2  A    between atoms: C4_6  and  N3_8 
REMARK    3  A    between atoms: N3_8  and  C5_10 
ROOT
HETATM    1  C4  UNL     1      45.425  -0.290  16.348  1.00  0.00     0.170 C 
HETATM    2  S1  UNL     1      43.975   0.163  16.928  1.00  0.00    -0.041 SA
ENDROOT
BRANCH   1   3
HETATM    3  N2  UNL     1      45.577  -1.201  15.275  1.00  0.00    -0.355 N 
HETATM    4  C3  UNL     1      46.644  -2.179  15.263  1.00  0.00     0.155 C 
HETATM    5  C2  UNL     1      46.663  -3.031  14.053  1.00  0.00     0.291 C 
HETATM    6  N1  UNL     1      46.387  -2.383  12.820  1.00  0.00     0.087 N 
HETATM    7  C1  UNL     1      45.948  -3.236  11.767  1.00  0.00     0.310 C 
HETATM    8  C10 UNL     1      45.600  -1.191  12.906  1.00  0.00     0.291 C 
HETATM    9  C9  UNL     1      44.700  -1.237  14.121  1.00  0.00     0.155 C 
ENDBRANCH   1   3
BRANCH   1  10
HETATM   10  N3  UNL     1      46.593   0.256  16.946  1.00  0.00    -0.359 N 
ATOM     11  H3  UNL     1      47.239   0.794  16.369  1.00  0.00     0.162 HD
BRANCH  10  12
HETATM   12  C5  UNL     1      46.893   0.071  18.346  1.00  0.00     0.021 C 
HETATM   13  C6  UNL     1      46.301   1.229  19.122  1.00  0.00     0.037 C 
HETATM   14  C7  UNL     1      48.382  -0.013  18.509  1.00  0.00     0.037 C 
HETATM   15  C8  UNL     1      46.278  -1.197  18.894  1.00  0.00     0.037 C 
ENDBRANCH  10  12
ENDBRANCH   1  10
TORSDOF 3
ENDMDL
MODEL 5
REMARK VINA RESULT: -5.684289276      1.776      2.539
REMARK  3 active torsions:
REMARK  status: ('A' for Active; 'I' for Inactive)
REMARK    1  A    between atoms: N2_5  and  C4_6 
REMARK    2  A    between atoms: C4_6  and  N3_8 
REMARK    3  A    between atoms: N3_8  and  C5_10 
ROOT
HETATM    1  C4  UNL     1      46.280  -1.783  14.337  1.00  0.00     0.170 C 
HETATM    2  S1  UNL     1      47.455  -2.904  14.398  1.00  0.00    -0.041 SA
ENDROOT
BRANCH   1   3
HETATM    3  N2  UNL     1      45.703  -1.204  15.494  1.00  0.00    -0.355 N 
HETATM    4  C3  UNL     1      44.485  -0.425  15.419  1.00  0.00     0.155 C 
HETATM    5  C2  UNL     1      44.042   0.120  16.722  1.00  0.00     0.291 C 
HETATM    6  N1  UNL     1      45.059   0.620  17.576  1.00  0.00     0.087 N 
HETATM    7  C1  UNL     1      44.715   0.699  18.955  1.00  0.00     0.310 C 
HETATM    8  C10 UNL     1      46.364   0.066  17.381  1.00  0.00     0.291 C 
HETATM    9  C9  UNL     1      46.265  -1.336  16.824  1.00  0.00     0.155 C 
ENDBRANCH   1   3
BRANCH   1  10
HETATM   10  N3  UNL     1      45.811  -1.363  13.063  1.00  0.00    -0.359 N 
ATOM     11  H3  UNL     1      46.041  -0.424  12.736  1.00  0.00     0.162 HD
BRANCH  10  12
HETATM   12  C5  UNL     1      45.020  -2.224  12.217  1.00  0.00     0.021 C 
HETATM   13  C6  UNL     1      45.958  -3.063  11.373  1.00  0.00     0.037 C 
HETATM   14  C7  UNL     1      44.117  -1.371  11.376  1.00  0.00     0.037 C 
HETATM   15  C8  UNL     1      44.167  -3.178  13.021  1.00  0.00     0.037 C 
ENDBRANCH  10  12
ENDBRANCH   1  10
TORSDOF 3
ENDMDL
