MODEL 1
REMARK VINA RESULT: -8.653400083      0.000      0.000
REMARK  7 active torsions:
REMARK  status: ('A' for Active; 'I' for Inactive)
REMARK    1  A    between atoms: O1_2  and  C2_3 
REMARK    2  A    between atoms: C4_5  and  C5_6 
REMARK    3  A    between atoms: C5_6  and  C6_7 
REMARK    4  A    between atoms: C6_7  and  C7_8 
REMARK    5  A    between atoms: C7_8  and  O2_9 
REMARK    6  A    between atoms: C9_12  and  C10_13 
REMARK    7  A    between atoms: C24_28  and  O4_29 
ROOT
HETATM    1  C2  UNL     1      26.830  23.931  32.849  1.00  0.00     0.102 A 
HETATM    2  C3  UNL     1      26.248  23.802  34.088  1.00  0.00     0.046 A 
HETATM    3  C4  UNL     1      26.445  22.690  34.872  1.00  0.00    -0.055 A 
HETATM    4  C8  UNL     1      27.258  21.689  34.373  1.00  0.00     0.020 A 
HETATM    5  C9  UNL     1      27.868  21.755  33.147  1.00  0.00     0.007 A 
HETATM    6  C24 UNL     1      27.627  22.909  32.402  1.00  0.00     0.107 A 
ENDROOT
BRANCH   5   7
HETATM    7  C10 UNL     1      28.750  20.690  32.591  1.00  0.00     0.158 C 
HETATM    8  C11 UNL     1      28.303  19.306  32.984  1.00  0.00     0.042 C 
HETATM    9  C12 UNL     1      29.100  18.314  32.237  1.00  0.00    -0.000 C 
HETATM   10  C13 UNL     1      28.705  16.901  32.248  1.00  0.00     0.010 C 
HETATM   11  C22 UNL     1      28.952  18.669  30.754  1.00  0.00    -0.010 C 
HETATM   12  C14 UNL     1      29.467  16.380  31.013  1.00  0.00    -0.013 C 
HETATM   13  C15 UNL     1      28.555  15.328  30.372  1.00  0.00     0.010 C 
HETATM   14  C16 UNL     1      29.571  17.523  30.063  1.00  0.00     0.004 C 
HETATM   15  C17 UNL     1      30.964  17.898  29.656  1.00  0.00    -0.013 C 
HETATM   16  C18 UNL     1      31.509  16.727  28.834  1.00  0.00     0.010 C 
HETATM   17  C19 UNL     1      30.854  19.070  28.693  1.00  0.00     0.007 C 
HETATM   18  C20 UNL     1      30.200  20.278  29.294  1.00  0.00     0.033 C 
HETATM   19  C21 UNL     1      29.730  19.967  30.654  1.00  0.00     0.131 C 
HETATM   20  O3  UNL     1      28.886  20.908  31.244  1.00  0.00    -0.375 OA
HETATM   21  C23 UNL     1      27.535  18.823  30.328  1.00  0.00     0.018 C 
ENDBRANCH   5   7
BRANCH   6  22
HETATM   22  O4  UNL     1      28.230  23.006  31.157  1.00  0.00    -0.357 OA
ATOM     23  H4  UNL     1      28.917  22.395  30.920  1.00  0.00     0.217 HD
ENDBRANCH   6  22
BRANCH   3  24
HETATM   24  C5  UNL     1      25.843  22.511  36.203  1.00  0.00     0.041 C 
BRANCH  24  25
HETATM   25  C6  UNL     1      26.507  23.308  37.285  1.00  0.00     0.030 C 
BRANCH  25  26
HETATM   26  C7  UNL     1      25.993  22.986  38.668  1.00  0.00     0.164 C 
BRANCH  26  27
HETATM   27  O2  UNL     1      26.904  22.105  39.251  1.00  0.00    -0.401 OA
ATOM     28  H2  UNL     1      26.415  21.340  39.529  1.00  0.00     0.209 HD
ENDBRANCH  26  27
ENDBRANCH  25  26
ENDBRANCH  24  25
ENDBRANCH   3  24
BRANCH   1  29
HETATM   29  O1  UNL     1      26.644  25.055  32.031  1.00  0.00    -0.353 OA
HETATM   30  C1  UNL     1      27.550  26.131  32.226  1.00  0.00     0.210 C 
ENDBRANCH   1  29
TORSDOF 7
ENDMDL
MODEL 2
REMARK VINA RESULT: -8.278248801      1.127      2.359
REMARK  7 active torsions:
REMARK  status: ('A' for Active; 'I' for Inactive)
REMARK    1  A    between atoms: O1_2  and  C2_3 
REMARK    2  A    between atoms: C4_5  and  C5_6 
REMARK    3  A    between atoms: C5_6  and  C6_7 
REMARK    4  A    between atoms: C6_7  and  C7_8 
REMARK    5  A    between atoms: C7_8  and  O2_9 
REMARK    6  A    between atoms: C9_12  and  C10_13 
REMARK    7  A    between atoms: C24_28  and  O4_29 
ROOT
HETATM    1  C2  UNL     1      26.796  24.286  32.862  1.00  0.00     0.102 A 
HETATM    2  C3  UNL     1      26.530  24.026  34.185  1.00  0.00     0.046 A 
HETATM    3  C4  UNL     1      26.492  22.746  34.683  1.00  0.00    -0.055 A 
HETATM    4  C8  UNL     1      26.734  21.708  33.802  1.00  0.00     0.020 A 
HETATM    5  C9  UNL     1      27.006  21.897  32.472  1.00  0.00     0.007 A 
HETATM    6  C24 UNL     1      27.029  23.220  32.031  1.00  0.00     0.107 A 
ENDROOT
BRANCH   5   7
HETATM    7  C10 UNL     1      27.273  20.794  31.506  1.00  0.00     0.158 C 
HETATM    8  C11 UNL     1      28.669  20.843  30.943  1.00  0.00     0.042 C 
HETATM    9  C12 UNL     1      28.915  19.616  30.160  1.00  0.00    -0.000 C 
HETATM   10  C13 UNL     1      30.273  19.297  29.708  1.00  0.00     0.010 C 
HETATM   11  C22 UNL     1      28.610  18.440  31.094  1.00  0.00    -0.010 C 
HETATM   12  C14 UNL     1      30.130  17.792  29.407  1.00  0.00    -0.013 C 
HETATM   13  C15 UNL     1      31.467  17.156  29.805  1.00  0.00     0.010 C 
HETATM   14  C16 UNL     1      29.089  17.269  30.337  1.00  0.00     0.004 C 
HETATM   15  C17 UNL     1      27.917  16.602  29.683  1.00  0.00    -0.013 C 
HETATM   16  C18 UNL     1      28.452  15.328  29.024  1.00  0.00     0.010 C 
HETATM   17  C19 UNL     1      26.983  16.141  30.790  1.00  0.00     0.007 C 
HETATM   18  C20 UNL     1      26.469  17.262  31.643  1.00  0.00     0.033 C 
HETATM   19  C21 UNL     1      27.103  18.528  31.241  1.00  0.00     0.131 C 
HETATM   20  O3  UNL     1      26.915  19.611  32.099  1.00  0.00    -0.375 OA
HETATM   21  C23 UNL     1      29.315  18.533  32.400  1.00  0.00     0.018 C 
ENDBRANCH   5   7
BRANCH   6  22
HETATM   22  O4  UNL     1      27.302  23.444  30.690  1.00  0.00    -0.357 OA
ATOM     23  H4  UNL     1      27.263  22.720  30.077  1.00  0.00     0.217 HD
ENDBRANCH   6  22
BRANCH   3  24
HETATM   24  C5  UNL     1      26.211  22.424  36.092  1.00  0.00     0.041 C 
BRANCH  24  25
HETATM   25  C6  UNL     1      26.450  23.562  37.037  1.00  0.00     0.030 C 
BRANCH  25  26
HETATM   26  C7  UNL     1      25.973  23.285  38.442  1.00  0.00     0.164 C 
BRANCH  26  27
HETATM   27  O2  UNL     1      26.895  22.416  39.026  1.00  0.00    -0.401 OA
ATOM     28  H2  UNL     1      26.429  21.913  39.683  1.00  0.00     0.209 HD
ENDBRANCH  26  27
ENDBRANCH  25  26
ENDBRANCH  24  25
ENDBRANCH   3  24
BRANCH   1  29
HETATM   29  O1  UNL     1      26.840  25.583  32.330  1.00  0.00    -0.353 OA
HETATM   30  C1  UNL     1      28.082  26.264  32.438  1.00  0.00     0.210 C 
ENDBRANCH   1  29
TORSDOF 7
ENDMDL
MODEL 3
REMARK VINA RESULT: -8.138942112      1.627      3.482
REMARK  7 active torsions:
REMARK  status: ('A' for Active; 'I' for Inactive)
REMARK    1  A    between atoms: O1_2  and  C2_3 
REMARK    2  A    between atoms: C4_5  and  C5_6 
REMARK    3  A    between atoms: C5_6  and  C6_7 
REMARK    4  A    between atoms: C6_7  and  C7_8 
REMARK    5  A    between atoms: C7_8  and  O2_9 
REMARK    6  A    between atoms: C9_12  and  C10_13 
REMARK    7  A    between atoms: C24_28  and  O4_29 
ROOT
HETATM    1  C2  UNL     1      26.112  23.002  34.545  1.00  0.00     0.102 A 
HETATM    2  C3  UNL     1      26.232  24.089  33.713  1.00  0.00     0.046 A 
HETATM    3  C4  UNL     1      26.906  24.021  32.518  1.00  0.00    -0.055 A 
HETATM    4  C8  UNL     1      27.470  22.807  32.168  1.00  0.00     0.020 A 
HETATM    5  C9  UNL     1      27.387  21.685  32.951  1.00  0.00     0.007 A 
HETATM    6  C24 UNL     1      26.690  21.822  34.150  1.00  0.00     0.107 A 
ENDROOT
BRANCH   5   7
HETATM    7  C10 UNL     1      27.985  20.368  32.592  1.00  0.00     0.158 C 
HETATM    8  C11 UNL     1      26.993  19.238  32.687  1.00  0.00     0.042 C 
HETATM    9  C12 UNL     1      27.603  18.016  32.129  1.00  0.00    -0.000 C 
HETATM   10  C13 UNL     1      26.771  16.834  31.876  1.00  0.00     0.010 C 
HETATM   11  C22 UNL     1      28.074  18.375  30.716  1.00  0.00    -0.010 C 
HETATM   12  C14 UNL     1      27.668  16.056  30.892  1.00  0.00    -0.013 C 
HETATM   13  C15 UNL     1      26.715  15.383  29.899  1.00  0.00     0.010 C 
HETATM   14  C16 UNL     1      28.457  17.073  30.140  1.00  0.00     0.004 C 
HETATM   15  C17 UNL     1      29.946  16.924  30.224  1.00  0.00    -0.013 C 
HETATM   16  C18 UNL     1      30.297  15.622  29.499  1.00  0.00     0.010 C 
HETATM   17  C19 UNL     1      30.559  18.043  29.396  1.00  0.00     0.007 C 
HETATM   18  C20 UNL     1      30.197  19.414  29.883  1.00  0.00     0.033 C 
HETATM   19  C21 UNL     1      29.234  19.313  30.992  1.00  0.00     0.131 C 
HETATM   20  O3  UNL     1      28.617  20.500  31.382  1.00  0.00    -0.375 OA
HETATM   21  C23 UNL     1      27.014  19.012  29.890  1.00  0.00     0.018 C 
ENDBRANCH   5   7
BRANCH   6  22
HETATM   22  O4  UNL     1      26.589  20.705  34.964  1.00  0.00    -0.357 OA
ATOM     23  H4  UNL     1      25.764  20.509  35.392  1.00  0.00     0.217 HD
ENDBRANCH   6  22
BRANCH   3  24
HETATM   24  C5  UNL     1      27.057  25.160  31.597  1.00  0.00     0.041 C 
BRANCH  24  25
HETATM   25  C6  UNL     1      28.403  25.240  30.943  1.00  0.00     0.030 C 
BRANCH  25  26
HETATM   26  C7  UNL     1      29.382  26.113  31.692  1.00  0.00     0.164 C 
BRANCH  26  27
HETATM   27  O2  UNL     1      28.668  26.760  32.701  1.00  0.00    -0.401 OA
ATOM     28  H2  UNL     1      29.297  27.029  33.360  1.00  0.00     0.209 HD
ENDBRANCH  26  27
ENDBRANCH  25  26
ENDBRANCH  24  25
ENDBRANCH   3  24
BRANCH   1  29
HETATM   29  O1  UNL     1      25.430  23.046  35.769  1.00  0.00    -0.353 OA
HETATM   30  C1  UNL     1      26.207  23.379  36.911  1.00  0.00     0.210 C 
ENDBRANCH   1  29
TORSDOF 7
ENDMDL
MODEL 4
REMARK VINA RESULT: -7.743785235      1.874      4.079
REMARK  7 active torsions:
REMARK  status: ('A' for Active; 'I' for Inactive)
REMARK    1  A    between atoms: O1_2  and  C2_3 
REMARK    2  A    between atoms: C4_5  and  C5_6 
REMARK    3  A    between atoms: C5_6  and  C6_7 
REMARK    4  A    between atoms: C6_7  and  C7_8 
REMARK    5  A    between atoms: C7_8  and  O2_9 
REMARK    6  A    between atoms: C9_12  and  C10_13 
REMARK    7  A    between atoms: C24_28  and  O4_29 
ROOT
HETATM    1  C2  UNL     1      26.420  23.418  33.856  1.00  0.00     0.102 A 
HETATM    2  C3  UNL     1      26.880  24.636  33.416  1.00  0.00     0.046 A 
HETATM    3  C4  UNL     1      27.557  24.773  32.228  1.00  0.00    -0.055 A 
HETATM    4  C8  UNL     1      27.765  23.633  31.474  1.00  0.00     0.020 A 
HETATM    5  C9  UNL     1      27.333  22.389  31.854  1.00  0.00     0.007 A 
HETATM    6  C24 UNL     1      26.653  22.320  33.069  1.00  0.00     0.107 A 
ENDROOT
BRANCH   5   7
HETATM    7  C10 UNL     1      27.544  21.149  31.055  1.00  0.00     0.158 C 
HETATM    8  C11 UNL     1      28.947  21.037  30.520  1.00  0.00     0.042 C 
HETATM    9  C12 UNL     1      29.127  19.701  29.919  1.00  0.00    -0.000 C 
HETATM   10  C13 UNL     1      30.470  19.243  29.544  1.00  0.00     0.010 C 
HETATM   11  C22 UNL     1      28.740  18.686  30.999  1.00  0.00    -0.010 C 
HETATM   12  C14 UNL     1      30.238  17.722  29.450  1.00  0.00    -0.013 C 
HETATM   13  C15 UNL     1      31.529  17.070  29.960  1.00  0.00     0.010 C 
HETATM   14  C16 UNL     1      29.156  17.395  30.421  1.00  0.00     0.004 C 
HETATM   15  C17 UNL     1      27.954  16.714  29.841  1.00  0.00    -0.013 C 
HETATM   16  C18 UNL     1      28.417  15.331  29.375  1.00  0.00     0.010 C 
HETATM   17  C19 UNL     1      26.979  16.467  30.981  1.00  0.00     0.007 C 
HETATM   18  C20 UNL     1      26.523  17.724  31.661  1.00  0.00     0.033 C 
HETATM   19  C21 UNL     1      27.239  18.882  31.102  1.00  0.00     0.131 C 
HETATM   20  O3  UNL     1      27.106  20.082  31.798  1.00  0.00    -0.375 OA
HETATM   21  C23 UNL     1      29.432  18.918  32.294  1.00  0.00     0.018 C 
ENDBRANCH   5   7
BRANCH   6  22
HETATM   22  O4  UNL     1      26.203  21.075  33.481  1.00  0.00    -0.357 OA
ATOM     23  H4  UNL     1      25.803  20.489  32.850  1.00  0.00     0.217 HD
ENDBRANCH   6  22
BRANCH   3  24
HETATM   24  C5  UNL     1      28.066  26.058  31.720  1.00  0.00     0.041 C 
BRANCH  24  25
HETATM   25  C6  UNL     1      29.562  26.157  31.704  1.00  0.00     0.030 C 
BRANCH  25  26
HETATM   26  C7  UNL     1      30.110  27.126  32.724  1.00  0.00     0.164 C 
BRANCH  26  27
HETATM   27  O2  UNL     1      31.352  26.637  33.129  1.00  0.00    -0.401 OA
ATOM     28  H2  UNL     1      31.718  27.270  33.736  1.00  0.00     0.209 HD
ENDBRANCH  26  27
ENDBRANCH  25  26
ENDBRANCH  24  25
ENDBRANCH   3  24
BRANCH   1  29
HETATM   29  O1  UNL     1      25.727  23.252  35.064  1.00  0.00    -0.353 OA
HETATM   30  C1  UNL     1      26.518  23.224  36.244  1.00  0.00     0.210 C 
ENDBRANCH   1  29
TORSDOF 7
ENDMDL
MODEL 5
REMARK VINA RESULT: -7.591188478      2.575      5.569
REMARK  7 active torsions:
REMARK  status: ('A' for Active; 'I' for Inactive)
REMARK    1  A    between atoms: O1_2  and  C2_3 
REMARK    2  A    between atoms: C4_5  and  C5_6 
REMARK    3  A    between atoms: C5_6  and  C6_7 
REMARK    4  A    between atoms: C6_7  and  C7_8 
REMARK    5  A    between atoms: C7_8  and  O2_9 
REMARK    6  A    between atoms: C9_12  and  C10_13 
REMARK    7  A    between atoms: C24_28  and  O4_29 
ROOT
HETATM    1  C2  UNL     1      25.287  23.164  38.943  1.00  0.00     0.102 A 
HETATM    2  C3  UNL     1      23.928  23.207  38.742  1.00  0.00     0.046 A 
HETATM    3  C4  UNL     1      23.378  23.225  37.483  1.00  0.00    -0.055 A 
HETATM    4  C8  UNL     1      24.244  23.197  36.405  1.00  0.00     0.020 A 
HETATM    5  C9  UNL     1      25.608  23.154  36.535  1.00  0.00     0.007 A 
HETATM    6  C24 UNL     1      26.101  23.138  37.839  1.00  0.00     0.107 A 
ENDROOT
BRANCH   5   7
HETATM    7  C10 UNL     1      26.559  23.121  35.388  1.00  0.00     0.158 C 
HETATM    8  C11 UNL     1      27.274  21.802  35.267  1.00  0.00     0.042 C 
HETATM    9  C12 UNL     1      28.037  21.782  34.004  1.00  0.00    -0.000 C 
HETATM   10  C13 UNL     1      28.625  20.527  33.524  1.00  0.00     0.010 C 
HETATM   11  C22 UNL     1      27.035  22.105  32.890  1.00  0.00    -0.010 C 
HETATM   12  C14 UNL     1      28.856  20.867  32.038  1.00  0.00    -0.013 C 
HETATM   13  C15 UNL     1      28.587  19.571  31.265  1.00  0.00     0.010 C 
HETATM   14  C16 UNL     1      27.799  21.845  31.656  1.00  0.00     0.004 C 
HETATM   15  C17 UNL     1      28.296  23.150  31.110  1.00  0.00    -0.013 C 
HETATM   16  C18 UNL     1      28.966  22.837  29.770  1.00  0.00     0.010 C 
HETATM   17  C19 UNL     1      27.077  23.997  30.782  1.00  0.00     0.007 C 
HETATM   18  C20 UNL     1      26.211  24.285  31.973  1.00  0.00     0.033 C 
HETATM   19  C21 UNL     1      26.724  23.566  33.150  1.00  0.00     0.131 C 
HETATM   20  O3  UNL     1      25.889  23.537  34.265  1.00  0.00    -0.375 OA
HETATM   21  C23 UNL     1      25.819  21.250  32.932  1.00  0.00     0.018 C 
ENDBRANCH   5   7
BRANCH   6  22
HETATM   22  O4  UNL     1      27.477  23.095  38.004  1.00  0.00    -0.357 OA
ATOM     23  H4  UNL     1      27.850  22.547  38.684  1.00  0.00     0.217 HD
ENDBRANCH   6  22
BRANCH   3  24
HETATM   24  C5  UNL     1      21.930  23.270  37.223  1.00  0.00     0.041 C 
BRANCH  24  25
HETATM   25  C6  UNL     1      21.091  23.347  38.462  1.00  0.00     0.030 C 
BRANCH  25  26
HETATM   26  C7  UNL     1      20.409  24.682  38.642  1.00  0.00     0.164 C 
BRANCH  26  27
HETATM   27  O2  UNL     1      21.194  25.429  39.522  1.00  0.00    -0.401 OA
ATOM     28  H2  UNL     1      21.229  26.315  39.181  1.00  0.00     0.209 HD
ENDBRANCH  26  27
ENDBRANCH  25  26
ENDBRANCH  24  25
ENDBRANCH   3  24
BRANCH   1  29
HETATM   29  O1  UNL     1      25.872  23.145  40.217  1.00  0.00    -0.353 OA
HETATM   30  C1  UNL     1      25.051  23.577  41.293  1.00  0.00     0.210 C 
ENDBRANCH   1  29
TORSDOF 7
ENDMDL
