MODEL 1
REMARK VINA RESULT: -6.444891097      0.000      0.000
REMARK  6 active torsions:
REMARK  status: ('A' for Active; 'I' for Inactive)
REMARK    1  A    between atoms: C3_3  and  C4_4 
REMARK    2  A    between atoms: C4_4  and  C5_5 
REMARK    3  A    between atoms: C5_5  and  O1_8 
REMARK    4  A    between atoms: C11_13  and  O2_14 
REMARK    5  A    between atoms: O2_14  and  C12_15 
REMARK    6  A    between atoms: C19_22  and  C20_23 
ROOT
HETATM    1  C1  UNL     1      -9.081  -5.457  -9.867  1.00  0.00     0.044 C 
HETATM    2  C2  UNL     1     -10.343  -5.584 -10.603  1.00  0.00    -0.073 C 
HETATM    3  C3  UNL     1     -11.542  -5.069 -10.146  1.00  0.00    -0.032 C 
HETATM    4  C8  UNL     1     -12.618  -5.259 -11.139  1.00  0.00    -0.056 C 
HETATM    5  C9  UNL     1     -13.801  -4.377 -11.075  1.00  0.00     0.027 C 
HETATM    6  C10 UNL     1     -13.426  -3.023 -11.718  1.00  0.00     0.073 C 
HETATM    7  C11 UNL     1     -14.591  -2.264 -12.217  1.00  0.00     0.043 C 
HETATM    8  C15 UNL     1     -15.422  -2.892 -13.032  1.00  0.00     0.006 C 
HETATM    9  C16 UNL     1     -15.002  -4.321 -13.302  1.00  0.00     0.035 C 
HETATM   10  C17 UNL     1     -14.938  -4.889 -11.872  1.00  0.00    -0.002 C 
HETATM   11  C18 UNL     1     -15.122  -6.363 -11.969  1.00  0.00     0.022 C 
HETATM   12  C19 UNL     1     -13.853  -6.957 -12.457  1.00  0.00     0.099 C 
HETATM   13  C21 UNL     1     -12.823  -6.725 -11.358  1.00  0.00    -0.006 C 
HETATM   14  C22 UNL     1     -13.318  -7.437 -10.157  1.00  0.00     0.021 C 
HETATM   15  C23 UNL     1     -11.535  -7.315 -11.905  1.00  0.00     0.019 C 
HETATM   16  C24 UNL     1     -10.408  -6.314 -11.885  1.00  0.00     0.036 C 
ENDROOT
BRANCH   3  17
HETATM   17  C4  UNL     1     -11.457  -4.402  -8.884  1.00  0.00     0.021 C 
BRANCH  17  18
HETATM   18  C5  UNL     1     -12.075  -4.752  -7.626  1.00  0.00     0.069 C 
HETATM   19  C6  UNL     1     -13.545  -5.022  -7.570  1.00  0.00     0.050 C 
HETATM   20  C7  UNL     1     -11.674  -4.021  -6.380  1.00  0.00     0.050 C 
BRANCH  18  21
HETATM   21  O1  UNL     1     -11.534  -6.092  -7.342  1.00  0.00    -0.387 OA
ATOM     22  H1  UNL     1     -12.239  -6.674  -7.601  1.00  0.00     0.211 HD
ENDBRANCH  18  21
ENDBRANCH  17  18
ENDBRANCH   3  17
BRANCH  12  23
HETATM   23  C20 UNL     1     -13.923  -8.320 -12.952  1.00  0.00     0.178 C 
HETATM   24  O3  UNL     1     -14.303  -9.353 -12.350  1.00  0.00    -0.648 OA
HETATM   25  O4  UNL     1     -13.519  -8.565 -14.282  1.00  0.00    -0.648 OA
ENDBRANCH  12  23
BRANCH   7  26
HETATM   26  O2  UNL     1     -14.813  -0.921 -11.843  1.00  0.00    -0.351 OA
BRANCH  26  27
HETATM   27  C12 UNL     1     -15.056   0.087 -12.775  1.00  0.00     0.120 C 
HETATM   28  C13 UNL     1     -16.379   0.737 -12.527  1.00  0.00     0.040 C 
HETATM   29  C14 UNL     1     -13.932   1.116 -12.777  1.00  0.00     0.040 C 
ENDBRANCH  26  27
ENDBRANCH   7  26
TORSDOF 6
ENDMDL
MODEL 2
REMARK VINA RESULT: -6.425101726      6.346      9.840
REMARK  6 active torsions:
REMARK  status: ('A' for Active; 'I' for Inactive)
REMARK    1  A    between atoms: C3_3  and  C4_4 
REMARK    2  A    between atoms: C4_4  and  C5_5 
REMARK    3  A    between atoms: C5_5  and  O1_8 
REMARK    4  A    between atoms: C11_13  and  O2_14 
REMARK    5  A    between atoms: O2_14  and  C12_15 
REMARK    6  A    between atoms: C19_22  and  C20_23 
ROOT
HETATM    1  C1  UNL     1     -11.687   0.330 -12.776  1.00  0.00     0.044 C 
HETATM    2  C2  UNL     1     -12.472   1.419 -13.365  1.00  0.00    -0.073 C 
HETATM    3  C3  UNL     1     -13.409   1.224 -14.363  1.00  0.00    -0.032 C 
HETATM    4  C8  UNL     1     -14.114   2.481 -14.687  1.00  0.00    -0.056 C 
HETATM    5  C9  UNL     1     -15.439   2.400 -15.332  1.00  0.00     0.027 C 
HETATM    6  C10 UNL     1     -16.486   2.078 -14.241  1.00  0.00     0.073 C 
HETATM    7  C11 UNL     1     -17.857   2.493 -14.597  1.00  0.00     0.043 C 
HETATM    8  C15 UNL     1     -18.033   3.748 -14.979  1.00  0.00     0.006 C 
HETATM    9  C16 UNL     1     -16.743   4.540 -14.979  1.00  0.00     0.035 C 
HETATM   10  C17 UNL     1     -15.869   3.689 -15.917  1.00  0.00    -0.002 C 
HETATM   11  C18 UNL     1     -14.824   4.584 -16.488  1.00  0.00     0.022 C 
HETATM   12  C19 UNL     1     -13.795   4.819 -15.446  1.00  0.00     0.099 C 
HETATM   13  C21 UNL     1     -13.121   3.474 -15.201  1.00  0.00    -0.006 C 
HETATM   14  C22 UNL     1     -12.498   3.075 -16.485  1.00  0.00     0.021 C 
HETATM   15  C23 UNL     1     -12.101   3.746 -14.111  1.00  0.00     0.019 C 
HETATM   16  C24 UNL     1     -12.277   2.817 -12.936  1.00  0.00     0.036 C 
ENDROOT
BRANCH   3  17
HETATM   17  C4  UNL     1     -13.550  -0.135 -14.786  1.00  0.00     0.021 C 
BRANCH  17  18
HETATM   18  C5  UNL     1     -13.131  -0.750 -16.024  1.00  0.00     0.069 C 
HETATM   19  C6  UNL     1     -11.674  -0.942 -16.302  1.00  0.00     0.050 C 
HETATM   20  C7  UNL     1     -13.817  -0.373 -17.303  1.00  0.00     0.050 C 
BRANCH  18  21
HETATM   21  O1  UNL     1     -13.574  -2.147 -15.878  1.00  0.00    -0.387 OA
ATOM     22  H1  UNL     1     -13.226  -2.401 -15.031  1.00  0.00     0.211 HD
ENDBRANCH  18  21
ENDBRANCH  17  18
ENDBRANCH   3  17
BRANCH  12  23
HETATM   23  C20 UNL     1     -12.886   5.928 -15.669  1.00  0.00     0.178 C 
HETATM   24  O3  UNL     1     -12.247   6.219 -16.708  1.00  0.00    -0.648 OA
HETATM   25  O4  UNL     1     -12.658   6.825 -14.604  1.00  0.00    -0.648 OA
ENDBRANCH  12  23
BRANCH   7  26
HETATM   26  O2  UNL     1     -18.942   1.593 -14.534  1.00  0.00    -0.351 OA
BRANCH  26  27
HETATM   27  C12 UNL     1     -19.913   1.657 -13.536  1.00  0.00     0.120 C 
HETATM   28  C13 UNL     1     -20.931   2.707 -13.845  1.00  0.00     0.040 C 
HETATM   29  C14 UNL     1     -20.573   0.300 -13.324  1.00  0.00     0.040 C 
ENDBRANCH  26  27
ENDBRANCH   7  26
TORSDOF 6
ENDMDL
MODEL 3
REMARK VINA RESULT: -6.356518898      2.798      6.254
REMARK  6 active torsions:
REMARK  status: ('A' for Active; 'I' for Inactive)
REMARK    1  A    between atoms: C3_3  and  C4_4 
REMARK    2  A    between atoms: C4_4  and  C5_5 
REMARK    3  A    between atoms: C5_5  and  O1_8 
REMARK    4  A    between atoms: C11_13  and  O2_14 
REMARK    5  A    between atoms: O2_14  and  C12_15 
REMARK    6  A    between atoms: C19_22  and  C20_23 
ROOT
HETATM    1  C1  UNL     1      -9.927  -5.086 -13.415  1.00  0.00     0.044 C 
HETATM    2  C2  UNL     1     -10.695  -4.695 -12.229  1.00  0.00    -0.073 C 
HETATM    3  C3  UNL     1     -10.612  -5.359 -11.020  1.00  0.00    -0.032 C 
HETATM    4  C8  UNL     1     -11.418  -4.683  -9.983  1.00  0.00    -0.056 C 
HETATM    5  C9  UNL     1     -11.084  -4.921  -8.564  1.00  0.00     0.027 C 
HETATM    6  C10 UNL     1      -9.861  -4.046  -8.205  1.00  0.00     0.073 C 
HETATM    7  C11 UNL     1      -9.749  -3.753  -6.762  1.00  0.00     0.043 C 
HETATM    8  C15 UNL     1     -10.811  -3.243  -6.161  1.00  0.00     0.006 C 
HETATM    9  C16 UNL     1     -11.979  -3.057  -7.106  1.00  0.00     0.035 C 
HETATM   10  C17 UNL     1     -12.159  -4.487  -7.645  1.00  0.00    -0.002 C 
HETATM   11  C18 UNL     1     -13.570  -4.618  -8.102  1.00  0.00     0.022 C 
HETATM   12  C19 UNL     1     -13.702  -3.916  -9.402  1.00  0.00     0.099 C 
HETATM   13  C21 UNL     1     -12.855  -4.700 -10.398  1.00  0.00    -0.006 C 
HETATM   14  C22 UNL     1     -13.434  -6.061 -10.465  1.00  0.00     0.021 C 
HETATM   15  C23 UNL     1     -12.988  -3.937 -11.703  1.00  0.00     0.019 C 
HETATM   16  C24 UNL     1     -11.643  -3.564 -12.274  1.00  0.00     0.036 C 
ENDROOT
BRANCH   3  17
HETATM   17  C4  UNL     1      -9.716  -6.473 -11.016  1.00  0.00     0.021 C 
BRANCH  17  18
HETATM   18  C5  UNL     1     -10.019  -7.885 -10.985  1.00  0.00     0.069 C 
HETATM   19  C6  UNL     1     -11.057  -8.442 -11.907  1.00  0.00     0.050 C 
HETATM   20  C7  UNL     1     -10.125  -8.586  -9.664  1.00  0.00     0.050 C 
BRANCH  18  21
HETATM   21  O1  UNL     1      -8.800  -8.508 -11.528  1.00  0.00    -0.387 OA
ATOM     22  H1  UNL     1      -8.672  -8.058 -12.355  1.00  0.00     0.211 HD
ENDBRANCH  18  21
ENDBRANCH  17  18
ENDBRANCH   3  17
BRANCH  12  23
HETATM   23  C20 UNL     1     -15.052  -3.622  -9.847  1.00  0.00     0.178 C 
HETATM   24  O3  UNL     1     -15.997  -4.418 -10.060  1.00  0.00    -0.648 OA
HETATM   25  O4  UNL     1     -15.394  -2.273 -10.084  1.00  0.00    -0.648 OA
ENDBRANCH  12  23
BRANCH   7  26
HETATM   26  O2  UNL     1      -8.558  -4.003  -6.048  1.00  0.00    -0.351 OA
BRANCH  26  27
HETATM   27  C12 UNL     1      -8.400  -5.112  -5.217  1.00  0.00     0.120 C 
HETATM   28  C13 UNL     1      -8.915  -4.828  -3.843  1.00  0.00     0.040 C 
HETATM   29  C14 UNL     1      -9.072  -6.343  -5.811  1.00  0.00     0.040 C 
ENDBRANCH  26  27
ENDBRANCH   7  26
TORSDOF 6
ENDMDL
MODEL 4
REMARK VINA RESULT: -6.354861371      2.352      5.462
REMARK  6 active torsions:
REMARK  status: ('A' for Active; 'I' for Inactive)
REMARK    1  A    between atoms: C3_3  and  C4_4 
REMARK    2  A    between atoms: C4_4  and  C5_5 
REMARK    3  A    between atoms: C5_5  and  O1_8 
REMARK    4  A    between atoms: C11_13  and  O2_14 
REMARK    5  A    between atoms: O2_14  and  C12_15 
REMARK    6  A    between atoms: C19_22  and  C20_23 
ROOT
HETATM    1  C1  UNL     1     -16.663  -5.680 -11.444  1.00  0.00     0.044 C 
HETATM    2  C2  UNL     1     -15.483  -4.818 -11.331  1.00  0.00    -0.073 C 
HETATM    3  C3  UNL     1     -14.523  -4.713 -12.321  1.00  0.00    -0.032 C 
HETATM    4  C8  UNL     1     -13.508  -3.697 -11.975  1.00  0.00    -0.056 C 
HETATM    5  C9  UNL     1     -12.717  -3.092 -13.065  1.00  0.00     0.027 C 
HETATM    6  C10 UNL     1     -13.586  -2.011 -13.747  1.00  0.00     0.073 C 
HETATM    7  C11 UNL     1     -12.800  -0.978 -14.450  1.00  0.00     0.043 C 
HETATM    8  C15 UNL     1     -11.847  -0.368 -13.765  1.00  0.00     0.006 C 
HETATM    9  C16 UNL     1     -11.744  -0.870 -12.341  1.00  0.00     0.035 C 
HETATM   10  C17 UNL     1     -11.520  -2.376 -12.570  1.00  0.00    -0.002 C 
HETATM   11  C18 UNL     1     -10.827  -2.913 -11.366  1.00  0.00     0.022 C 
HETATM   12  C19 UNL     1     -11.825  -3.042 -10.277  1.00  0.00     0.099 C 
HETATM   13  C21 UNL     1     -12.807  -4.119 -10.723  1.00  0.00    -0.006 C 
HETATM   14  C22 UNL     1     -12.022  -5.366 -10.878  1.00  0.00     0.021 C 
HETATM   15  C23 UNL     1     -13.828  -4.200  -9.602  1.00  0.00     0.019 C 
HETATM   16  C24 UNL     1     -15.235  -4.022 -10.113  1.00  0.00     0.036 C 
ENDROOT
BRANCH   3  17
HETATM   17  C4  UNL     1     -14.768  -5.524 -13.473  1.00  0.00     0.021 C 
BRANCH  17  18
HETATM   18  C5  UNL     1     -14.059  -6.698 -13.927  1.00  0.00     0.069 C 
HETATM   19  C6  UNL     1     -14.143  -7.967 -13.140  1.00  0.00     0.050 C 
HETATM   20  C7  UNL     1     -12.665  -6.555 -14.459  1.00  0.00     0.050 C 
BRANCH  18  21
HETATM   21  O1  UNL     1     -14.782  -7.080 -15.152  1.00  0.00    -0.387 OA
ATOM     22  H1  UNL     1     -14.974  -8.000 -15.016  1.00  0.00     0.211 HD
ENDBRANCH  18  21
ENDBRANCH  17  18
ENDBRANCH   3  17
BRANCH  12  23
HETATM   23  C20 UNL     1     -11.302  -3.209  -8.934  1.00  0.00     0.178 C 
HETATM   24  O3  UNL     1     -10.461  -4.042  -8.519  1.00  0.00    -0.648 OA
HETATM   25  O4  UNL     1     -11.773  -2.342  -7.924  1.00  0.00    -0.648 OA
ENDBRANCH  12  23
BRANCH   7  26
HETATM   26  O2  UNL     1     -13.051  -0.650 -15.800  1.00  0.00    -0.351 OA
BRANCH  26  27
HETATM   27  C12 UNL     1     -13.594   0.575 -16.185  1.00  0.00     0.120 C 
HETATM   28  C13 UNL     1     -14.017   0.546 -17.619  1.00  0.00     0.040 C 
HETATM   29  C14 UNL     1     -14.754   0.971 -15.280  1.00  0.00     0.040 C 
ENDBRANCH  26  27
ENDBRANCH   7  26
TORSDOF 6
ENDMDL
MODEL 5
REMARK VINA RESULT: -6.349134571      5.957      9.519
REMARK  6 active torsions:
REMARK  status: ('A' for Active; 'I' for Inactive)
REMARK    1  A    between atoms: C3_3  and  C4_4 
REMARK    2  A    between atoms: C4_4  and  C5_5 
REMARK    3  A    between atoms: C5_5  and  O1_8 
REMARK    4  A    between atoms: C11_13  and  O2_14 
REMARK    5  A    between atoms: O2_14  and  C12_15 
REMARK    6  A    between atoms: C19_22  and  C20_23 
ROOT
HETATM    1  C1  UNL     1     -11.992   0.119 -12.396  1.00  0.00     0.044 C 
HETATM    2  C2  UNL     1     -12.809   1.173 -13.004  1.00  0.00    -0.073 C 
HETATM    3  C3  UNL     1     -13.725   0.936 -14.012  1.00  0.00    -0.032 C 
HETATM    4  C8  UNL     1     -14.471   2.163 -14.356  1.00  0.00    -0.056 C 
HETATM    5  C9  UNL     1     -15.784   2.028 -15.017  1.00  0.00     0.027 C 
HETATM    6  C10 UNL     1     -16.832   1.677 -13.936  1.00  0.00     0.073 C 
HETATM    7  C11 UNL     1     -18.213   2.039 -14.314  1.00  0.00     0.043 C 
HETATM    8  C15 UNL     1     -18.429   3.283 -14.709  1.00  0.00     0.006 C 
HETATM    9  C16 UNL     1     -17.169   4.122 -14.699  1.00  0.00     0.035 C 
HETATM   10  C17 UNL     1     -16.253   3.296 -15.619  1.00  0.00    -0.002 C 
HETATM   11  C18 UNL     1     -15.235   4.224 -16.184  1.00  0.00     0.022 C 
HETATM   12  C19 UNL     1     -14.228   4.505 -15.131  1.00  0.00     0.099 C 
HETATM   13  C21 UNL     1     -13.508   3.188 -14.866  1.00  0.00    -0.006 C 
HETATM   14  C22 UNL     1     -12.855   2.802 -16.139  1.00  0.00     0.021 C 
HETATM   15  C23 UNL     1     -12.513   3.506 -13.765  1.00  0.00     0.019 C 
HETATM   16  C24 UNL     1     -12.670   2.582 -12.585  1.00  0.00     0.036 C 
ENDROOT
BRANCH   3  17
HETATM   17  C4  UNL     1     -13.810  -0.431 -14.425  1.00  0.00     0.021 C 
BRANCH  17  18
HETATM   18  C5  UNL     1     -13.138  -1.094 -15.519  1.00  0.00     0.069 C 
HETATM   19  C6  UNL     1     -13.114  -2.588 -15.578  1.00  0.00     0.050 C 
HETATM   20  C7  UNL     1     -11.815  -0.574 -15.993  1.00  0.00     0.050 C 
BRANCH  18  21
HETATM   21  O1  UNL     1     -13.988  -0.781 -16.680  1.00  0.00    -0.387 OA
ATOM     22  H1  UNL     1     -13.576  -0.010 -17.052  1.00  0.00     0.211 HD
ENDBRANCH  18  21
ENDBRANCH  17  18
ENDBRANCH   3  17
BRANCH  12  23
HETATM   23  C20 UNL     1     -13.358   5.645 -15.353  1.00  0.00     0.178 C 
HETATM   24  O3  UNL     1     -12.760   6.350 -14.505  1.00  0.00    -0.648 OA
HETATM   25  O4  UNL     1     -13.122   6.052 -16.684  1.00  0.00    -0.648 OA
ENDBRANCH  12  23
BRANCH   7  26
HETATM   26  O2  UNL     1     -19.265   1.100 -14.256  1.00  0.00    -0.351 OA
BRANCH  26  27
HETATM   27  C12 UNL     1     -20.283   1.170 -13.306  1.00  0.00     0.120 C 
HETATM   28  C13 UNL     1     -21.245   2.266 -13.633  1.00  0.00     0.040 C 
HETATM   29  C14 UNL     1     -21.000  -0.167 -13.170  1.00  0.00     0.040 C 
ENDBRANCH  26  27
ENDBRANCH   7  26
TORSDOF 6
ENDMDL
