MODEL 1
REMARK VINA RESULT: -6.129638340      0.000      0.000
REMARK  9 active torsions:
REMARK  status: ('A' for Active; 'I' for Inactive)
REMARK    1  A    between atoms: C4_9  and  C5_10 
REMARK    2  A    between atoms: C5_10  and  C6_11 
REMARK    3  A    between atoms: C7_14  and  N4_15 
REMARK       I    between atoms: N4_15  and  C8_17 
REMARK    4  A    between atoms: C8_17  and  C9_19 
REMARK    5  A    between atoms: C9_19  and  N5_20 
REMARK    6  A    between atoms: N5_20  and  C12_23 
REMARK    7  A    between atoms: C12_23  and  C13_24 
REMARK    8  A    between atoms: C13_24  and  N6_25 
REMARK    9  A    between atoms: N6_25  and  N7_27 
ROOT
HETATM    1  C6  UNL     1      90.573  97.360 -43.738  1.00  0.00     0.056 A 
HETATM    2  N3  UNL     1      90.428  98.284 -42.767  1.00  0.00    -0.341 N 
ATOM      3  H3  UNL     1      91.069  98.264 -41.973  1.00  0.00     0.167 HD
HETATM    4  C7  UNL     1      89.472  99.231 -42.799  1.00  0.00     0.118 A 
HETATM    5  C14 UNL     1      88.560  99.329 -43.838  1.00  0.00     0.034 A 
HETATM    6  C15 UNL     1      87.510 100.379 -43.861  1.00  0.00     0.056 C 
HETATM    7  C16 UNL     1      88.681  98.399 -44.850  1.00  0.00     0.201 A 
HETATM    8  O3  UNL     1      87.859  98.472 -45.806  1.00  0.00    -0.286 OA
HETATM    9  C17 UNL     1      89.670  97.437 -44.795  1.00  0.00     0.088 A 
HETATM   10 BR1  UNL     1      89.840  96.157 -46.183  1.00  0.00    -0.044 Br
ENDROOT
BRANCH   4  11
HETATM   11  N4  UNL     1      89.361 100.181 -41.750  1.00  0.00    -0.311 N 
HETATM   12  C8  UNL     1      90.234 101.285 -41.594  1.00  0.00     0.249 C 
HETATM   13  O2  UNL     1      89.885 102.156 -40.757  1.00  0.00    -0.271 OA
ATOM     14  H4  UNL     1      88.609 100.061 -41.071  1.00  0.00     0.170 HD
BRANCH  12  15
HETATM   15  C9  UNL     1      91.485 101.446 -42.346  1.00  0.00     0.339 C 
BRANCH  15  16
HETATM   16  N5  UNL     1      91.371 102.224 -43.538  1.00  0.00    -0.062 N 
HETATM   17  C10 UNL     1      90.142 102.981 -43.610  1.00  0.00     0.273 C 
HETATM   18  C11 UNL     1      92.451 103.225 -43.461  1.00  0.00     0.273 C 
BRANCH  16  19
HETATM   19  C12 UNL     1      91.633 101.463 -44.744  1.00  0.00     0.283 C 
BRANCH  19  20
HETATM   20  C13 UNL     1      92.680 100.447 -44.566  1.00  0.00     0.107 C 
BRANCH  20  21
HETATM   21  N6  UNL     1      92.776  99.481 -45.403  1.00  0.00    -0.321 N 
ATOM     22  H6  UNL     1      93.395  98.694 -45.207  1.00  0.00     0.185 HD
BRANCH  21  23
HETATM   23  N7  UNL     1      92.031  99.506 -46.584  1.00  0.00    -0.346 N 
ATOM     24  H72 UNL     1      91.081  99.878 -46.563  1.00  0.00     0.176 HD
ATOM     25  H71 UNL     1      92.438  99.155 -47.451  1.00  0.00     0.176 HD
ENDBRANCH  21  23
ENDBRANCH  20  21
ENDBRANCH  19  20
ENDBRANCH  16  19
ENDBRANCH  15  16
ENDBRANCH  12  15
ENDBRANCH   4  11
BRANCH   1  26
HETATM   26  C5  UNL     1      91.609  96.338 -43.700  1.00  0.00     0.050 C 
BRANCH  26  27
HETATM   27  C4  UNL     1      91.530  95.297 -42.892  1.00  0.00     0.063 A 
HETATM   28  C2  UNL     1      91.453  93.966 -43.217  1.00  0.00     0.054 A 
HETATM   29  C1  UNL     1      91.444  93.438 -44.438  1.00  0.00     0.045 C 
HETATM   30  N1  UNL     1      91.390  93.300 -42.052  1.00  0.00    -0.298 N 
HETATM   31  N2  UNL     1      91.423  94.140 -41.039  1.00  0.00    -0.265 N 
ATOM     32  H1  UNL     1      91.325  92.286 -41.965  1.00  0.00     0.187 HD
HETATM   33  C3  UNL     1      91.509  95.381 -41.525  1.00  0.00     0.272 A 
ATOM     34  H2  UNL     1      91.390  93.886 -40.052  1.00  0.00     0.190 HD
HETATM   35  O1  UNL     1      91.563  96.465 -40.844  1.00  0.00    -0.266 OA
ENDBRANCH  26  27
ENDBRANCH   1  26
TORSDOF 9
ENDMDL
MODEL 2
REMARK VINA RESULT: -6.045870066      1.393      2.176
REMARK  9 active torsions:
REMARK  status: ('A' for Active; 'I' for Inactive)
REMARK    1  A    between atoms: C4_9  and  C5_10 
REMARK    2  A    between atoms: C5_10  and  C6_11 
REMARK    3  A    between atoms: C7_14  and  N4_15 
REMARK       I    between atoms: N4_15  and  C8_17 
REMARK    4  A    between atoms: C8_17  and  C9_19 
REMARK    5  A    between atoms: C9_19  and  N5_20 
REMARK    6  A    between atoms: N5_20  and  C12_23 
REMARK    7  A    between atoms: C12_23  and  C13_24 
REMARK    8  A    between atoms: C13_24  and  N6_25 
REMARK    9  A    between atoms: N6_25  and  N7_27 
ROOT
HETATM    1  C6  UNL     1      90.475  97.245 -43.858  1.00  0.00     0.056 A 
HETATM    2  N3  UNL     1      90.259  98.196 -42.926  1.00  0.00    -0.341 N 
ATOM      3  H3  UNL     1      90.888  98.247 -42.124  1.00  0.00     0.167 HD
HETATM    4  C7  UNL     1      89.247  99.080 -43.008  1.00  0.00     0.118 A 
HETATM    5  C14 UNL     1      88.347  99.081 -44.062  1.00  0.00     0.034 A 
HETATM    6  C15 UNL     1      87.235 100.061 -44.141  1.00  0.00     0.056 C 
HETATM    7  C16 UNL     1      88.539  98.121 -45.034  1.00  0.00     0.201 A 
HETATM    8  O3  UNL     1      87.729  98.105 -46.003  1.00  0.00    -0.286 OA
HETATM    9  C17 UNL     1      89.585  97.225 -44.928  1.00  0.00     0.088 A 
HETATM   10 BR1  UNL     1      89.854  95.904 -46.262  1.00  0.00    -0.044 Br
ENDROOT
BRANCH   4  11
HETATM   11  N4  UNL     1      89.062 100.061 -42.000  1.00  0.00    -0.311 N 
HETATM   12  C8  UNL     1      89.527 101.395 -42.107  1.00  0.00     0.249 C 
HETATM   13  O2  UNL     1      89.104 102.203 -41.241  1.00  0.00    -0.271 OA
ATOM     14  H4  UNL     1      88.566  99.791 -41.151  1.00  0.00     0.170 HD
BRANCH  12  15
HETATM   15  C9  UNL     1      90.451 101.853 -43.152  1.00  0.00     0.339 C 
BRANCH  15  16
HETATM   16  N5  UNL     1      91.835 101.700 -42.838  1.00  0.00    -0.062 N 
HETATM   17  C10 UNL     1      92.556 100.905 -43.806  1.00  0.00     0.273 C 
HETATM   18  C11 UNL     1      92.413 103.054 -42.925  1.00  0.00     0.273 C 
BRANCH  16  19
HETATM   19  C12 UNL     1      92.067 101.267 -41.473  1.00  0.00     0.283 C 
BRANCH  19  20
HETATM   20  C13 UNL     1      92.877 102.219 -40.699  1.00  0.00     0.107 C 
BRANCH  20  21
HETATM   21  N6  UNL     1      93.961 101.824 -40.141  1.00  0.00    -0.321 N 
ATOM     22  H6  UNL     1      93.922 101.212 -39.326  1.00  0.00     0.185 HD
BRANCH  21  23
HETATM   23  N7  UNL     1      95.196 102.231 -40.652  1.00  0.00    -0.346 N 
ATOM     24  H72 UNL     1      95.338 103.215 -40.877  1.00  0.00     0.176 HD
ATOM     25  H71 UNL     1      95.938 101.547 -40.793  1.00  0.00     0.176 HD
ENDBRANCH  21  23
ENDBRANCH  20  21
ENDBRANCH  19  20
ENDBRANCH  16  19
ENDBRANCH  15  16
ENDBRANCH  12  15
ENDBRANCH   4  11
BRANCH   1  26
HETATM   26  C5  UNL     1      91.571  96.291 -43.766  1.00  0.00     0.050 C 
BRANCH  26  27
HETATM   27  C4  UNL     1      91.529  95.262 -42.940  1.00  0.00     0.063 A 
HETATM   28  C2  UNL     1      91.506  93.924 -43.243  1.00  0.00     0.054 A 
HETATM   29  C1  UNL     1      91.523  93.376 -44.455  1.00  0.00     0.045 C 
HETATM   30  N1  UNL     1      91.465  93.275 -42.068  1.00  0.00    -0.298 N 
HETATM   31  N2  UNL     1      91.461  94.133 -41.069  1.00  0.00    -0.265 N 
ATOM     32  H1  UNL     1      91.439  92.261 -41.964  1.00  0.00     0.187 HD
HETATM   33  C3  UNL     1      91.500  95.368 -41.575  1.00  0.00     0.272 A 
ATOM     34  H2  UNL     1      91.434  93.894 -40.077  1.00  0.00     0.190 HD
HETATM   35  O1  UNL     1      91.509  96.464 -40.912  1.00  0.00    -0.266 OA
ENDBRANCH  26  27
ENDBRANCH   1  26
TORSDOF 9
ENDMDL
MODEL 3
REMARK VINA RESULT: -5.840866276      0.900      1.435
REMARK  9 active torsions:
REMARK  status: ('A' for Active; 'I' for Inactive)
REMARK    1  A    between atoms: C4_9  and  C5_10 
REMARK    2  A    between atoms: C5_10  and  C6_11 
REMARK    3  A    between atoms: C7_14  and  N4_15 
REMARK       I    between atoms: N4_15  and  C8_17 
REMARK    4  A    between atoms: C8_17  and  C9_19 
REMARK    5  A    between atoms: C9_19  and  N5_20 
REMARK    6  A    between atoms: N5_20  and  C12_23 
REMARK    7  A    between atoms: C12_23  and  C13_24 
REMARK    8  A    between atoms: C13_24  and  N6_25 
REMARK    9  A    between atoms: N6_25  and  N7_27 
ROOT
HETATM    1  C6  UNL     1      90.510  97.482 -43.659  1.00  0.00     0.056 A 
HETATM    2  N3  UNL     1      90.348  98.410 -42.693  1.00  0.00    -0.341 N 
ATOM      3  H3  UNL     1      90.980  98.397 -41.892  1.00  0.00     0.167 HD
HETATM    4  C7  UNL     1      89.388  99.352 -42.742  1.00  0.00     0.118 A 
HETATM    5  C14 UNL     1      88.489  99.441 -43.792  1.00  0.00     0.034 A 
HETATM    6  C15 UNL     1      87.434 100.485 -43.833  1.00  0.00     0.056 C 
HETATM    7  C16 UNL     1      88.626  98.507 -44.798  1.00  0.00     0.201 A 
HETATM    8  O3  UNL     1      87.816  98.571 -45.765  1.00  0.00    -0.286 OA
HETATM    9  C17 UNL     1      89.620  97.550 -44.726  1.00  0.00     0.088 A 
HETATM   10 BR1  UNL     1      89.813  96.264 -46.107  1.00  0.00    -0.044 Br
ENDROOT
BRANCH   4  11
HETATM   11  N4  UNL     1      89.260 100.306 -41.699  1.00  0.00    -0.311 N 
HETATM   12  C8  UNL     1      90.141 101.401 -41.522  1.00  0.00     0.249 C 
HETATM   13  O2  UNL     1      89.780 102.279 -40.697  1.00  0.00    -0.271 OA
ATOM     14  H4  UNL     1      88.489 100.197 -41.040  1.00  0.00     0.170 HD
BRANCH  12  15
HETATM   15  C9  UNL     1      91.413 101.545 -42.240  1.00  0.00     0.339 C 
BRANCH  15  16
HETATM   16  N5  UNL     1      91.328 102.263 -43.471  1.00  0.00    -0.062 N 
HETATM   17  C10 UNL     1      90.119 103.045 -43.593  1.00  0.00     0.273 C 
HETATM   18  C11 UNL     1      92.431 103.241 -43.436  1.00  0.00     0.273 C 
BRANCH  16  19
HETATM   19  C12 UNL     1      91.581 101.436 -44.635  1.00  0.00     0.283 C 
BRANCH  19  20
HETATM   20  C13 UNL     1      92.676 100.476 -44.430  1.00  0.00     0.107 C 
BRANCH  20  21
HETATM   21  N6  UNL     1      92.862  99.535 -45.279  1.00  0.00    -0.321 N 
ATOM     22  H6  UNL     1      93.542  98.799 -45.086  1.00  0.00     0.185 HD
BRANCH  21  23
HETATM   23  N7  UNL     1      92.132  99.517 -46.471  1.00  0.00    -0.346 N 
ATOM     24  H72 UNL     1      92.505 100.002 -47.287  1.00  0.00     0.176 HD
ATOM     25  H71 UNL     1      91.241  99.023 -46.514  1.00  0.00     0.176 HD
ENDBRANCH  21  23
ENDBRANCH  20  21
ENDBRANCH  19  20
ENDBRANCH  16  19
ENDBRANCH  15  16
ENDBRANCH  12  15
ENDBRANCH   4  11
BRANCH   1  26
HETATM   26  C5  UNL     1      91.550  96.465 -43.603  1.00  0.00     0.050 C 
BRANCH  26  27
HETATM   27  C4  UNL     1      91.486  95.449 -42.763  1.00  0.00     0.063 A 
HETATM   28  C2  UNL     1      91.637  95.458 -41.399  1.00  0.00     0.054 A 
HETATM   29  C1  UNL     1      91.884  96.512 -40.626  1.00  0.00     0.045 C 
HETATM   30  N1  UNL     1      91.485  94.185 -40.998  1.00  0.00    -0.298 N 
HETATM   31  N2  UNL     1      91.250  93.403 -42.030  1.00  0.00    -0.265 N 
ATOM     32  H1  UNL     1      91.543  93.870 -40.030  1.00  0.00     0.187 HD
HETATM   33  C3  UNL     1      91.245  94.154 -43.134  1.00  0.00     0.272 A 
ATOM     34  H2  UNL     1      91.098  92.394 -41.992  1.00  0.00     0.190 HD
HETATM   35  O1  UNL     1      91.051  93.746 -44.333  1.00  0.00    -0.266 OA
ENDBRANCH  26  27
ENDBRANCH   1  26
TORSDOF 9
ENDMDL
MODEL 4
REMARK VINA RESULT: -5.830648621      1.966      3.285
REMARK  9 active torsions:
REMARK  status: ('A' for Active; 'I' for Inactive)
REMARK    1  A    between atoms: C4_9  and  C5_10 
REMARK    2  A    between atoms: C5_10  and  C6_11 
REMARK    3  A    between atoms: C7_14  and  N4_15 
REMARK       I    between atoms: N4_15  and  C8_17 
REMARK    4  A    between atoms: C8_17  and  C9_19 
REMARK    5  A    between atoms: C9_19  and  N5_20 
REMARK    6  A    between atoms: N5_20  and  C12_23 
REMARK    7  A    between atoms: C12_23  and  C13_24 
REMARK    8  A    between atoms: C13_24  and  N6_25 
REMARK    9  A    between atoms: N6_25  and  N7_27 
ROOT
HETATM    1  C6  UNL     1      91.108  98.280 -43.568  1.00  0.00     0.056 A 
HETATM    2  N3  UNL     1      92.015  99.196 -43.170  1.00  0.00    -0.341 N 
ATOM      3  H3  UNL     1      92.358  99.158 -42.210  1.00  0.00     0.167 HD
HETATM    4  C7  UNL     1      92.486 100.157 -43.985  1.00  0.00     0.118 A 
HETATM    5  C14 UNL     1      92.074 100.280 -45.302  1.00  0.00     0.034 A 
HETATM    6  C15 UNL     1      92.602 101.346 -46.192  1.00  0.00     0.056 C 
HETATM    7  C16 UNL     1      91.146  99.359 -45.744  1.00  0.00     0.201 A 
HETATM    8  O3  UNL     1      90.758  99.455 -46.941  1.00  0.00    -0.286 OA
HETATM    9  C17 UNL     1      90.678  98.382 -44.888  1.00  0.00     0.088 A 
HETATM   10 BR1  UNL     1      89.404  97.113 -45.490  1.00  0.00    -0.044 Br
ENDROOT
BRANCH   4  11
HETATM   11  N4  UNL     1      93.440 101.098 -43.517  1.00  0.00    -0.311 N 
HETATM   12  C8  UNL     1      93.125 102.168 -42.644  1.00  0.00     0.249 C 
HETATM   13  O2  UNL     1      94.101 102.784 -42.143  1.00  0.00    -0.271 OA
ATOM     14  H4  UNL     1      94.407 100.997 -43.825  1.00  0.00     0.170 HD
BRANCH  12  15
HETATM   15  C9  UNL     1      91.752 102.571 -42.314  1.00  0.00     0.339 C 
BRANCH  15  16
HETATM   16  N5  UNL     1      91.345 102.270 -40.979  1.00  0.00    -0.062 N 
HETATM   17  C10 UNL     1      92.196 101.300 -40.327  1.00  0.00     0.273 C 
HETATM   18  C11 UNL     1      91.518 103.523 -40.220  1.00  0.00     0.273 C 
BRANCH  16  19
HETATM   19  C12 UNL     1      89.937 101.943 -40.871  1.00  0.00     0.283 C 
BRANCH  19  20
HETATM   20  C13 UNL     1      89.415 101.251 -42.059  1.00  0.00     0.107 C 
BRANCH  20  21
HETATM   21  N6  UNL     1      88.530 100.334 -41.921  1.00  0.00    -0.321 N 
ATOM     22  H6  UNL     1      88.816  99.364 -41.791  1.00  0.00     0.185 HD
BRANCH  21  23
HETATM   23  N7  UNL     1      87.173 100.666 -41.950  1.00  0.00    -0.346 N 
ATOM     24  H72 UNL     1      86.772 101.034 -42.813  1.00  0.00     0.176 HD
ATOM     25  H71 UNL     1      86.600 100.538 -41.117  1.00  0.00     0.176 HD
ENDBRANCH  21  23
ENDBRANCH  20  21
ENDBRANCH  19  20
ENDBRANCH  16  19
ENDBRANCH  15  16
ENDBRANCH  12  15
ENDBRANCH   4  11
BRANCH   1  26
HETATM   26  C5  UNL     1      90.601  97.241 -42.684  1.00  0.00     0.050 C 
BRANCH  26  27
HETATM   27  C4  UNL     1      91.375  96.270 -42.237  1.00  0.00     0.063 A 
HETATM   28  C2  UNL     1      91.606  95.036 -42.793  1.00  0.00     0.054 A 
HETATM   29  C1  UNL     1      91.089  94.556 -43.921  1.00  0.00     0.045 C 
HETATM   30  N1  UNL     1      92.462  94.410 -41.970  1.00  0.00    -0.298 N 
HETATM   31  N2  UNL     1      92.767  95.181 -40.948  1.00  0.00    -0.265 N 
ATOM     32  H1  UNL     1      92.824  93.467 -42.115  1.00  0.00     0.187 HD
HETATM   33  C3  UNL     1      92.111  96.337 -41.084  1.00  0.00     0.272 A 
ATOM     34  H2  UNL     1      93.397  94.938 -40.183  1.00  0.00     0.190 HD
HETATM   35  O1  UNL     1      92.155  97.337 -40.286  1.00  0.00    -0.266 OA
ENDBRANCH  26  27
ENDBRANCH   1  26
TORSDOF 9
ENDMDL
MODEL 5
REMARK VINA RESULT: -5.807179445      1.704      2.626
REMARK  9 active torsions:
REMARK  status: ('A' for Active; 'I' for Inactive)
REMARK    1  A    between atoms: C4_9  and  C5_10 
REMARK    2  A    between atoms: C5_10  and  C6_11 
REMARK    3  A    between atoms: C7_14  and  N4_15 
REMARK       I    between atoms: N4_15  and  C8_17 
REMARK    4  A    between atoms: C8_17  and  C9_19 
REMARK    5  A    between atoms: C9_19  and  N5_20 
REMARK    6  A    between atoms: N5_20  and  C12_23 
REMARK    7  A    between atoms: C12_23  and  C13_24 
REMARK    8  A    between atoms: C13_24  and  N6_25 
REMARK    9  A    between atoms: N6_25  and  N7_27 
ROOT
HETATM    1  C6  UNL     1      90.478  97.305 -43.776  1.00  0.00     0.056 A 
HETATM    2  N3  UNL     1      90.230  98.262 -42.860  1.00  0.00    -0.341 N 
ATOM      3  H3  UNL     1      90.836  98.325 -42.042  1.00  0.00     0.167 HD
HETATM    4  C7  UNL     1      89.215  99.139 -42.978  1.00  0.00     0.118 A 
HETATM    5  C14 UNL     1      88.344  99.124 -44.056  1.00  0.00     0.034 A 
HETATM    6  C15 UNL     1      87.228 100.096 -44.174  1.00  0.00     0.056 C 
HETATM    7  C16 UNL     1      88.570  98.156 -45.013  1.00  0.00     0.201 A 
HETATM    8  O3  UNL     1      87.787  98.126 -46.003  1.00  0.00    -0.286 OA
HETATM    9  C17 UNL     1      89.617  97.269 -44.870  1.00  0.00     0.088 A 
HETATM   10 BR1  UNL     1      89.932  95.937 -46.183  1.00  0.00    -0.044 Br
ENDROOT
BRANCH   4  11
HETATM   11  N4  UNL     1      88.996 100.128 -41.985  1.00  0.00    -0.311 N 
HETATM   12  C8  UNL     1      89.498 101.450 -42.068  1.00  0.00     0.249 C 
HETATM   13  O2  UNL     1      89.045 102.272 -41.230  1.00  0.00    -0.271 OA
ATOM     14  H4  UNL     1      88.446  99.873 -41.165  1.00  0.00     0.170 HD
BRANCH  12  15
HETATM   15  C9  UNL     1      90.491 101.883 -43.060  1.00  0.00     0.339 C 
BRANCH  15  16
HETATM   16  N5  UNL     1      91.831 101.955 -42.574  1.00  0.00    -0.062 N 
HETATM   17  C10 UNL     1      92.819 101.606 -43.569  1.00  0.00     0.273 C 
HETATM   18  C11 UNL     1      92.064 103.379 -42.266  1.00  0.00     0.273 C 
BRANCH  16  19
HETATM   19  C12 UNL     1      92.024 101.251 -41.321  1.00  0.00     0.283 C 
BRANCH  19  20
HETATM   20  C13 UNL     1      92.762 102.043 -40.326  1.00  0.00     0.107 C 
BRANCH  20  21
HETATM   21  N6  UNL     1      93.934 101.672 -39.962  1.00  0.00    -0.321 N 
ATOM     22  H6  UNL     1      94.045 101.037 -39.171  1.00  0.00     0.185 HD
BRANCH  21  23
HETATM   23  N7  UNL     1      95.057 102.138 -40.649  1.00  0.00    -0.346 N 
ATOM     24  H72 UNL     1      95.551 101.504 -41.278  1.00  0.00     0.176 HD
ATOM     25  H71 UNL     1      95.372 103.098 -40.518  1.00  0.00     0.176 HD
ENDBRANCH  21  23
ENDBRANCH  20  21
ENDBRANCH  19  20
ENDBRANCH  16  19
ENDBRANCH  15  16
ENDBRANCH  12  15
ENDBRANCH   4  11
BRANCH   1  26
HETATM   26  C5  UNL     1      91.577  96.359 -43.645  1.00  0.00     0.050 C 
BRANCH  26  27
HETATM   27  C4  UNL     1      91.531  95.354 -42.791  1.00  0.00     0.063 A 
HETATM   28  C2  UNL     1      91.669  95.386 -41.425  1.00  0.00     0.054 A 
HETATM   29  C1  UNL     1      91.882  96.457 -40.666  1.00  0.00     0.045 C 
HETATM   30  N1  UNL     1      91.547  94.115 -41.008  1.00  0.00    -0.298 N 
HETATM   31  N2  UNL     1      91.342  93.312 -42.030  1.00  0.00    -0.265 N 
ATOM     32  H1  UNL     1      91.605  93.815 -40.035  1.00  0.00     0.187 HD
HETATM   33  C3  UNL     1      91.327  94.047 -43.145  1.00  0.00     0.272 A 
ATOM     34  H2  UNL     1      91.216  92.301 -41.979  1.00  0.00     0.190 HD
HETATM   35  O1  UNL     1      91.155  93.618 -44.340  1.00  0.00    -0.266 OA
ENDBRANCH  26  27
ENDBRANCH   1  26
TORSDOF 9
ENDMDL
