MODEL 1
REMARK VINA RESULT: -7.824725996      0.000      0.000
REMARK  7 active torsions:
REMARK  status: ('A' for Active; 'I' for Inactive)
REMARK    1  A    between atoms: C2_2  and  C3_3 
REMARK    2  A    between atoms: N2_22  and  C18_23 
REMARK    3  A    between atoms: C18_23  and  C19_24 
REMARK    4  A    between atoms: C19_24  and  C20_25 
REMARK    5  A    between atoms: C20_25  and  C21_26 
REMARK       I    between atoms: C21_26  and  N3_28 
REMARK    6  A    between atoms: C23_33  and  N6_34 
REMARK    7  A    between atoms: C24_38  and  C25_39 
ROOT
HETATM    1  C3  UNL     1      93.189 103.672 -44.480  1.00  0.00     0.032 A 
HETATM    2  C4  UNL     1      93.343 103.934 -43.112  1.00  0.00     0.030 A 
HETATM    3  C5  UNL     1      92.564 103.251 -42.184  1.00  0.00    -0.007 A 
HETATM    4  C6  UNL     1      91.646 102.311 -42.561  1.00  0.00     0.056 A 
HETATM    5  N1  UNL     1      91.515 102.082 -43.897  1.00  0.00    -0.322 N 
ATOM      6  H1  UNL     1      90.834 101.391 -44.212  1.00  0.00     0.169 HD
HETATM    7  C7  UNL     1      92.249 102.729 -44.813  1.00  0.00     0.256 A 
HETATM    8  O1  UNL     1      92.063 102.456 -46.038  1.00  0.00    -0.267 OA
HETATM    9  C8  UNL     1      91.073 101.444 -41.677  1.00  0.00     0.033 C 
HETATM   10  C9  UNL     1      90.113 100.558 -42.263  1.00  0.00     0.068 A 
HETATM   11  C10 UNL     1      88.841 101.149 -42.527  1.00  0.00     0.072 A 
HETATM   12 CL1  UNL     1      88.519 102.825 -42.121  1.00  0.00    -0.081 Cl
HETATM   13  C11 UNL     1      87.810 100.456 -43.111  1.00  0.00    -0.001 A 
HETATM   14  C12 UNL     1      86.581 101.060 -43.360  1.00  0.00     0.014 A 
HETATM   15  C13 UNL     1      85.575 100.336 -43.947  1.00  0.00     0.001 A 
HETATM   16  C14 UNL     1      85.754  99.025 -44.294  1.00  0.00     0.001 A 
HETATM   17  C15 UNL     1      86.955  98.394 -44.064  1.00  0.00     0.014 A 
HETATM   18  C16 UNL     1      87.972  99.147 -43.464  1.00  0.00    -0.009 A 
HETATM   19  C17 UNL     1      89.197  98.588 -43.205  1.00  0.00     0.103 A 
HETATM   20  N2  UNL     1      90.219  99.294 -42.621  1.00  0.00    -0.354 N 
HETATM   21  C23 UNL     1      91.630 101.535 -40.333  1.00  0.00     0.255 C 
HETATM   22  C24 UNL     1      91.828 102.963 -39.931  1.00  0.00    -0.012 C 
HETATM   23  C31 UNL     1      92.655 103.657 -40.899  1.00  0.00     0.024 C 
ENDROOT
BRANCH  21  24
HETATM   24  N6  UNL     1      92.978 100.919 -40.370  1.00  0.00    -0.067 N 
ATOM     25  H63 UNL     1      93.028 100.108 -40.987  1.00  0.00     0.275 HD
ATOM     26  H62 UNL     1      93.666 101.496 -40.853  1.00  0.00     0.275 HD
ATOM     27  H61 UNL     1      93.241 100.705 -39.407  1.00  0.00     0.275 HD
ENDBRANCH  21  24
BRANCH  20  28
HETATM   28  C18 UNL     1      91.417  98.536 -42.400  1.00  0.00     0.129 C 
BRANCH  28  29
HETATM   29  C19 UNL     1      91.124  97.046 -42.315  1.00  0.00     0.029 C 
BRANCH  29  30
HETATM   30  C20 UNL     1      92.035  96.335 -41.338  1.00  0.00     0.105 C 
BRANCH  30  31
HETATM   31  C21 UNL     1      91.596  94.941 -41.092  1.00  0.00     0.223 C 
HETATM   32  O2  UNL     1      90.379  94.644 -41.081  1.00  0.00    -0.273 OA
HETATM   33  N3  UNL     1      92.574  93.946 -40.871  1.00  0.00    -0.304 N 
HETATM   34  C22 UNL     1      93.100  93.288 -41.865  1.00  0.00     0.203 C 
ATOM     35  H3  UNL     1      92.874  93.740 -39.918  1.00  0.00     0.171 HD
HETATM   36  N4  UNL     1      92.667  93.592 -43.168  1.00  0.00    -0.066 NA
HETATM   37  N5  UNL     1      94.091  92.283 -41.609  1.00  0.00    -0.066 NA
ENDBRANCH  30  31
ENDBRANCH  29  30
ENDBRANCH  28  29
ENDBRANCH  20  28
BRANCH  22  38
HETATM   38  C25 UNL     1      92.072 103.228 -38.513  1.00  0.00    -0.028 A 
HETATM   39  C26 UNL     1      91.062 103.546 -37.628  1.00  0.00     0.012 A 
HETATM   40  C27 UNL     1      91.345 103.804 -36.292  1.00  0.00     0.001 A 
HETATM   41  C28 UNL     1      92.615 103.757 -35.792  1.00  0.00     0.000 A 
HETATM   42  C29 UNL     1      93.650 103.437 -36.661  1.00  0.00     0.001 A 
HETATM   43  C30 UNL     1      93.366 103.181 -37.994  1.00  0.00     0.012 A 
ENDBRANCH  22  38
BRANCH   1  44
HETATM   44  C2  UNL     1      93.964 104.358 -45.487  1.00  0.00     0.007 C 
HETATM   45  C1  UNL     1      94.987 105.103 -45.168  1.00  0.00     0.012 C 
ENDBRANCH   1  44
TORSDOF 7
ENDMDL
MODEL 2
REMARK VINA RESULT: -7.730449006      3.445      7.355
REMARK  7 active torsions:
REMARK  status: ('A' for Active; 'I' for Inactive)
REMARK    1  A    between atoms: C2_2  and  C3_3 
REMARK    2  A    between atoms: N2_22  and  C18_23 
REMARK    3  A    between atoms: C18_23  and  C19_24 
REMARK    4  A    between atoms: C19_24  and  C20_25 
REMARK    5  A    between atoms: C20_25  and  C21_26 
REMARK       I    between atoms: C21_26  and  N3_28 
REMARK    6  A    between atoms: C23_33  and  N6_34 
REMARK    7  A    between atoms: C24_38  and  C25_39 
ROOT
HETATM    1  C3  UNL     1      91.130 101.057 -41.511  1.00  0.00     0.032 A 
HETATM    2  C4  UNL     1      91.462  99.749 -41.887  1.00  0.00     0.030 A 
HETATM    3  C5  UNL     1      90.783  99.135 -42.934  1.00  0.00    -0.007 A 
HETATM    4  C6  UNL     1      89.794  99.774 -43.629  1.00  0.00     0.056 A 
HETATM    5  N1  UNL     1      89.490 101.043 -43.238  1.00  0.00    -0.322 N 
ATOM      6  H1  UNL     1      88.752 101.544 -43.731  1.00  0.00     0.169 HD
HETATM    7  C7  UNL     1      90.125 101.657 -42.229  1.00  0.00     0.256 A 
HETATM    8  O1  UNL     1      89.779 102.839 -41.929  1.00  0.00    -0.267 OA
HETATM    9  C8  UNL     1      89.308  99.308 -44.814  1.00  0.00     0.033 C 
HETATM   10  C9  UNL     1      88.252 100.102 -45.369  1.00  0.00     0.068 A 
HETATM   11  C10 UNL     1      86.978  99.910 -44.755  1.00  0.00     0.072 A 
HETATM   12 CL1  UNL     1      86.765  98.759 -43.449  1.00  0.00    -0.081 Cl
HETATM   13  C11 UNL     1      85.860 100.606 -45.140  1.00  0.00    -0.001 A 
HETATM   14  C12 UNL     1      84.630 100.401 -44.521  1.00  0.00     0.014 A 
HETATM   15  C13 UNL     1      83.535 101.118 -44.931  1.00  0.00     0.001 A 
HETATM   16  C14 UNL     1      83.626 102.035 -45.942  1.00  0.00     0.001 A 
HETATM   17  C15 UNL     1      84.824 102.265 -46.577  1.00  0.00     0.014 A 
HETATM   18  C16 UNL     1      85.933 101.526 -46.147  1.00  0.00    -0.009 A 
HETATM   19  C17 UNL     1      87.161 101.702 -46.731  1.00  0.00     0.103 A 
HETATM   20  N2  UNL     1      88.270 100.998 -46.335  1.00  0.00    -0.354 N 
HETATM   21  C23 UNL     1      90.030  98.147 -45.322  1.00  0.00     0.255 C 
HETATM   22  C24 UNL     1      90.325  97.177 -44.221  1.00  0.00    -0.012 C 
HETATM   23  C31 UNL     1      91.047  97.828 -43.145  1.00  0.00     0.024 C 
ENDROOT
BRANCH  21  24
HETATM   24  N6  UNL     1      91.341  98.627 -45.820  1.00  0.00    -0.067 N 
ATOM     25  H63 UNL     1      91.288  99.032 -46.755  1.00  0.00     0.275 HD
ATOM     26  H62 UNL     1      91.672  99.460 -45.333  1.00  0.00     0.275 HD
ATOM     27  H61 UNL     1      91.994  97.844 -45.760  1.00  0.00     0.275 HD
ENDBRANCH  21  24
BRANCH  20  28
HETATM   28  C18 UNL     1      89.461 101.294 -47.079  1.00  0.00     0.129 C 
BRANCH  28  29
HETATM   29  C19 UNL     1      90.210 102.476 -46.483  1.00  0.00     0.029 C 
BRANCH  29  30
HETATM   30  C20 UNL     1      91.465 102.812 -47.257  1.00  0.00     0.105 C 
BRANCH  30  31
HETATM   31  C21 UNL     1      92.567 101.867 -46.954  1.00  0.00     0.223 C 
HETATM   32  O2  UNL     1      92.655 101.325 -45.828  1.00  0.00    -0.273 OA
HETATM   33  N3  UNL     1      93.520 101.586 -47.957  1.00  0.00    -0.304 N 
HETATM   34  C22 UNL     1      93.331 100.621 -48.812  1.00  0.00     0.203 C 
ATOM     35  H3  UNL     1      94.371 102.146 -48.013  1.00  0.00     0.171 HD
HETATM   36  N4  UNL     1      92.151  99.863 -48.710  1.00  0.00    -0.066 NA
HETATM   37  N5  UNL     1      94.317 100.358 -49.820  1.00  0.00    -0.066 NA
ENDBRANCH  30  31
ENDBRANCH  29  30
ENDBRANCH  28  29
ENDBRANCH  20  28
BRANCH  22  38
HETATM   38  C25 UNL     1      90.753  95.834 -44.614  1.00  0.00    -0.028 A 
HETATM   39  C26 UNL     1      90.573  95.337 -45.888  1.00  0.00     0.012 A 
HETATM   40  C27 UNL     1      90.983  94.048 -46.211  1.00  0.00     0.001 A 
HETATM   41  C28 UNL     1      91.575  93.221 -45.299  1.00  0.00     0.000 A 
HETATM   42  C29 UNL     1      91.768  93.698 -44.010  1.00  0.00     0.001 A 
HETATM   43  C30 UNL     1      91.358  94.983 -43.690  1.00  0.00     0.012 A 
ENDBRANCH  22  38
BRANCH   1  44
HETATM   44  C2  UNL     1      91.797 101.740 -40.427  1.00  0.00     0.007 C 
HETATM   45  C1  UNL     1      93.035 101.471 -40.113  1.00  0.00     0.012 C 
ENDBRANCH   1  44
TORSDOF 7
ENDMDL
MODEL 3
REMARK VINA RESULT: -7.667050364      4.004      6.912
REMARK  7 active torsions:
REMARK  status: ('A' for Active; 'I' for Inactive)
REMARK    1  A    between atoms: C2_2  and  C3_3 
REMARK    2  A    between atoms: N2_22  and  C18_23 
REMARK    3  A    between atoms: C18_23  and  C19_24 
REMARK    4  A    between atoms: C19_24  and  C20_25 
REMARK    5  A    between atoms: C20_25  and  C21_26 
REMARK       I    between atoms: C21_26  and  N3_28 
REMARK    6  A    between atoms: C23_33  and  N6_34 
REMARK    7  A    between atoms: C24_38  and  C25_39 
ROOT
HETATM    1  C3  UNL     1      91.034  95.660 -44.163  1.00  0.00     0.032 A 
HETATM    2  C4  UNL     1      91.126  96.611 -43.139  1.00  0.00     0.030 A 
HETATM    3  C5  UNL     1      90.888  97.953 -43.415  1.00  0.00    -0.007 A 
HETATM    4  C6  UNL     1      90.552  98.386 -44.668  1.00  0.00     0.056 A 
HETATM    5  N1  UNL     1      90.474  97.440 -45.644  1.00  0.00    -0.322 N 
ATOM      6  H1  UNL     1      90.233  97.730 -46.591  1.00  0.00     0.169 HD
HETATM    7  C7  UNL     1      90.704  96.140 -45.406  1.00  0.00     0.256 A 
HETATM    8  O1  UNL     1      90.612  95.324 -46.373  1.00  0.00    -0.267 OA
HETATM    9  C8  UNL     1      90.053  99.632 -44.907  1.00  0.00     0.033 C 
HETATM   10  C9  UNL     1      89.793  99.905 -46.290  1.00  0.00     0.068 A 
HETATM   11  C10 UNL     1      90.953 100.205 -47.065  1.00  0.00     0.072 A 
HETATM   12 CL1  UNL     1      92.546 100.254 -46.332  1.00  0.00    -0.081 Cl
HETATM   13  C11 UNL     1      90.895 100.465 -48.411  1.00  0.00    -0.001 A 
HETATM   14  C12 UNL     1      92.044 100.752 -49.143  1.00  0.00     0.014 A 
HETATM   15  C13 UNL     1      91.947 101.003 -50.488  1.00  0.00     0.001 A 
HETATM   16  C14 UNL     1      90.739 100.980 -51.128  1.00  0.00     0.001 A 
HETATM   17  C15 UNL     1      89.581 100.700 -50.439  1.00  0.00     0.014 A 
HETATM   18  C16 UNL     1      89.697 100.445 -49.066  1.00  0.00    -0.009 A 
HETATM   19  C17 UNL     1      88.589 100.157 -48.312  1.00  0.00     0.103 A 
HETATM   20  N2  UNL     1      88.663  99.899 -46.966  1.00  0.00    -0.354 N 
HETATM   21  C23 UNL     1      89.797 100.398 -43.693  1.00  0.00     0.255 C 
HETATM   22  C24 UNL     1      90.914 100.235 -42.711  1.00  0.00    -0.012 C 
HETATM   23  C31 UNL     1      91.140  98.831 -42.421  1.00  0.00     0.024 C 
ENDROOT
BRANCH  21  24
HETATM   24  N6  UNL     1      88.590  99.821 -43.054  1.00  0.00    -0.067 N 
ATOM     25  H63 UNL     1      87.803  99.732 -43.697  1.00  0.00     0.275 HD
ATOM     26  H62 UNL     1      88.692  98.831 -42.831  1.00  0.00     0.275 HD
ATOM     27  H61 UNL     1      88.375 100.394 -42.237  1.00  0.00     0.275 HD
ENDBRANCH  21  24
BRANCH  20  28
HETATM   28  C18 UNL     1      87.398  99.647 -46.338  1.00  0.00     0.129 C 
BRANCH  28  29
HETATM   29  C19 UNL     1      86.915  98.230 -46.609  1.00  0.00     0.029 C 
BRANCH  29  30
HETATM   30  C20 UNL     1      86.995  97.349 -45.381  1.00  0.00     0.105 C 
BRANCH  30  31
HETATM   31  C21 UNL     1      85.852  97.580 -44.465  1.00  0.00     0.223 C 
HETATM   32  O2  UNL     1      85.869  98.526 -43.644  1.00  0.00    -0.273 OA
HETATM   33  N3  UNL     1      84.738  96.715 -44.532  1.00  0.00    -0.304 N 
HETATM   34  C22 UNL     1      83.748  96.955 -45.343  1.00  0.00     0.203 C 
ATOM     35  H3  UNL     1      84.708  95.888 -43.935  1.00  0.00     0.171 HD
HETATM   36  N4  UNL     1      83.815  98.103 -46.153  1.00  0.00    -0.066 NA
HETATM   37  N5  UNL     1      82.629  96.059 -45.389  1.00  0.00    -0.066 NA
ENDBRANCH  30  31
ENDBRANCH  29  30
ENDBRANCH  28  29
ENDBRANCH  20  28
BRANCH  22  38
HETATM   38  C25 UNL     1      90.962 101.178 -41.594  1.00  0.00    -0.028 A 
HETATM   39  C26 UNL     1      89.986 102.129 -41.378  1.00  0.00     0.012 A 
HETATM   40  C27 UNL     1      90.082 103.014 -40.309  1.00  0.00     0.001 A 
HETATM   41  C28 UNL     1      91.129 102.988 -39.433  1.00  0.00     0.000 A 
HETATM   42  C29 UNL     1      92.124 102.040 -39.627  1.00  0.00     0.001 A 
HETATM   43  C30 UNL     1      92.027 101.159 -40.693  1.00  0.00     0.012 A 
ENDBRANCH  22  38
BRANCH   1  44
HETATM   44  C2  UNL     1      91.279  94.255 -43.935  1.00  0.00     0.007 C 
HETATM   45  C1  UNL     1      91.517  93.793 -42.738  1.00  0.00     0.012 C 
ENDBRANCH   1  44
TORSDOF 7
ENDMDL
MODEL 4
REMARK VINA RESULT: -7.632925061      3.160      7.491
REMARK  7 active torsions:
REMARK  status: ('A' for Active; 'I' for Inactive)
REMARK    1  A    between atoms: C2_2  and  C3_3 
REMARK    2  A    between atoms: N2_22  and  C18_23 
REMARK    3  A    between atoms: C18_23  and  C19_24 
REMARK    4  A    between atoms: C19_24  and  C20_25 
REMARK    5  A    between atoms: C20_25  and  C21_26 
REMARK       I    between atoms: C21_26  and  N3_28 
REMARK    6  A    between atoms: C23_33  and  N6_34 
REMARK    7  A    between atoms: C24_38  and  C25_39 
ROOT
HETATM    1  C3  UNL     1      91.166 100.839 -41.451  1.00  0.00     0.032 A 
HETATM    2  C4  UNL     1      91.504  99.518 -41.775  1.00  0.00     0.030 A 
HETATM    3  C5  UNL     1      90.884  98.888 -42.849  1.00  0.00    -0.007 A 
HETATM    4  C6  UNL     1      89.950  99.523 -43.620  1.00  0.00     0.056 A 
HETATM    5  N1  UNL     1      89.640 100.804 -43.278  1.00  0.00    -0.322 N 
ATOM      6  H1  UNL     1      88.942 101.303 -43.829  1.00  0.00     0.169 HD
HETATM    7  C7  UNL     1      90.218 101.433 -42.246  1.00  0.00     0.256 A 
HETATM    8  O1  UNL     1      89.870 102.627 -41.994  1.00  0.00    -0.267 OA
HETATM    9  C8  UNL     1      89.533  99.035 -44.823  1.00  0.00     0.033 C 
HETATM   10  C9  UNL     1      88.526  99.829 -45.462  1.00  0.00     0.068 A 
HETATM   11  C10 UNL     1      87.213  99.668 -44.927  1.00  0.00     0.072 A 
HETATM   12 CL1  UNL     1      86.901  98.550 -43.611  1.00  0.00    -0.081 Cl
HETATM   13  C11 UNL     1      86.132 100.369 -45.398  1.00  0.00    -0.001 A 
HETATM   14  C12 UNL     1      84.862 100.194 -44.854  1.00  0.00     0.014 A 
HETATM   15  C13 UNL     1      83.806 100.915 -45.350  1.00  0.00     0.001 A 
HETATM   16  C14 UNL     1      83.974 101.806 -46.373  1.00  0.00     0.001 A 
HETATM   17  C15 UNL     1      85.213 102.007 -46.936  1.00  0.00     0.014 A 
HETATM   18  C16 UNL     1      86.281 101.263 -46.419  1.00  0.00    -0.009 A 
HETATM   19  C17 UNL     1      87.547 101.410 -46.927  1.00  0.00     0.103 A 
HETATM   20  N2  UNL     1      88.619 100.702 -46.445  1.00  0.00    -0.354 N 
HETATM   21  C23 UNL     1      90.270  97.854 -45.257  1.00  0.00     0.255 C 
HETATM   22  C24 UNL     1      90.480  96.906 -44.118  1.00  0.00    -0.012 C 
HETATM   23  C31 UNL     1      91.142  97.573 -43.013  1.00  0.00     0.024 C 
ENDROOT
BRANCH  21  24
HETATM   24  N6  UNL     1      91.617  98.305 -45.681  1.00  0.00    -0.067 N 
ATOM     25  H63 UNL     1      91.588  98.988 -46.438  1.00  0.00     0.275 HD
ATOM     26  H62 UNL     1      92.077  98.894 -44.987  1.00  0.00     0.275 HD
ATOM     27  H61 UNL     1      92.156  97.471 -45.917  1.00  0.00     0.275 HD
ENDBRANCH  21  24
BRANCH  20  28
HETATM   28  C18 UNL     1      89.858 100.965 -47.118  1.00  0.00     0.129 C 
BRANCH  28  29
HETATM   29  C19 UNL     1      90.308 102.403 -46.912  1.00  0.00     0.029 C 
BRANCH  29  30
HETATM   30  C20 UNL     1      91.797 102.511 -46.664  1.00  0.00     0.105 C 
BRANCH  30  31
HETATM   31  C21 UNL     1      92.133 102.293 -45.236  1.00  0.00     0.223 C 
HETATM   32  O2  UNL     1      92.628 101.209 -44.852  1.00  0.00    -0.273 OA
HETATM   33  N3  UNL     1      91.885 103.332 -44.311  1.00  0.00    -0.304 N 
HETATM   34  C22 UNL     1      92.782 104.247 -44.073  1.00  0.00     0.203 C 
ATOM     35  H3  UNL     1      90.991 103.366 -43.823  1.00  0.00     0.171 HD
HETATM   36  N4  UNL     1      94.007 104.173 -44.760  1.00  0.00    -0.066 NA
HETATM   37  N5  UNL     1      92.503 105.289 -43.127  1.00  0.00    -0.066 NA
ENDBRANCH  30  31
ENDBRANCH  29  30
ENDBRANCH  28  29
ENDBRANCH  20  28
BRANCH  22  38
HETATM   38  C25 UNL     1      90.913  95.549 -44.452  1.00  0.00    -0.028 A 
HETATM   39  C26 UNL     1      90.753  95.003 -45.709  1.00  0.00     0.012 A 
HETATM   40  C27 UNL     1      91.168  93.703 -45.975  1.00  0.00     0.001 A 
HETATM   41  C28 UNL     1      91.744  92.911 -45.023  1.00  0.00     0.000 A 
HETATM   42  C29 UNL     1      91.918  93.437 -43.750  1.00  0.00     0.001 A 
HETATM   43  C30 UNL     1      91.504  94.734 -43.487  1.00  0.00     0.012 A 
ENDBRANCH  22  38
BRANCH   1  44
HETATM   44  C2  UNL     1      91.772 101.538 -40.342  1.00  0.00     0.007 C 
HETATM   45  C1  UNL     1      93.021 101.917 -40.378  1.00  0.00     0.012 C 
ENDBRANCH   1  44
TORSDOF 7
ENDMDL
MODEL 5
REMARK VINA RESULT: -7.613365934      2.497      3.368
REMARK  7 active torsions:
REMARK  status: ('A' for Active; 'I' for Inactive)
REMARK    1  A    between atoms: C2_2  and  C3_3 
REMARK    2  A    between atoms: N2_22  and  C18_23 
REMARK    3  A    between atoms: C18_23  and  C19_24 
REMARK    4  A    between atoms: C19_24  and  C20_25 
REMARK    5  A    between atoms: C20_25  and  C21_26 
REMARK       I    between atoms: C21_26  and  N3_28 
REMARK    6  A    between atoms: C23_33  and  N6_34 
REMARK    7  A    between atoms: C24_38  and  C25_39 
ROOT
HETATM    1  C3  UNL     1      92.464 101.434 -47.628  1.00  0.00     0.032 A 
HETATM    2  C4  UNL     1      92.728 101.884 -46.328  1.00  0.00     0.030 A 
HETATM    3  C5  UNL     1      91.948 101.435 -45.268  1.00  0.00    -0.007 A 
HETATM    4  C6  UNL     1      90.924 100.547 -45.447  1.00  0.00     0.056 A 
HETATM    5  N1  UNL     1      90.689 100.131 -46.722  1.00  0.00    -0.322 N 
ATOM      6  H1  UNL     1      89.927  99.474 -46.892  1.00  0.00     0.169 HD
HETATM    7  C7  UNL     1      91.421 100.552 -47.764  1.00  0.00     0.256 A 
HETATM    8  O1  UNL     1      91.135 100.116 -48.919  1.00  0.00    -0.267 OA
HETATM    9  C8  UNL     1      90.329  99.890 -44.412  1.00  0.00     0.033 C 
HETATM   10  C9  UNL     1      89.255  99.027 -44.804  1.00  0.00     0.068 A 
HETATM   11  C10 UNL     1      88.030  99.698 -45.098  1.00  0.00     0.072 A 
HETATM   12 CL1  UNL     1      87.893 101.441 -44.947  1.00  0.00    -0.081 Cl
HETATM   13  C11 UNL     1      86.904  99.034 -45.514  1.00  0.00    -0.001 A 
HETATM   14  C12 UNL     1      85.724  99.715 -45.798  1.00  0.00     0.014 A 
HETATM   15  C13 UNL     1      84.620  99.017 -46.214  1.00  0.00     0.001 A 
HETATM   16  C14 UNL     1      84.653  97.657 -46.358  1.00  0.00     0.001 A 
HETATM   17  C15 UNL     1      85.802  96.949 -46.087  1.00  0.00     0.014 A 
HETATM   18  C16 UNL     1      86.920  97.676 -45.663  1.00  0.00    -0.009 A 
HETATM   19  C17 UNL     1      88.101  97.040 -45.377  1.00  0.00     0.103 A 
HETATM   20  N2  UNL     1      89.219  97.719 -44.961  1.00  0.00    -0.354 N 
HETATM   21  C23 UNL     1      90.975 100.127 -43.126  1.00  0.00     0.255 C 
HETATM   22  C24 UNL     1      91.331 101.572 -42.965  1.00  0.00    -0.012 C 
HETATM   23  C31 UNL     1      92.158 102.021 -44.070  1.00  0.00     0.024 C 
ENDROOT
BRANCH  21  24
HETATM   24  N6  UNL     1      92.254  99.378 -43.129  1.00  0.00    -0.067 N 
ATOM     25  H63 UNL     1      92.164  98.438 -43.516  1.00  0.00     0.275 HD
ATOM     26  H62 UNL     1      92.925  99.738 -43.808  1.00  0.00     0.275 HD
ATOM     27  H61 UNL     1      92.612  99.383 -42.173  1.00  0.00     0.275 HD
ENDBRANCH  21  24
BRANCH  20  28
HETATM   28  C18 UNL     1      90.353  96.885 -44.680  1.00  0.00     0.129 C 
BRANCH  28  29
HETATM   29  C19 UNL     1      90.371  95.654 -45.573  1.00  0.00     0.029 C 
BRANCH  29  30
HETATM   30  C20 UNL     1      91.668  94.882 -45.463  1.00  0.00     0.105 C 
BRANCH  30  31
HETATM   31  C21 UNL     1      91.457  93.533 -44.886  1.00  0.00     0.223 C 
HETATM   32  O2  UNL     1      91.505  92.512 -45.609  1.00  0.00    -0.273 OA
HETATM   33  N3  UNL     1      91.201  93.415 -43.502  1.00  0.00    -0.304 N 
HETATM   34  C22 UNL     1      92.176  93.300 -42.645  1.00  0.00     0.203 C 
ATOM     35  H3  UNL     1      90.237  93.420 -43.167  1.00  0.00     0.171 HD
HETATM   36  N4  UNL     1      93.494  93.295 -43.135  1.00  0.00    -0.066 NA
HETATM   37  N5  UNL     1      91.885  93.181 -41.245  1.00  0.00    -0.066 NA
ENDBRANCH  30  31
ENDBRANCH  29  30
ENDBRANCH  28  29
ENDBRANCH  20  28
BRANCH  22  38
HETATM   38  C25 UNL     1      91.688 102.024 -41.620  1.00  0.00    -0.028 A 
HETATM   39  C26 UNL     1      90.788 102.035 -40.574  1.00  0.00     0.012 A 
HETATM   40  C27 UNL     1      91.169 102.488 -39.316  1.00  0.00     0.001 A 
HETATM   41  C28 UNL     1      92.432 102.938 -39.054  1.00  0.00     0.000 A 
HETATM   42  C29 UNL     1      93.357 102.936 -40.089  1.00  0.00     0.001 A 
HETATM   43  C30 UNL     1      92.975 102.484 -41.343  1.00  0.00     0.012 A 
ENDBRANCH  22  38
BRANCH   1  44
HETATM   44  C2  UNL     1      93.236 101.874 -48.767  1.00  0.00     0.007 C 
HETATM   45  C1  UNL     1      94.442 102.355 -48.627  1.00  0.00     0.012 C 
ENDBRANCH   1  44
TORSDOF 7
ENDMDL
