MODEL 1
REMARK VINA RESULT: -7.343226843      0.000      0.000
REMARK  9 active torsions:
REMARK  status: ('A' for Active; 'I' for Inactive)
REMARK    1  A    between atoms: C2_2  and  N5_38 
REMARK       I    between atoms: N1_3  and  C3_5 
REMARK       I    between atoms: C3_5  and  N2_6 
REMARK    2  A    between atoms: N2_6  and  C4_8 
REMARK    3  A    between atoms: N3_14  and  C10_16 
REMARK    4  A    between atoms: C10_16  and  C11_17 
REMARK       I    between atoms: C11_17  and  N4_19 
REMARK    5  A    between atoms: N4_19  and  C12_20 
REMARK    6  A    between atoms: C12_20  and  C13_21 
REMARK    7  A    between atoms: C12_20  and  C19_28 
REMARK    8  A    between atoms: C19_28  and  O2_29 
REMARK    9  A    between atoms: C19_28  and  C20_31 
ROOT
HETATM    1  C10 UNL     1      91.322  98.936 -45.595  1.00  0.00     0.257 C 
ENDROOT
BRANCH   1   2
HETATM    2  N3  UNL     1      91.535  97.512 -45.458  1.00  0.00    -0.216 N 
HETATM    3  C3  UNL     1      90.599  96.667 -45.232  1.00  0.00     0.676 C 
HETATM    4  N1  UNL     1      89.256  97.093 -45.097  1.00  0.00    -0.181 N 
HETATM    5  N2  UNL     1      90.846  95.276 -45.110  1.00  0.00    -0.222 N 
HETATM    6  C2  UNL     1      88.402  97.236 -46.028  1.00  0.00     0.091 C 
ATOM      7  H1  UNL     1      88.939  97.307 -44.151  1.00  0.00     0.185 HD
HETATM    8  C1  UNL     1      88.704  96.967 -47.459  1.00  0.00     0.089 C 
ATOM      9  H2  UNL     1      90.942  94.736 -45.970  1.00  0.00     0.178 HD
ATOM     10  H3  UNL     1      92.487  97.160 -45.548  1.00  0.00     0.178 HD
BRANCH   6  11
HETATM   11  N5  UNL     1      87.102  97.681 -45.664  1.00  0.00    -0.371 N 
HETATM   12  C27 UNL     1      86.171  96.943 -44.865  1.00  0.00     0.124 C 
HETATM   13  C28 UNL     1      84.813  97.338 -45.375  1.00  0.00     0.021 C 
HETATM   14  C29 UNL     1      85.026  98.705 -45.952  1.00  0.00     0.021 C 
HETATM   15  C30 UNL     1      86.513  98.944 -46.044  1.00  0.00     0.124 C 
ENDBRANCH   6  11
BRANCH   5  16
HETATM   16  C4  UNL     1      90.972  94.573 -43.869  1.00  0.00     0.099 C 
HETATM   17  C5  UNL     1      91.909  93.402 -43.917  1.00  0.00     0.026 C 
HETATM   18  C6  UNL     1      92.941  93.404 -42.814  1.00  0.00     0.002 C 
HETATM   19  C7  UNL     1      92.292  93.582 -41.450  1.00  0.00     0.000 C 
HETATM   20  C8  UNL     1      91.356  94.749 -41.463  1.00  0.00     0.002 C 
HETATM   21  C9  UNL     1      91.458  95.515 -42.758  1.00  0.00     0.026 C 
ENDBRANCH   5  16
ENDBRANCH   1   2
BRANCH   1  22
HETATM   22  C11 UNL     1      92.178  99.689 -44.573  1.00  0.00     0.310 C 
HETATM   23  O1  UNL     1      93.403  99.607 -44.823  1.00  0.00    -0.255 OA
HETATM   24  N4  UNL     1      91.539 100.341 -43.543  1.00  0.00    -0.370 NA
BRANCH  24  25
HETATM   25  C12 UNL     1      90.907 100.986 -42.524  1.00  0.00     0.128 C 
BRANCH  25  26
HETATM   26  C13 UNL     1      89.383 100.945 -42.626  1.00  0.00     0.003 A 
HETATM   27  C14 UNL     1      88.685 102.116 -42.748  1.00  0.00     0.017 A 
HETATM   28  C15 UNL     1      87.311 102.117 -42.845  1.00  0.00     0.043 A 
HETATM   29  C16 UNL     1      86.605 100.946 -42.822  1.00  0.00     0.116 A 
HETATM   30  F1  UNL     1      85.250 100.969 -42.921  1.00  0.00    -0.206 F 
HETATM   31  C17 UNL     1      87.330  99.773 -42.697  1.00  0.00     0.043 A 
HETATM   32  C18 UNL     1      88.698  99.757 -42.601  1.00  0.00     0.017 A 
ENDBRANCH  25  26
BRANCH  25  33
HETATM   33  C19 UNL     1      91.343 100.957 -41.122  1.00  0.00     0.191 C 
BRANCH  33  34
HETATM   34  O2  UNL     1      92.196  99.836 -40.990  1.00  0.00    -0.388 OA
ATOM     35  H2  UNL     1      91.747  99.107 -41.401  1.00  0.00     0.210 HD
ENDBRANCH  33  34
BRANCH  33  36
HETATM   36  C20 UNL     1      91.859 102.079 -40.363  1.00  0.00    -0.011 C 
HETATM   37  C21 UNL     1      90.889 102.780 -39.449  1.00  0.00     0.018 C 
HETATM   38  C22 UNL     1      93.171 101.877 -39.709  1.00  0.00     0.012 C 
HETATM   39  C23 UNL     1      93.783 103.163 -39.167  1.00  0.00     0.001 C 
HETATM   40  C24 UNL     1      94.279 103.939 -40.365  1.00  0.00     0.000 C 
HETATM   41  C25 UNL     1      93.587 103.472 -41.611  1.00  0.00     0.001 C 
HETATM   42  C26 UNL     1      92.141 103.181 -41.443  1.00  0.00     0.012 C 
ENDBRANCH  33  36
ENDBRANCH  25  33
ENDBRANCH  24  25
ENDBRANCH   1  22
TORSDOF 9
ENDMDL
MODEL 2
REMARK VINA RESULT: -6.927688563      2.842      7.875
REMARK  9 active torsions:
REMARK  status: ('A' for Active; 'I' for Inactive)
REMARK    1  A    between atoms: C2_2  and  N5_38 
REMARK       I    between atoms: N1_3  and  C3_5 
REMARK       I    between atoms: C3_5  and  N2_6 
REMARK    2  A    between atoms: N2_6  and  C4_8 
REMARK    3  A    between atoms: N3_14  and  C10_16 
REMARK    4  A    between atoms: C10_16  and  C11_17 
REMARK       I    between atoms: C11_17  and  N4_19 
REMARK    5  A    between atoms: N4_19  and  C12_20 
REMARK    6  A    between atoms: C12_20  and  C13_21 
REMARK    7  A    between atoms: C12_20  and  C19_28 
REMARK    8  A    between atoms: C19_28  and  O2_29 
REMARK    9  A    between atoms: C19_28  and  C20_31 
ROOT
HETATM    1  C10 UNL     1      92.922  99.893 -44.599  1.00  0.00     0.257 C 
ENDROOT
BRANCH   1   2
HETATM    2  N3  UNL     1      92.014  99.995 -43.478  1.00  0.00    -0.216 N 
HETATM    3  C3  UNL     1      91.486 101.093 -43.082  1.00  0.00     0.676 C 
HETATM    4  N1  UNL     1      91.771 102.313 -43.742  1.00  0.00    -0.181 N 
HETATM    5  N2  UNL     1      90.595 101.153 -41.981  1.00  0.00    -0.222 N 
HETATM    6  C2  UNL     1      91.157 102.803 -44.741  1.00  0.00     0.091 C 
ATOM      7  H1  UNL     1      92.553 102.857 -43.376  1.00  0.00     0.185 HD
HETATM    8  C1  UNL     1      89.999 102.136 -45.393  1.00  0.00     0.089 C 
ATOM      9  H2  UNL     1      89.621 100.902 -42.147  1.00  0.00     0.178 HD
ATOM     10  H3  UNL     1      91.780  99.142 -42.971  1.00  0.00     0.178 HD
BRANCH   6  11
HETATM   11  N5  UNL     1      91.618 104.048 -45.250  1.00  0.00    -0.371 N 
HETATM   12  C27 UNL     1      92.875 104.256 -45.904  1.00  0.00     0.124 C 
HETATM   13  C28 UNL     1      93.273 105.663 -45.553  1.00  0.00     0.021 C 
HETATM   14  C29 UNL     1      91.969 106.353 -45.288  1.00  0.00     0.021 C 
HETATM   15  C30 UNL     1      90.896 105.297 -45.188  1.00  0.00     0.124 C 
ENDBRANCH   6  11
BRANCH   5  16
HETATM   16  C4  UNL     1      90.962 101.541 -40.652  1.00  0.00     0.099 C 
HETATM   17  C5  UNL     1      92.432 101.443 -40.366  1.00  0.00     0.026 C 
HETATM   18  C6  UNL     1      93.019 102.701 -39.767  1.00  0.00     0.002 C 
HETATM   19  C7  UNL     1      92.214 103.168 -38.564  1.00  0.00     0.000 C 
HETATM   20  C8  UNL     1      90.758 103.229 -38.898  1.00  0.00     0.002 C 
HETATM   21  C9  UNL     1      90.526 102.985 -40.368  1.00  0.00     0.026 C 
ENDBRANCH   5  16
ENDBRANCH   1   2
BRANCH   1  22
HETATM   22  C11 UNL     1      92.170  99.378 -45.830  1.00  0.00     0.310 C 
HETATM   23  O1  UNL     1      92.604  99.873 -46.896  1.00  0.00    -0.255 OA
HETATM   24  N4  UNL     1      91.150  98.474 -45.639  1.00  0.00    -0.370 NA
BRANCH  24  25
HETATM   25  C12 UNL     1      90.142  97.579 -45.449  1.00  0.00     0.128 C 
BRANCH  25  26
HETATM   26  C13 UNL     1      90.629  96.162 -45.150  1.00  0.00     0.003 A 
HETATM   27  C14 UNL     1      90.634  95.228 -46.151  1.00  0.00     0.017 A 
HETATM   28  C15 UNL     1      91.069  93.942 -45.917  1.00  0.00     0.043 A 
HETATM   29  C16 UNL     1      91.508  93.562 -44.679  1.00  0.00     0.116 A 
HETATM   30  F1  UNL     1      91.936  92.289 -44.472  1.00  0.00    -0.206 F 
HETATM   31  C17 UNL     1      91.495  94.523 -43.682  1.00  0.00     0.043 A 
HETATM   32  C18 UNL     1      91.065  95.807 -43.900  1.00  0.00     0.017 A 
ENDBRANCH  25  26
BRANCH  25  33
HETATM   33  C19 UNL     1      88.894  97.871 -44.731  1.00  0.00     0.191 C 
BRANCH  33  34
HETATM   34  O2  UNL     1      89.224  98.792 -43.711  1.00  0.00    -0.388 OA
ATOM     35  H2  UNL     1      88.412  98.999 -43.263  1.00  0.00     0.210 HD
ENDBRANCH  33  34
BRANCH  33  36
HETATM   36  C20 UNL     1      87.621  98.215 -45.334  1.00  0.00    -0.011 C 
HETATM   37  C21 UNL     1      87.635  99.321 -46.355  1.00  0.00     0.018 C 
HETATM   38  C22 UNL     1      86.778  97.082 -45.773  1.00  0.00     0.012 C 
HETATM   39  C23 UNL     1      85.356  97.489 -46.137  1.00  0.00     0.001 C 
HETATM   40  C24 UNL     1      84.643  97.769 -44.834  1.00  0.00     0.000 C 
HETATM   41  C25 UNL     1      85.638  98.044 -43.745  1.00  0.00     0.001 C 
HETATM   42  C26 UNL     1      86.801  98.865 -44.164  1.00  0.00     0.012 C 
ENDBRANCH  33  36
ENDBRANCH  25  33
ENDBRANCH  24  25
ENDBRANCH   1  22
TORSDOF 9
ENDMDL
MODEL 3
REMARK VINA RESULT: -6.790042384      1.078      4.458
REMARK  9 active torsions:
REMARK  status: ('A' for Active; 'I' for Inactive)
REMARK    1  A    between atoms: C2_2  and  N5_38 
REMARK       I    between atoms: N1_3  and  C3_5 
REMARK       I    between atoms: C3_5  and  N2_6 
REMARK    2  A    between atoms: N2_6  and  C4_8 
REMARK    3  A    between atoms: N3_14  and  C10_16 
REMARK    4  A    between atoms: C10_16  and  C11_17 
REMARK       I    between atoms: C11_17  and  N4_19 
REMARK    5  A    between atoms: N4_19  and  C12_20 
REMARK    6  A    between atoms: C12_20  and  C13_21 
REMARK    7  A    between atoms: C12_20  and  C19_28 
REMARK    8  A    between atoms: C19_28  and  O2_29 
REMARK    9  A    between atoms: C19_28  and  C20_31 
ROOT
HETATM    1  C10 UNL     1      91.235  99.577 -45.826  1.00  0.00     0.257 C 
ENDROOT
BRANCH   1   2
HETATM    2  N3  UNL     1      89.857  99.482 -45.400  1.00  0.00    -0.216 N 
HETATM    3  C3  UNL     1      89.270  98.380 -45.111  1.00  0.00     0.676 C 
HETATM    4  N1  UNL     1      89.962  97.148 -45.196  1.00  0.00    -0.181 N 
HETATM    5  N2  UNL     1      87.917  98.328 -44.691  1.00  0.00    -0.222 N 
HETATM    6  C2  UNL     1      90.654  96.595 -44.285  1.00  0.00     0.091 C 
ATOM      7  H1  UNL     1      89.898  96.651 -46.085  1.00  0.00     0.185 HD
HETATM    8  C1  UNL     1      90.848  97.190 -42.936  1.00  0.00     0.089 C 
ATOM      9  H2  UNL     1      87.719  98.534 -43.712  1.00  0.00     0.178 HD
ATOM     10  H3  UNL     1      89.319 100.345 -45.324  1.00  0.00     0.178 HD
BRANCH   6  11
HETATM   11  N5  UNL     1      91.270  95.351 -44.590  1.00  0.00    -0.371 N 
HETATM   12  C27 UNL     1      91.436  94.815 -45.908  1.00  0.00     0.124 C 
HETATM   13  C28 UNL     1      91.356  93.323 -45.739  1.00  0.00     0.021 C 
HETATM   14  C29 UNL     1      91.795  93.094 -44.324  1.00  0.00     0.021 C 
HETATM   15  C30 UNL     1      91.822  94.431 -43.624  1.00  0.00     0.124 C 
ENDBRANCH   6  11
BRANCH   5  16
HETATM   16  C4  UNL     1      86.809  98.008 -45.538  1.00  0.00     0.099 C 
HETATM   17  C5  UNL     1      85.830  97.044 -44.934  1.00  0.00     0.026 C 
HETATM   18  C6  UNL     1      84.395  97.512 -45.001  1.00  0.00     0.002 C 
HETATM   19  C7  UNL     1      84.015  97.929 -46.413  1.00  0.00     0.000 C 
HETATM   20  C8  UNL     1      85.031  98.873 -46.973  1.00  0.00     0.002 C 
HETATM   21  C9  UNL     1      86.036  99.277 -45.924  1.00  0.00     0.026 C 
ENDBRANCH   5  16
ENDBRANCH   1   2
BRANCH   1  22
HETATM   22  C11 UNL     1      92.122  99.952 -44.636  1.00  0.00     0.310 C 
HETATM   23  O1  UNL     1      93.299  99.546 -44.770  1.00  0.00    -0.255 OA
HETATM   24  N4  UNL     1      91.556 100.660 -43.601  1.00  0.00    -0.370 NA
BRANCH  24  25
HETATM   25  C12 UNL     1      90.995 101.362 -42.577  1.00  0.00     0.128 C 
BRANCH  25  26
HETATM   26  C13 UNL     1      89.492 101.584 -42.738  1.00  0.00     0.003 A 
HETATM   27  C14 UNL     1      89.044 102.667 -43.444  1.00  0.00     0.017 A 
HETATM   28  C15 UNL     1      87.697 102.897 -43.611  1.00  0.00     0.043 A 
HETATM   29  C16 UNL     1      86.768 102.049 -43.075  1.00  0.00     0.116 A 
HETATM   30  F1  UNL     1      85.443 102.293 -43.254  1.00  0.00    -0.206 F 
HETATM   31  C17 UNL     1      87.242 100.959 -42.364  1.00  0.00     0.043 A 
HETATM   32  C18 UNL     1      88.581 100.718 -42.191  1.00  0.00     0.017 A 
ENDBRANCH  25  26
BRANCH  25  33
HETATM   33  C19 UNL     1      91.358 101.202 -41.162  1.00  0.00     0.191 C 
BRANCH  33  34
HETATM   34  O2  UNL     1      92.152 100.035 -41.080  1.00  0.00    -0.388 OA
ATOM     35  H2  UNL     1      91.757  99.399 -41.665  1.00  0.00     0.210 HD
ENDBRANCH  33  34
BRANCH  33  36
HETATM   36  C20 UNL     1      91.883 102.236 -40.292  1.00  0.00    -0.011 C 
HETATM   37  C21 UNL     1      90.906 102.889 -39.352  1.00  0.00     0.018 C 
HETATM   38  C22 UNL     1      93.164 101.932 -39.617  1.00  0.00     0.012 C 
HETATM   39  C23 UNL     1      93.798 103.143 -38.945  1.00  0.00     0.001 C 
HETATM   40  C24 UNL     1      94.361 104.002 -40.054  1.00  0.00     0.000 C 
HETATM   41  C25 UNL     1      93.698 103.669 -41.358  1.00  0.00     0.001 C 
HETATM   42  C26 UNL     1      92.238 103.416 -41.262  1.00  0.00     0.012 C 
ENDBRANCH  33  36
ENDBRANCH  25  33
ENDBRANCH  24  25
ENDBRANCH   1  22
TORSDOF 9
ENDMDL
MODEL 4
REMARK VINA RESULT: -6.771004211      3.034      6.639
REMARK  9 active torsions:
REMARK  status: ('A' for Active; 'I' for Inactive)
REMARK    1  A    between atoms: C2_2  and  N5_38 
REMARK       I    between atoms: N1_3  and  C3_5 
REMARK       I    between atoms: C3_5  and  N2_6 
REMARK    2  A    between atoms: N2_6  and  C4_8 
REMARK    3  A    between atoms: N3_14  and  C10_16 
REMARK    4  A    between atoms: C10_16  and  C11_17 
REMARK       I    between atoms: C11_17  and  N4_19 
REMARK    5  A    between atoms: N4_19  and  C12_20 
REMARK    6  A    between atoms: C12_20  and  C13_21 
REMARK    7  A    between atoms: C12_20  and  C19_28 
REMARK    8  A    between atoms: C19_28  and  O2_29 
REMARK    9  A    between atoms: C19_28  and  C20_31 
ROOT
HETATM    1  C10 UNL     1      92.275  99.427 -44.291  1.00  0.00     0.257 C 
ENDROOT
BRANCH   1   2
HETATM    2  N3  UNL     1      91.147  99.883 -43.509  1.00  0.00    -0.216 N 
HETATM    3  C3  UNL     1      90.366  99.104 -42.858  1.00  0.00     0.676 C 
HETATM    4  N1  UNL     1      90.569  97.702 -42.866  1.00  0.00    -0.181 N 
HETATM    5  N2  UNL     1      89.272  99.589 -42.098  1.00  0.00    -0.222 N 
HETATM    6  C2  UNL     1      91.301  97.031 -42.074  1.00  0.00     0.091 C 
ATOM      7  H1  UNL     1      90.073  97.175 -43.586  1.00  0.00     0.185 HD
HETATM    8  C1  UNL     1      92.089  97.648 -40.974  1.00  0.00     0.089 C 
ATOM      9  H2  UNL     1      89.469  99.950 -41.164  1.00  0.00     0.178 HD
ATOM     10  H3  UNL     1      90.962 100.885 -43.474  1.00  0.00     0.178 HD
BRANCH   6  11
HETATM   11  N5  UNL     1      91.362  95.624 -42.268  1.00  0.00    -0.371 N 
HETATM   12  C27 UNL     1      91.467  94.652 -41.222  1.00  0.00     0.124 C 
HETATM   13  C28 UNL     1      92.259  93.520 -41.814  1.00  0.00     0.021 C 
HETATM   14  C29 UNL     1      91.996  93.624 -43.287  1.00  0.00     0.021 C 
HETATM   15  C30 UNL     1      91.330  94.954 -43.546  1.00  0.00     0.124 C 
ENDBRANCH   6  11
BRANCH   5  16
HETATM   16  C4  UNL     1      87.911  99.609 -42.542  1.00  0.00     0.099 C 
HETATM   17  C5  UNL     1      87.368 100.984 -42.801  1.00  0.00     0.026 C 
HETATM   18  C6  UNL     1      86.712 101.133 -44.154  1.00  0.00     0.002 C 
HETATM   19  C7  UNL     1      85.683 100.039 -44.392  1.00  0.00     0.000 C 
HETATM   20  C8  UNL     1      86.269  98.695 -44.102  1.00  0.00     0.002 C 
HETATM   21  C9  UNL     1      87.749  98.792 -43.832  1.00  0.00     0.026 C 
ENDBRANCH   5  16
ENDBRANCH   1   2
BRANCH   1  22
HETATM   22  C11 UNL     1      91.779  98.686 -45.535  1.00  0.00     0.310 C 
HETATM   23  O1  UNL     1      92.330  97.569 -45.677  1.00  0.00    -0.255 OA
HETATM   24  N4  UNL     1      90.829  99.296 -46.321  1.00  0.00    -0.370 NA
BRANCH  24  25
HETATM   25  C12 UNL     1      89.889  99.901 -47.098  1.00  0.00     0.128 C 
BRANCH  25  26
HETATM   26  C13 UNL     1      88.643  99.048 -47.328  1.00  0.00     0.003 A 
HETATM   27  C14 UNL     1      87.462  99.657 -47.656  1.00  0.00     0.017 A 
HETATM   28  C15 UNL     1      86.319  98.919 -47.873  1.00  0.00     0.043 A 
HETATM   29  C16 UNL     1      86.333  97.556 -47.766  1.00  0.00     0.116 A 
HETATM   30  F1  UNL     1      85.195  96.847 -47.987  1.00  0.00    -0.206 F 
HETATM   31  C17 UNL     1      87.538  96.960 -47.433  1.00  0.00     0.043 A 
HETATM   32  C18 UNL     1      88.683  97.682 -47.215  1.00  0.00     0.017 A 
ENDBRANCH  25  26
BRANCH  25  33
HETATM   33  C19 UNL     1      89.547 101.329 -47.032  1.00  0.00     0.191 C 
BRANCH  33  34
HETATM   34  O2  UNL     1      89.826 101.747 -45.710  1.00  0.00    -0.388 OA
ATOM     35  H2  UNL     1      90.520 102.393 -45.773  1.00  0.00     0.210 HD
ENDBRANCH  33  34
BRANCH  33  36
HETATM   36  C20 UNL     1      89.946 102.349 -47.982  1.00  0.00    -0.011 C 
HETATM   37  C21 UNL     1      88.853 102.951 -48.824  1.00  0.00     0.018 C 
HETATM   38  C22 UNL     1      90.874 103.384 -47.477  1.00  0.00     0.012 C 
HETATM   39  C23 UNL     1      91.468 104.255 -48.577  1.00  0.00     0.001 C 
HETATM   40  C24 UNL     1      92.493 103.404 -49.291  1.00  0.00     0.000 C 
HETATM   41  C25 UNL     1      92.226 101.949 -49.042  1.00  0.00     0.001 C 
HETATM   42  C26 UNL     1      90.790 101.573 -49.053  1.00  0.00     0.012 C 
ENDBRANCH  33  36
ENDBRANCH  25  33
ENDBRANCH  24  25
ENDBRANCH   1  22
TORSDOF 9
ENDMDL
MODEL 5
REMARK VINA RESULT: -6.737720394      2.765      6.209
REMARK  9 active torsions:
REMARK  status: ('A' for Active; 'I' for Inactive)
REMARK    1  A    between atoms: C2_2  and  N5_38 
REMARK       I    between atoms: N1_3  and  C3_5 
REMARK       I    between atoms: C3_5  and  N2_6 
REMARK    2  A    between atoms: N2_6  and  C4_8 
REMARK    3  A    between atoms: N3_14  and  C10_16 
REMARK    4  A    between atoms: C10_16  and  C11_17 
REMARK       I    between atoms: C11_17  and  N4_19 
REMARK    5  A    between atoms: N4_19  and  C12_20 
REMARK    6  A    between atoms: C12_20  and  C13_21 
REMARK    7  A    between atoms: C12_20  and  C19_28 
REMARK    8  A    between atoms: C19_28  and  O2_29 
REMARK    9  A    between atoms: C19_28  and  C20_31 
ROOT
HETATM    1  C10 UNL     1      88.406  98.020 -47.846  1.00  0.00     0.257 C 
ENDROOT
BRANCH   1   2
HETATM    2  N3  UNL     1      87.079  97.469 -48.012  1.00  0.00    -0.216 N 
HETATM    3  C3  UNL     1      86.171  97.506 -47.109  1.00  0.00     0.676 C 
HETATM    4  N1  UNL     1      86.422  98.107 -45.852  1.00  0.00    -0.181 N 
HETATM    5  N2  UNL     1      84.878  96.959 -47.311  1.00  0.00    -0.222 N 
HETATM    6  C2  UNL     1      86.263  99.330 -45.544  1.00  0.00     0.091 C 
ATOM      7  H1  UNL     1      86.768  97.493 -45.115  1.00  0.00     0.185 HD
HETATM    8  C1  UNL     1      85.768 100.353 -46.503  1.00  0.00     0.089 C 
ATOM      9  H2  UNL     1      84.201  97.525 -47.823  1.00  0.00     0.178 HD
ATOM     10  H3  UNL     1      86.852  97.025 -48.901  1.00  0.00     0.178 HD
BRANCH   6  11
HETATM   11  N5  UNL     1      86.584  99.720 -44.216  1.00  0.00    -0.371 N 
HETATM   12  C27 UNL     1      86.089 100.893 -43.559  1.00  0.00     0.124 C 
HETATM   13  C28 UNL     1      87.191 101.318 -42.629  1.00  0.00     0.021 C 
HETATM   14  C29 UNL     1      87.934 100.047 -42.342  1.00  0.00     0.021 C 
HETATM   15  C30 UNL     1      87.458  99.001 -43.320  1.00  0.00     0.124 C 
ENDBRANCH   6  11
BRANCH   5  16
HETATM   16  C4  UNL     1      84.451  95.673 -46.849  1.00  0.00     0.099 C 
HETATM   17  C5  UNL     1      83.177  95.696 -46.056  1.00  0.00     0.026 C 
HETATM   18  C6  UNL     1      82.146  94.701 -46.535  1.00  0.00     0.002 C 
HETATM   19  C7  UNL     1      82.739  93.306 -46.658  1.00  0.00     0.000 C 
HETATM   20  C8  UNL     1      84.013  93.344 -47.439  1.00  0.00     0.002 C 
HETATM   21  C9  UNL     1      84.250  94.712 -48.028  1.00  0.00     0.026 C 
ENDBRANCH   5  16
ENDBRANCH   1   2
BRANCH   1  22
HETATM   22  C11 UNL     1      89.280  97.038 -47.061  1.00  0.00     0.310 C 
HETATM   23  O1  UNL     1      89.260  95.885 -47.550  1.00  0.00    -0.255 OA
HETATM   24  N4  UNL     1      89.959  97.507 -45.960  1.00  0.00    -0.370 NA
BRANCH  24  25
HETATM   25  C12 UNL     1      90.630  97.972 -44.870  1.00  0.00     0.128 C 
BRANCH  25  26
HETATM   26  C13 UNL     1      90.954  96.890 -43.842  1.00  0.00     0.003 A 
HETATM   27  C14 UNL     1      91.145  97.242 -42.533  1.00  0.00     0.017 A 
HETATM   28  C15 UNL     1      91.435  96.292 -41.579  1.00  0.00     0.043 A 
HETATM   29  C16 UNL     1      91.541  94.970 -41.912  1.00  0.00     0.116 A 
HETATM   30  F1  UNL     1      91.826  94.049 -40.954  1.00  0.00    -0.206 F 
HETATM   31  C17 UNL     1      91.344  94.636 -43.242  1.00  0.00     0.043 A 
HETATM   32  C18 UNL     1      91.054  95.571 -44.202  1.00  0.00     0.017 A 
ENDBRANCH  25  26
BRANCH  25  33
HETATM   33  C19 UNL     1      91.689  98.990 -44.917  1.00  0.00     0.191 C 
BRANCH  33  34
HETATM   34  O2  UNL     1      92.672  98.505 -45.809  1.00  0.00    -0.388 OA
ATOM     35  H2  UNL     1      93.338  99.180 -45.869  1.00  0.00     0.210 HD
ENDBRANCH  33  34
BRANCH  33  36
HETATM   36  C20 UNL     1      91.498 100.416 -45.098  1.00  0.00    -0.011 C 
HETATM   37  C21 UNL     1      92.238 101.056 -46.242  1.00  0.00     0.018 C 
HETATM   38  C22 UNL     1      90.104 100.904 -45.013  1.00  0.00     0.012 C 
HETATM   39  C23 UNL     1      89.996 102.421 -44.935  1.00  0.00     0.001 C 
HETATM   40  C24 UNL     1      90.425 102.810 -43.538  1.00  0.00     0.000 C 
HETATM   41  C25 UNL     1      91.248 101.717 -42.924  1.00  0.00     0.001 C 
HETATM   42  C26 UNL     1      92.202 101.063 -43.854  1.00  0.00     0.012 C 
ENDBRANCH  33  36
ENDBRANCH  25  33
ENDBRANCH  24  25
ENDBRANCH   1  22
TORSDOF 9
ENDMDL
