MODEL 1
REMARK VINA RESULT: -5.228527146      0.000      0.000
REMARK  1 active torsions:
REMARK  status: ('A' for Active; 'I' for Inactive)
REMARK    1  A    between atoms: C2_2  and  C4_4 
ROOT
HETATM    1  C4  UNL     1     -17.321  16.760 -12.184  1.00  0.00     0.223 C 
HETATM    2  C5  UNL     1     -18.156  16.536 -13.382  1.00  0.00     0.111 C 
HETATM    3  S1  UNL     1     -17.681  17.798 -14.627  1.00  0.00    -0.165 SA
HETATM    4  C6  UNL     1     -17.767  19.396 -13.779  1.00  0.00     0.106 C 
HETATM    5  C7  UNL     1     -17.413  19.159 -12.332  1.00  0.00     0.192 C 
HETATM    6  C8  UNL     1     -16.732  20.381 -11.739  1.00  0.00     0.041 C 
HETATM    7  N1  UNL     1     -16.569  17.987 -12.271  1.00  0.00    -0.062 N 
ATOM      8  H11 UNL     1     -15.920  17.963 -13.058  1.00  0.00     0.278 HD
ATOM      9  H12 UNL     1     -15.898  18.060 -11.506  1.00  0.00     0.278 HD
ENDROOT
BRANCH   1  10
HETATM   10  C2  UNL     1     -16.407  15.673 -11.827  1.00  0.00    -0.062 C 
HETATM   11  C1  UNL     1     -15.213  15.966 -11.377  1.00  0.00     0.016 C 
HETATM   12  C3  UNL     1     -16.740  14.225 -11.938  1.00  0.00     0.044 C 
ENDBRANCH   1  10
TORSDOF 1
ENDMDL
MODEL 2
REMARK VINA RESULT: -5.188602470      1.272      1.736
REMARK  1 active torsions:
REMARK  status: ('A' for Active; 'I' for Inactive)
REMARK    1  A    between atoms: C2_2  and  C4_4 
ROOT
HETATM    1  C4  UNL     1     -17.259  17.635 -12.049  1.00  0.00     0.223 C 
HETATM    2  C5  UNL     1     -18.329  18.310 -12.811  1.00  0.00     0.111 C 
HETATM    3  S1  UNL     1     -17.604  19.822 -13.557  1.00  0.00    -0.165 SA
HETATM    4  C6  UNL     1     -16.792  20.709 -12.203  1.00  0.00     0.106 C 
HETATM    5  C7  UNL     1     -16.296  19.678 -11.221  1.00  0.00     0.192 C 
HETATM    6  C8  UNL     1     -15.035  20.163 -10.524  1.00  0.00     0.041 C 
HETATM    7  N1  UNL     1     -16.072  18.448 -11.948  1.00  0.00    -0.062 N 
ATOM      8  H11 UNL     1     -15.677  18.635 -12.870  1.00  0.00     0.278 HD
ATOM      9  H12 UNL     1     -15.300  17.919 -11.542  1.00  0.00     0.278 HD
ENDROOT
BRANCH   1  10
HETATM   10  C2  UNL     1     -16.877  16.303 -12.522  1.00  0.00    -0.062 C 
HETATM   11  C1  UNL     1     -15.970  15.627 -11.862  1.00  0.00     0.016 C 
HETATM   12  C3  UNL     1     -17.455  15.642 -13.725  1.00  0.00     0.044 C 
ENDBRANCH   1  10
TORSDOF 1
ENDMDL
MODEL 3
REMARK VINA RESULT: -5.035005404      0.126      1.067
REMARK  1 active torsions:
REMARK  status: ('A' for Active; 'I' for Inactive)
REMARK    1  A    between atoms: C2_2  and  C4_4 
ROOT
HETATM    1  C4  UNL     1     -17.312  16.801 -12.194  1.00  0.00     0.223 C 
HETATM    2  C5  UNL     1     -18.127  16.541 -13.399  1.00  0.00     0.111 C 
HETATM    3  S1  UNL     1     -17.665  17.797 -14.655  1.00  0.00    -0.165 SA
HETATM    4  C6  UNL     1     -17.798  19.404 -13.830  1.00  0.00     0.106 C 
HETATM    5  C7  UNL     1     -17.458  19.194 -12.376  1.00  0.00     0.192 C 
HETATM    6  C8  UNL     1     -16.812  20.440 -11.791  1.00  0.00     0.041 C 
HETATM    7  N1  UNL     1     -16.587  18.044 -12.288  1.00  0.00    -0.062 N 
ATOM      8  H11 UNL     1     -15.928  18.024 -13.067  1.00  0.00     0.278 HD
ATOM      9  H12 UNL     1     -15.929  18.142 -11.516  1.00  0.00     0.278 HD
ENDROOT
BRANCH   1  10
HETATM   10  C2  UNL     1     -16.379  15.740 -11.810  1.00  0.00    -0.062 C 
HETATM   11  C1  UNL     1     -16.737  14.490 -11.963  1.00  0.00     0.016 C 
HETATM   12  C3  UNL     1     -15.020  15.979 -11.248  1.00  0.00     0.044 C 
ENDBRANCH   1  10
TORSDOF 1
ENDMDL
MODEL 4
REMARK VINA RESULT: -4.907058284      1.138      3.774
REMARK  1 active torsions:
REMARK  status: ('A' for Active; 'I' for Inactive)
REMARK    1  A    between atoms: C2_2  and  C4_4 
ROOT
HETATM    1  C4  UNL     1     -16.815  18.429 -12.878  1.00  0.00     0.223 C 
HETATM    2  C5  UNL     1     -17.631  18.192 -14.087  1.00  0.00     0.111 C 
HETATM    3  S1  UNL     1     -18.676  16.717 -13.763  1.00  0.00    -0.165 SA
HETATM    4  C6  UNL     1     -17.549  15.420 -13.192  1.00  0.00     0.106 C 
HETATM    5  C7  UNL     1     -16.422  16.095 -12.451  1.00  0.00     0.192 C 
HETATM    6  C8  UNL     1     -15.890  15.195 -11.347  1.00  0.00     0.041 C 
HETATM    7  N1  UNL     1     -16.924  17.347 -11.931  1.00  0.00    -0.062 N 
ATOM      8  H11 UNL     1     -17.884  17.247 -11.600  1.00  0.00     0.278 HD
ATOM      9  H12 UNL     1     -16.469  17.586 -11.050  1.00  0.00     0.278 HD
ENDROOT
BRANCH   1  10
HETATM   10  C2  UNL     1     -17.058  19.692 -12.179  1.00  0.00    -0.062 C 
HETATM   11  C1  UNL     1     -16.200  20.096 -11.276  1.00  0.00     0.016 C 
HETATM   12  C3  UNL     1     -18.233  20.575 -12.422  1.00  0.00     0.044 C 
ENDBRANCH   1  10
TORSDOF 1
ENDMDL
MODEL 5
REMARK VINA RESULT: -4.646478858      1.218      3.844
REMARK  1 active torsions:
REMARK  status: ('A' for Active; 'I' for Inactive)
REMARK    1  A    between atoms: C2_2  and  C4_4 
ROOT
HETATM    1  C4  UNL     1     -16.885  18.166 -13.027  1.00  0.00     0.223 C 
HETATM    2  C5  UNL     1     -17.721  17.875 -14.210  1.00  0.00     0.111 C 
HETATM    3  S1  UNL     1     -18.817  16.468 -13.776  1.00  0.00    -0.165 SA
HETATM    4  C6  UNL     1     -17.735  15.172 -13.121  1.00  0.00     0.106 C 
HETATM    5  C7  UNL     1     -16.576  15.855 -12.438  1.00  0.00     0.192 C 
HETATM    6  C8  UNL     1     -16.068  15.015 -11.277  1.00  0.00     0.041 C 
HETATM    7  N1  UNL     1     -17.026  17.159 -12.005  1.00  0.00    -0.062 N 
ATOM      8  H11 UNL     1     -17.985  17.119 -11.661  1.00  0.00     0.278 HD
ATOM      9  H12 UNL     1     -16.553  17.441 -11.146  1.00  0.00     0.278 HD
ENDROOT
BRANCH   1  10
HETATM   10  C2  UNL     1     -17.074  19.484 -12.418  1.00  0.00    -0.062 C 
HETATM   11  C1  UNL     1     -18.020  20.266 -12.871  1.00  0.00     0.016 C 
HETATM   12  C3  UNL     1     -16.253  20.015 -11.294  1.00  0.00     0.044 C 
ENDBRANCH   1  10
TORSDOF 1
ENDMDL
