MODEL 1
REMARK VINA RESULT: -4.910516483      0.000      0.000
REMARK  1 active torsions:
REMARK  status: ('A' for Active; 'I' for Inactive)
REMARK    1  A    between atoms: C4_7  and  O3_9 
ROOT
HETATM    1  C1  UNL     1      26.175 -20.781   1.578  1.00  0.00     0.045 C 
HETATM    2  C2  UNL     1      27.682 -20.860   1.494  1.00  0.00     0.181 C 
HETATM    3  O1  UNL     1      28.229 -20.055   2.506  1.00  0.00    -0.369 OA
HETATM    4  C3  UNL     1      29.480 -19.616   2.011  1.00  0.00     0.273 C 
HETATM    5  S1  UNL     1      30.508 -21.137   1.953  1.00  0.00     0.018 SA
HETATM    6  O2  UNL     1      29.371 -22.416   2.248  1.00  0.00    -0.277 OA
HETATM    7  C4  UNL     1      28.224 -22.229   1.452  1.00  0.00     0.197 C 
HETATM    8  C5  UNL     1      27.257 -23.311   1.858  1.00  0.00     0.082 C 
ENDROOT
BRANCH   7   9
HETATM    9  O3  UNL     1      28.640 -22.547   0.138  1.00  0.00    -0.363 OA
ATOM     10  H3  UNL     1      29.485 -22.152  -0.041  1.00  0.00     0.213 HD
ENDBRANCH   7   9
TORSDOF 1
ENDMDL
MODEL 2
REMARK VINA RESULT: -4.559041679      1.357      2.817
REMARK  1 active torsions:
REMARK  status: ('A' for Active; 'I' for Inactive)
REMARK    1  A    between atoms: C4_7  and  O3_9 
ROOT
HETATM    1  C1  UNL     1      27.283 -23.343   1.882  1.00  0.00     0.045 C 
HETATM    2  C2  UNL     1      28.214 -22.276   1.357  1.00  0.00     0.181 C 
HETATM    3  O1  UNL     1      28.687 -22.676   0.096  1.00  0.00    -0.369 OA
HETATM    4  C3  UNL     1      29.966 -22.086  -0.038  1.00  0.00     0.273 C 
HETATM    5  S1  UNL     1      29.628 -20.285  -0.164  1.00  0.00     0.018 SA
HETATM    6  O2  UNL     1      27.944 -20.152   0.237  1.00  0.00    -0.277 OA
HETATM    7  C4  UNL     1      27.665 -20.910   1.390  1.00  0.00     0.197 C 
HETATM    8  C5  UNL     1      26.174 -20.827   1.590  1.00  0.00     0.082 C 
ENDROOT
BRANCH   7   9
HETATM    9  O3  UNL     1      28.246 -20.178   2.453  1.00  0.00    -0.363 OA
ATOM     10  H3  UNL     1      28.459 -20.761   3.172  1.00  0.00     0.213 HD
ENDBRANCH   7   9
TORSDOF 1
ENDMDL
MODEL 3
REMARK VINA RESULT: -4.411920708      1.091      1.158
REMARK  1 active torsions:
REMARK  status: ('A' for Active; 'I' for Inactive)
REMARK    1  A    between atoms: C4_7  and  O3_9 
ROOT
HETATM    1  C1  UNL     1      27.464 -20.160   2.041  1.00  0.00     0.045 C 
HETATM    2  C2  UNL     1      28.777 -20.799   1.650  1.00  0.00     0.181 C 
HETATM    3  O1  UNL     1      29.736 -20.483   2.626  1.00  0.00    -0.369 OA
HETATM    4  C3  UNL     1      30.980 -20.476   1.952  1.00  0.00     0.273 C 
HETATM    5  S1  UNL     1      31.266 -22.233   1.499  1.00  0.00     0.018 SA
HETATM    6  O2  UNL     1      29.749 -23.002   1.851  1.00  0.00    -0.277 OA
HETATM    7  C4  UNL     1      28.691 -22.234   1.329  1.00  0.00     0.197 C 
HETATM    8  C5  UNL     1      27.424 -22.913   1.779  1.00  0.00     0.082 C 
ENDROOT
BRANCH   7   9
HETATM    9  O3  UNL     1      28.762 -22.424  -0.071  1.00  0.00    -0.363 OA
ATOM     10  H3  UNL     1      27.888 -22.463  -0.440  1.00  0.00     0.213 HD
ENDBRANCH   7   9
TORSDOF 1
ENDMDL
MODEL 4
REMARK VINA RESULT: -4.349698839      1.876      2.458
REMARK  1 active torsions:
REMARK  status: ('A' for Active; 'I' for Inactive)
REMARK    1  A    between atoms: C4_7  and  O3_9 
ROOT
HETATM    1  C1  UNL     1      28.853 -19.469   2.546  1.00  0.00     0.045 C 
HETATM    2  C2  UNL     1      29.175 -20.112   1.217  1.00  0.00     0.181 C 
HETATM    3  O1  UNL     1      30.424 -20.746   1.318  1.00  0.00    -0.369 OA
HETATM    4  C3  UNL     1      30.974 -20.718   0.014  1.00  0.00     0.273 C 
HETATM    5  S1  UNL     1      29.901 -21.847  -0.959  1.00  0.00     0.018 SA
HETATM    6  O2  UNL     1      28.567 -22.170   0.105  1.00  0.00    -0.277 OA
HETATM    7  C4  UNL     1      28.106 -20.966   0.672  1.00  0.00     0.197 C 
HETATM    8  C5  UNL     1      27.036 -21.356   1.659  1.00  0.00     0.082 C 
ENDROOT
BRANCH   7   9
HETATM    9  O3  UNL     1      27.442 -20.299  -0.385  1.00  0.00    -0.363 OA
ATOM     10  H3  UNL     1      27.936 -19.531  -0.646  1.00  0.00     0.213 HD
ENDBRANCH   7   9
TORSDOF 1
ENDMDL
MODEL 5
REMARK VINA RESULT: -4.212259672      2.192      2.945
REMARK  1 active torsions:
REMARK  status: ('A' for Active; 'I' for Inactive)
REMARK    1  A    between atoms: C4_7  and  O3_9 
ROOT
HETATM    1  C1  UNL     1      31.163 -21.498   1.293  1.00  0.00     0.045 C 
HETATM    2  C2  UNL     1      29.682 -21.204   1.333  1.00  0.00     0.181 C 
HETATM    3  O1  UNL     1      29.504 -19.840   1.616  1.00  0.00    -0.369 OA
HETATM    4  C3  UNL     1      28.263 -19.747   2.291  1.00  0.00     0.273 C 
HETATM    5  S1  UNL     1      27.014 -20.175   1.014  1.00  0.00     0.018 SA
HETATM    6  O2  UNL     1      27.966 -20.769  -0.312  1.00  0.00    -0.277 OA
HETATM    7  C4  UNL     1      28.928 -21.681   0.161  1.00  0.00     0.197 C 
HETATM    8  C5  UNL     1      29.771 -22.049  -1.032  1.00  0.00     0.082 C 
ENDROOT
BRANCH   7   9
HETATM    9  O3  UNL     1      28.192 -22.842   0.496  1.00  0.00    -0.363 OA
ATOM     10  H3  UNL     1      27.727 -23.165  -0.267  1.00  0.00     0.213 HD
ENDBRANCH   7   9
TORSDOF 1
ENDMDL
