MODEL 1
REMARK VINA RESULT: -5.965199348      0.000      0.000
REMARK  8 active torsions:
REMARK  status: ('A' for Active; 'I' for Inactive)
REMARK    1  A    between atoms: C2_2  and  C5_6 
REMARK    2  A    between atoms: C5_6  and  C6_7 
REMARK    3  A    between atoms: C6_7  and  C7_8 
REMARK    4  A    between atoms: C7_8  and  C8_9 
REMARK    5  A    between atoms: C8_9  and  O1_10 
REMARK    6  A    between atoms: O1_10  and  C9_11 
REMARK    7  A    between atoms: N2_18  and  N3_20 
REMARK    8  A    between atoms: N3_20  and  C16_22 
ROOT
HETATM    1  C1  UNL     1      19.959  -8.291  -0.559  1.00  0.00     0.051 C 
HETATM    2  C2  UNL     1      19.536  -7.006   0.052  1.00  0.00    -0.028 C 
HETATM    3  C3  UNL     1      20.539  -6.112   0.189  1.00  0.00     0.102 C 
HETATM    4  C4  UNL     1      21.860  -6.432  -0.231  1.00  0.00     0.088 C 
HETATM    5  N1  UNL     1      22.943  -6.711  -0.569  1.00  0.00    -0.192 NA
ENDROOT
BRANCH   2   6
HETATM    6  C5  UNL     1      18.194  -6.642   0.427  1.00  0.00     0.032 C 
HETATM    7  N2  UNL     1      17.894  -6.785   1.703  1.00  0.00    -0.302 N 
ATOM      8  H2  UNL     1      18.621  -7.137   2.325  1.00  0.00     0.186 HD
BRANCH   6   9
HETATM    9  C6  UNL     1      17.178  -6.199  -0.515  1.00  0.00     0.061 C 
BRANCH   9  10
HETATM   10  C7  UNL     1      16.226  -7.227  -1.047  1.00  0.00     0.032 C 
BRANCH  10  11
HETATM   11  C8  UNL     1      14.803  -6.850  -0.975  1.00  0.00     0.168 C 
BRANCH  11  12
HETATM   12  O1  UNL     1      14.552  -5.853  -0.008  1.00  0.00    -0.385 OA
BRANCH  12  13
HETATM   13  C9  UNL     1      13.583  -5.003  -0.439  1.00  0.00     0.129 C 
HETATM   14  C10 UNL     1      13.828  -4.524  -1.879  1.00  0.00     0.033 C 
HETATM   15  C11 UNL     1      12.753  -3.452  -1.989  1.00  0.00     0.003 C 
HETATM   16  C12 UNL     1      12.663  -2.855  -0.600  1.00  0.00     0.011 C 
HETATM   17  C13 UNL     1      13.609  -3.655   0.273  1.00  0.00    -0.021 C 
HETATM   18  C14 UNL     1      13.112  -3.778   1.693  1.00  0.00     0.017 C 
HETATM   19  C15 UNL     1      14.947  -3.007   0.238  1.00  0.00     0.017 C 
ENDBRANCH  12  13
ENDBRANCH  11  12
ENDBRANCH  10  11
ENDBRANCH   9  10
ENDBRANCH   6   9
BRANCH   7  20
HETATM   20  N3  UNL     1      16.673  -6.493   2.252  1.00  0.00    -0.278 N 
ATOM     21  H3  UNL     1      16.225  -5.606   2.016  1.00  0.00     0.189 HD
BRANCH  20  22
HETATM   22  C16 UNL     1      16.014  -7.380   3.135  1.00  0.00     0.199 C 
HETATM   23  N4  UNL     1      16.359  -7.519   4.502  1.00  0.00    -0.068 NA
HETATM   24  S1  UNL     1      14.787  -8.301   2.561  1.00  0.00    -0.043 SA
ENDBRANCH  20  22
ENDBRANCH   7  20
ENDBRANCH   2   6
TORSDOF 8
ENDMDL
MODEL 2
REMARK VINA RESULT: -5.847184132      3.692      7.132
REMARK  8 active torsions:
REMARK  status: ('A' for Active; 'I' for Inactive)
REMARK    1  A    between atoms: C2_2  and  C5_6 
REMARK    2  A    between atoms: C5_6  and  C6_7 
REMARK    3  A    between atoms: C6_7  and  C7_8 
REMARK    4  A    between atoms: C7_8  and  C8_9 
REMARK    5  A    between atoms: C8_9  and  O1_10 
REMARK    6  A    between atoms: O1_10  and  C9_11 
REMARK    7  A    between atoms: N2_18  and  N3_20 
REMARK    8  A    between atoms: N3_20  and  C16_22 
ROOT
HETATM    1  C1  UNL     1      22.500  -6.820  -0.308  1.00  0.00     0.051 C 
HETATM    2  C2  UNL     1      21.144  -6.393   0.119  1.00  0.00    -0.028 C 
HETATM    3  C3  UNL     1      21.139  -5.279   0.882  1.00  0.00     0.102 C 
HETATM    4  C4  UNL     1      22.357  -4.620   1.214  1.00  0.00     0.088 C 
HETATM    5  N1  UNL     1      23.363  -4.095   1.490  1.00  0.00    -0.192 NA
ENDROOT
BRANCH   2   6
HETATM    6  C5  UNL     1      19.900  -7.011  -0.257  1.00  0.00     0.032 C 
HETATM    7  N2  UNL     1      18.806  -6.408   0.168  1.00  0.00    -0.302 N 
ATOM      8  H2  UNL     1      18.918  -5.561   0.724  1.00  0.00     0.186 HD
BRANCH   6   9
HETATM    9  C6  UNL     1      19.801  -8.255  -1.005  1.00  0.00     0.061 C 
BRANCH   9  10
HETATM   10  C7  UNL     1      19.448  -8.167  -2.459  1.00  0.00     0.032 C 
BRANCH  10  11
HETATM   11  C8  UNL     1      20.346  -7.318  -3.263  1.00  0.00     0.168 C 
BRANCH  11  12
HETATM   12  O1  UNL     1      21.606  -7.915  -3.485  1.00  0.00    -0.385 OA
BRANCH  12  13
HETATM   13  C9  UNL     1      22.557  -6.963  -3.673  1.00  0.00     0.129 C 
HETATM   14  C10 UNL     1      22.282  -6.102  -4.917  1.00  0.00     0.033 C 
HETATM   15  C11 UNL     1      23.583  -5.318  -4.992  1.00  0.00     0.003 C 
HETATM   16  C12 UNL     1      24.641  -6.281  -4.497  1.00  0.00     0.011 C 
HETATM   17  C13 UNL     1      23.911  -7.540  -4.072  1.00  0.00    -0.021 C 
HETATM   18  C14 UNL     1      24.579  -8.223  -2.904  1.00  0.00     0.017 C 
HETATM   19  C15 UNL     1      23.828  -8.456  -5.242  1.00  0.00     0.017 C 
ENDBRANCH  12  13
ENDBRANCH  11  12
ENDBRANCH  10  11
ENDBRANCH   9  10
ENDBRANCH   6   9
BRANCH   7  20
HETATM   20  N3  UNL     1      17.532  -6.840  -0.086  1.00  0.00    -0.278 N 
ATOM     21  H3  UNL     1      17.233  -6.957  -1.055  1.00  0.00     0.189 HD
BRANCH  20  22
HETATM   22  C16 UNL     1      16.615  -7.130   0.953  1.00  0.00     0.199 C 
HETATM   23  N4  UNL     1      16.787  -8.197   1.869  1.00  0.00    -0.068 NA
HETATM   24  S1  UNL     1      15.282  -6.193   1.116  1.00  0.00    -0.043 SA
ENDBRANCH  20  22
ENDBRANCH   7  20
ENDBRANCH   2   6
TORSDOF 8
ENDMDL
MODEL 3
REMARK VINA RESULT: -5.722907126      3.782      7.414
REMARK  8 active torsions:
REMARK  status: ('A' for Active; 'I' for Inactive)
REMARK    1  A    between atoms: C2_2  and  C5_6 
REMARK    2  A    between atoms: C5_6  and  C6_7 
REMARK    3  A    between atoms: C6_7  and  C7_8 
REMARK    4  A    between atoms: C7_8  and  C8_9 
REMARK    5  A    between atoms: C8_9  and  O1_10 
REMARK    6  A    between atoms: O1_10  and  C9_11 
REMARK    7  A    between atoms: N2_18  and  N3_20 
REMARK    8  A    between atoms: N3_20  and  C16_22 
ROOT
HETATM    1  C1  UNL     1      22.415  -6.802  -0.391  1.00  0.00     0.051 C 
HETATM    2  C2  UNL     1      21.067  -6.344   0.030  1.00  0.00    -0.028 C 
HETATM    3  C3  UNL     1      21.086  -5.262   0.837  1.00  0.00     0.102 C 
HETATM    4  C4  UNL     1      22.319  -4.659   1.216  1.00  0.00     0.088 C 
HETATM    5  N1  UNL     1      23.338  -4.181   1.530  1.00  0.00    -0.192 NA
ENDROOT
BRANCH   2   6
HETATM    6  C5  UNL     1      19.809  -6.902  -0.391  1.00  0.00     0.032 C 
HETATM    7  N2  UNL     1      18.739  -6.442   0.226  1.00  0.00    -0.302 N 
ATOM      8  H2  UNL     1      18.875  -5.733   0.947  1.00  0.00     0.186 HD
BRANCH   6   9
HETATM    9  C6  UNL     1      19.678  -7.955  -1.387  1.00  0.00     0.061 C 
BRANCH   9  10
HETATM   10  C7  UNL     1      19.660  -7.550  -2.830  1.00  0.00     0.032 C 
BRANCH  10  11
HETATM   11  C8  UNL     1      20.847  -7.961  -3.603  1.00  0.00     0.168 C 
BRANCH  11  12
HETATM   12  O1  UNL     1      21.818  -6.941  -3.694  1.00  0.00    -0.385 OA
BRANCH  12  13
HETATM   13  C9  UNL     1      22.691  -7.203  -4.702  1.00  0.00     0.129 C 
HETATM   14  C10 UNL     1      22.655  -8.678  -5.134  1.00  0.00     0.033 C 
HETATM   15  C11 UNL     1      23.853  -8.710  -6.072  1.00  0.00     0.003 C 
HETATM   16  C12 UNL     1      24.841  -7.734  -5.466  1.00  0.00     0.011 C 
HETATM   17  C13 UNL     1      24.150  -7.113  -4.269  1.00  0.00    -0.021 C 
HETATM   18  C14 UNL     1      24.566  -5.679  -4.048  1.00  0.00     0.017 C 
HETATM   19  C15 UNL     1      24.451  -7.939  -3.068  1.00  0.00     0.017 C 
ENDBRANCH  12  13
ENDBRANCH  11  12
ENDBRANCH  10  11
ENDBRANCH   9  10
ENDBRANCH   6   9
BRANCH   7  20
HETATM   20  N3  UNL     1      17.456  -6.847  -0.034  1.00  0.00    -0.278 N 
ATOM     21  H3  UNL     1      17.150  -6.927  -1.004  1.00  0.00     0.189 HD
BRANCH  20  22
HETATM   22  C16 UNL     1      16.542  -7.158   1.001  1.00  0.00     0.199 C 
HETATM   23  N4  UNL     1      16.732  -8.222   1.916  1.00  0.00    -0.068 NA
HETATM   24  S1  UNL     1      15.188  -6.249   1.159  1.00  0.00    -0.043 SA
ENDBRANCH  20  22
ENDBRANCH   7  20
ENDBRANCH   2   6
TORSDOF 8
ENDMDL
MODEL 4
REMARK VINA RESULT: -5.698258066      2.162      4.312
REMARK  8 active torsions:
REMARK  status: ('A' for Active; 'I' for Inactive)
REMARK    1  A    between atoms: C2_2  and  C5_6 
REMARK    2  A    between atoms: C5_6  and  C6_7 
REMARK    3  A    between atoms: C6_7  and  C7_8 
REMARK    4  A    between atoms: C7_8  and  C8_9 
REMARK    5  A    between atoms: C8_9  and  O1_10 
REMARK    6  A    between atoms: O1_10  and  C9_11 
REMARK    7  A    between atoms: N2_18  and  N3_20 
REMARK    8  A    between atoms: N3_20  and  C16_22 
ROOT
HETATM    1  C1  UNL     1      15.614  -8.088   1.141  1.00  0.00     0.051 C 
HETATM    2  C2  UNL     1      16.840  -7.282   1.366  1.00  0.00    -0.028 C 
HETATM    3  C3  UNL     1      17.127  -7.079   2.669  1.00  0.00     0.102 C 
HETATM    4  C4  UNL     1      16.291  -7.614   3.690  1.00  0.00     0.088 C 
HETATM    5  N1  UNL     1      15.591  -8.047   4.518  1.00  0.00    -0.192 NA
ENDROOT
BRANCH   2   6
HETATM    6  C5  UNL     1      17.730  -6.786   0.349  1.00  0.00     0.032 C 
HETATM    7  N2  UNL     1      18.907  -6.366   0.769  1.00  0.00    -0.302 N 
ATOM      8  H2  UNL     1      19.101  -6.421   1.769  1.00  0.00     0.186 HD
BRANCH   6   9
HETATM    9  C6  UNL     1      17.379  -6.677  -1.059  1.00  0.00     0.061 C 
BRANCH   9  10
HETATM   10  C7  UNL     1      16.627  -5.457  -1.496  1.00  0.00     0.032 C 
BRANCH  10  11
HETATM   11  C8  UNL     1      15.341  -5.728  -2.164  1.00  0.00     0.168 C 
BRANCH  11  12
HETATM   12  O1  UNL     1      14.310  -4.865  -1.734  1.00  0.00    -0.385 OA
BRANCH  12  13
HETATM   13  C9  UNL     1      14.131  -4.970  -0.391  1.00  0.00     0.129 C 
HETATM   14  C10 UNL     1      12.872  -5.777  -0.033  1.00  0.00     0.033 C 
HETATM   15  C11 UNL     1      12.815  -5.529   1.468  1.00  0.00     0.003 C 
HETATM   16  C12 UNL     1      13.341  -4.121   1.645  1.00  0.00     0.011 C 
HETATM   17  C13 UNL     1      13.765  -3.645   0.270  1.00  0.00    -0.021 C 
HETATM   18  C14 UNL     1      14.953  -2.716   0.326  1.00  0.00     0.017 C 
HETATM   19  C15 UNL     1      12.604  -2.976  -0.378  1.00  0.00     0.017 C 
ENDBRANCH  12  13
ENDBRANCH  11  12
ENDBRANCH  10  11
ENDBRANCH   9  10
ENDBRANCH   6   9
BRANCH   7  20
HETATM   20  N3  UNL     1      19.888  -5.861  -0.042  1.00  0.00    -0.278 N 
ATOM     21  H3  UNL     1      19.621  -5.283  -0.839  1.00  0.00     0.189 HD
BRANCH  20  22
HETATM   22  C16 UNL     1      21.261  -6.117   0.189  1.00  0.00     0.199 C 
HETATM   23  N4  UNL     1      21.990  -7.130  -0.483  1.00  0.00    -0.068 NA
HETATM   24  S1  UNL     1      22.062  -5.202   1.286  1.00  0.00    -0.043 SA
ENDBRANCH  20  22
ENDBRANCH   7  20
ENDBRANCH   2   6
TORSDOF 8
ENDMDL
MODEL 5
REMARK VINA RESULT: -5.639918018      3.095      6.984
REMARK  8 active torsions:
REMARK  status: ('A' for Active; 'I' for Inactive)
REMARK    1  A    between atoms: C2_2  and  C5_6 
REMARK    2  A    between atoms: C5_6  and  C6_7 
REMARK    3  A    between atoms: C6_7  and  C7_8 
REMARK    4  A    between atoms: C7_8  and  C8_9 
REMARK    5  A    between atoms: C8_9  and  O1_10 
REMARK    6  A    between atoms: O1_10  and  C9_11 
REMARK    7  A    between atoms: N2_18  and  N3_20 
REMARK    8  A    between atoms: N3_20  and  C16_22 
ROOT
HETATM    1  C1  UNL     1      16.447  -5.299  -1.797  1.00  0.00     0.051 C 
HETATM    2  C2  UNL     1      17.394  -6.350  -1.346  1.00  0.00    -0.028 C 
HETATM    3  C3  UNL     1      17.949  -7.053  -2.357  1.00  0.00     0.102 C 
HETATM    4  C4  UNL     1      17.614  -6.766  -3.711  1.00  0.00     0.088 C 
HETATM    5  N1  UNL     1      17.322  -6.530  -4.817  1.00  0.00    -0.192 NA
ENDROOT
BRANCH   2   6
HETATM    6  C5  UNL     1      17.791  -6.613   0.012  1.00  0.00     0.032 C 
HETATM    7  N2  UNL     1      16.879  -6.374   0.935  1.00  0.00    -0.302 N 
ATOM      8  H2  UNL     1      15.972  -6.025   0.626  1.00  0.00     0.186 HD
BRANCH   6   9
HETATM    9  C6  UNL     1      19.121  -7.057   0.401  1.00  0.00     0.061 C 
BRANCH   9  10
HETATM   10  C7  UNL     1      20.247  -6.076   0.273  1.00  0.00     0.032 C 
BRANCH  10  11
HETATM   11  C8  UNL     1      21.458  -6.606  -0.380  1.00  0.00     0.168 C 
BRANCH  11  12
HETATM   12  O1  UNL     1      21.305  -6.752  -1.775  1.00  0.00    -0.385 OA
BRANCH  12  13
HETATM   13  C9  UNL     1      22.270  -7.566  -2.278  1.00  0.00     0.129 C 
HETATM   14  C10 UNL     1      23.685  -7.056  -1.962  1.00  0.00     0.033 C 
HETATM   15  C11 UNL     1      24.508  -8.007  -2.818  1.00  0.00     0.003 C 
HETATM   16  C12 UNL     1      23.649  -8.268  -4.037  1.00  0.00     0.011 C 
HETATM   17  C13 UNL     1      22.339  -7.543  -3.801  1.00  0.00    -0.021 C 
HETATM   18  C14 UNL     1      21.165  -8.268  -4.412  1.00  0.00     0.017 C 
HETATM   19  C15 UNL     1      22.454  -6.167  -4.356  1.00  0.00     0.017 C 
ENDBRANCH  12  13
ENDBRANCH  11  12
ENDBRANCH  10  11
ENDBRANCH   9  10
ENDBRANCH   6   9
BRANCH   7  20
HETATM   20  N3  UNL     1      17.065  -6.562   2.279  1.00  0.00    -0.278 N 
ATOM     21  H3  UNL     1      17.856  -6.108   2.736  1.00  0.00     0.189 HD
BRANCH  20  22
HETATM   22  C16 UNL     1      16.195  -7.366   3.053  1.00  0.00     0.199 C 
HETATM   23  N4  UNL     1      16.313  -7.513   4.458  1.00  0.00    -0.068 NA
HETATM   24  S1  UNL     1      14.985  -8.174   2.301  1.00  0.00    -0.043 SA
ENDBRANCH  20  22
ENDBRANCH   7  20
ENDBRANCH   2   6
TORSDOF 8
ENDMDL
