MODEL 1
REMARK VINA RESULT: -6.964115993      0.000      0.000
REMARK  6 active torsions:
REMARK  status: ('A' for Active; 'I' for Inactive)
REMARK    1  A    between atoms: C3_6  and  N2_7 
REMARK    2  A    between atoms: N2_7  and  C4_9 
REMARK    3  A    between atoms: C4_9  and  C5_10 
REMARK    4  A    between atoms: C10_18  and  N4_19 
REMARK    5  A    between atoms: N4_19  and  C11_21 
REMARK    6  A    between atoms: C11_21  and  C12_22 
ROOT
HETATM    1  F1  UNL     1      15.184 -12.399   5.027  1.00  0.00    -0.201 F 
HETATM    2  C1  UNL     1      15.254 -12.984   6.247  1.00  0.00     0.176 A 
HETATM    3  C2  UNL     1      16.441 -13.033   6.919  1.00  0.00     0.152 A 
HETATM    4  N1  UNL     1      16.483 -13.618   8.125  1.00  0.00    -0.199 N 
ATOM      5  H1  UNL     1      17.365 -13.659   8.636  1.00  0.00     0.183 HD
HETATM    6  C3  UNL     1      15.375 -14.150   8.672  1.00  0.00     0.679 A 
HETATM    7  N3  UNL     1      14.190 -14.119   8.036  1.00  0.00    -0.174 N 
ATOM      8  H3  UNL     1      13.356 -14.526   8.458  1.00  0.00     0.186 HD
HETATM    9  C10 UNL     1      14.140 -13.536   6.831  1.00  0.00     0.157 A 
ENDROOT
BRANCH   6  10
HETATM   10  N2  UNL     1      15.438 -14.700   9.818  1.00  0.00    -0.224 N 
ATOM     11  H2  UNL     1      16.357 -15.000  10.143  1.00  0.00     0.177 HD
BRANCH  10  12
HETATM   12  C4  UNL     1      14.324 -14.934  10.687  1.00  0.00     0.170 C 
BRANCH  12  13
HETATM   13  C5  UNL     1      14.065 -16.451  10.731  1.00  0.00     0.139 C 
HETATM   14  C6  UNL     1      13.416 -16.765  12.024  1.00  0.00     0.034 C 
HETATM   15  C7  UNL     1      11.924 -16.776  11.975  1.00  0.00     0.005 C 
HETATM   16  C8  UNL     1      11.526 -17.643  10.787  1.00  0.00     0.026 C 
HETATM   17  C9  UNL     1      12.119 -17.016   9.542  1.00  0.00     0.168 C 
HETATM   18  O1  UNL     1      13.450 -16.795   9.579  1.00  0.00    -0.384 OA
ENDBRANCH  12  13
ENDBRANCH  10  12
ENDBRANCH   6  10
BRANCH   9  19
HETATM   19  N4  UNL     1      13.026 -13.489   6.196  1.00  0.00    -0.373 N 
ATOM     20  H4  UNL     1      13.052 -13.353   5.185  1.00  0.00     0.161 HD
BRANCH  19  21
HETATM   21  C11 UNL     1      11.746 -13.616   6.832  1.00  0.00     0.126 C 
BRANCH  21  22
HETATM   22  C12 UNL     1      11.110 -14.920   6.386  1.00  0.00     0.003 A 
HETATM   23  C13 UNL     1       9.701 -14.749   5.816  1.00  0.00     0.007 A 
HETATM   24  C14 UNL     1       9.937 -15.447   7.120  1.00  0.00     0.007 A 
ENDBRANCH  21  22
ENDBRANCH  19  21
ENDBRANCH   9  19
TORSDOF 6
ENDMDL
MODEL 2
REMARK VINA RESULT: -6.956459129      2.685      5.223
REMARK  6 active torsions:
REMARK  status: ('A' for Active; 'I' for Inactive)
REMARK    1  A    between atoms: C3_6  and  N2_7 
REMARK    2  A    between atoms: N2_7  and  C4_9 
REMARK    3  A    between atoms: C4_9  and  C5_10 
REMARK    4  A    between atoms: C10_18  and  N4_19 
REMARK    5  A    between atoms: N4_19  and  C11_21 
REMARK    6  A    between atoms: C11_21  and  C12_22 
ROOT
HETATM    1  F1  UNL     1      12.268 -17.601  11.139  1.00  0.00    -0.201 F 
HETATM    2  C1  UNL     1      12.984 -16.603  10.566  1.00  0.00     0.176 A 
HETATM    3  C2  UNL     1      14.239 -16.311  11.018  1.00  0.00     0.152 A 
HETATM    4  N1  UNL     1      14.926 -15.318  10.432  1.00  0.00    -0.199 N 
ATOM      5  H1  UNL     1      15.865 -15.092  10.762  1.00  0.00     0.183 HD
HETATM    6  C3  UNL     1      14.393 -14.617   9.416  1.00  0.00     0.679 A 
HETATM    7  N3  UNL     1      13.160 -14.880   8.948  1.00  0.00    -0.174 N 
ATOM      8  H3  UNL     1      12.764 -14.341   8.178  1.00  0.00     0.186 HD
HETATM    9  C10 UNL     1      12.468 -15.870   9.527  1.00  0.00     0.157 A 
ENDROOT
BRANCH   6  10
HETATM   10  N2  UNL     1      15.063 -13.679   8.876  1.00  0.00    -0.224 N 
ATOM     11  H2  UNL     1      14.825 -12.723   9.139  1.00  0.00     0.177 HD
BRANCH  10  12
HETATM   12  C4  UNL     1      16.124 -13.857   7.931  1.00  0.00     0.170 C 
BRANCH  12  13
HETATM   13  C5  UNL     1      15.493 -14.110   6.550  1.00  0.00     0.139 C 
HETATM   14  C6  UNL     1      14.572 -12.987   6.257  1.00  0.00     0.034 C 
HETATM   15  C7  UNL     1      15.192 -11.874   5.479  1.00  0.00     0.005 C 
HETATM   16  C8  UNL     1      15.895 -12.506   4.284  1.00  0.00     0.026 C 
HETATM   17  C9  UNL     1      16.942 -13.460   4.819  1.00  0.00     0.168 C 
HETATM   18  O1  UNL     1      16.492 -14.391   5.687  1.00  0.00    -0.384 OA
ENDBRANCH  12  13
ENDBRANCH  10  12
ENDBRANCH   6  10
BRANCH   9  19
HETATM   19  N4  UNL     1      11.288 -16.147   9.106  1.00  0.00    -0.373 N 
ATOM     20  H4  UNL     1      10.558 -16.325   9.797  1.00  0.00     0.161 HD
BRANCH  19  21
HETATM   21  C11 UNL     1      10.939 -16.221   7.716  1.00  0.00     0.126 C 
BRANCH  21  22
HETATM   22  C12 UNL     1      10.068 -15.028   7.369  1.00  0.00     0.003 A 
HETATM   23  C13 UNL     1       9.820 -14.868   5.868  1.00  0.00     0.007 A 
HETATM   24  C14 UNL     1      10.655 -13.887   6.631  1.00  0.00     0.007 A 
ENDBRANCH  21  22
ENDBRANCH  19  21
ENDBRANCH   9  19
TORSDOF 6
ENDMDL
MODEL 3
REMARK VINA RESULT: -6.598706362      2.704      5.089
REMARK  6 active torsions:
REMARK  status: ('A' for Active; 'I' for Inactive)
REMARK    1  A    between atoms: C3_6  and  N2_7 
REMARK    2  A    between atoms: N2_7  and  C4_9 
REMARK    3  A    between atoms: C4_9  and  C5_10 
REMARK    4  A    between atoms: C10_18  and  N4_19 
REMARK    5  A    between atoms: N4_19  and  C11_21 
REMARK    6  A    between atoms: C11_21  and  C12_22 
ROOT
HETATM    1  F1  UNL     1      10.632 -17.971  11.278  1.00  0.00    -0.201 F 
HETATM    2  C1  UNL     1      11.757 -17.240  11.093  1.00  0.00     0.176 A 
HETATM    3  C2  UNL     1      12.721 -17.205  12.059  1.00  0.00     0.152 A 
HETATM    4  N1  UNL     1      13.826 -16.474  11.850  1.00  0.00    -0.199 N 
ATOM      5  H1  UNL     1      14.552 -16.442  12.565  1.00  0.00     0.183 HD
HETATM    6  C3  UNL     1      13.988 -15.781  10.708  1.00  0.00     0.679 A 
HETATM    7  N3  UNL     1      13.057 -15.794   9.737  1.00  0.00    -0.174 N 
ATOM      8  H3  UNL     1      13.189 -15.264   8.875  1.00  0.00     0.186 HD
HETATM    9  C10 UNL     1      11.952 -16.523   9.938  1.00  0.00     0.157 A 
ENDROOT
BRANCH   6  10
HETATM   10  N2  UNL     1      15.044 -15.093  10.531  1.00  0.00    -0.224 N 
ATOM     11  H2  UNL     1      15.444 -14.631  11.348  1.00  0.00     0.177 HD
BRANCH  10  12
HETATM   12  C4  UNL     1      15.717 -14.915   9.280  1.00  0.00     0.170 C 
BRANCH  12  13
HETATM   13  C5  UNL     1      15.236 -13.587   8.666  1.00  0.00     0.139 C 
HETATM   14  C6  UNL     1      16.396 -12.942   8.010  1.00  0.00     0.034 C 
HETATM   15  C7  UNL     1      16.533 -13.261   6.558  1.00  0.00     0.005 C 
HETATM   16  C8  UNL     1      15.170 -13.020   5.920  1.00  0.00     0.026 C 
HETATM   17  C9  UNL     1      14.177 -13.939   6.599  1.00  0.00     0.168 C 
HETATM   18  O1  UNL     1      14.125 -13.848   7.945  1.00  0.00    -0.384 OA
ENDBRANCH  12  13
ENDBRANCH  10  12
ENDBRANCH   6  10
BRANCH   9  19
HETATM   19  N4  UNL     1      11.043 -16.557   9.033  1.00  0.00    -0.373 N 
ATOM     20  H4  UNL     1      10.126 -16.929   9.283  1.00  0.00     0.161 HD
BRANCH  19  21
HETATM   21  C11 UNL     1      11.246 -16.101   7.688  1.00  0.00     0.126 C 
BRANCH  21  22
HETATM   22  C12 UNL     1      10.195 -15.055   7.365  1.00  0.00     0.003 A 
HETATM   23  C13 UNL     1       9.933 -14.895   5.867  1.00  0.00     0.007 A 
HETATM   24  C14 UNL     1      10.594 -13.813   6.664  1.00  0.00     0.007 A 
ENDBRANCH  21  22
ENDBRANCH  19  21
ENDBRANCH   9  19
TORSDOF 6
ENDMDL
MODEL 4
REMARK VINA RESULT: -6.449549838      3.967      6.908
REMARK  6 active torsions:
REMARK  status: ('A' for Active; 'I' for Inactive)
REMARK    1  A    between atoms: C3_6  and  N2_7 
REMARK    2  A    between atoms: N2_7  and  C4_9 
REMARK    3  A    between atoms: C4_9  and  C5_10 
REMARK    4  A    between atoms: C10_18  and  N4_19 
REMARK    5  A    between atoms: N4_19  and  C11_21 
REMARK    6  A    between atoms: C11_21  and  C12_22 
ROOT
HETATM    1  F1  UNL     1      15.405 -14.505   9.615  1.00  0.00    -0.201 F 
HETATM    2  C1  UNL     1      15.413 -13.832   8.440  1.00  0.00     0.176 A 
HETATM    3  C2  UNL     1      16.459 -13.014   8.123  1.00  0.00     0.152 A 
HETATM    4  N1  UNL     1      16.442 -12.359   6.952  1.00  0.00    -0.199 N 
ATOM      5  H1  UNL     1      17.219 -11.746   6.707  1.00  0.00     0.183 HD
HETATM    6  C3  UNL     1      15.413 -12.502   6.098  1.00  0.00     0.679 A 
HETATM    7  N3  UNL     1      14.367 -13.299   6.380  1.00  0.00    -0.174 N 
ATOM      8  H3  UNL     1      13.591 -13.399   5.726  1.00  0.00     0.186 HD
HETATM    9  C10 UNL     1      14.378 -13.957   7.547  1.00  0.00     0.157 A 
ENDROOT
BRANCH   6  10
HETATM   10  N2  UNL     1      15.418 -11.870   4.993  1.00  0.00    -0.224 N 
ATOM     11  H2  UNL     1      16.014 -12.233   4.249  1.00  0.00     0.177 HD
BRANCH  10  12
HETATM   12  C4  UNL     1      14.656 -10.691   4.709  1.00  0.00     0.170 C 
BRANCH  12  13
HETATM   13  C5  UNL     1      15.067 -10.184   3.315  1.00  0.00     0.139 C 
HETATM   14  C6  UNL     1      13.833  -9.834   2.575  1.00  0.00     0.034 C 
HETATM   15  C7  UNL     1      13.435  -8.400   2.691  1.00  0.00     0.005 C 
HETATM   16  C8  UNL     1      14.674  -7.570   2.378  1.00  0.00     0.026 C 
HETATM   17  C9  UNL     1      15.739  -7.935   3.391  1.00  0.00     0.168 C 
HETATM   18  O1  UNL     1      16.027  -9.250   3.484  1.00  0.00    -0.384 OA
ENDBRANCH  12  13
ENDBRANCH  10  12
ENDBRANCH   6  10
BRANCH   9  19
HETATM   19  N4  UNL     1      13.396 -14.726   7.848  1.00  0.00    -0.373 N 
ATOM     20  H4  UNL     1      13.212 -14.910   8.835  1.00  0.00     0.161 HD
BRANCH  19  21
HETATM   21  C11 UNL     1      12.543 -15.341   6.872  1.00  0.00     0.126 C 
BRANCH  21  22
HETATM   22  C12 UNL     1      11.104 -14.968   7.179  1.00  0.00     0.003 A 
HETATM   23  C13 UNL     1      10.203 -14.944   5.944  1.00  0.00     0.007 A 
HETATM   24  C14 UNL     1      10.560 -13.687   6.675  1.00  0.00     0.007 A 
ENDBRANCH  21  22
ENDBRANCH  19  21
ENDBRANCH   9  19
TORSDOF 6
ENDMDL
MODEL 5
REMARK VINA RESULT: -6.338710134      3.761      6.696
REMARK  6 active torsions:
REMARK  status: ('A' for Active; 'I' for Inactive)
REMARK    1  A    between atoms: C3_6  and  N2_7 
REMARK    2  A    between atoms: N2_7  and  C4_9 
REMARK    3  A    between atoms: C4_9  and  C5_10 
REMARK    4  A    between atoms: C10_18  and  N4_19 
REMARK    5  A    between atoms: N4_19  and  C11_21 
REMARK    6  A    between atoms: C11_21  and  C12_22 
ROOT
HETATM    1  F1  UNL     1      15.240 -14.493   9.547  1.00  0.00    -0.201 F 
HETATM    2  C1  UNL     1      15.366 -13.811   8.383  1.00  0.00     0.176 A 
HETATM    3  C2  UNL     1      16.455 -13.017   8.166  1.00  0.00     0.152 A 
HETATM    4  N1  UNL     1      16.555 -12.354   7.004  1.00  0.00    -0.199 N 
ATOM      5  H1  UNL     1      17.365 -11.758   6.832  1.00  0.00     0.183 HD
HETATM    6  C3  UNL     1      15.601 -12.464   6.063  1.00  0.00     0.679 A 
HETATM    7  N3  UNL     1      14.516 -13.238   6.245  1.00  0.00    -0.174 N 
ATOM      8  H3  UNL     1      13.797 -13.314   5.526  1.00  0.00     0.186 HD
HETATM    9  C10 UNL     1      14.409 -13.904   7.402  1.00  0.00     0.157 A 
ENDROOT
BRANCH   6  10
HETATM   10  N2  UNL     1      15.717 -11.825   4.968  1.00  0.00    -0.224 N 
ATOM     11  H2  UNL     1      16.660 -11.676   4.610  1.00  0.00     0.177 HD
BRANCH  10  12
HETATM   12  C4  UNL     1      14.631 -11.298   4.197  1.00  0.00     0.170 C 
BRANCH  12  13
HETATM   13  C5  UNL     1      14.562  -9.781   4.448  1.00  0.00     0.139 C 
HETATM   14  C6  UNL     1      15.624  -9.137   3.642  1.00  0.00     0.034 C 
HETATM   15  C7  UNL     1      15.174  -8.670   2.297  1.00  0.00     0.005 C 
HETATM   16  C8  UNL     1      13.900  -7.863   2.512  1.00  0.00     0.026 C 
HETATM   17  C9  UNL     1      12.879  -8.779   3.153  1.00  0.00     0.168 C 
HETATM   18  O1  UNL     1      13.279  -9.396   4.284  1.00  0.00    -0.384 OA
ENDBRANCH  12  13
ENDBRANCH  10  12
ENDBRANCH   6  10
BRANCH   9  19
HETATM   19  N4  UNL     1      13.387 -14.651   7.610  1.00  0.00    -0.373 N 
ATOM     20  H4  UNL     1      13.206 -14.968   8.563  1.00  0.00     0.161 HD
BRANCH  19  21
HETATM   21  C11 UNL     1      12.485 -15.065   6.575  1.00  0.00     0.126 C 
BRANCH  21  22
HETATM   22  C12 UNL     1      11.117 -14.468   6.853  1.00  0.00     0.003 A 
HETATM   23  C13 UNL     1      10.081 -15.498   7.303  1.00  0.00     0.007 A 
HETATM   24  C14 UNL     1       9.978 -14.815   5.974  1.00  0.00     0.007 A 
ENDBRANCH  21  22
ENDBRANCH  19  21
ENDBRANCH   9  19
TORSDOF 6
ENDMDL
