MODEL 1
REMARK VINA RESULT: -7.143122393      0.000      0.000
REMARK  6 active torsions:
REMARK  status: ('A' for Active; 'I' for Inactive)
REMARK    1  A    between atoms: O1_1  and  C1_3 
REMARK    2  A    between atoms: C1_3  and  C2_4 
REMARK    3  A    between atoms: C1_3  and  C6_9 
REMARK    4  A    between atoms: C11_16  and  N2_17 
REMARK    5  A    between atoms: N2_17  and  C12_20 
REMARK    6  A    between atoms: C12_20  and  C13_21 
ROOT
HETATM    1  C6  UNL     1      16.406  -7.394   1.097  1.00  0.00     0.123 C 
HETATM    2  C7  UNL     1      15.749  -8.152   0.106  1.00  0.00    -0.171 C 
HETATM    3  C8  UNL     1      15.119  -8.790  -0.977  1.00  0.00     0.100 C 
HETATM    4  C9  UNL     1      15.533  -7.969  -2.257  1.00  0.00     0.130 C 
HETATM    5  N1  UNL     1      15.995  -6.640  -1.860  1.00  0.00    -0.399 N 
ATOM      6  H1  UNL     1      15.431  -5.834  -2.127  1.00  0.00     0.158 HD
HETATM    7  C10 UNL     1      17.142  -6.420  -1.151  1.00  0.00     0.089 C 
HETATM    8  C11 UNL     1      17.126  -6.212   0.377  1.00  0.00     0.241 C 
ENDROOT
BRANCH   8   9
HETATM    9  N2  UNL     1      18.519  -6.166   0.747  1.00  0.00    -0.061 N 
ATOM     10  H22 UNL     1      18.818  -5.201   0.887  1.00  0.00     0.278 HD
ATOM     11  H21 UNL     1      18.648  -6.529   1.691  1.00  0.00     0.278 HD
BRANCH   9  12
HETATM   12  C12 UNL     1      19.393  -6.826  -0.159  1.00  0.00     0.271 C 
BRANCH  12  13
HETATM   13  C13 UNL     1      20.779  -6.279   0.063  1.00  0.00    -0.033 A 
HETATM   14  C14 UNL     1      20.986  -5.253   0.982  1.00  0.00     0.009 A 
HETATM   15  C15 UNL     1      22.270  -4.781   1.157  1.00  0.00     0.001 A 
HETATM   16  C16 UNL     1      23.352  -5.284   0.458  1.00  0.00     0.000 A 
HETATM   17  C17 UNL     1      23.142  -6.300  -0.452  1.00  0.00     0.001 A 
HETATM   18  C18 UNL     1      21.865  -6.768  -0.624  1.00  0.00     0.009 A 
ENDBRANCH  12  13
ENDBRANCH   9  12
ENDBRANCH   8   9
BRANCH   1  19
HETATM   19  C1  UNL     1      15.517  -6.882   2.213  1.00  0.00     0.192 C 
BRANCH  19  20
HETATM   20  O1  UNL     1      16.357  -6.065   3.007  1.00  0.00    -0.388 OA
ATOM     21  H1  UNL     1      16.866  -5.536   2.405  1.00  0.00     0.210 HD
ENDBRANCH  19  20
BRANCH  19  22
HETATM   22  C2  UNL     1      14.960  -7.886   3.100  1.00  0.00     0.082 A 
HETATM   23  C3  UNL     1      13.759  -8.572   2.883  1.00  0.00     0.037 A 
HETATM   24  C4  UNL     1      13.561  -9.444   3.942  1.00  0.00     0.027 A 
HETATM   25  C5  UNL     1      14.662  -9.241   4.755  1.00  0.00     0.142 A 
HETATM   26  O2  UNL     1      15.432  -8.331   4.215  1.00  0.00    -0.324 OA
ENDBRANCH  19  22
ENDBRANCH   1  19
TORSDOF 6
ENDMDL
MODEL 2
REMARK VINA RESULT: -7.133226553      0.086      1.017
REMARK  6 active torsions:
REMARK  status: ('A' for Active; 'I' for Inactive)
REMARK    1  A    between atoms: O1_1  and  C1_3 
REMARK    2  A    between atoms: C1_3  and  C2_4 
REMARK    3  A    between atoms: C1_3  and  C6_9 
REMARK    4  A    between atoms: C11_16  and  N2_17 
REMARK    5  A    between atoms: N2_17  and  C12_20 
REMARK    6  A    between atoms: C12_20  and  C13_21 
ROOT
HETATM    1  C6  UNL     1      16.390  -7.386   1.043  1.00  0.00     0.123 C 
HETATM    2  C7  UNL     1      15.738  -8.160   0.061  1.00  0.00    -0.171 C 
HETATM    3  C8  UNL     1      15.108  -8.813  -1.014  1.00  0.00     0.100 C 
HETATM    4  C9  UNL     1      15.487  -7.983  -2.299  1.00  0.00     0.130 C 
HETATM    5  N1  UNL     1      15.923  -6.643  -1.908  1.00  0.00    -0.399 N 
ATOM      6  H1  UNL     1      15.336  -5.850  -2.168  1.00  0.00     0.158 HD
HETATM    7  C10 UNL     1      17.073  -6.396  -1.214  1.00  0.00     0.089 C 
HETATM    8  C11 UNL     1      17.072  -6.188   0.314  1.00  0.00     0.241 C 
ENDROOT
BRANCH   8   9
HETATM    9  N2  UNL     1      18.469  -6.110   0.665  1.00  0.00    -0.061 N 
ATOM     10  H22 UNL     1      18.763  -5.136   0.737  1.00  0.00     0.278 HD
ATOM     11  H21 UNL     1      18.609  -6.408   1.630  1.00  0.00     0.278 HD
BRANCH   9  12
HETATM   12  C12 UNL     1      19.338  -6.824  -0.203  1.00  0.00     0.271 C 
BRANCH  12  13
HETATM   13  C13 UNL     1      20.734  -6.304   0.019  1.00  0.00    -0.033 A 
HETATM   14  C14 UNL     1      21.800  -6.836  -0.702  1.00  0.00     0.009 A 
HETATM   15  C15 UNL     1      23.063  -6.332  -0.472  1.00  0.00     0.001 A 
HETATM   16  C16 UNL     1      23.308  -5.325   0.444  1.00  0.00     0.000 A 
HETATM   17  C17 UNL     1      22.249  -4.801   1.157  1.00  0.00     0.001 A 
HETATM   18  C18 UNL     1      20.995  -5.304   0.925  1.00  0.00     0.009 A 
ENDBRANCH  12  13
ENDBRANCH   9  12
ENDBRANCH   8   9
BRANCH   1  19
HETATM   19  C1  UNL     1      15.504  -6.896   2.171  1.00  0.00     0.192 C 
BRANCH  19  20
HETATM   20  O1  UNL     1      16.350  -6.105   2.986  1.00  0.00    -0.388 OA
ATOM     21  H1  UNL     1      15.855  -5.902   3.771  1.00  0.00     0.210 HD
ENDBRANCH  19  20
BRANCH  19  22
HETATM   22  C2  UNL     1      14.938  -7.917   3.032  1.00  0.00     0.082 A 
HETATM   23  C3  UNL     1      13.706  -8.551   2.824  1.00  0.00     0.037 A 
HETATM   24  C4  UNL     1      13.509  -9.459   3.851  1.00  0.00     0.027 A 
HETATM   25  C5  UNL     1      14.641  -9.330   4.637  1.00  0.00     0.142 A 
HETATM   26  O2  UNL     1      15.426  -8.425   4.112  1.00  0.00    -0.324 OA
ENDBRANCH  19  22
ENDBRANCH   1  19
TORSDOF 6
ENDMDL
MODEL 3
REMARK VINA RESULT: -7.058616162      1.000      1.363
REMARK  6 active torsions:
REMARK  status: ('A' for Active; 'I' for Inactive)
REMARK    1  A    between atoms: O1_1  and  C1_3 
REMARK    2  A    between atoms: C1_3  and  C2_4 
REMARK    3  A    between atoms: C1_3  and  C6_9 
REMARK    4  A    between atoms: C11_16  and  N2_17 
REMARK    5  A    between atoms: N2_17  and  C12_20 
REMARK    6  A    between atoms: C12_20  and  C13_21 
ROOT
HETATM    1  C6  UNL     1      16.759  -7.831   1.033  1.00  0.00     0.123 C 
HETATM    2  C7  UNL     1      16.047  -8.414  -0.035  1.00  0.00    -0.171 C 
HETATM    3  C8  UNL     1      15.321  -8.854  -1.155  1.00  0.00     0.100 C 
HETATM    4  C9  UNL     1      15.306  -7.639  -2.159  1.00  0.00     0.130 C 
HETATM    5  N1  UNL     1      15.606  -6.403  -1.439  1.00  0.00    -0.399 N 
ATOM      6  H1  UNL     1      14.868  -5.705  -1.350  1.00  0.00     0.158 HD
HETATM    7  C10 UNL     1      16.821  -6.132  -0.878  1.00  0.00     0.089 C 
HETATM    8  C11 UNL     1      17.095  -6.364   0.623  1.00  0.00     0.241 C 
ENDROOT
BRANCH   8   9
HETATM    9  N2  UNL     1      18.506  -6.106   0.773  1.00  0.00    -0.061 N 
ATOM     10  H22 UNL     1      18.688  -5.103   0.743  1.00  0.00     0.278 HD
ATOM     11  H21 UNL     1      18.804  -6.310   1.727  1.00  0.00     0.278 HD
BRANCH   9  12
HETATM   12  C12 UNL     1      19.335  -6.786  -0.159  1.00  0.00     0.271 C 
BRANCH  12  13
HETATM   13  C13 UNL     1      20.743  -6.286   0.031  1.00  0.00    -0.033 A 
HETATM   14  C14 UNL     1      21.011  -5.297   0.973  1.00  0.00     0.009 A 
HETATM   15  C15 UNL     1      22.313  -4.867   1.118  1.00  0.00     0.001 A 
HETATM   16  C16 UNL     1      23.356  -5.378   0.367  1.00  0.00     0.000 A 
HETATM   17  C17 UNL     1      23.085  -6.359  -0.566  1.00  0.00     0.001 A 
HETATM   18  C18 UNL     1      21.790  -6.784  -0.708  1.00  0.00     0.009 A 
ENDBRANCH  12  13
ENDBRANCH   9  12
ENDBRANCH   8   9
BRANCH   1  19
HETATM   19  C1  UNL     1      16.053  -7.865   2.375  1.00  0.00     0.192 C 
BRANCH  19  20
HETATM   20  O1  UNL     1      16.517  -9.045   3.005  1.00  0.00    -0.388 OA
ATOM     21  H1  UNL     1      15.757  -9.462   3.392  1.00  0.00     0.210 HD
ENDBRANCH  19  20
BRANCH  19  22
HETATM   22  C2  UNL     1      14.606  -7.960   2.335  1.00  0.00     0.082 A 
HETATM   23  C3  UNL     1      13.861  -9.059   2.781  1.00  0.00     0.037 A 
HETATM   24  C4  UNL     1      12.519  -8.780   2.581  1.00  0.00     0.027 A 
HETATM   25  C5  UNL     1      12.517  -7.516   2.018  1.00  0.00     0.142 A 
HETATM   26  O2  UNL     1      13.751  -7.097   1.903  1.00  0.00    -0.324 OA
ENDBRANCH  19  22
ENDBRANCH   1  19
TORSDOF 6
ENDMDL
MODEL 4
REMARK VINA RESULT: -6.967279939      1.252      1.772
REMARK  6 active torsions:
REMARK  status: ('A' for Active; 'I' for Inactive)
REMARK    1  A    between atoms: O1_1  and  C1_3 
REMARK    2  A    between atoms: C1_3  and  C2_4 
REMARK    3  A    between atoms: C1_3  and  C6_9 
REMARK    4  A    between atoms: C11_16  and  N2_17 
REMARK    5  A    between atoms: N2_17  and  C12_20 
REMARK    6  A    between atoms: C12_20  and  C13_21 
ROOT
HETATM    1  C6  UNL     1      16.028  -7.877   2.062  1.00  0.00     0.123 C 
HETATM    2  C7  UNL     1      15.041  -8.219   1.116  1.00  0.00    -0.171 C 
HETATM    3  C8  UNL     1      14.068  -8.416   0.119  1.00  0.00     0.100 C 
HETATM    4  C9  UNL     1      14.214  -7.196  -0.868  1.00  0.00     0.130 C 
HETATM    5  N1  UNL     1      14.922  -6.106  -0.200  1.00  0.00    -0.399 N 
ATOM      6  H1  UNL     1      14.407  -5.249   0.002  1.00  0.00     0.158 HD
HETATM    7  C10 UNL     1      16.235  -6.171   0.168  1.00  0.00     0.089 C 
HETATM    8  C11 UNL     1      16.661  -6.526   1.608  1.00  0.00     0.241 C 
ENDROOT
BRANCH   8   9
HETATM    9  N2  UNL     1      18.097  -6.636   1.539  1.00  0.00    -0.061 N 
ATOM     10  H22 UNL     1      18.536  -5.822   1.968  1.00  0.00     0.278 HD
ATOM     11  H21 UNL     1      18.427  -7.366   2.171  1.00  0.00     0.278 HD
BRANCH   9  12
HETATM   12  C12 UNL     1      18.613  -6.845   0.232  1.00  0.00     0.271 C 
BRANCH  12  13
HETATM   13  C13 UNL     1      20.071  -6.463   0.250  1.00  0.00    -0.033 A 
HETATM   14  C14 UNL     1      20.983  -7.157  -0.540  1.00  0.00     0.009 A 
HETATM   15  C15 UNL     1      22.308  -6.776  -0.497  1.00  0.00     0.001 A 
HETATM   16  C16 UNL     1      22.761  -5.738   0.297  1.00  0.00     0.000 A 
HETATM   17  C17 UNL     1      21.852  -5.054   1.079  1.00  0.00     0.001 A 
HETATM   18  C18 UNL     1      20.536  -5.434   1.034  1.00  0.00     0.009 A 
ENDBRANCH  12  13
ENDBRANCH   9  12
ENDBRANCH   8   9
BRANCH   1  19
HETATM   19  C1  UNL     1      15.543  -7.788   3.497  1.00  0.00     0.192 C 
BRANCH  19  20
HETATM   20  O1  UNL     1      16.674  -7.375   4.242  1.00  0.00    -0.388 OA
ATOM     21  H1  UNL     1      16.413  -6.595   4.718  1.00  0.00     0.210 HD
ENDBRANCH  19  20
BRANCH  19  22
HETATM   22  C2  UNL     1      15.084  -9.026   4.096  1.00  0.00     0.082 A 
HETATM   23  C3  UNL     1      14.031  -9.133   5.013  1.00  0.00     0.037 A 
HETATM   24  C4  UNL     1      13.890 -10.467   5.356  1.00  0.00     0.027 A 
HETATM   25  C5  UNL     1      14.874 -11.109   4.625  1.00  0.00     0.142 A 
HETATM   26  O2  UNL     1      15.528 -10.224   3.918  1.00  0.00    -0.324 OA
ENDBRANCH  19  22
ENDBRANCH   1  19
TORSDOF 6
ENDMDL
MODEL 5
REMARK VINA RESULT: -6.954192883      6.927     10.463
REMARK  6 active torsions:
REMARK  status: ('A' for Active; 'I' for Inactive)
REMARK    1  A    between atoms: O1_1  and  C1_3 
REMARK    2  A    between atoms: C1_3  and  C2_4 
REMARK    3  A    between atoms: C1_3  and  C6_9 
REMARK    4  A    between atoms: C11_16  and  N2_17 
REMARK    5  A    between atoms: N2_17  and  C12_20 
REMARK    6  A    between atoms: C12_20  and  C13_21 
ROOT
HETATM    1  C6  UNL     1      13.484 -14.047   7.101  1.00  0.00     0.123 C 
HETATM    2  C7  UNL     1      13.638 -14.029   8.502  1.00  0.00    -0.171 C 
HETATM    3  C8  UNL     1      13.938 -14.045   9.876  1.00  0.00     0.100 C 
HETATM    4  C9  UNL     1      15.512 -14.012   9.970  1.00  0.00     0.130 C 
HETATM    5  N1  UNL     1      16.089 -14.437   8.696  1.00  0.00    -0.399 N 
ATOM      6  H1  UNL     1      16.599 -15.321   8.669  1.00  0.00     0.158 HD
HETATM    7  C10 UNL     1      15.982 -13.718   7.540  1.00  0.00     0.089 C 
HETATM    8  C11 UNL     1      14.913 -14.040   6.476  1.00  0.00     0.241 C 
ENDROOT
BRANCH   8   9
HETATM    9  N2  UNL     1      15.038 -12.977   5.509  1.00  0.00    -0.061 N 
ATOM     10  H22 UNL     1      15.808 -13.170   4.868  1.00  0.00     0.278 HD
ATOM     11  H21 UNL     1      14.256 -12.999   4.855  1.00  0.00     0.278 HD
BRANCH   9  12
HETATM   12  C12 UNL     1      15.176 -11.680   6.071  1.00  0.00     0.271 C 
BRANCH  12  13
HETATM   13  C13 UNL     1      14.407 -10.720   5.201  1.00  0.00    -0.033 A 
HETATM   14  C14 UNL     1      13.213 -10.169   5.657  1.00  0.00     0.009 A 
HETATM   15  C15 UNL     1      12.539  -9.294   4.832  1.00  0.00     0.001 A 
HETATM   16  C16 UNL     1      13.001  -8.947   3.575  1.00  0.00     0.000 A 
HETATM   17  C17 UNL     1      14.186  -9.496   3.127  1.00  0.00     0.001 A 
HETATM   18  C18 UNL     1      14.853 -10.365   3.950  1.00  0.00     0.009 A 
ENDBRANCH  12  13
ENDBRANCH   9  12
ENDBRANCH   8   9
BRANCH   1  19
HETATM   19  C1  UNL     1      12.665 -15.201   6.557  1.00  0.00     0.192 C 
BRANCH  19  20
HETATM   20  O1  UNL     1      11.610 -14.595   5.834  1.00  0.00    -0.388 OA
ATOM     21  H1  UNL     1      11.214 -15.280   5.308  1.00  0.00     0.210 HD
ENDBRANCH  19  20
BRANCH  19  22
HETATM   22  C2  UNL     1      12.046 -16.068   7.541  1.00  0.00     0.082 A 
HETATM   23  C3  UNL     1      10.690 -16.048   7.891  1.00  0.00     0.037 A 
HETATM   24  C4  UNL     1      10.479 -17.016   8.860  1.00  0.00     0.027 A 
HETATM   25  C5  UNL     1      11.729 -17.579   9.051  1.00  0.00     0.142 A 
HETATM   26  O2  UNL     1      12.590 -16.989   8.262  1.00  0.00    -0.324 OA
ENDBRANCH  19  22
ENDBRANCH   1  19
TORSDOF 6
ENDMDL
