MODEL 1
REMARK VINA RESULT: -5.348525948      0.000      0.000
REMARK  1 active torsions:
REMARK  status: ('A' for Active; 'I' for Inactive)
REMARK       I    between atoms: N2_7  and  C6_9 
REMARK    1  A    between atoms: C6_9  and  C7_11 
ROOT
HETATM    1  C1  UNL     1      -7.789 -30.283 -25.875  1.00  0.00     0.132 C 
HETATM    2  N1  UNL     1      -7.267 -30.108 -27.230  1.00  0.00    -0.181 NA
HETATM    3  C2  UNL     1      -5.968 -30.657 -27.332  1.00  0.00     0.081 C 
HETATM    4  C3  UNL     1      -5.169 -30.319 -26.071  1.00  0.00     0.041 C 
HETATM    5  C4  UNL     1      -5.169 -30.031 -28.479  1.00  0.00     0.041 C 
HETATM    6  C5  UNL     1      -6.016 -32.104 -27.566  1.00  0.00     0.118 C 
HETATM    7  N2  UNL     1      -5.051 -32.880 -27.209  1.00  0.00    -0.310 N 
ATOM      8  H2  UNL     1      -4.239 -32.462 -26.754  1.00  0.00     0.170 HD
HETATM    9  C6  UNL     1      -5.055 -34.281 -27.415  1.00  0.00     0.257 C 
HETATM   10  O1  UNL     1      -5.562 -34.994 -26.516  1.00  0.00    -0.267 OA
HETATM   11  N3  UNL     1      -7.187 -32.530 -28.196  1.00  0.00    -0.259 N 
ATOM     12  H3  UNL     1      -7.382 -33.462 -28.562  1.00  0.00     0.181 HD
HETATM   13  S1  UNL     1      -8.235 -31.168 -28.233  1.00  0.00     0.304 S 
HETATM   14  O2  UNL     1      -9.555 -31.435 -27.612  1.00  0.00    -0.188 OA
HETATM   15  O3  UNL     1      -8.362 -30.624 -29.619  1.00  0.00    -0.188 OA
ENDROOT
BRANCH   9  16
HETATM   16  C7  UNL     1      -4.510 -34.926 -28.598  1.00  0.00     0.032 A 
HETATM   17  C8  UNL     1      -4.681 -36.285 -28.806  1.00  0.00     0.017 A 
HETATM   18  C9  UNL     1      -4.162 -36.890 -29.929  1.00  0.00     0.001 A 
HETATM   19  C10 UNL     1      -3.458 -36.200 -30.894  1.00  0.00     0.000 A 
HETATM   20  C11 UNL     1      -3.287 -34.848 -30.686  1.00  0.00     0.001 A 
HETATM   21  C12 UNL     1      -3.805 -34.239 -29.563  1.00  0.00     0.017 A 
ENDBRANCH   9  16
TORSDOF 1
ENDMDL
MODEL 2
REMARK VINA RESULT: -5.346724760      0.033      1.078
REMARK  1 active torsions:
REMARK  status: ('A' for Active; 'I' for Inactive)
REMARK       I    between atoms: N2_7  and  C6_9 
REMARK    1  A    between atoms: C6_9  and  C7_11 
ROOT
HETATM    1  C1  UNL     1      -7.771 -30.300 -25.862  1.00  0.00     0.132 C 
HETATM    2  N1  UNL     1      -7.243 -30.124 -27.215  1.00  0.00    -0.181 NA
HETATM    3  C2  UNL     1      -5.947 -30.682 -27.315  1.00  0.00     0.081 C 
HETATM    4  C3  UNL     1      -5.151 -30.354 -26.050  1.00  0.00     0.041 C 
HETATM    5  C4  UNL     1      -5.140 -30.058 -28.457  1.00  0.00     0.041 C 
HETATM    6  C5  UNL     1      -6.005 -32.128 -27.554  1.00  0.00     0.118 C 
HETATM    7  N2  UNL     1      -5.046 -32.912 -27.196  1.00  0.00    -0.310 N 
ATOM      8  H2  UNL     1      -4.233 -32.500 -26.737  1.00  0.00     0.170 HD
HETATM    9  C6  UNL     1      -5.059 -34.311 -27.407  1.00  0.00     0.257 C 
HETATM   10  O1  UNL     1      -5.575 -35.025 -26.512  1.00  0.00    -0.267 OA
HETATM   11  N3  UNL     1      -7.177 -32.543 -28.190  1.00  0.00    -0.259 N 
ATOM     12  H3  UNL     1      -7.377 -33.473 -28.559  1.00  0.00     0.181 HD
HETATM   13  S1  UNL     1      -8.214 -31.174 -28.225  1.00  0.00     0.304 S 
HETATM   14  O2  UNL     1      -9.539 -31.434 -27.610  1.00  0.00    -0.188 OA
HETATM   15  O3  UNL     1      -8.333 -30.625 -29.610  1.00  0.00    -0.188 OA
ENDROOT
BRANCH   9  16
HETATM   16  C7  UNL     1      -4.514 -34.956 -28.590  1.00  0.00     0.032 A 
HETATM   17  C8  UNL     1      -3.817 -34.225 -29.537  1.00  0.00     0.017 A 
HETATM   18  C9  UNL     1      -3.302 -34.841 -30.656  1.00  0.00     0.001 A 
HETATM   19  C10 UNL     1      -3.446 -36.192 -30.899  1.00  0.00     0.000 A 
HETATM   20  C11 UNL     1      -4.141 -36.919 -29.956  1.00  0.00     0.001 A 
HETATM   21  C12 UNL     1      -4.657 -36.305 -28.835  1.00  0.00     0.017 A 
ENDBRANCH   9  16
TORSDOF 1
ENDMDL
MODEL 3
REMARK VINA RESULT: -5.108139398      9.512     11.636
REMARK  1 active torsions:
REMARK  status: ('A' for Active; 'I' for Inactive)
REMARK       I    between atoms: N2_7  and  C6_9 
REMARK    1  A    between atoms: C6_9  and  C7_11 
ROOT
HETATM    1  C1  UNL     1       1.705 -27.061 -37.143  1.00  0.00     0.132 C 
HETATM    2  N1  UNL     1       1.757 -26.157 -35.994  1.00  0.00    -0.181 NA
HETATM    3  C2  UNL     1       0.535 -25.459 -35.861  1.00  0.00     0.081 C 
HETATM    4  C3  UNL     1       0.034 -25.035 -37.244  1.00  0.00     0.041 C 
HETATM    5  C4  UNL     1       0.704 -24.147 -35.088  1.00  0.00     0.041 C 
HETATM    6  C5  UNL     1      -0.466 -26.263 -35.151  1.00  0.00     0.118 C 
HETATM    7  N2  UNL     1      -1.730 -26.086 -35.333  1.00  0.00    -0.310 N 
ATOM      8  H2  UNL     1      -2.025 -25.364 -35.991  1.00  0.00     0.170 HD
HETATM    9  C6  UNL     1      -2.730 -26.837 -34.670  1.00  0.00     0.257 C 
HETATM   10  O1  UNL     1      -3.105 -27.905 -35.214  1.00  0.00    -0.267 OA
HETATM   11  N3  UNL     1       0.088 -27.209 -34.286  1.00  0.00    -0.259 N 
ATOM     12  H3  UNL     1      -0.411 -27.787 -33.609  1.00  0.00     0.181 HD
HETATM   13  S1  UNL     1       1.779 -27.205 -34.591  1.00  0.00     0.304 S 
HETATM   14  O2  UNL     1       2.310 -28.547 -34.933  1.00  0.00    -0.188 OA
HETATM   15  O3  UNL     1       2.527 -26.572 -33.463  1.00  0.00    -0.188 OA
ENDROOT
BRANCH   9  16
HETATM   16  C7  UNL     1      -3.335 -26.443 -33.409  1.00  0.00     0.032 A 
HETATM   17  C8  UNL     1      -4.375 -25.529 -33.378  1.00  0.00     0.017 A 
HETATM   18  C9  UNL     1      -4.945 -25.159 -32.180  1.00  0.00     0.001 A 
HETATM   19  C10 UNL     1      -4.526 -25.663 -30.966  1.00  0.00     0.000 A 
HETATM   20  C11 UNL     1      -3.490 -26.571 -30.997  1.00  0.00     0.001 A 
HETATM   21  C12 UNL     1      -2.918 -26.943 -32.195  1.00  0.00     0.017 A 
ENDBRANCH   9  16
TORSDOF 1
ENDMDL
MODEL 4
REMARK VINA RESULT: -4.583519570      2.134      5.956
REMARK  1 active torsions:
REMARK  status: ('A' for Active; 'I' for Inactive)
REMARK       I    between atoms: N2_7  and  C6_9 
REMARK    1  A    between atoms: C6_9  and  C7_11 
ROOT
HETATM    1  C1  UNL     1      -4.468 -36.502 -29.039  1.00  0.00     0.132 C 
HETATM    2  N1  UNL     1      -4.273 -35.797 -27.773  1.00  0.00    -0.181 NA
HETATM    3  C2  UNL     1      -4.065 -34.418 -28.003  1.00  0.00     0.081 C 
HETATM    4  C3  UNL     1      -3.152 -34.235 -29.218  1.00  0.00     0.041 C 
HETATM    5  C4  UNL     1      -3.314 -33.749 -26.848  1.00  0.00     0.041 C 
HETATM    6  C5  UNL     1      -5.336 -33.706 -28.175  1.00  0.00     0.118 C 
HETATM    7  N2  UNL     1      -5.415 -32.617 -28.859  1.00  0.00    -0.310 N 
ATOM      8  H2  UNL     1      -4.563 -32.253 -29.287  1.00  0.00     0.170 HD
HETATM    9  C6  UNL     1      -6.620 -31.898 -29.051  1.00  0.00     0.257 C 
HETATM   10  O1  UNL     1      -7.331 -32.216 -30.035  1.00  0.00    -0.267 OA
HETATM   11  N3  UNL     1      -6.412 -34.323 -27.533  1.00  0.00    -0.259 N 
ATOM     12  H3  UNL     1      -7.353 -33.946 -27.417  1.00  0.00     0.181 HD
HETATM   13  S1  UNL     1      -5.834 -35.843 -26.980  1.00  0.00     0.304 S 
HETATM   14  O2  UNL     1      -6.648 -36.985 -27.465  1.00  0.00    -0.188 OA
HETATM   15  O3  UNL     1      -5.679 -35.851 -25.494  1.00  0.00    -0.188 OA
ENDROOT
BRANCH   9  16
HETATM   16  C7  UNL     1      -7.069 -30.826 -28.177  1.00  0.00     0.032 A 
HETATM   17  C8  UNL     1      -8.397 -30.433 -28.165  1.00  0.00     0.017 A 
HETATM   18  C9  UNL     1      -8.817 -29.416 -27.335  1.00  0.00     0.001 A 
HETATM   19  C10 UNL     1      -7.963 -28.744 -26.486  1.00  0.00     0.000 A 
HETATM   20  C11 UNL     1      -6.641 -29.135 -26.499  1.00  0.00     0.001 A 
HETATM   21  C12 UNL     1      -6.218 -30.152 -27.329  1.00  0.00     0.017 A 
ENDBRANCH   9  16
TORSDOF 1
ENDMDL
MODEL 5
REMARK VINA RESULT: -4.572899610      2.141      5.983
REMARK  1 active torsions:
REMARK  status: ('A' for Active; 'I' for Inactive)
REMARK       I    between atoms: N2_7  and  C6_9 
REMARK    1  A    between atoms: C6_9  and  C7_11 
ROOT
HETATM    1  C1  UNL     1      -4.435 -36.495 -29.000  1.00  0.00     0.132 C 
HETATM    2  N1  UNL     1      -4.266 -35.789 -27.730  1.00  0.00    -0.181 NA
HETATM    3  C2  UNL     1      -4.062 -34.409 -27.958  1.00  0.00     0.081 C 
HETATM    4  C3  UNL     1      -3.129 -34.221 -29.156  1.00  0.00     0.041 C 
HETATM    5  C4  UNL     1      -3.336 -33.736 -26.789  1.00  0.00     0.041 C 
HETATM    6  C5  UNL     1      -5.333 -33.704 -28.151  1.00  0.00     0.118 C 
HETATM    7  N2  UNL     1      -5.407 -32.616 -28.837  1.00  0.00    -0.310 N 
ATOM      8  H2  UNL     1      -4.550 -32.247 -29.250  1.00  0.00     0.170 HD
HETATM    9  C6  UNL     1      -6.612 -31.903 -29.050  1.00  0.00     0.257 C 
HETATM   10  O1  UNL     1      -7.304 -32.225 -30.046  1.00  0.00    -0.267 OA
HETATM   11  N3  UNL     1      -6.418 -34.327 -27.529  1.00  0.00    -0.259 N 
ATOM     12  H3  UNL     1      -7.363 -33.955 -27.429  1.00  0.00     0.181 HD
HETATM   13  S1  UNL     1      -5.840 -35.844 -26.965  1.00  0.00     0.304 S 
HETATM   14  O2  UNL     1      -6.640 -36.990 -27.465  1.00  0.00    -0.188 OA
HETATM   15  O3  UNL     1      -5.712 -35.851 -25.477  1.00  0.00    -0.188 OA
ENDROOT
BRANCH   9  16
HETATM   16  C7  UNL     1      -7.082 -30.834 -28.184  1.00  0.00     0.032 A 
HETATM   17  C8  UNL     1      -6.206 -30.167 -27.344  1.00  0.00     0.017 A 
HETATM   18  C9  UNL     1      -6.657 -29.154 -26.526  1.00  0.00     0.001 A 
HETATM   19  C10 UNL     1      -7.976 -28.750 -26.494  1.00  0.00     0.000 A 
HETATM   20  C11 UNL     1      -8.847 -29.415 -27.330  1.00  0.00     0.001 A 
HETATM   21  C12 UNL     1      -8.398 -30.429 -28.149  1.00  0.00     0.017 A 
ENDBRANCH   9  16
TORSDOF 1
ENDMDL
