MODEL 1
REMARK VINA RESULT: -9.243887865      0.000      0.000
REMARK  8 active torsions:
REMARK  status: ('A' for Active; 'I' for Inactive)
REMARK    1  A    between atoms: S1_2  and  C1_4 
REMARK    2  A    between atoms: S1_2  and  N1_10 
REMARK    3  A    between atoms: C8_12  and  O3_13 
REMARK    4  A    between atoms: C8_12  and  C9_15 
REMARK    5  A    between atoms: C9_15  and  N2_16 
REMARK    6  A    between atoms: N2_16  and  C10_18 
REMARK    7  A    between atoms: C10_18  and  C11_19 
REMARK    8  A    between atoms: C11_19  and  C12_20 
ROOT
HETATM    1  N1  UNL     1      30.054  22.193  10.727  1.00  0.00    -0.201 NA
HETATM    2  C7  UNL     1      31.180  22.980  10.265  1.00  0.00     0.148 C 
HETATM    3  C8  UNL     1      31.482  21.798   9.326  1.00  0.00     0.099 C 
HETATM    4  C17 UNL     1      30.811  21.010  10.426  1.00  0.00     0.148 C 
ENDROOT
BRANCH   3   5
HETATM    5  O3  UNL     1      30.757  21.940   8.148  1.00  0.00    -0.386 OA
ATOM      6  H3  UNL     1      30.652  21.092   7.733  1.00  0.00     0.210 HD
ENDBRANCH   3   5
BRANCH   3   7
HETATM    7  C9  UNL     1      32.956  21.641   9.170  1.00  0.00     0.154 C 
BRANCH   7   8
HETATM    8  N2  UNL     1      33.381  21.446   7.822  1.00  0.00    -0.418 N 
ATOM      9  H2  UNL     1      33.223  20.565   7.333  1.00  0.00     0.153 HD
BRANCH   8  10
HETATM   10  C10 UNL     1      34.037  22.540   7.195  1.00  0.00     0.120 C 
BRANCH  10  11
HETATM   11  C11 UNL     1      34.415  23.532   8.278  1.00  0.00     0.076 C 
BRANCH  11  12
HETATM   12  C12 UNL     1      35.719  24.159   8.030  1.00  0.00     0.010 A 
HETATM   13  C13 UNL     1      36.275  24.992   9.001  1.00  0.00     0.025 A 
HETATM   14  C14 UNL     1      37.488  25.601   8.823  1.00  0.00     0.003 A 
HETATM   15  C15 UNL     1      38.165  25.375   7.649  1.00  0.00     0.017 A 
HETATM   16  C16 UNL     1      37.602  24.560   6.715  1.00  0.00     0.088 A 
HETATM   17  N3  UNL     1      36.412  23.962   6.890  1.00  0.00    -0.369 N 
ATOM     18  H3  UNL     1      36.032  23.358   6.160  1.00  0.00     0.165 HD
ENDBRANCH  11  12
ENDBRANCH  10  11
ENDBRANCH   8  10
ENDBRANCH   7   8
ENDBRANCH   3   7
BRANCH   1  19
HETATM   19  S1  UNL     1      29.548  22.447  12.329  1.00  0.00     0.243 S 
HETATM   20  O1  UNL     1      30.596  21.948  13.284  1.00  0.00    -0.206 OA
HETATM   21  O2  UNL     1      29.243  23.915  12.593  1.00  0.00    -0.206 OA
BRANCH  19  22
HETATM   22  C1  UNL     1      28.114  21.478  12.588  1.00  0.00     0.074 A 
HETATM   23  C2  UNL     1      27.509  20.741  11.602  1.00  0.00     0.025 A 
HETATM   24  C3  UNL     1      26.386  20.009  11.902  1.00  0.00     0.002 A 
HETATM   25  C4  UNL     1      25.832  19.984  13.178  1.00  0.00     0.000 A 
HETATM   26  C5  UNL     1      26.457  20.729  14.143  1.00  0.00     0.002 A 
HETATM   27  C6  UNL     1      27.570  21.458  13.854  1.00  0.00     0.025 A 
ENDBRANCH  19  22
ENDBRANCH   1  19
TORSDOF 8
ENDMDL
MODEL 2
REMARK VINA RESULT: -9.171634031      1.411      1.854
REMARK  8 active torsions:
REMARK  status: ('A' for Active; 'I' for Inactive)
REMARK    1  A    between atoms: S1_2  and  C1_4 
REMARK    2  A    between atoms: S1_2  and  N1_10 
REMARK    3  A    between atoms: C8_12  and  O3_13 
REMARK    4  A    between atoms: C8_12  and  C9_15 
REMARK    5  A    between atoms: C9_15  and  N2_16 
REMARK    6  A    between atoms: N2_16  and  C10_18 
REMARK    7  A    between atoms: C10_18  and  C11_19 
REMARK    8  A    between atoms: C11_19  and  C12_20 
ROOT
HETATM    1  N1  UNL     1      29.233  22.298  12.038  1.00  0.00    -0.201 NA
HETATM    2  C7  UNL     1      30.339  22.908  11.328  1.00  0.00     0.148 C 
HETATM    3  C8  UNL     1      30.123  21.811  10.268  1.00  0.00     0.099 C 
HETATM    4  C17 UNL     1      29.611  21.039  11.462  1.00  0.00     0.148 C 
ENDROOT
BRANCH   3   5
HETATM    5  O3  UNL     1      29.162  22.228   9.354  1.00  0.00    -0.386 OA
ATOM      6  H3  UNL     1      29.577  22.730   8.662  1.00  0.00     0.210 HD
ENDBRANCH   3   5
BRANCH   3   7
HETATM    7  C9  UNL     1      31.434  21.398   9.694  1.00  0.00     0.154 C 
BRANCH   7   8
HETATM    8  N2  UNL     1      31.563  21.651   8.296  1.00  0.00    -0.418 N 
ATOM      9  H2  UNL     1      30.821  21.410   7.638  1.00  0.00     0.153 HD
BRANCH   8  10
HETATM   10  C10 UNL     1      32.775  22.255   7.865  1.00  0.00     0.120 C 
BRANCH  10  11
HETATM   11  C11 UNL     1      33.299  23.102   9.008  1.00  0.00     0.076 C 
BRANCH  11  12
HETATM   12  C12 UNL     1      34.575  23.751   8.683  1.00  0.00     0.010 A 
HETATM   13  C13 UNL     1      35.153  24.627   9.602  1.00  0.00     0.025 A 
HETATM   14  C14 UNL     1      36.342  25.257   9.351  1.00  0.00     0.003 A 
HETATM   15  C15 UNL     1      36.972  25.010   8.156  1.00  0.00     0.017 A 
HETATM   16  C16 UNL     1      36.388  24.152   7.274  1.00  0.00     0.088 A 
HETATM   17  N3  UNL     1      35.222  23.533   7.520  1.00  0.00    -0.369 N 
ATOM     18  H3  UNL     1      34.825  22.898   6.827  1.00  0.00     0.165 HD
ENDBRANCH  11  12
ENDBRANCH  10  11
ENDBRANCH   8  10
ENDBRANCH   7   8
ENDBRANCH   3   7
BRANCH   1  19
HETATM   19  S1  UNL     1      29.232  22.449  13.730  1.00  0.00     0.243 S 
HETATM   20  O1  UNL     1      30.611  22.195  14.268  1.00  0.00    -0.206 OA
HETATM   21  O2  UNL     1      28.733  23.819  14.169  1.00  0.00    -0.206 OA
BRANCH  19  22
HETATM   22  C1  UNL     1      28.191  21.197  14.370  1.00  0.00     0.074 A 
HETATM   23  C2  UNL     1      28.601  20.268  15.293  1.00  0.00     0.025 A 
HETATM   24  C3  UNL     1      27.710  19.324  15.740  1.00  0.00     0.002 A 
HETATM   25  C4  UNL     1      26.394  19.270  15.289  1.00  0.00     0.000 A 
HETATM   26  C5  UNL     1      26.011  20.210  14.368  1.00  0.00     0.002 A 
HETATM   27  C6  UNL     1      26.890  21.149  13.920  1.00  0.00     0.025 A 
ENDBRANCH  19  22
ENDBRANCH   1  19
TORSDOF 8
ENDMDL
MODEL 3
REMARK VINA RESULT: -9.160287440      1.743      2.364
REMARK  8 active torsions:
REMARK  status: ('A' for Active; 'I' for Inactive)
REMARK    1  A    between atoms: S1_2  and  C1_4 
REMARK    2  A    between atoms: S1_2  and  N1_10 
REMARK    3  A    between atoms: C8_12  and  O3_13 
REMARK    4  A    between atoms: C8_12  and  C9_15 
REMARK    5  A    between atoms: C9_15  and  N2_16 
REMARK    6  A    between atoms: N2_16  and  C10_18 
REMARK    7  A    between atoms: C10_18  and  C11_19 
REMARK    8  A    between atoms: C11_19  and  C12_20 
ROOT
HETATM    1  N1  UNL     1      29.179  22.262  11.991  1.00  0.00    -0.201 NA
HETATM    2  C7  UNL     1      30.175  23.004  11.245  1.00  0.00     0.148 C 
HETATM    3  C8  UNL     1      30.046  21.898  10.181  1.00  0.00     0.099 C 
HETATM    4  C17 UNL     1      29.679  21.061  11.383  1.00  0.00     0.148 C 
ENDROOT
BRANCH   3   5
HETATM    5  O3  UNL     1      29.006  22.207   9.312  1.00  0.00    -0.386 OA
ATOM      6  H3  UNL     1      29.275  22.031   8.417  1.00  0.00     0.210 HD
ENDBRANCH   3   5
BRANCH   3   7
HETATM    7  C9  UNL     1      31.373  21.648   9.549  1.00  0.00     0.154 C 
BRANCH   7   8
HETATM    8  N2  UNL     1      31.354  21.684   8.123  1.00  0.00    -0.418 N 
ATOM      9  H2  UNL     1      30.594  22.129   7.609  1.00  0.00     0.153 HD
BRANCH   8  10
HETATM   10  C10 UNL     1      32.446  21.068   7.454  1.00  0.00     0.120 C 
BRANCH  10  11
HETATM   11  C11 UNL     1      32.678  21.822   6.160  1.00  0.00     0.076 C 
BRANCH  11  12
HETATM   12  C12 UNL     1      33.978  22.504   6.135  1.00  0.00     0.010 A 
HETATM   13  C13 UNL     1      34.456  23.110   7.297  1.00  0.00     0.025 A 
HETATM   14  C14 UNL     1      35.662  23.757   7.331  1.00  0.00     0.003 A 
HETATM   15  C15 UNL     1      36.410  23.803   6.179  1.00  0.00     0.017 A 
HETATM   16  C16 UNL     1      35.922  23.205   5.058  1.00  0.00     0.088 A 
HETATM   17  N3  UNL     1      34.739  22.570   5.024  1.00  0.00    -0.369 N 
ATOM     18  H3  UNL     1      34.417  22.136   4.158  1.00  0.00     0.165 HD
ENDBRANCH  11  12
ENDBRANCH  10  11
ENDBRANCH   8  10
ENDBRANCH   7   8
ENDBRANCH   3   7
BRANCH   1  19
HETATM   19  S1  UNL     1      29.230  22.397  13.683  1.00  0.00     0.243 S 
HETATM   20  O1  UNL     1      30.620  22.113  14.179  1.00  0.00    -0.206 OA
HETATM   21  O2  UNL     1      28.770  23.772  14.149  1.00  0.00    -0.206 OA
BRANCH  19  22
HETATM   22  C1  UNL     1      28.185  21.158  14.343  1.00  0.00     0.074 A 
HETATM   23  C2  UNL     1      28.598  20.230  15.266  1.00  0.00     0.025 A 
HETATM   24  C3  UNL     1      27.703  19.297  15.728  1.00  0.00     0.002 A 
HETATM   25  C4  UNL     1      26.381  19.253  15.295  1.00  0.00     0.000 A 
HETATM   26  C5  UNL     1      25.997  20.192  14.374  1.00  0.00     0.002 A 
HETATM   27  C6  UNL     1      26.878  21.121  13.910  1.00  0.00     0.025 A 
ENDBRANCH  19  22
ENDBRANCH   1  19
TORSDOF 8
ENDMDL
MODEL 4
REMARK VINA RESULT: -9.102082351      3.879      9.181
REMARK  8 active torsions:
REMARK  status: ('A' for Active; 'I' for Inactive)
REMARK    1  A    between atoms: S1_2  and  C1_4 
REMARK    2  A    between atoms: S1_2  and  N1_10 
REMARK    3  A    between atoms: C8_12  and  O3_13 
REMARK    4  A    between atoms: C8_12  and  C9_15 
REMARK    5  A    between atoms: C9_15  and  N2_16 
REMARK    6  A    between atoms: N2_16  and  C10_18 
REMARK    7  A    between atoms: C10_18  and  C11_19 
REMARK    8  A    between atoms: C11_19  and  C12_20 
ROOT
HETATM    1  N1  UNL     1      30.726  22.720  13.520  1.00  0.00    -0.201 NA
HETATM    2  C7  UNL     1      30.594  23.613  14.654  1.00  0.00     0.148 C 
HETATM    3  C8  UNL     1      31.184  22.463  15.491  1.00  0.00     0.099 C 
HETATM    4  C17 UNL     1      30.537  21.617  14.420  1.00  0.00     0.148 C 
ENDROOT
BRANCH   3   5
HETATM    5  O3  UNL     1      32.572  22.529  15.461  1.00  0.00    -0.386 OA
ATOM      6  H3  UNL     1      32.875  23.168  16.095  1.00  0.00     0.210 HD
ENDBRANCH   3   5
BRANCH   3   7
HETATM    7  C9  UNL     1      30.560  22.452  16.845  1.00  0.00     0.154 C 
BRANCH   7   8
HETATM    8  N2  UNL     1      31.109  21.478  17.730  1.00  0.00    -0.418 N 
ATOM      9  H2  UNL     1      31.781  21.731  18.454  1.00  0.00     0.153 HD
BRANCH   8  10
HETATM   10  C10 UNL     1      30.673  20.136  17.553  1.00  0.00     0.120 C 
BRANCH  10  11
HETATM   11  C11 UNL     1      29.297  20.013  18.177  1.00  0.00     0.076 C 
BRANCH  11  12
HETATM   12  C12 UNL     1      28.336  19.354  17.284  1.00  0.00     0.010 A 
HETATM   13  C13 UNL     1      28.079  19.904  16.028  1.00  0.00     0.025 A 
HETATM   14  C14 UNL     1      27.194  19.330  15.155  1.00  0.00     0.003 A 
HETATM   15  C15 UNL     1      26.548  18.181  15.543  1.00  0.00     0.017 A 
HETATM   16  C16 UNL     1      26.815  17.664  16.774  1.00  0.00     0.088 A 
HETATM   17  N3  UNL     1      27.683  18.226  17.630  1.00  0.00    -0.369 N 
ATOM     18  H3  UNL     1      27.849  17.800  18.542  1.00  0.00     0.165 HD
ENDBRANCH  11  12
ENDBRANCH  10  11
ENDBRANCH   8  10
ENDBRANCH   7   8
ENDBRANCH   3   7
BRANCH   1  19
HETATM   19  S1  UNL     1      29.620  22.928  12.248  1.00  0.00     0.243 S 
HETATM   20  O1  UNL     1      28.562  21.862  12.308  1.00  0.00    -0.206 OA
HETATM   21  O2  UNL     1      28.984  24.312  12.279  1.00  0.00    -0.206 OA
BRANCH  19  22
HETATM   22  C1  UNL     1      30.494  22.702  10.748  1.00  0.00     0.074 A 
HETATM   23  C2  UNL     1      29.965  22.071   9.650  1.00  0.00     0.025 A 
HETATM   24  C3  UNL     1      30.727  21.944   8.516  1.00  0.00     0.002 A 
HETATM   25  C4  UNL     1      32.027  22.433   8.433  1.00  0.00     0.000 A 
HETATM   26  C5  UNL     1      32.529  23.059   9.543  1.00  0.00     0.002 A 
HETATM   27  C6  UNL     1      31.780  23.189  10.673  1.00  0.00     0.025 A 
ENDBRANCH  19  22
ENDBRANCH   1  19
TORSDOF 8
ENDMDL
MODEL 5
REMARK VINA RESULT: -9.088432779      1.554      2.069
REMARK  8 active torsions:
REMARK  status: ('A' for Active; 'I' for Inactive)
REMARK    1  A    between atoms: S1_2  and  C1_4 
REMARK    2  A    between atoms: S1_2  and  N1_10 
REMARK    3  A    between atoms: C8_12  and  O3_13 
REMARK    4  A    between atoms: C8_12  and  C9_15 
REMARK    5  A    between atoms: C9_15  and  N2_16 
REMARK    6  A    between atoms: N2_16  and  C10_18 
REMARK    7  A    between atoms: C10_18  and  C11_19 
REMARK    8  A    between atoms: C11_19  and  C12_20 
ROOT
HETATM    1  N1  UNL     1      29.073  22.243  12.013  1.00  0.00    -0.201 NA
HETATM    2  C7  UNL     1      30.195  22.846  11.322  1.00  0.00     0.148 C 
HETATM    3  C8  UNL     1      29.956  21.784  10.233  1.00  0.00     0.099 C 
HETATM    4  C17 UNL     1      29.423  20.991  11.403  1.00  0.00     0.148 C 
ENDROOT
BRANCH   3   5
HETATM    5  O3  UNL     1      29.007  22.249   9.329  1.00  0.00    -0.386 OA
ATOM      6  H3  UNL     1      29.282  22.042   8.443  1.00  0.00     0.210 HD
ENDBRANCH   3   5
BRANCH   3   7
HETATM    7  C9  UNL     1      31.258  21.355   9.649  1.00  0.00     0.154 C 
BRANCH   7   8
HETATM    8  N2  UNL     1      31.430  21.717   8.280  1.00  0.00    -0.418 N 
ATOM      9  H2  UNL     1      30.691  21.573   7.592  1.00  0.00     0.153 HD
BRANCH   8  10
HETATM   10  C10 UNL     1      32.682  22.287   7.922  1.00  0.00     0.120 C 
BRANCH  10  11
HETATM   11  C11 UNL     1      33.226  23.006   9.141  1.00  0.00     0.076 C 
BRANCH  11  12
HETATM   12  C12 UNL     1      34.474  23.723   8.856  1.00  0.00     0.010 A 
HETATM   13  C13 UNL     1      35.095  23.554   7.618  1.00  0.00     0.025 A 
HETATM   14  C14 UNL     1      36.259  24.200   7.299  1.00  0.00     0.003 A 
HETATM   15  C15 UNL     1      36.819  25.035   8.235  1.00  0.00     0.017 A 
HETATM   16  C16 UNL     1      36.196  25.184   9.436  1.00  0.00     0.088 A 
HETATM   17  N3  UNL     1      35.053  24.551   9.750  1.00  0.00    -0.369 N 
ATOM     18  H3  UNL     1      34.624  24.696  10.664  1.00  0.00     0.165 HD
ENDBRANCH  11  12
ENDBRANCH  10  11
ENDBRANCH   8  10
ENDBRANCH   7   8
ENDBRANCH   3   7
BRANCH   1  19
HETATM   19  S1  UNL     1      29.072  22.347  13.709  1.00  0.00     0.243 S 
HETATM   20  O1  UNL     1      30.438  22.025  14.244  1.00  0.00    -0.206 OA
HETATM   21  O2  UNL     1      28.625  23.724  14.184  1.00  0.00    -0.206 OA
BRANCH  19  22
HETATM   22  C1  UNL     1      27.980  21.120  14.311  1.00  0.00     0.074 A 
HETATM   23  C2  UNL     1      26.647  21.067  13.990  1.00  0.00     0.025 A 
HETATM   24  C3  UNL     1      25.868  20.063  14.510  1.00  0.00     0.002 A 
HETATM   25  C4  UNL     1      26.382  19.086  15.359  1.00  0.00     0.000 A 
HETATM   26  C5  UNL     1      27.716  19.163  15.663  1.00  0.00     0.002 A 
HETATM   27  C6  UNL     1      28.494  20.157  15.151  1.00  0.00     0.025 A 
ENDBRANCH  19  22
ENDBRANCH   1  19
TORSDOF 8
ENDMDL
