MODEL 1
REMARK VINA RESULT: -6.803743406      0.000      0.000
REMARK  7 active torsions:
REMARK  status: ('A' for Active; 'I' for Inactive)
REMARK    1  A    between atoms: O1_2  and  C2_3 
REMARK    2  A    between atoms: C2_3  and  C5_6 
REMARK    3  A    between atoms: N1_7  and  N2_9 
REMARK       I    between atoms: N2_9  and  C6_11 
REMARK    4  A    between atoms: C6_11  and  C7_13 
REMARK       I    between atoms: N3_18  and  C12_19 
REMARK    5  A    between atoms: C12_19  and  C13_21 
REMARK    6  A    between atoms: C13_21  and  N4_22 
REMARK    7  A    between atoms: N4_22  and  C14_25 
ROOT
HETATM    1  C7  UNL     1      37.019   2.260   7.796  1.00  0.00     0.114 C 
HETATM    2  C8  UNL     1      37.420   2.840   6.455  1.00  0.00     0.049 C 
HETATM    3  C9  UNL     1      38.090   1.209   8.121  1.00  0.00     0.042 C 
HETATM    4  C10 UNL     1      37.632   0.033   7.315  1.00  0.00     0.023 C 
HETATM    5  C11 UNL     1      36.120   0.075   7.650  1.00  0.00     0.127 C 
HETATM    6  N3  UNL     1      35.812   1.482   7.718  1.00  0.00    -0.333 N 
HETATM    7  C12 UNL     1      34.510   2.030   7.685  1.00  0.00     0.246 C 
HETATM    8  O3  UNL     1      34.394   3.324   7.694  1.00  0.00    -0.271 OA
ENDROOT
BRANCH   1   9
HETATM    9  C6  UNL     1      37.075   3.252   8.878  1.00  0.00     0.264 C 
HETATM   10  N2  UNL     1      37.083   4.648   8.708  1.00  0.00    -0.268 N 
ATOM     11  H2  UNL     1      37.048   5.019   7.758  1.00  0.00     0.190 HD
HETATM   12  O2  UNL     1      37.116   2.832  10.081  1.00  0.00    -0.269 OA
BRANCH  10  13
HETATM   13  N1  UNL     1      37.138   5.554   9.769  1.00  0.00    -0.310 N 
HETATM   14  C5  UNL     1      38.135   6.270  10.084  1.00  0.00     0.117 C 
ATOM     15  H1  UNL     1      36.300   5.648  10.343  1.00  0.00     0.185 HD
BRANCH  14  16
HETATM   16  C2  UNL     1      38.122   7.212  11.227  1.00  0.00     0.086 C 
HETATM   17  C3  UNL     1      39.455   7.925  11.267  1.00  0.00     0.051 C 
HETATM   18  C4  UNL     1      37.972   6.399  12.520  1.00  0.00     0.051 C 
BRANCH  16  19
HETATM   19  O1  UNL     1      37.054   8.086  11.202  1.00  0.00    -0.380 OA
HETATM   20  C1  UNL     1      37.327   9.268  10.523  1.00  0.00     0.203 C 
ENDBRANCH  16  19
ENDBRANCH  14  16
ENDBRANCH  10  13
ENDBRANCH   1   9
BRANCH   7  21
HETATM   21  C13 UNL     1      33.217   1.349   7.647  1.00  0.00     0.335 C 
BRANCH  21  22
HETATM   22  N4  UNL     1      32.345   1.493   8.756  1.00  0.00    -0.063 N 
ATOM     23  H42 UNL     1      32.014   2.454   8.846  1.00  0.00     0.278 HD
ATOM     24  H41 UNL     1      31.450   1.032   8.589  1.00  0.00     0.278 HD
BRANCH  22  25
HETATM   25  C14 UNL     1      32.968   1.020  10.009  1.00  0.00     0.186 C 
HETATM   26  C15 UNL     1      33.214   2.100  10.996  1.00  0.00     0.033 C 
HETATM   27  C16 UNL     1      32.029   2.097  11.959  1.00  0.00     0.002 C 
HETATM   28  C17 UNL     1      31.780   0.624  12.096  1.00  0.00     0.002 C 
HETATM   29  C18 UNL     1      31.921   0.125  10.671  1.00  0.00     0.033 C 
ENDBRANCH  22  25
ENDBRANCH  21  22
ENDBRANCH   7  21
TORSDOF 7
ENDMDL
MODEL 2
REMARK VINA RESULT: -6.798409460      0.545      1.053
REMARK  7 active torsions:
REMARK  status: ('A' for Active; 'I' for Inactive)
REMARK    1  A    between atoms: O1_2  and  C2_3 
REMARK    2  A    between atoms: C2_3  and  C5_6 
REMARK    3  A    between atoms: N1_7  and  N2_9 
REMARK       I    between atoms: N2_9  and  C6_11 
REMARK    4  A    between atoms: C6_11  and  C7_13 
REMARK       I    between atoms: N3_18  and  C12_19 
REMARK    5  A    between atoms: C12_19  and  C13_21 
REMARK    6  A    between atoms: C13_21  and  N4_22 
REMARK    7  A    between atoms: N4_22  and  C14_25 
ROOT
HETATM    1  C7  UNL     1      36.976   2.289   7.834  1.00  0.00     0.114 C 
HETATM    2  C8  UNL     1      37.383   2.865   6.493  1.00  0.00     0.049 C 
HETATM    3  C9  UNL     1      38.051   1.247   8.172  1.00  0.00     0.042 C 
HETATM    4  C10 UNL     1      37.607   0.064   7.369  1.00  0.00     0.023 C 
HETATM    5  C11 UNL     1      36.093   0.097   7.692  1.00  0.00     0.127 C 
HETATM    6  N3  UNL     1      35.774   1.503   7.750  1.00  0.00    -0.333 N 
HETATM    7  C12 UNL     1      34.469   2.041   7.705  1.00  0.00     0.246 C 
HETATM    8  O3  UNL     1      34.344   3.334   7.707  1.00  0.00    -0.271 OA
ENDROOT
BRANCH   1   9
HETATM    9  C6  UNL     1      37.016   3.286   8.911  1.00  0.00     0.264 C 
HETATM   10  N2  UNL     1      37.003   4.682   8.735  1.00  0.00    -0.268 N 
ATOM     11  H2  UNL     1      36.962   5.048   7.784  1.00  0.00     0.190 HD
HETATM   12  O2  UNL     1      37.064   2.872  10.117  1.00  0.00    -0.269 OA
BRANCH  10  13
HETATM   13  N1  UNL     1      37.044   5.593   9.792  1.00  0.00    -0.310 N 
HETATM   14  C5  UNL     1      38.015   6.356  10.079  1.00  0.00     0.117 C 
ATOM     15  H1  UNL     1      36.219   5.650  10.388  1.00  0.00     0.185 HD
BRANCH  14  16
HETATM   16  C2  UNL     1      37.989   7.300  11.219  1.00  0.00     0.086 C 
HETATM   17  C3  UNL     1      37.016   8.411  10.891  1.00  0.00     0.051 C 
HETATM   18  C4  UNL     1      39.387   7.915  11.369  1.00  0.00     0.051 C 
BRANCH  16  19
HETATM   19  O1  UNL     1      37.711   6.692  12.427  1.00  0.00    -0.380 OA
HETATM   20  C1  UNL     1      37.655   7.584  13.491  1.00  0.00     0.203 C 
ENDBRANCH  16  19
ENDBRANCH  14  16
ENDBRANCH  10  13
ENDBRANCH   1   9
BRANCH   7  21
HETATM   21  C13 UNL     1      33.182   1.350   7.660  1.00  0.00     0.335 C 
BRANCH  21  22
HETATM   22  N4  UNL     1      32.305   1.485   8.768  1.00  0.00    -0.063 N 
ATOM     23  H42 UNL     1      31.971   2.444   8.863  1.00  0.00     0.278 HD
ATOM     24  H41 UNL     1      31.412   1.022   8.594  1.00  0.00     0.278 HD
BRANCH  22  25
HETATM   25  C14 UNL     1      32.925   1.004  10.019  1.00  0.00     0.186 C 
HETATM   26  C15 UNL     1      33.192   2.082  11.003  1.00  0.00     0.033 C 
HETATM   27  C16 UNL     1      32.011   2.100  11.970  1.00  0.00     0.002 C 
HETATM   28  C17 UNL     1      31.738   0.632  12.112  1.00  0.00     0.002 C 
HETATM   29  C18 UNL     1      31.866   0.128  10.688  1.00  0.00     0.033 C 
ENDBRANCH  22  25
ENDBRANCH  21  22
ENDBRANCH   7  21
TORSDOF 7
ENDMDL
MODEL 3
REMARK VINA RESULT: -6.765876350      0.618      1.070
REMARK  7 active torsions:
REMARK  status: ('A' for Active; 'I' for Inactive)
REMARK    1  A    between atoms: O1_2  and  C2_3 
REMARK    2  A    between atoms: C2_3  and  C5_6 
REMARK    3  A    between atoms: N1_7  and  N2_9 
REMARK       I    between atoms: N2_9  and  C6_11 
REMARK    4  A    between atoms: C6_11  and  C7_13 
REMARK       I    between atoms: N3_18  and  C12_19 
REMARK    5  A    between atoms: C12_19  and  C13_21 
REMARK    6  A    between atoms: C13_21  and  N4_22 
REMARK    7  A    between atoms: N4_22  and  C14_25 
ROOT
HETATM    1  C7  UNL     1      37.050   2.232   7.811  1.00  0.00     0.114 C 
HETATM    2  C8  UNL     1      37.463   2.826   6.480  1.00  0.00     0.049 C 
HETATM    3  C9  UNL     1      38.099   1.155   8.118  1.00  0.00     0.042 C 
HETATM    4  C10 UNL     1      37.619   0.002   7.293  1.00  0.00     0.023 C 
HETATM    5  C11 UNL     1      36.108   0.068   7.628  1.00  0.00     0.127 C 
HETATM    6  N3  UNL     1      35.827   1.480   7.719  1.00  0.00    -0.333 N 
HETATM    7  C12 UNL     1      34.537   2.053   7.696  1.00  0.00     0.246 C 
HETATM    8  O3  UNL     1      34.446   3.349   7.726  1.00  0.00    -0.271 OA
ENDROOT
BRANCH   1   9
HETATM    9  C6  UNL     1      37.124   3.204   8.909  1.00  0.00     0.264 C 
HETATM   10  N2  UNL     1      37.200   4.601   8.762  1.00  0.00    -0.268 N 
ATOM     11  H2  UNL     1      37.204   4.987   7.818  1.00  0.00     0.190 HD
HETATM   12  O2  UNL     1      37.117   2.765  10.107  1.00  0.00    -0.269 OA
BRANCH  10  13
HETATM   13  N1  UNL     1      37.270   5.488   9.839  1.00  0.00    -0.310 N 
HETATM   14  C5  UNL     1      38.303   6.119  10.216  1.00  0.00     0.117 C 
ATOM     15  H1  UNL     1      36.413   5.642  10.370  1.00  0.00     0.185 HD
BRANCH  14  16
HETATM   16  C2  UNL     1      38.304   7.045  11.370  1.00  0.00     0.086 C 
HETATM   17  C3  UNL     1      37.922   6.261  12.606  1.00  0.00     0.051 C 
HETATM   18  C4  UNL     1      37.231   8.117  11.130  1.00  0.00     0.051 C 
BRANCH  16  19
HETATM   19  O1  UNL     1      39.494   7.728  11.522  1.00  0.00    -0.380 OA
HETATM   20  C1  UNL     1      40.165   7.936  10.322  1.00  0.00     0.203 C 
ENDBRANCH  16  19
ENDBRANCH  14  16
ENDBRANCH  10  13
ENDBRANCH   1   9
BRANCH   7  21
HETATM   21  C13 UNL     1      33.231   1.398   7.646  1.00  0.00     0.335 C 
BRANCH  21  22
HETATM   22  N4  UNL     1      32.359   1.545   8.755  1.00  0.00    -0.063 N 
ATOM     23  H42 UNL     1      32.045   2.510   8.855  1.00  0.00     0.278 HD
ATOM     24  H41 UNL     1      31.457   1.101   8.581  1.00  0.00     0.278 HD
BRANCH  22  25
HETATM   25  C14 UNL     1      32.971   1.047  10.004  1.00  0.00     0.186 C 
HETATM   26  C15 UNL     1      33.225   2.110  11.007  1.00  0.00     0.033 C 
HETATM   27  C16 UNL     1      32.036   2.107  11.965  1.00  0.00     0.002 C 
HETATM   28  C17 UNL     1      31.770   0.635  12.080  1.00  0.00     0.002 C 
HETATM   29  C18 UNL     1      31.911   0.155  10.649  1.00  0.00     0.033 C 
ENDBRANCH  22  25
ENDBRANCH  21  22
ENDBRANCH   7  21
TORSDOF 7
ENDMDL
MODEL 4
REMARK VINA RESULT: -6.659975223      2.962      5.744
REMARK  7 active torsions:
REMARK  status: ('A' for Active; 'I' for Inactive)
REMARK    1  A    between atoms: O1_2  and  C2_3 
REMARK    2  A    between atoms: C2_3  and  C5_6 
REMARK    3  A    between atoms: N1_7  and  N2_9 
REMARK       I    between atoms: N2_9  and  C6_11 
REMARK    4  A    between atoms: C6_11  and  C7_13 
REMARK       I    between atoms: N3_18  and  C12_19 
REMARK    5  A    between atoms: C12_19  and  C13_21 
REMARK    6  A    between atoms: C13_21  and  N4_22 
REMARK    7  A    between atoms: N4_22  and  C14_25 
ROOT
HETATM    1  C7  UNL     1      38.818   2.375   9.240  1.00  0.00     0.114 C 
HETATM    2  C8  UNL     1      39.832   1.261   9.402  1.00  0.00     0.049 C 
HETATM    3  C9  UNL     1      39.467   3.611   9.877  1.00  0.00     0.042 C 
HETATM    4  C10 UNL     1      39.203   3.391  11.334  1.00  0.00     0.023 C 
HETATM    5  C11 UNL     1      37.719   2.953  11.255  1.00  0.00     0.127 C 
HETATM    6  N3  UNL     1      37.645   2.170  10.047  1.00  0.00    -0.333 N 
HETATM    7  C12 UNL     1      36.585   1.300   9.708  1.00  0.00     0.246 C 
HETATM    8  O3  UNL     1      36.688   0.613   8.610  1.00  0.00    -0.271 OA
ENDROOT
BRANCH   1   9
HETATM    9  C6  UNL     1      38.576   2.717   7.832  1.00  0.00     0.264 C 
HETATM   10  N2  UNL     1      38.779   1.859   6.735  1.00  0.00    -0.268 N 
ATOM     11  H2  UNL     1      39.122   0.916   6.918  1.00  0.00     0.190 HD
HETATM   12  O2  UNL     1      38.142   3.885   7.559  1.00  0.00    -0.269 OA
BRANCH  10  13
HETATM   13  N1  UNL     1      38.536   2.229   5.411  1.00  0.00    -0.310 N 
HETATM   14  C5  UNL     1      37.688   1.696   4.634  1.00  0.00     0.117 C 
ATOM     15  H1  UNL     1      39.090   2.998   5.035  1.00  0.00     0.185 HD
BRANCH  14  16
HETATM   16  C2  UNL     1      37.484   2.142   3.237  1.00  0.00     0.086 C 
HETATM   17  C3  UNL     1      38.332   3.373   3.005  1.00  0.00     0.051 C 
HETATM   18  C4  UNL     1      36.009   2.535   3.067  1.00  0.00     0.051 C 
BRANCH  16  19
HETATM   19  O1  UNL     1      37.722   1.150   2.306  1.00  0.00    -0.380 OA
HETATM   20  C1  UNL     1      38.352   1.616   1.157  1.00  0.00     0.203 C 
ENDBRANCH  16  19
ENDBRANCH  14  16
ENDBRANCH  10  13
ENDBRANCH   1   9
BRANCH   7  21
HETATM   21  C13 UNL     1      35.335   1.039  10.420  1.00  0.00     0.335 C 
BRANCH  21  22
HETATM   22  N4  UNL     1      34.198   0.649   9.666  1.00  0.00    -0.063 N 
ATOM     23  H42 UNL     1      34.416   0.583   8.672  1.00  0.00     0.278 HD
ATOM     24  H41 UNL     1      33.953  -0.326   9.841  1.00  0.00     0.278 HD
BRANCH  22  25
HETATM   25  C14 UNL     1      33.047   1.544   9.907  1.00  0.00     0.186 C 
HETATM   26  C15 UNL     1      31.804   0.827  10.280  1.00  0.00     0.033 C 
HETATM   27  C16 UNL     1      31.726   0.842  11.805  1.00  0.00     0.002 C 
HETATM   28  C17 UNL     1      32.239   2.220  12.101  1.00  0.00     0.002 C 
HETATM   29  C18 UNL     1      33.414   2.351  11.151  1.00  0.00     0.033 C 
ENDBRANCH  22  25
ENDBRANCH  21  22
ENDBRANCH   7  21
TORSDOF 7
ENDMDL
MODEL 5
REMARK VINA RESULT: -6.618494851      1.994      6.717
REMARK  7 active torsions:
REMARK  status: ('A' for Active; 'I' for Inactive)
REMARK    1  A    between atoms: O1_2  and  C2_3 
REMARK    2  A    between atoms: C2_3  and  C5_6 
REMARK    3  A    between atoms: N1_7  and  N2_9 
REMARK       I    between atoms: N2_9  and  C6_11 
REMARK    4  A    between atoms: C6_11  and  C7_13 
REMARK       I    between atoms: N3_18  and  C12_19 
REMARK    5  A    between atoms: C12_19  and  C13_21 
REMARK    6  A    between atoms: C13_21  and  N4_22 
REMARK    7  A    between atoms: N4_22  and  C14_25 
ROOT
HETATM    1  C7  UNL     1      38.649   2.024   8.668  1.00  0.00     0.114 C 
HETATM    2  C8  UNL     1      39.505   1.201   9.608  1.00  0.00     0.049 C 
HETATM    3  C9  UNL     1      39.114   1.643   7.256  1.00  0.00     0.042 C 
HETATM    4  C10 UNL     1      40.346   2.478   7.093  1.00  0.00     0.023 C 
HETATM    5  C11 UNL     1      39.813   3.819   7.656  1.00  0.00     0.127 C 
HETATM    6  N3  UNL     1      38.948   3.429   8.742  1.00  0.00    -0.333 N 
HETATM    7  C12 UNL     1      38.478   4.293   9.755  1.00  0.00     0.246 C 
HETATM    8  O3  UNL     1      37.753   3.781  10.704  1.00  0.00    -0.271 OA
ENDROOT
BRANCH   1   9
HETATM    9  C6  UNL     1      37.226   1.667   8.743  1.00  0.00     0.264 C 
HETATM   10  N2  UNL     1      36.574   1.140   9.873  1.00  0.00    -0.268 N 
ATOM     11  H2  UNL     1      37.122   0.988  10.719  1.00  0.00     0.190 HD
HETATM   12  O2  UNL     1      36.503   1.844   7.707  1.00  0.00    -0.269 OA
BRANCH  10  13
HETATM   13  N1  UNL     1      35.216   0.813   9.896  1.00  0.00    -0.310 N 
HETATM   14  C5  UNL     1      34.313   1.434  10.534  1.00  0.00     0.117 C 
ATOM     15  H1  UNL     1      34.924   0.002   9.352  1.00  0.00     0.185 HD
BRANCH  14  16
HETATM   16  C2  UNL     1      32.889   1.030  10.514  1.00  0.00     0.086 C 
HETATM   17  C3  UNL     1      32.356   1.248   9.115  1.00  0.00     0.051 C 
HETATM   18  C4  UNL     1      32.114   1.944  11.472  1.00  0.00     0.051 C 
BRANCH  16  19
HETATM   19  O1  UNL     1      32.680  -0.258  10.966  1.00  0.00    -0.380 OA
HETATM   20  C1  UNL     1      31.361  -0.504  11.330  1.00  0.00     0.203 C 
ENDBRANCH  16  19
ENDBRANCH  14  16
ENDBRANCH  10  13
ENDBRANCH   1   9
BRANCH   7  21
HETATM   21  C13 UNL     1      38.680   5.732   9.914  1.00  0.00     0.335 C 
BRANCH  21  22
HETATM   22  N4  UNL     1      37.850   6.433  10.827  1.00  0.00    -0.063 N 
ATOM     23  H42 UNL     1      37.406   7.238  10.383  1.00  0.00     0.278 HD
ATOM     24  H41 UNL     1      37.013   5.896  11.057  1.00  0.00     0.278 HD
BRANCH  22  25
HETATM   25  C14 UNL     1      38.587   6.829  12.045  1.00  0.00     0.186 C 
HETATM   26  C15 UNL     1      38.388   8.250  12.424  1.00  0.00     0.033 C 
HETATM   27  C16 UNL     1      37.279   8.277  13.472  1.00  0.00     0.002 C 
HETATM   28  C17 UNL     1      37.606   7.044  14.262  1.00  0.00     0.002 C 
HETATM   29  C18 UNL     1      37.947   6.035  13.183  1.00  0.00     0.033 C 
ENDBRANCH  22  25
ENDBRANCH  21  22
ENDBRANCH   7  21
TORSDOF 7
ENDMDL
