MODEL 1
REMARK VINA RESULT: -9.038934529      0.000      0.000
REMARK  9 active torsions:
REMARK  status: ('A' for Active; 'I' for Inactive)
REMARK    1  A    between atoms: C2_2  and  C4_4 
REMARK    2  A    between atoms: C4_4  and  C5_5 
REMARK    3  A    between atoms: C4_4  and  N1_8 
REMARK    4  A    between atoms: C7_11  and  C8_12 
REMARK    5  A    between atoms: C8_12  and  C9_13 
REMARK    6  A    between atoms: C12_16  and  O4_17 
REMARK    7  A    between atoms: C13_19  and  O5_20 
REMARK    8  A    between atoms: C16_24  and  C17_25 
REMARK    9  A    between atoms: C22_30  and  C23_32 
ROOT
HETATM    1  N1  UNL     1     -14.360   1.157 -14.402  1.00  0.00    -0.274 N 
HETATM    2  C6  UNL     1     -15.022   1.865 -15.475  1.00  0.00     0.265 A 
HETATM    3  O3  UNL     1     -14.693   2.784 -16.278  1.00  0.00    -0.267 OA
HETATM    4  C7  UNL     1     -16.220   1.109 -15.273  1.00  0.00     0.060 A 
HETATM    5  C15 UNL     1     -15.541   0.380 -14.175  1.00  0.00     0.058 A 
HETATM    6  C16 UNL     1     -15.977  -0.619 -13.424  1.00  0.00     0.031 C 
ENDROOT
BRANCH   1   7
HETATM    7  C4  UNL     1     -13.013   1.257 -13.870  1.00  0.00     0.100 C 
BRANCH   7   8
HETATM    8  C2  UNL     1     -11.939   0.627 -14.667  1.00  0.00     0.035 C 
HETATM    9  C1  UNL     1     -12.102  -0.910 -14.560  1.00  0.00     0.016 C 
HETATM   10  C3  UNL     1     -10.527   0.920 -14.427  1.00  0.00     0.016 C 
ENDBRANCH   7   8
BRANCH   7  11
HETATM   11  C5  UNL     1     -12.758   2.483 -13.159  1.00  0.00     0.223 C 
HETATM   12  O1  UNL     1     -12.699   2.469 -11.888  1.00  0.00    -0.643 OA
HETATM   13  O2  UNL     1     -12.561   3.731 -13.733  1.00  0.00    -0.643 OA
ENDBRANCH   7  11
ENDBRANCH   1   7
BRANCH   4  14
HETATM   14  C8  UNL     1     -17.422   1.075 -15.813  1.00  0.00     0.031 C 
BRANCH  14  15
HETATM   15  C9  UNL     1     -18.580   1.788 -15.337  1.00  0.00    -0.032 A 
HETATM   16  C10 UNL     1     -18.703   3.150 -15.480  1.00  0.00     0.014 A 
HETATM   17  C11 UNL     1     -19.850   3.766 -15.026  1.00  0.00     0.040 A 
HETATM   18  C12 UNL     1     -20.848   3.031 -14.443  1.00  0.00     0.098 A 
HETATM   19  C13 UNL     1     -20.771   1.659 -14.276  1.00  0.00     0.099 A 
HETATM   20  C14 UNL     1     -19.620   1.068 -14.735  1.00  0.00     0.051 A 
BRANCH  18  21
HETATM   21  O4  UNL     1     -22.007   3.648 -13.984  1.00  0.00    -0.358 OA
ATOM     22  H4  UNL     1     -22.854   3.234 -14.099  1.00  0.00     0.217 HD
ENDBRANCH  18  21
BRANCH  19  23
HETATM   23  O5  UNL     1     -21.800   0.925 -13.677  1.00  0.00    -0.358 OA
ATOM     24  H5  UNL     1     -21.670   0.037 -13.365  1.00  0.00     0.217 HD
ENDBRANCH  19  23
ENDBRANCH  14  15
ENDBRANCH   4  14
BRANCH   6  25
HETATM   25  C17 UNL     1     -15.282  -1.369 -12.437  1.00  0.00     0.005 C 
HETATM   26  C18 UNL     1     -15.340  -2.729 -12.457  1.00  0.00    -0.076 C 
HETATM   27  C19 UNL     1     -16.118  -3.380 -13.497  1.00  0.00     0.034 C 
HETATM   28  C24 UNL     1     -14.591  -3.451 -11.407  1.00  0.00     0.083 C 
HETATM   29  C20 UNL     1     -16.204  -4.846 -13.402  1.00  0.00     0.008 C 
HETATM   30  C21 UNL     1     -16.146  -5.307 -11.973  1.00  0.00     0.050 C 
HETATM   31  C22 UNL     1     -14.764  -4.931 -11.439  1.00  0.00     0.165 C 
HETATM   32  F1  UNL     1     -13.849  -5.451 -12.340  1.00  0.00    -0.237 F 
BRANCH  31  33
HETATM   33  C23 UNL     1     -14.554  -5.591 -10.112  1.00  0.00     0.392 C 
HETATM   34  F2  UNL     1     -13.364  -6.321 -10.130  1.00  0.00    -0.211 F 
HETATM   35  F3  UNL     1     -14.457  -4.661  -9.095  1.00  0.00    -0.211 F 
ENDBRANCH  31  33
ENDBRANCH   6  25
TORSDOF 9
ENDMDL
MODEL 2
REMARK VINA RESULT: -8.653670988      1.284      1.564
REMARK  9 active torsions:
REMARK  status: ('A' for Active; 'I' for Inactive)
REMARK    1  A    between atoms: C2_2  and  C4_4 
REMARK    2  A    between atoms: C4_4  and  C5_5 
REMARK    3  A    between atoms: C4_4  and  N1_8 
REMARK    4  A    between atoms: C7_11  and  C8_12 
REMARK    5  A    between atoms: C8_12  and  C9_13 
REMARK    6  A    between atoms: C12_16  and  O4_17 
REMARK    7  A    between atoms: C13_19  and  O5_20 
REMARK    8  A    between atoms: C16_24  and  C17_25 
REMARK    9  A    between atoms: C22_30  and  C23_32 
ROOT
HETATM    1  N1  UNL     1     -13.490   1.198 -14.188  1.00  0.00    -0.274 N 
HETATM    2  C6  UNL     1     -14.276   2.112 -14.987  1.00  0.00     0.265 A 
HETATM    3  O3  UNL     1     -14.151   3.315 -15.353  1.00  0.00    -0.267 OA
HETATM    4  C7  UNL     1     -15.271   1.107 -15.209  1.00  0.00     0.060 A 
HETATM    5  C15 UNL     1     -14.464   0.169 -14.392  1.00  0.00     0.058 A 
HETATM    6  C16 UNL     1     -14.673  -1.108 -14.115  1.00  0.00     0.031 C 
ENDROOT
BRANCH   1   7
HETATM    7  C4  UNL     1     -12.214   1.361 -13.516  1.00  0.00     0.100 C 
BRANCH   7   8
HETATM    8  C2  UNL     1     -11.024   0.836 -14.220  1.00  0.00     0.035 C 
HETATM    9  C1  UNL     1     -11.115   1.272 -15.704  1.00  0.00     0.016 C 
HETATM   10  C3  UNL     1     -10.690  -0.587 -14.217  1.00  0.00     0.016 C 
ENDBRANCH   7   8
BRANCH   7  11
HETATM   11  C5  UNL     1     -12.116   2.567 -12.737  1.00  0.00     0.223 C 
HETATM   12  O1  UNL     1     -12.637   2.608 -11.576  1.00  0.00    -0.643 OA
HETATM   13  O2  UNL     1     -11.489   3.741 -13.129  1.00  0.00    -0.643 OA
ENDBRANCH   7  11
ENDBRANCH   1   7
BRANCH   4  14
HETATM   14  C8  UNL     1     -16.421   1.038 -15.848  1.00  0.00     0.031 C 
BRANCH  14  15
HETATM   15  C9  UNL     1     -17.630   1.730 -15.485  1.00  0.00    -0.032 A 
HETATM   16  C10 UNL     1     -17.756   3.092 -15.625  1.00  0.00     0.014 A 
HETATM   17  C11 UNL     1     -18.952   3.689 -15.283  1.00  0.00     0.040 A 
HETATM   18  C12 UNL     1     -19.994   2.934 -14.811  1.00  0.00     0.098 A 
HETATM   19  C13 UNL     1     -19.916   1.561 -14.652  1.00  0.00     0.099 A 
HETATM   20  C14 UNL     1     -18.716   0.990 -14.998  1.00  0.00     0.051 A 
BRANCH  18  21
HETATM   21  O4  UNL     1     -21.202   3.532 -14.466  1.00  0.00    -0.358 OA
ATOM     22  H4  UNL     1     -21.989   3.358 -14.969  1.00  0.00     0.217 HD
ENDBRANCH  18  21
BRANCH  19  23
HETATM   23  O5  UNL     1     -20.990   0.808 -14.169  1.00  0.00    -0.358 OA
ATOM     24  H5  UNL     1     -21.809   0.734 -14.644  1.00  0.00     0.217 HD
ENDBRANCH  19  23
ENDBRANCH  14  15
ENDBRANCH   4  14
BRANCH   6  25
HETATM   25  C17 UNL     1     -13.843  -2.021 -13.408  1.00  0.00     0.005 C 
HETATM   26  C18 UNL     1     -14.336  -2.680 -12.323  1.00  0.00    -0.076 C 
HETATM   27  C19 UNL     1     -15.707  -2.430 -11.916  1.00  0.00     0.034 C 
HETATM   28  C24 UNL     1     -13.424  -3.619 -11.636  1.00  0.00     0.083 C 
HETATM   29  C20 UNL     1     -16.139  -3.113 -10.687  1.00  0.00     0.008 C 
HETATM   30  C21 UNL     1     -14.993  -3.301  -9.733  1.00  0.00     0.050 C 
HETATM   31  C22 UNL     1     -14.000  -4.244 -10.411  1.00  0.00     0.165 C 
HETATM   32  F1  UNL     1     -14.729  -5.356 -10.798  1.00  0.00    -0.237 F 
BRANCH  31  33
HETATM   33  C23 UNL     1     -12.970  -4.673  -9.412  1.00  0.00     0.392 C 
HETATM   34  F2  UNL     1     -12.255  -3.561  -8.964  1.00  0.00    -0.211 F 
HETATM   35  F3  UNL     1     -13.554  -5.264  -8.308  1.00  0.00    -0.211 F 
ENDBRANCH  31  33
ENDBRANCH   6  25
TORSDOF 9
ENDMDL
MODEL 3
REMARK VINA RESULT: -8.628736805      0.773      1.044
REMARK  9 active torsions:
REMARK  status: ('A' for Active; 'I' for Inactive)
REMARK    1  A    between atoms: C2_2  and  C4_4 
REMARK    2  A    between atoms: C4_4  and  C5_5 
REMARK    3  A    between atoms: C4_4  and  N1_8 
REMARK    4  A    between atoms: C7_11  and  C8_12 
REMARK    5  A    between atoms: C8_12  and  C9_13 
REMARK    6  A    between atoms: C12_16  and  O4_17 
REMARK    7  A    between atoms: C13_19  and  O5_20 
REMARK    8  A    between atoms: C16_24  and  C17_25 
REMARK    9  A    between atoms: C22_30  and  C23_32 
ROOT
HETATM    1  N1  UNL     1     -14.829   1.068 -14.547  1.00  0.00    -0.274 N 
HETATM    2  C6  UNL     1     -15.675   1.716 -15.525  1.00  0.00     0.265 A 
HETATM    3  O3  UNL     1     -15.523   2.651 -16.360  1.00  0.00    -0.267 OA
HETATM    4  C7  UNL     1     -16.776   0.871 -15.174  1.00  0.00     0.060 A 
HETATM    5  C15 UNL     1     -15.908   0.205 -14.173  1.00  0.00     0.058 A 
HETATM    6  C16 UNL     1     -16.166  -0.820 -13.376  1.00  0.00     0.031 C 
ENDROOT
BRANCH   1   7
HETATM    7  C4  UNL     1     -13.437   1.275 -14.191  1.00  0.00     0.100 C 
BRANCH   7   8
HETATM    8  C2  UNL     1     -12.617   0.061 -13.996  1.00  0.00     0.035 C 
HETATM    9  C1  UNL     1     -11.193   0.507 -13.577  1.00  0.00     0.016 C 
HETATM   10  C3  UNL     1     -12.452  -0.939 -15.050  1.00  0.00     0.016 C 
ENDBRANCH   7   8
BRANCH   7  11
HETATM   11  C5  UNL     1     -12.854   2.450 -14.784  1.00  0.00     0.223 C 
HETATM   12  O1  UNL     1     -12.846   3.543 -14.131  1.00  0.00    -0.643 OA
HETATM   13  O2  UNL     1     -12.274   2.526 -16.042  1.00  0.00    -0.643 OA
ENDBRANCH   7  11
ENDBRANCH   1   7
BRANCH   4  14
HETATM   14  C8  UNL     1     -18.031   0.742 -15.555  1.00  0.00     0.031 C 
BRANCH  14  15
HETATM   15  C9  UNL     1     -19.135   1.550 -15.108  1.00  0.00    -0.032 A 
HETATM   16  C10 UNL     1     -19.054   2.922 -15.050  1.00  0.00     0.014 A 
HETATM   17  C11 UNL     1     -20.159   3.637 -14.636  1.00  0.00     0.040 A 
HETATM   18  C12 UNL     1     -21.315   2.989 -14.291  1.00  0.00     0.098 A 
HETATM   19  C13 UNL     1     -21.446   1.611 -14.332  1.00  0.00     0.099 A 
HETATM   20  C14 UNL     1     -20.333   0.921 -14.745  1.00  0.00     0.051 A 
BRANCH  18  21
HETATM   21  O4  UNL     1     -22.432   3.706 -13.874  1.00  0.00    -0.358 OA
ATOM     22  H4  UNL     1     -22.397   4.652 -13.794  1.00  0.00     0.217 HD
ENDBRANCH  18  21
BRANCH  19  23
HETATM   23  O5  UNL     1     -22.634   0.967 -13.974  1.00  0.00    -0.358 OA
ATOM     24  H5  UNL     1     -23.109   0.411 -14.581  1.00  0.00     0.217 HD
ENDBRANCH  19  23
ENDBRANCH  14  15
ENDBRANCH   4  14
BRANCH   6  25
HETATM   25  C17 UNL     1     -15.296  -1.508 -12.488  1.00  0.00     0.005 C 
HETATM   26  C18 UNL     1     -15.330  -2.867 -12.427  1.00  0.00    -0.076 C 
HETATM   27  C19 UNL     1     -16.263  -3.582 -13.279  1.00  0.00     0.034 C 
HETATM   28  C24 UNL     1     -14.394  -3.523 -11.488  1.00  0.00     0.083 C 
HETATM   29  C20 UNL     1     -16.302  -5.042 -13.095  1.00  0.00     0.008 C 
HETATM   30  C21 UNL     1     -15.987  -5.423 -11.676  1.00  0.00     0.050 C 
HETATM   31  C22 UNL     1     -14.541  -5.004 -11.412  1.00  0.00     0.165 C 
HETATM   32  F1  UNL     1     -13.787  -5.564 -12.431  1.00  0.00    -0.237 F 
BRANCH  31  33
HETATM   33  C23 UNL     1     -14.091  -5.589 -10.110  1.00  0.00     0.392 C 
HETATM   34  F2  UNL     1     -12.704  -5.750 -10.118  1.00  0.00    -0.211 F 
HETATM   35  F3  UNL     1     -14.407  -4.762  -9.049  1.00  0.00    -0.211 F 
ENDBRANCH  31  33
ENDBRANCH   6  25
TORSDOF 9
ENDMDL
MODEL 4
REMARK VINA RESULT: -8.588222920      1.063      1.413
REMARK  9 active torsions:
REMARK  status: ('A' for Active; 'I' for Inactive)
REMARK    1  A    between atoms: C2_2  and  C4_4 
REMARK    2  A    between atoms: C4_4  and  C5_5 
REMARK    3  A    between atoms: C4_4  and  N1_8 
REMARK    4  A    between atoms: C7_11  and  C8_12 
REMARK    5  A    between atoms: C8_12  and  C9_13 
REMARK    6  A    between atoms: C12_16  and  O4_17 
REMARK    7  A    between atoms: C13_19  and  O5_20 
REMARK    8  A    between atoms: C16_24  and  C17_25 
REMARK    9  A    between atoms: C22_30  and  C23_32 
ROOT
HETATM    1  N1  UNL     1     -14.685   1.262 -14.808  1.00  0.00    -0.274 N 
HETATM    2  C6  UNL     1     -15.672   1.886 -15.661  1.00  0.00     0.265 A 
HETATM    3  O3  UNL     1     -15.678   2.873 -16.450  1.00  0.00    -0.267 OA
HETATM    4  C7  UNL     1     -16.663   0.935 -15.258  1.00  0.00     0.060 A 
HETATM    5  C15 UNL     1     -15.650   0.293 -14.385  1.00  0.00     0.058 A 
HETATM    6  C16 UNL     1     -15.747  -0.789 -13.630  1.00  0.00     0.031 C 
ENDROOT
BRANCH   1   7
HETATM    7  C4  UNL     1     -13.285   1.567 -14.574  1.00  0.00     0.100 C 
BRANCH   7   8
HETATM    8  C2  UNL     1     -12.734   2.737 -15.290  1.00  0.00     0.035 C 
HETATM    9  C1  UNL     1     -11.245   2.449 -15.603  1.00  0.00     0.016 C 
HETATM   10  C3  UNL     1     -12.794   4.085 -14.727  1.00  0.00     0.016 C 
ENDBRANCH   7   8
BRANCH   7  11
HETATM   11  C5  UNL     1     -12.839   1.263 -13.239  1.00  0.00     0.223 C 
HETATM   12  O1  UNL     1     -12.049   0.283 -13.051  1.00  0.00    -0.643 OA
HETATM   13  O2  UNL     1     -13.189   1.951 -12.087  1.00  0.00    -0.643 OA
ENDBRANCH   7  11
ENDBRANCH   1   7
BRANCH   4  14
HETATM   14  C8  UNL     1     -17.935   0.721 -15.526  1.00  0.00     0.031 C 
BRANCH  14  15
HETATM   15  C9  UNL     1     -19.036   1.551 -15.110  1.00  0.00    -0.032 A 
HETATM   16  C10 UNL     1     -18.945   2.924 -15.098  1.00  0.00     0.014 A 
HETATM   17  C11 UNL     1     -20.046   3.660 -14.714  1.00  0.00     0.040 A 
HETATM   18  C12 UNL     1     -21.208   3.032 -14.352  1.00  0.00     0.098 A 
HETATM   19  C13 UNL     1     -21.349   1.655 -14.348  1.00  0.00     0.099 A 
HETATM   20  C14 UNL     1     -20.240   0.944 -14.732  1.00  0.00     0.051 A 
BRANCH  18  21
HETATM   21  O4  UNL     1     -22.322   3.772 -13.964  1.00  0.00    -0.358 OA
ATOM     22  H4  UNL     1     -22.722   3.633 -13.114  1.00  0.00     0.217 HD
ENDBRANCH  18  21
BRANCH  19  23
HETATM   23  O5  UNL     1     -22.544   1.033 -13.974  1.00  0.00    -0.358 OA
ATOM     24  H5  UNL     1     -23.249   1.507 -13.550  1.00  0.00     0.217 HD
ENDBRANCH  19  23
ENDBRANCH  14  15
ENDBRANCH   4  14
BRANCH   6  25
HETATM   25  C17 UNL     1     -14.741  -1.446 -12.871  1.00  0.00     0.005 C 
HETATM   26  C18 UNL     1     -14.923  -2.739 -12.484  1.00  0.00    -0.076 C 
HETATM   27  C19 UNL     1     -16.151  -3.415 -12.862  1.00  0.00     0.034 C 
HETATM   28  C24 UNL     1     -13.836  -3.367 -11.702  1.00  0.00     0.083 C 
HETATM   29  C20 UNL     1     -16.313  -4.780 -12.335  1.00  0.00     0.008 C 
HETATM   30  C21 UNL     1     -15.634  -4.936 -11.004  1.00  0.00     0.050 C 
HETATM   31  C22 UNL     1     -14.136  -4.753 -11.243  1.00  0.00     0.165 C 
HETATM   32  F1  UNL     1     -13.800  -5.626 -12.264  1.00  0.00    -0.237 F 
BRANCH  31  33
HETATM   33  C23 UNL     1     -13.389  -5.154 -10.009  1.00  0.00     0.392 C 
HETATM   34  F2  UNL     1     -12.358  -4.245  -9.764  1.00  0.00    -0.211 F 
HETATM   35  F3  UNL     1     -14.213  -5.157  -8.899  1.00  0.00    -0.211 F 
ENDBRANCH  31  33
ENDBRANCH   6  25
TORSDOF 9
ENDMDL
MODEL 5
REMARK VINA RESULT: -8.565668888      1.247      1.627
REMARK  9 active torsions:
REMARK  status: ('A' for Active; 'I' for Inactive)
REMARK    1  A    between atoms: C2_2  and  C4_4 
REMARK    2  A    between atoms: C4_4  and  C5_5 
REMARK    3  A    between atoms: C4_4  and  N1_8 
REMARK    4  A    between atoms: C7_11  and  C8_12 
REMARK    5  A    between atoms: C8_12  and  C9_13 
REMARK    6  A    between atoms: C12_16  and  O4_17 
REMARK    7  A    between atoms: C13_19  and  O5_20 
REMARK    8  A    between atoms: C16_24  and  C17_25 
REMARK    9  A    between atoms: C22_30  and  C23_32 
ROOT
HETATM    1  N1  UNL     1     -14.740   1.344 -14.861  1.00  0.00    -0.274 N 
HETATM    2  C6  UNL     1     -15.735   1.965 -15.707  1.00  0.00     0.265 A 
HETATM    3  O3  UNL     1     -15.753   2.958 -16.488  1.00  0.00    -0.267 OA
HETATM    4  C7  UNL     1     -16.714   0.998 -15.311  1.00  0.00     0.060 A 
HETATM    5  C15 UNL     1     -15.692   0.361 -14.446  1.00  0.00     0.058 A 
HETATM    6  C16 UNL     1     -15.776  -0.729 -13.699  1.00  0.00     0.031 C 
ENDROOT
BRANCH   1   7
HETATM    7  C4  UNL     1     -13.343   1.663 -14.627  1.00  0.00     0.100 C 
BRANCH   7   8
HETATM    8  C2  UNL     1     -12.780   1.253 -13.322  1.00  0.00     0.035 C 
HETATM    9  C1  UNL     1     -12.431   2.535 -12.527  1.00  0.00     0.016 C 
HETATM   10  C3  UNL     1     -11.622   0.367 -13.226  1.00  0.00     0.016 C 
ENDBRANCH   7   8
BRANCH   7  11
HETATM   11  C5  UNL     1     -12.527   1.610 -15.812  1.00  0.00     0.223 C 
HETATM   12  O1  UNL     1     -11.797   2.607 -16.116  1.00  0.00    -0.643 OA
HETATM   13  O2  UNL     1     -12.445   0.544 -16.696  1.00  0.00    -0.643 OA
ENDBRANCH   7  11
ENDBRANCH   1   7
BRANCH   4  14
HETATM   14  C8  UNL     1     -17.984   0.772 -15.579  1.00  0.00     0.031 C 
BRANCH  14  15
HETATM   15  C9  UNL     1     -19.097   1.563 -15.121  1.00  0.00    -0.032 A 
HETATM   16  C10 UNL     1     -19.033   2.935 -15.056  1.00  0.00     0.014 A 
HETATM   17  C11 UNL     1     -20.144   3.633 -14.632  1.00  0.00     0.040 A 
HETATM   18  C12 UNL     1     -21.290   2.969 -14.285  1.00  0.00     0.098 A 
HETATM   19  C13 UNL     1     -21.404   1.590 -14.334  1.00  0.00     0.099 A 
HETATM   20  C14 UNL     1     -20.285   0.916 -14.757  1.00  0.00     0.051 A 
BRANCH  18  21
HETATM   21  O4  UNL     1     -22.414   3.670 -13.858  1.00  0.00    -0.358 OA
ATOM     22  H4  UNL     1     -22.388   4.188 -13.062  1.00  0.00     0.217 HD
ENDBRANCH  18  21
BRANCH  19  23
HETATM   23  O5  UNL     1     -22.582   0.929 -13.974  1.00  0.00    -0.358 OA
ATOM     24  H5  UNL     1     -23.420   1.139 -14.370  1.00  0.00     0.217 HD
ENDBRANCH  19  23
ENDBRANCH  14  15
ENDBRANCH   4  14
BRANCH   6  25
HETATM   25  C17 UNL     1     -14.761  -1.381 -12.948  1.00  0.00     0.005 C 
HETATM   26  C18 UNL     1     -14.945  -2.666 -12.537  1.00  0.00    -0.076 C 
HETATM   27  C19 UNL     1     -16.184  -3.340 -12.883  1.00  0.00     0.034 C 
HETATM   28  C24 UNL     1     -13.849  -3.290 -11.765  1.00  0.00     0.083 C 
HETATM   29  C20 UNL     1     -16.345  -4.695 -12.332  1.00  0.00     0.008 C 
HETATM   30  C21 UNL     1     -15.644  -4.835 -11.010  1.00  0.00     0.050 C 
HETATM   31  C22 UNL     1     -14.149  -4.666 -11.278  1.00  0.00     0.165 C 
HETATM   32  F1  UNL     1     -13.837  -5.558 -12.291  1.00  0.00    -0.237 F 
BRANCH  31  33
HETATM   33  C23 UNL     1     -13.384  -5.052 -10.051  1.00  0.00     0.392 C 
HETATM   34  F2  UNL     1     -12.470  -4.048  -9.728  1.00  0.00    -0.211 F 
HETATM   35  F3  UNL     1     -14.222  -5.217  -8.964  1.00  0.00    -0.211 F 
ENDBRANCH  31  33
ENDBRANCH   6  25
TORSDOF 9
ENDMDL
