MODEL 1
REMARK VINA RESULT: -8.516491359      0.000      0.000
REMARK  8 active torsions:
REMARK  status: ('A' for Active; 'I' for Inactive)
REMARK    1  A    between atoms: O1_2  and  C2_3 
REMARK    2  A    between atoms: C3_4  and  C4_5 
REMARK    3  A    between atoms: C5_6  and  C6_7 
REMARK    4  A    between atoms: C11_13  and  C12_14 
REMARK    5  A    between atoms: C15_22  and  C16_23 
REMARK    6  A    between atoms: C19_27  and  O6_28 
REMARK    7  A    between atoms: C20_30  and  C21_31 
REMARK    8  A    between atoms: C21_31  and  C22_32 
ROOT
HETATM    1  C6  UNL     1     -27.814  -2.915  -7.926  1.00  0.00     0.005 C 
HETATM    2  C7  UNL     1     -28.982  -2.976  -8.927  1.00  0.00     0.022 C 
HETATM    3  C8  UNL     1     -27.639  -4.311  -7.423  1.00  0.00     0.063 C 
HETATM    4  C9  UNL     1     -28.557  -4.707  -6.340  1.00  0.00     0.051 A 
HETATM    5  C10 UNL     1     -29.035  -3.741  -5.483  1.00  0.00     0.196 A 
HETATM    6  O2  UNL     1     -29.844  -4.113  -4.535  1.00  0.00    -0.286 OA
HETATM    7  C11 UNL     1     -30.240  -5.378  -4.343  1.00  0.00     0.099 A 
HETATM    8  C13 UNL     1     -29.779  -6.361  -5.182  1.00  0.00     0.094 A 
HETATM    9  C14 UNL     1     -28.903  -6.026  -6.225  1.00  0.00     0.185 A 
HETATM   10  O3  UNL     1     -28.505  -6.953  -6.970  1.00  0.00    -0.288 OA
HETATM   11  O4  UNL     1     -28.621  -2.446  -5.690  1.00  0.00    -0.323 OA
HETATM   12  C15 UNL     1     -28.163  -1.909  -6.891  1.00  0.00     0.146 C 
ENDROOT
BRANCH   1  13
HETATM   13  C5  UNL     1     -26.626  -2.550  -8.715  1.00  0.00    -0.012 C 
HETATM   14  C4  UNL     1     -26.748  -1.825  -9.819  1.00  0.00     0.037 C 
BRANCH  14  15
HETATM   15  C3  UNL     1     -25.589  -1.454 -10.614  1.00  0.00     0.112 A 
HETATM   16  C2  UNL     1     -25.601  -0.989 -11.903  1.00  0.00     0.113 A 
HETATM   17  C20 UNL     1     -24.305  -0.751 -12.301  1.00  0.00     0.040 A 
HETATM   18  C19 UNL     1     -23.536  -1.094 -11.196  1.00  0.00     0.193 A 
HETATM   19  O5  UNL     1     -24.330  -1.504 -10.222  1.00  0.00    -0.285 OA
BRANCH  16  20
HETATM   20  O1  UNL     1     -26.746  -0.798 -12.659  1.00  0.00    -0.352 OA
HETATM   21  C1  UNL     1     -27.181  -1.844 -13.534  1.00  0.00     0.210 C 
ENDBRANCH  16  20
BRANCH  17  22
HETATM   22  C21 UNL     1     -23.814  -0.243 -13.605  1.00  0.00     0.074 C 
BRANCH  22  23
HETATM   23  C22 UNL     1     -23.543   1.226 -13.548  1.00  0.00    -0.020 C 
HETATM   24  C23 UNL     1     -22.335   1.705 -13.781  1.00  0.00    -0.091 C 
HETATM   25  C24 UNL     1     -21.218   0.765 -14.109  1.00  0.00     0.042 C 
HETATM   26  C25 UNL     1     -22.093   3.171 -13.718  1.00  0.00     0.042 C 
ENDBRANCH  22  23
ENDBRANCH  17  22
BRANCH  18  27
HETATM   27  O6  UNL     1     -22.157  -1.017 -11.133  1.00  0.00    -0.340 OA
ATOM     28  H6  UNL     1     -21.576  -0.864 -11.870  1.00  0.00     0.220 HD
ENDBRANCH  18  27
ENDBRANCH  14  15
ENDBRANCH   1  13
BRANCH  12  29
HETATM   29  C16 UNL     1     -27.031  -0.964  -6.540  1.00  0.00     0.008 C 
HETATM   30  C17 UNL     1     -27.633   0.443  -6.686  1.00  0.00     0.012 C 
HETATM   31  C18 UNL     1     -26.574  -1.089  -5.126  1.00  0.00     0.012 C 
ENDBRANCH  12  29
BRANCH   7  32
HETATM   32  C12 UNL     1     -31.142  -5.634  -3.244  1.00  0.00     0.156 C 
HETATM   33  N1  UNL     1     -31.079  -5.187  -2.086  1.00  0.00    -0.233 N 
HETATM   34  F1  UNL     1     -30.281  -4.400  -1.439  1.00  0.00    -0.102 F 
ATOM     35  H1  UNL     1     -31.845  -5.523  -1.502  1.00  0.00     0.198 HD
ENDBRANCH   7  32
TORSDOF 8
ENDMDL
MODEL 2
REMARK VINA RESULT: -7.659758948     12.954     16.600
REMARK  8 active torsions:
REMARK  status: ('A' for Active; 'I' for Inactive)
REMARK    1  A    between atoms: O1_2  and  C2_3 
REMARK    2  A    between atoms: C3_4  and  C4_5 
REMARK    3  A    between atoms: C5_6  and  C6_7 
REMARK    4  A    between atoms: C11_13  and  C12_14 
REMARK    5  A    between atoms: C15_22  and  C16_23 
REMARK    6  A    between atoms: C19_27  and  O6_28 
REMARK    7  A    between atoms: C20_30  and  C21_31 
REMARK    8  A    between atoms: C21_31  and  C22_32 
ROOT
HETATM    1  C6  UNL     1     -15.097   1.555 -15.143  1.00  0.00     0.005 C 
HETATM    2  C7  UNL     1     -13.961   1.807 -14.136  1.00  0.00     0.022 C 
HETATM    3  C8  UNL     1     -14.455   1.585 -16.492  1.00  0.00     0.063 C 
HETATM    4  C9  UNL     1     -14.243   2.930 -17.056  1.00  0.00     0.051 A 
HETATM    5  C10 UNL     1     -15.100   3.947 -16.700  1.00  0.00     0.196 A 
HETATM    6  O2  UNL     1     -14.893   5.125 -17.210  1.00  0.00    -0.286 OA
HETATM    7  C11 UNL     1     -13.897   5.409 -18.059  1.00  0.00     0.099 A 
HETATM    8  C13 UNL     1     -13.028   4.416 -18.431  1.00  0.00     0.094 A 
HETATM    9  C14 UNL     1     -13.196   3.121 -17.917  1.00  0.00     0.185 A 
HETATM   10  O3  UNL     1     -12.380   2.241 -18.282  1.00  0.00    -0.288 OA
HETATM   11  O4  UNL     1     -16.119   3.643 -15.828  1.00  0.00    -0.323 OA
HETATM   12  C15 UNL     1     -16.137   2.591 -14.915  1.00  0.00     0.146 C 
ENDROOT
BRANCH   1  13
HETATM   13  C5  UNL     1     -15.571   0.187 -14.882  1.00  0.00    -0.012 C 
HETATM   14  C4  UNL     1     -14.969  -0.573 -13.975  1.00  0.00     0.037 C 
BRANCH  14  15
HETATM   15  C3  UNL     1     -15.420  -1.927 -13.701  1.00  0.00     0.112 A 
HETATM   16  C2  UNL     1     -15.170  -2.653 -12.567  1.00  0.00     0.113 A 
HETATM   17  C20 UNL     1     -15.767  -3.889 -12.690  1.00  0.00     0.040 A 
HETATM   18  C19 UNL     1     -16.376  -3.854 -13.939  1.00  0.00     0.193 A 
HETATM   19  O5  UNL     1     -16.147  -2.681 -14.503  1.00  0.00    -0.285 OA
BRANCH  16  20
HETATM   20  O1  UNL     1     -14.434  -2.197 -11.487  1.00  0.00    -0.352 OA
HETATM   21  C1  UNL     1     -15.077  -2.064 -10.215  1.00  0.00     0.210 C 
ENDBRANCH  16  20
BRANCH  17  22
HETATM   22  C21 UNL     1     -15.777  -5.014 -11.725  1.00  0.00     0.074 C 
BRANCH  22  23
HETATM   23  C22 UNL     1     -14.794  -6.071 -12.115  1.00  0.00    -0.020 C 
HETATM   24  C23 UNL     1     -13.679  -6.248 -11.430  1.00  0.00    -0.091 C 
HETATM   25  C24 UNL     1     -13.392  -5.379 -10.247  1.00  0.00     0.042 C 
HETATM   26  C25 UNL     1     -12.718  -7.307 -11.839  1.00  0.00     0.042 C 
ENDBRANCH  22  23
ENDBRANCH  17  22
BRANCH  18  27
HETATM   27  O6  UNL     1     -17.103  -4.889 -14.497  1.00  0.00    -0.340 OA
ATOM     28  H6  UNL     1     -16.877  -5.811 -14.453  1.00  0.00     0.220 HD
ENDBRANCH  18  27
ENDBRANCH  14  15
ENDBRANCH   1  13
BRANCH  12  29
HETATM   29  C16 UNL     1     -17.554   2.052 -14.901  1.00  0.00     0.008 C 
HETATM   30  C17 UNL     1     -17.992   2.136 -13.430  1.00  0.00     0.012 C 
HETATM   31  C18 UNL     1     -18.511   2.888 -15.681  1.00  0.00     0.012 C 
ENDBRANCH  12  29
BRANCH   7  32
HETATM   32  C12 UNL     1     -13.799   6.768 -18.539  1.00  0.00     0.156 C 
HETATM   33  N1  UNL     1     -14.476   7.314 -19.426  1.00  0.00    -0.233 N 
HETATM   34  F1  UNL     1     -15.442   6.952 -20.210  1.00  0.00    -0.102 F 
ATOM     35  H1  UNL     1     -14.205   8.286 -19.574  1.00  0.00     0.198 HD
ENDBRANCH   7  32
TORSDOF 8
ENDMDL
MODEL 3
REMARK VINA RESULT: -7.580913533      7.937     13.278
REMARK  8 active torsions:
REMARK  status: ('A' for Active; 'I' for Inactive)
REMARK    1  A    between atoms: O1_2  and  C2_3 
REMARK    2  A    between atoms: C3_4  and  C4_5 
REMARK    3  A    between atoms: C5_6  and  C6_7 
REMARK    4  A    between atoms: C11_13  and  C12_14 
REMARK    5  A    between atoms: C15_22  and  C16_23 
REMARK    6  A    between atoms: C19_27  and  O6_28 
REMARK    7  A    between atoms: C20_30  and  C21_31 
REMARK    8  A    between atoms: C21_31  and  C22_32 
ROOT
HETATM    1  C6  UNL     1     -18.209   2.364 -14.768  1.00  0.00     0.005 C 
HETATM    2  C7  UNL     1     -17.825   3.094 -13.468  1.00  0.00     0.022 C 
HETATM    3  C8  UNL     1     -19.549   2.904 -15.153  1.00  0.00     0.063 C 
HETATM    4  C9  UNL     1     -20.695   2.290 -14.459  1.00  0.00     0.051 A 
HETATM    5  C10 UNL     1     -20.597   0.985 -14.031  1.00  0.00     0.196 A 
HETATM    6  O2  UNL     1     -21.621   0.465 -13.421  1.00  0.00    -0.286 OA
HETATM    7  C11 UNL     1     -22.764   1.121 -13.184  1.00  0.00     0.099 A 
HETATM    8  C13 UNL     1     -22.890   2.423 -13.599  1.00  0.00     0.094 A 
HETATM    9  C14 UNL     1     -21.821   3.043 -14.264  1.00  0.00     0.185 A 
HETATM   10  O3  UNL     1     -21.976   4.234 -14.627  1.00  0.00    -0.288 OA
HETATM   11  O4  UNL     1     -19.419   0.321 -14.281  1.00  0.00    -0.323 OA
HETATM   12  C15 UNL     1     -18.172   0.905 -14.491  1.00  0.00     0.146 C 
ENDROOT
BRANCH   1  13
HETATM   13  C5  UNL     1     -17.226   2.791 -15.776  1.00  0.00    -0.012 C 
HETATM   14  C4  UNL     1     -16.413   3.812 -15.534  1.00  0.00     0.037 C 
BRANCH  14  15
HETATM   15  C3  UNL     1     -15.435   4.251 -16.516  1.00  0.00     0.112 A 
HETATM   16  C2  UNL     1     -14.299   3.581 -16.887  1.00  0.00     0.113 A 
HETATM   17  C20 UNL     1     -13.639   4.323 -17.842  1.00  0.00     0.040 A 
HETATM   18  C19 UNL     1     -14.434   5.449 -18.013  1.00  0.00     0.193 A 
HETATM   19  O5  UNL     1     -15.483   5.369 -17.213  1.00  0.00    -0.285 OA
BRANCH  16  20
HETATM   20  O1  UNL     1     -13.903   2.359 -16.372  1.00  0.00    -0.352 OA
HETATM   21  C1  UNL     1     -13.066   2.334 -15.210  1.00  0.00     0.210 C 
ENDBRANCH  16  20
BRANCH  17  22
HETATM   22  C21 UNL     1     -12.370   4.012 -18.543  1.00  0.00     0.074 C 
BRANCH  22  23
HETATM   23  C22 UNL     1     -12.553   2.903 -19.529  1.00  0.00    -0.020 C 
HETATM   24  C23 UNL     1     -11.902   1.762 -19.399  1.00  0.00    -0.091 C 
HETATM   25  C24 UNL     1     -10.966   1.573 -18.246  1.00  0.00     0.042 C 
HETATM   26  C25 UNL     1     -12.101   0.675 -20.394  1.00  0.00     0.042 C 
ENDBRANCH  22  23
ENDBRANCH  17  22
BRANCH  18  27
HETATM   27  O6  UNL     1     -14.161   6.488 -18.884  1.00  0.00    -0.340 OA
ATOM     28  H6  UNL     1     -14.733   7.226 -19.063  1.00  0.00     0.220 HD
ENDBRANCH  18  27
ENDBRANCH  14  15
ENDBRANCH   1  13
BRANCH  12  29
HETATM   29  C16 UNL     1     -17.485   0.089 -15.568  1.00  0.00     0.008 C 
HETATM   30  C17 UNL     1     -16.080  -0.195 -15.011  1.00  0.00     0.012 C 
HETATM   31  C18 UNL     1     -18.127  -1.236 -15.804  1.00  0.00     0.012 C 
ENDBRANCH  12  29
BRANCH   7  32
HETATM   32  C12 UNL     1     -23.812   0.406 -12.494  1.00  0.00     0.156 C 
HETATM   33  N1  UNL     1     -24.443  -0.589 -12.889  1.00  0.00    -0.233 N 
HETATM   34  F1  UNL     1     -24.442  -1.324 -13.955  1.00  0.00    -0.102 F 
ATOM     35  H1  UNL     1     -25.133  -0.902 -12.207  1.00  0.00     0.198 HD
ENDBRANCH   7  32
TORSDOF 8
ENDMDL
MODEL 4
REMARK VINA RESULT: -7.542402929      7.987     13.423
REMARK  8 active torsions:
REMARK  status: ('A' for Active; 'I' for Inactive)
REMARK    1  A    between atoms: O1_2  and  C2_3 
REMARK    2  A    between atoms: C3_4  and  C4_5 
REMARK    3  A    between atoms: C5_6  and  C6_7 
REMARK    4  A    between atoms: C11_13  and  C12_14 
REMARK    5  A    between atoms: C15_22  and  C16_23 
REMARK    6  A    between atoms: C19_27  and  O6_28 
REMARK    7  A    between atoms: C20_30  and  C21_31 
REMARK    8  A    between atoms: C21_31  and  C22_32 
ROOT
HETATM    1  C6  UNL     1     -18.226   2.483 -14.690  1.00  0.00     0.005 C 
HETATM    2  C7  UNL     1     -17.888   3.175 -13.357  1.00  0.00     0.022 C 
HETATM    3  C8  UNL     1     -19.578   2.989 -15.076  1.00  0.00     0.063 C 
HETATM    4  C9  UNL     1     -20.712   2.308 -14.425  1.00  0.00     0.051 A 
HETATM    5  C10 UNL     1     -20.573   0.992 -14.047  1.00  0.00     0.196 A 
HETATM    6  O2  UNL     1     -21.586   0.412 -13.475  1.00  0.00    -0.286 OA
HETATM    7  C11 UNL     1     -22.756   1.017 -13.231  1.00  0.00     0.099 A 
HETATM    8  C13 UNL     1     -22.923   2.329 -13.598  1.00  0.00     0.094 A 
HETATM    9  C14 UNL     1     -21.867   3.013 -14.220  1.00  0.00     0.185 A 
HETATM   10  O3  UNL     1     -22.060   4.210 -14.540  1.00  0.00    -0.288 OA
HETATM   11  O4  UNL     1     -19.368   0.380 -14.302  1.00  0.00    -0.323 OA
HETATM   12  C15 UNL     1     -18.139   1.016 -14.469  1.00  0.00     0.146 C 
ENDROOT
BRANCH   1  13
HETATM   13  C5  UNL     1     -17.244   2.984 -15.664  1.00  0.00    -0.012 C 
HETATM   14  C4  UNL     1     -16.422   3.975 -15.343  1.00  0.00     0.037 C 
BRANCH  14  15
HETATM   15  C3  UNL     1     -15.444   4.486 -16.290  1.00  0.00     0.112 A 
HETATM   16  C2  UNL     1     -14.112   4.696 -16.049  1.00  0.00     0.113 A 
HETATM   17  C20 UNL     1     -13.526   5.185 -17.196  1.00  0.00     0.040 A 
HETATM   18  C19 UNL     1     -14.567   5.251 -18.114  1.00  0.00     0.193 A 
HETATM   19  O5  UNL     1     -15.681   4.830 -17.541  1.00  0.00    -0.285 OA
BRANCH  16  20
HETATM   20  O1  UNL     1     -13.482   4.449 -14.841  1.00  0.00    -0.352 OA
HETATM   21  C1  UNL     1     -12.861   3.176 -14.630  1.00  0.00     0.210 C 
ENDBRANCH  16  20
BRANCH  17  22
HETATM   22  C21 UNL     1     -12.110   5.561 -17.425  1.00  0.00     0.074 C 
BRANCH  22  23
HETATM   23  C22 UNL     1     -11.831   6.947 -16.939  1.00  0.00    -0.020 C 
HETATM   24  C23 UNL     1     -11.008   7.160 -15.929  1.00  0.00    -0.091 C 
HETATM   25  C24 UNL     1     -10.344   5.999 -15.259  1.00  0.00     0.042 C 
HETATM   26  C25 UNL     1     -10.747   8.549 -15.464  1.00  0.00     0.042 C 
ENDBRANCH  22  23
ENDBRANCH  17  22
BRANCH  18  27
HETATM   27  O6  UNL     1     -14.448   5.690 -19.419  1.00  0.00    -0.340 OA
ATOM     28  H6  UNL     1     -14.455   6.598 -19.702  1.00  0.00     0.220 HD
ENDBRANCH  18  27
ENDBRANCH  14  15
ENDBRANCH   1  13
BRANCH  12  29
HETATM   29  C16 UNL     1     -17.408   0.268 -15.565  1.00  0.00     0.008 C 
HETATM   30  C17 UNL     1     -16.014  -0.019 -14.982  1.00  0.00     0.012 C 
HETATM   31  C18 UNL     1     -18.018  -1.054 -15.886  1.00  0.00     0.012 C 
ENDBRANCH  12  29
BRANCH   7  32
HETATM   32  C12 UNL     1     -23.788   0.238 -12.587  1.00  0.00     0.156 C 
HETATM   33  N1  UNL     1     -24.468  -0.679 -13.077  1.00  0.00    -0.233 N 
HETATM   34  F1  UNL     1     -24.543  -1.263 -14.230  1.00  0.00    -0.102 F 
ATOM     35  H1  UNL     1     -25.131  -1.067 -12.406  1.00  0.00     0.198 HD
ENDBRANCH   7  32
TORSDOF 8
ENDMDL
MODEL 5
REMARK VINA RESULT: -7.531797509     12.680     14.770
REMARK  8 active torsions:
REMARK  status: ('A' for Active; 'I' for Inactive)
REMARK    1  A    between atoms: O1_2  and  C2_3 
REMARK    2  A    between atoms: C3_4  and  C4_5 
REMARK    3  A    between atoms: C5_6  and  C6_7 
REMARK    4  A    between atoms: C11_13  and  C12_14 
REMARK    5  A    between atoms: C15_22  and  C16_23 
REMARK    6  A    between atoms: C19_27  and  O6_28 
REMARK    7  A    between atoms: C20_30  and  C21_31 
REMARK    8  A    between atoms: C21_31  and  C22_32 
ROOT
HETATM    1  C6  UNL     1     -15.080  -3.931 -13.143  1.00  0.00     0.005 C 
HETATM    2  C7  UNL     1     -16.306  -4.861 -13.092  1.00  0.00     0.022 C 
HETATM    3  C8  UNL     1     -14.325  -4.326 -14.370  1.00  0.00     0.063 C 
HETATM    4  C9  UNL     1     -13.442  -5.496 -14.214  1.00  0.00     0.051 A 
HETATM    5  C10 UNL     1     -12.897  -5.762 -12.979  1.00  0.00     0.196 A 
HETATM    6  O2  UNL     1     -12.121  -6.800 -12.865  1.00  0.00    -0.286 OA
HETATM    7  C11 UNL     1     -11.822  -7.625 -13.877  1.00  0.00     0.099 A 
HETATM    8  C13 UNL     1     -12.351  -7.384 -15.119  1.00  0.00     0.094 A 
HETATM    9  C14 UNL     1     -13.196  -6.280 -15.309  1.00  0.00     0.185 A 
HETATM   10  O3  UNL     1     -13.659  -6.095 -16.460  1.00  0.00    -0.288 OA
HETATM   11  O4  UNL     1     -13.211  -4.908 -11.948  1.00  0.00    -0.323 OA
HETATM   12  C15 UNL     1     -14.340  -4.095 -11.865  1.00  0.00     0.146 C 
ENDROOT
BRANCH   1  13
HETATM   13  C5  UNL     1     -15.612  -2.573 -13.337  1.00  0.00    -0.012 C 
HETATM   14  C4  UNL     1     -15.835  -2.106 -14.559  1.00  0.00     0.037 C 
BRANCH  14  15
HETATM   15  C3  UNL     1     -16.358  -0.767 -14.775  1.00  0.00     0.112 A 
HETATM   16  C2  UNL     1     -15.646   0.402 -14.726  1.00  0.00     0.113 A 
HETATM   17  C20 UNL     1     -16.498   1.452 -14.985  1.00  0.00     0.040 A 
HETATM   18  C19 UNL     1     -17.734   0.850 -15.188  1.00  0.00     0.193 A 
HETATM   19  O5  UNL     1     -17.610  -0.458 -15.056  1.00  0.00    -0.285 OA
BRANCH  16  20
HETATM   20  O1  UNL     1     -14.291   0.486 -14.456  1.00  0.00    -0.352 OA
HETATM   21  C1  UNL     1     -13.865   0.773 -13.120  1.00  0.00     0.210 C 
ENDBRANCH  16  20
BRANCH  17  22
HETATM   22  C21 UNL     1     -16.193   2.902 -15.042  1.00  0.00     0.074 C 
BRANCH  22  23
HETATM   23  C22 UNL     1     -15.601   3.280 -16.362  1.00  0.00    -0.020 C 
HETATM   24  C23 UNL     1     -14.379   3.773 -16.443  1.00  0.00    -0.091 C 
HETATM   25  C24 UNL     1     -13.572   3.957 -15.196  1.00  0.00     0.042 C 
HETATM   26  C25 UNL     1     -13.814   4.142 -17.768  1.00  0.00     0.042 C 
ENDBRANCH  22  23
ENDBRANCH  17  22
BRANCH  18  27
HETATM   27  O6  UNL     1     -18.906   1.523 -15.482  1.00  0.00    -0.340 OA
ATOM     28  H6  UNL     1     -19.585   1.222 -16.074  1.00  0.00     0.220 HD
ENDBRANCH  18  27
ENDBRANCH  14  15
ENDBRANCH   1  13
BRANCH  12  29
HETATM   29  C16 UNL     1     -13.891  -2.790 -11.239  1.00  0.00     0.008 C 
HETATM   30  C17 UNL     1     -14.300  -2.902  -9.761  1.00  0.00     0.012 C 
HETATM   31  C18 UNL     1     -12.412  -2.603 -11.261  1.00  0.00     0.012 C 
ENDBRANCH  12  29
BRANCH   7  32
HETATM   32  C12 UNL     1     -10.944  -8.736 -13.592  1.00  0.00     0.156 C 
HETATM   33  N1  UNL     1     -11.009  -9.535 -12.643  1.00  0.00    -0.233 N 
HETATM   34  F1  UNL     1     -11.789  -9.702 -11.623  1.00  0.00    -0.102 F 
ATOM     35  H1  UNL     1     -10.264 -10.231 -12.674  1.00  0.00     0.198 HD
ENDBRANCH   7  32
TORSDOF 8
ENDMDL
