MODEL 1
REMARK VINA RESULT: -5.120072928      0.000      0.000
REMARK  6 active torsions:
REMARK  status: ('A' for Active; 'I' for Inactive)
REMARK       I    between atoms: C2_2  and  N1_4 
REMARK    1  A    between atoms: N1_4  and  C3_6 
REMARK    2  A    between atoms: C4_11  and  C5_12 
REMARK       I    between atoms: C5_12  and  N4_14 
REMARK    3  A    between atoms: N4_14  and  N5_16 
REMARK       I    between atoms: N5_16  and  C6_18 
REMARK    4  A    between atoms: C6_18  and  C7_20 
REMARK    5  A    between atoms: C7_20  and  S1_22 
REMARK    6  A    between atoms: S1_22  and  C9_23 
ROOT
HETATM    1  C5  UNL     1     -11.920   2.782 -15.341  1.00  0.00     0.312 C 
HETATM    2  O2  UNL     1     -11.848   2.954 -16.580  1.00  0.00    -0.262 OA
HETATM    3  N4  UNL     1     -11.046   3.451 -14.466  1.00  0.00    -0.260 N 
ATOM      4  H4  UNL     1     -11.137   3.281 -13.464  1.00  0.00     0.190 HD
ENDROOT
BRANCH   1   5
HETATM    5  C4  UNL     1     -12.933   1.869 -14.807  1.00  0.00     0.236 A 
HETATM    6  N3  UNL     1     -13.838   1.164 -15.533  1.00  0.00    -0.272 N 
HETATM    7  N2  UNL     1     -14.541   0.481 -14.662  1.00  0.00    -0.263 N 
ATOM      8  H3  UNL     1     -13.948   1.166 -16.547  1.00  0.00     0.189 HD
HETATM    9  C3  UNL     1     -14.086   0.752 -13.417  1.00  0.00     0.247 A 
ATOM     10  H2  UNL     1     -15.308  -0.154 -14.887  1.00  0.00     0.190 HD
HETATM   11  O4  UNL     1     -13.104   1.603 -13.538  1.00  0.00    -0.254 OA
BRANCH   9  12
HETATM   12  N1  UNL     1     -14.575   0.230 -12.323  1.00  0.00    -0.292 N 
HETATM   13  C2  UNL     1     -15.141   0.925 -11.257  1.00  0.00     0.220 C 
HETATM   14  C1  UNL     1     -15.109   2.365 -10.982  1.00  0.00     0.117 C 
HETATM   15  O1  UNL     1     -15.777   0.209 -10.398  1.00  0.00    -0.274 OA
ATOM     16  H1  UNL     1     -14.539  -0.786 -12.242  1.00  0.00     0.172 HD
ENDBRANCH   9  12
ENDBRANCH   1   5
BRANCH   3  17
HETATM   17  N5  UNL     1     -10.052   4.344 -14.908  1.00  0.00    -0.266 N 
HETATM   18  C6  UNL     1      -8.717   4.065 -14.549  1.00  0.00     0.250 C 
HETATM   19  O3  UNL     1      -8.443   3.061 -13.870  1.00  0.00    -0.271 OA
ATOM     20  H5  UNL     1     -10.289   5.164 -15.467  1.00  0.00     0.190 HD
BRANCH  18  21
HETATM   21  C7  UNL     1      -7.643   4.975 -14.989  1.00  0.00     0.144 C 
HETATM   22  C8  UNL     1      -7.495   6.165 -14.062  1.00  0.00     0.031 C 
BRANCH  21  23
HETATM   23  S1  UNL     1      -8.107   5.641 -16.635  1.00  0.00    -0.089 SA
BRANCH  23  24
HETATM   24  C9  UNL     1      -8.917   7.223 -16.432  1.00  0.00     0.150 C 
HETATM   25  N6  UNL     1     -10.286   7.265 -16.013  1.00  0.00    -0.082 NA
HETATM   26  S2  UNL     1      -8.091   8.599 -16.727  1.00  0.00    -0.056 SA
ENDBRANCH  23  24
ENDBRANCH  21  23
ENDBRANCH  18  21
ENDBRANCH   3  17
TORSDOF 6
ENDMDL
MODEL 2
REMARK VINA RESULT: -5.098167454      5.906      6.926
REMARK  6 active torsions:
REMARK  status: ('A' for Active; 'I' for Inactive)
REMARK       I    between atoms: C2_2  and  N1_4 
REMARK    1  A    between atoms: N1_4  and  C3_6 
REMARK    2  A    between atoms: C4_11  and  C5_12 
REMARK       I    between atoms: C5_12  and  N4_14 
REMARK    3  A    between atoms: N4_14  and  N5_16 
REMARK       I    between atoms: N5_16  and  C6_18 
REMARK    4  A    between atoms: C6_18  and  C7_20 
REMARK    5  A    between atoms: C7_20  and  S1_22 
REMARK    6  A    between atoms: S1_22  and  C9_23 
ROOT
HETATM    1  C5  UNL     1     -15.656   0.320 -16.943  1.00  0.00     0.312 C 
HETATM    2  O2  UNL     1     -16.295  -0.655 -17.400  1.00  0.00    -0.262 OA
HETATM    3  N4  UNL     1     -15.518   1.507 -17.685  1.00  0.00    -0.260 N 
ATOM      4  H4  UNL     1     -14.988   2.277 -17.278  1.00  0.00     0.190 HD
ENDROOT
BRANCH   1   5
HETATM    5  C4  UNL     1     -15.047   0.213 -15.615  1.00  0.00     0.236 A 
HETATM    6  N3  UNL     1     -13.769   0.541 -15.292  1.00  0.00    -0.272 N 
HETATM    7  N2  UNL     1     -13.651   0.293 -14.010  1.00  0.00    -0.263 N 
ATOM      8  H3  UNL     1     -13.051   0.904 -15.918  1.00  0.00     0.189 HD
HETATM    9  C3  UNL     1     -14.828  -0.180 -13.540  1.00  0.00     0.247 A 
ATOM     10  H2  UNL     1     -12.806   0.433 -13.455  1.00  0.00     0.190 HD
HETATM   11  O4  UNL     1     -15.661  -0.217 -14.544  1.00  0.00    -0.254 OA
BRANCH   9  12
HETATM   12  N1  UNL     1     -15.042  -0.523 -12.296  1.00  0.00    -0.292 N 
HETATM   13  C2  UNL     1     -15.352   0.337 -11.245  1.00  0.00     0.220 C 
HETATM   14  C1  UNL     1     -15.275   1.800 -11.205  1.00  0.00     0.117 C 
HETATM   15  O1  UNL     1     -15.762  -0.229 -10.164  1.00  0.00    -0.274 OA
ATOM     16  H1  UNL     1     -14.975  -1.515 -12.075  1.00  0.00     0.172 HD
ENDBRANCH   9  12
ENDBRANCH   1   5
BRANCH   3  17
HETATM   17  N5  UNL     1     -16.078   1.681 -18.964  1.00  0.00    -0.266 N 
HETATM   18  C6  UNL     1     -15.250   1.432 -20.079  1.00  0.00     0.250 C 
HETATM   19  O3  UNL     1     -14.072   1.070 -19.922  1.00  0.00    -0.271 OA
ATOM     20  H5  UNL     1     -17.047   1.977 -19.081  1.00  0.00     0.190 HD
BRANCH  18  21
HETATM   21  C7  UNL     1     -15.795   1.604 -21.440  1.00  0.00     0.144 C 
HETATM   22  C8  UNL     1     -15.076   0.732 -22.450  1.00  0.00     0.031 C 
BRANCH  21  23
HETATM   23  S1  UNL     1     -15.511   3.345 -21.944  1.00  0.00    -0.089 SA
BRANCH  23  24
HETATM   24  C9  UNL     1     -16.951   4.326 -21.542  1.00  0.00     0.150 C 
HETATM   25  N6  UNL     1     -17.414   4.377 -20.187  1.00  0.00    -0.082 NA
HETATM   26  S2  UNL     1     -17.724   5.151 -22.720  1.00  0.00    -0.056 SA
ENDBRANCH  23  24
ENDBRANCH  21  23
ENDBRANCH  18  21
ENDBRANCH   3  17
TORSDOF 6
ENDMDL
MODEL 3
REMARK VINA RESULT: -5.057898800      1.677      1.921
REMARK  6 active torsions:
REMARK  status: ('A' for Active; 'I' for Inactive)
REMARK       I    between atoms: C2_2  and  N1_4 
REMARK    1  A    between atoms: N1_4  and  C3_6 
REMARK    2  A    between atoms: C4_11  and  C5_12 
REMARK       I    between atoms: C5_12  and  N4_14 
REMARK    3  A    between atoms: N4_14  and  N5_16 
REMARK       I    between atoms: N5_16  and  C6_18 
REMARK    4  A    between atoms: C6_18  and  C7_20 
REMARK    5  A    between atoms: C7_20  and  S1_22 
REMARK    6  A    between atoms: S1_22  and  C9_23 
ROOT
HETATM    1  C5  UNL     1     -11.246   3.183 -14.923  1.00  0.00     0.312 C 
HETATM    2  O2  UNL     1     -11.782   3.199 -16.055  1.00  0.00    -0.262 OA
HETATM    3  N4  UNL     1     -10.194   4.063 -14.608  1.00  0.00    -0.260 N 
ATOM      4  H4  UNL     1      -9.784   4.015 -13.676  1.00  0.00     0.190 HD
ENDROOT
BRANCH   1   5
HETATM    5  C4  UNL     1     -11.728   2.231 -13.921  1.00  0.00     0.236 A 
HETATM    6  N3  UNL     1     -10.970   1.332 -13.242  1.00  0.00    -0.272 N 
HETATM    7  N2  UNL     1     -11.799   0.690 -12.453  1.00  0.00    -0.263 N 
ATOM      8  H3  UNL     1      -9.965   1.186 -13.328  1.00  0.00     0.189 HD
HETATM    9  C3  UNL     1     -13.048   1.177 -12.635  1.00  0.00     0.247 A 
ATOM     10  H2  UNL     1     -11.543  -0.056 -11.806  1.00  0.00     0.190 HD
HETATM   11  O4  UNL     1     -12.973   2.116 -13.537  1.00  0.00    -0.254 OA
BRANCH   9  12
HETATM   12  N1  UNL     1     -14.106   0.749 -11.996  1.00  0.00    -0.292 N 
HETATM   13  C2  UNL     1     -15.024   1.534 -11.301  1.00  0.00     0.220 C 
HETATM   14  C1  UNL     1     -14.915   2.942 -10.910  1.00  0.00     0.117 C 
HETATM   15  O1  UNL     1     -16.115   0.944 -10.958  1.00  0.00    -0.274 OA
ATOM     16  H1  UNL     1     -14.276  -0.256 -12.007  1.00  0.00     0.172 HD
ENDBRANCH   9  12
ENDBRANCH   1   5
BRANCH   3  17
HETATM   17  N5  UNL     1      -9.683   5.005 -15.519  1.00  0.00    -0.266 N 
HETATM   18  C6  UNL     1      -8.481   4.684 -16.185  1.00  0.00     0.250 C 
HETATM   19  O3  UNL     1      -7.909   3.603 -15.966  1.00  0.00    -0.271 OA
ATOM     20  H5  UNL     1     -10.163   5.888 -15.692  1.00  0.00     0.190 HD
BRANCH  18  21
HETATM   21  C7  UNL     1      -7.907   5.643 -17.148  1.00  0.00     0.144 C 
HETATM   22  C8  UNL     1      -6.409   5.793 -16.971  1.00  0.00     0.031 C 
BRANCH  21  23
HETATM   23  S1  UNL     1      -8.647   7.289 -16.812  1.00  0.00    -0.089 SA
BRANCH  23  24
HETATM   24  C9  UNL     1      -7.787   8.063 -15.448  1.00  0.00     0.150 C 
HETATM   25  N6  UNL     1      -7.871   7.482 -14.141  1.00  0.00    -0.082 NA
HETATM   26  S2  UNL     1      -6.918   9.421 -15.705  1.00  0.00    -0.056 SA
ENDBRANCH  23  24
ENDBRANCH  21  23
ENDBRANCH  18  21
ENDBRANCH   3  17
TORSDOF 6
ENDMDL
MODEL 4
REMARK VINA RESULT: -5.044694568      1.482      1.681
REMARK  6 active torsions:
REMARK  status: ('A' for Active; 'I' for Inactive)
REMARK       I    between atoms: C2_2  and  N1_4 
REMARK    1  A    between atoms: N1_4  and  C3_6 
REMARK    2  A    between atoms: C4_11  and  C5_12 
REMARK       I    between atoms: C5_12  and  N4_14 
REMARK    3  A    between atoms: N4_14  and  N5_16 
REMARK       I    between atoms: N5_16  and  C6_18 
REMARK    4  A    between atoms: C6_18  and  C7_20 
REMARK    5  A    between atoms: C7_20  and  S1_22 
REMARK    6  A    between atoms: S1_22  and  C9_23 
ROOT
HETATM    1  C5  UNL     1     -10.899   3.316 -14.744  1.00  0.00     0.312 C 
HETATM    2  O2  UNL     1     -11.472   3.659 -15.804  1.00  0.00    -0.262 OA
HETATM    3  N4  UNL     1      -9.666   3.882 -14.372  1.00  0.00    -0.260 N 
ATOM      4  H4  UNL     1      -9.232   3.573 -13.502  1.00  0.00     0.190 HD
ENDROOT
BRANCH   1   5
HETATM    5  C4  UNL     1     -11.530   2.309 -13.888  1.00  0.00     0.236 A 
HETATM    6  N3  UNL     1     -10.910   1.246 -13.313  1.00  0.00    -0.272 N 
HETATM    7  N2  UNL     1     -11.839   0.614 -12.638  1.00  0.00    -0.263 N 
ATOM      8  H3  UNL     1      -9.925   0.992 -13.391  1.00  0.00     0.189 HD
HETATM    9  C3  UNL     1     -13.015   1.266 -12.787  1.00  0.00     0.247 A 
ATOM     10  H2  UNL     1     -11.698  -0.234 -12.088  1.00  0.00     0.190 HD
HETATM   11  O4  UNL     1     -12.794   2.297 -13.555  1.00  0.00    -0.254 OA
BRANCH   9  12
HETATM   12  N1  UNL     1     -14.141   0.892 -12.237  1.00  0.00    -0.292 N 
HETATM   13  C2  UNL     1     -14.946   1.659 -11.398  1.00  0.00     0.220 C 
HETATM   14  C1  UNL     1     -14.633   2.931 -10.741  1.00  0.00     0.117 C 
HETATM   15  O1  UNL     1     -16.122   1.189 -11.171  1.00  0.00    -0.274 OA
ATOM     16  H1  UNL     1     -14.461  -0.054 -12.443  1.00  0.00     0.172 HD
ENDBRANCH   9  12
ENDBRANCH   1   5
BRANCH   3  17
HETATM   17  N5  UNL     1      -9.005   4.855 -15.143  1.00  0.00    -0.266 N 
HETATM   18  C6  UNL     1      -7.886   5.495 -14.569  1.00  0.00     0.250 C 
HETATM   19  O3  UNL     1      -7.509   5.196 -13.423  1.00  0.00    -0.271 OA
ATOM     20  H5  UNL     1      -9.323   5.090 -16.083  1.00  0.00     0.190 HD
BRANCH  18  21
HETATM   21  C7  UNL     1      -7.164   6.523 -15.340  1.00  0.00     0.144 C 
HETATM   22  C8  UNL     1      -7.238   7.884 -14.676  1.00  0.00     0.031 C 
BRANCH  21  23
HETATM   23  S1  UNL     1      -7.986   6.684 -16.973  1.00  0.00    -0.089 SA
BRANCH  23  24
HETATM   24  C9  UNL     1      -9.341   7.846 -16.847  1.00  0.00     0.150 C 
HETATM   25  N6  UNL     1     -10.519   7.479 -16.120  1.00  0.00    -0.082 NA
HETATM   26  S2  UNL     1      -9.221   9.310 -17.560  1.00  0.00    -0.056 SA
ENDBRANCH  23  24
ENDBRANCH  21  23
ENDBRANCH  18  21
ENDBRANCH   3  17
TORSDOF 6
ENDMDL
MODEL 5
REMARK VINA RESULT: -5.042549522      3.822      7.587
REMARK  6 active torsions:
REMARK  status: ('A' for Active; 'I' for Inactive)
REMARK       I    between atoms: C2_2  and  N1_4 
REMARK    1  A    between atoms: N1_4  and  C3_6 
REMARK    2  A    between atoms: C4_11  and  C5_12 
REMARK       I    between atoms: C5_12  and  N4_14 
REMARK    3  A    between atoms: N4_14  and  N5_16 
REMARK       I    between atoms: N5_16  and  C6_18 
REMARK    4  A    between atoms: C6_18  and  C7_20 
REMARK    5  A    between atoms: C7_20  and  S1_22 
REMARK    6  A    between atoms: S1_22  and  C9_23 
ROOT
HETATM    1  C5  UNL     1     -11.721   2.040 -15.681  1.00  0.00     0.312 C 
HETATM    2  O2  UNL     1     -11.505   1.056 -16.424  1.00  0.00    -0.262 OA
HETATM    3  N4  UNL     1     -12.247   1.868 -14.387  1.00  0.00    -0.260 N 
ATOM      4  H4  UNL     1     -12.411   2.696 -13.815  1.00  0.00     0.190 HD
ENDROOT
BRANCH   1   5
HETATM    5  C4  UNL     1     -11.420   3.385 -16.174  1.00  0.00     0.236 A 
HETATM    6  N3  UNL     1     -11.668   3.853 -17.425  1.00  0.00    -0.272 N 
HETATM    7  N2  UNL     1     -11.245   5.095 -17.432  1.00  0.00    -0.263 N 
ATOM      8  H3  UNL     1     -12.094   3.344 -18.199  1.00  0.00     0.189 HD
HETATM    9  C3  UNL     1     -10.744   5.397 -16.213  1.00  0.00     0.247 A 
ATOM     10  H2  UNL     1     -11.288   5.730 -18.229  1.00  0.00     0.190 HD
HETATM   11  O4  UNL     1     -10.864   4.334 -15.466  1.00  0.00    -0.254 OA
BRANCH   9  12
HETATM   12  N1  UNL     1     -10.241   6.561 -15.890  1.00  0.00    -0.292 N 
HETATM   13  C2  UNL     1      -8.891   6.904 -15.882  1.00  0.00     0.220 C 
HETATM   14  C1  UNL     1      -7.722   6.025 -15.983  1.00  0.00     0.117 C 
HETATM   15  O1  UNL     1      -8.635   8.160 -15.772  1.00  0.00    -0.274 OA
ATOM     16  H1  UNL     1     -10.902   7.288 -15.617  1.00  0.00     0.172 HD
ENDBRANCH   9  12
ENDBRANCH   1   5
BRANCH   3  17
HETATM   17  N5  UNL     1     -12.557   0.606 -13.847  1.00  0.00    -0.266 N 
HETATM   18  C6  UNL     1     -12.220   0.373 -12.497  1.00  0.00     0.250 C 
HETATM   19  O3  UNL     1     -11.672   1.260 -11.822  1.00  0.00    -0.271 OA
ATOM     20  H5  UNL     1     -13.009  -0.114 -14.411  1.00  0.00     0.190 HD
BRANCH  18  21
HETATM   21  C7  UNL     1     -12.525  -0.936 -11.890  1.00  0.00     0.144 C 
HETATM   22  C8  UNL     1     -12.966  -1.951 -12.926  1.00  0.00     0.031 C 
BRANCH  21  23
HETATM   23  S1  UNL     1     -13.934  -0.708 -10.737  1.00  0.00    -0.089 SA
BRANCH  23  24
HETATM   24  C9  UNL     1     -15.108   0.439 -11.449  1.00  0.00     0.150 C 
HETATM   25  N6  UNL     1     -16.032  -0.023 -12.441  1.00  0.00    -0.082 NA
HETATM   26  S2  UNL     1     -15.114   1.997 -10.963  1.00  0.00    -0.056 SA
ENDBRANCH  23  24
ENDBRANCH  21  23
ENDBRANCH  18  21
ENDBRANCH   3  17
TORSDOF 6
ENDMDL
