MODEL 1
REMARK VINA RESULT: -6.380177081      0.000      0.000
REMARK  3 active torsions:
REMARK  status: ('A' for Active; 'I' for Inactive)
REMARK    1  A    between atoms: N1_2  and  C3_4 
REMARK    2  A    between atoms: N2_7  and  C6_8 
REMARK    3  A    between atoms: C8_16  and  C9_17 
ROOT
HETATM    1  C6  UNL     1     -13.840   1.402 -16.443  1.00  0.00     0.683 A 
HETATM    2  N3  UNL     1     -14.612   0.539 -15.760  1.00  0.00    -0.174 N 
ATOM      3  H3  UNL     1     -15.337   0.021 -16.256  1.00  0.00     0.186 HD
HETATM    4  C7  UNL     1     -14.454   0.346 -14.457  1.00  0.00     0.153 A 
HETATM    5  N4  UNL     1     -15.242  -0.518 -13.776  1.00  0.00    -0.283 N 
ATOM      6  H4  UNL     1     -15.965  -1.033 -14.279  1.00  0.00     0.188 HD
HETATM    7  N5  UNL     1     -15.102  -0.708 -12.499  1.00  0.00    -0.291 N 
ATOM      8  H5  UNL     1     -15.727  -1.372 -12.042  1.00  0.00     0.187 HD
HETATM    9  C8  UNL     1     -14.196  -0.093 -11.749  1.00  0.00     0.164 A 
HETATM   10  C10 UNL     1     -13.343   0.813 -12.378  1.00  0.00     0.222 A 
HETATM   11  O2  UNL     1     -12.479   1.403 -11.683  1.00  0.00    -0.285 OA
HETATM   12  C11 UNL     1     -13.479   1.025 -13.721  1.00  0.00     0.106 A 
HETATM   13  C12 UNL     1     -12.685   1.906 -14.404  1.00  0.00     0.133 A 
HETATM   14  N7  UNL     1     -11.775   2.576 -13.882  1.00  0.00    -0.384 N 
ATOM     15  H71 UNL     1     -11.183   3.233 -14.392  1.00  0.00     0.157 HD
ATOM     16  H72 UNL     1     -11.610   2.466 -12.881  1.00  0.00     0.157 HD
HETATM   17  N8  UNL     1     -12.907   2.054 -15.747  1.00  0.00    -0.176 N 
ATOM     18  H8  UNL     1     -12.315   2.713 -16.253  1.00  0.00     0.186 HD
ENDROOT
BRANCH   1  19
HETATM   19  N2  UNL     1     -14.002   1.614 -17.836  1.00  0.00    -0.217 N 
HETATM   20  C5  UNL     1     -15.076   0.946 -18.528  1.00  0.00     0.143 C 
HETATM   21  C4  UNL     1     -15.780   2.050 -19.317  1.00  0.00     0.056 C 
HETATM   22  C3  UNL     1     -14.850   2.489 -20.386  1.00  0.00     0.225 C 
HETATM   23  C14 UNL     1     -13.490   2.816 -19.920  1.00  0.00     0.056 C 
HETATM   24  C13 UNL     1     -13.120   2.491 -18.523  1.00  0.00     0.143 C 
BRANCH  22  25
HETATM   25  N1  UNL     1     -15.479   3.535 -21.165  1.00  0.00     0.084 N 
HETATM   26  C1  UNL     1     -16.536   3.045 -22.018  1.00  0.00     0.309 C 
HETATM   27  C2  UNL     1     -14.529   4.352 -21.882  1.00  0.00     0.309 C 
ENDBRANCH  22  25
ENDBRANCH   1  19
BRANCH   9  28
HETATM   28  C9  UNL     1     -14.055  -0.303 -10.317  1.00  0.00     0.286 C 
HETATM   29  N6  UNL     1     -13.149  -1.237  -9.776  1.00  0.00    -0.056 NA
HETATM   30  O1  UNL     1     -14.771   0.370  -9.516  1.00  0.00    -0.269 OA
ENDBRANCH   9  28
TORSDOF 3
ENDMDL
MODEL 2
REMARK VINA RESULT: -6.129755329      2.432      3.270
REMARK  3 active torsions:
REMARK  status: ('A' for Active; 'I' for Inactive)
REMARK    1  A    between atoms: N1_2  and  C3_4 
REMARK    2  A    between atoms: N2_7  and  C6_8 
REMARK    3  A    between atoms: C8_16  and  C9_17 
ROOT
HETATM    1  C6  UNL     1     -12.644   2.419 -16.103  1.00  0.00     0.683 A 
HETATM    2  N3  UNL     1     -12.399   2.652 -14.802  1.00  0.00    -0.174 N 
ATOM      3  H3  UNL     1     -11.710   3.359 -14.544  1.00  0.00     0.186 HD
HETATM    4  C7  UNL     1     -13.034   1.986 -13.845  1.00  0.00     0.153 A 
HETATM    5  N4  UNL     1     -12.775   2.222 -12.538  1.00  0.00    -0.283 N 
ATOM      6  H4  UNL     1     -12.084   2.929 -12.288  1.00  0.00     0.188 HD
HETATM    7  N5  UNL     1     -13.384   1.569 -11.594  1.00  0.00    -0.291 N 
ATOM      8  H5  UNL     1     -13.144   1.791 -10.628  1.00  0.00     0.187 HD
HETATM    9  C8  UNL     1     -14.298   0.631 -11.807  1.00  0.00     0.164 A 
HETATM   10  C10 UNL     1     -14.622   0.330 -13.129  1.00  0.00     0.222 A 
HETATM   11  O2  UNL     1     -15.485  -0.554 -13.348  1.00  0.00    -0.285 OA
HETATM   12  C11 UNL     1     -13.989   1.008 -14.133  1.00  0.00     0.106 A 
HETATM   13  C12 UNL     1     -14.247   0.761 -15.454  1.00  0.00     0.133 A 
HETATM   14  N7  UNL     1     -15.074  -0.077 -15.860  1.00  0.00    -0.384 N 
ATOM     15  H71 UNL     1     -15.267  -0.261 -16.845  1.00  0.00     0.157 HD
ATOM     16  H72 UNL     1     -15.591  -0.618 -15.166  1.00  0.00     0.157 HD
HETATM   17  N8  UNL     1     -13.554   1.486 -16.385  1.00  0.00    -0.176 N 
ATOM     18  H8  UNL     1     -13.747   1.299 -17.370  1.00  0.00     0.186 HD
ENDROOT
BRANCH   1  19
HETATM   19  N2  UNL     1     -11.970   3.127 -17.131  1.00  0.00    -0.217 N 
HETATM   20  C5  UNL     1     -12.043   2.636 -18.485  1.00  0.00     0.143 C 
HETATM   21  C4  UNL     1     -12.444   3.853 -19.320  1.00  0.00     0.056 C 
HETATM   22  C3  UNL     1     -11.295   4.790 -19.314  1.00  0.00     0.225 C 
HETATM   23  C14 UNL     1     -10.758   5.095 -17.974  1.00  0.00     0.056 C 
HETATM   24  C13 UNL     1     -11.250   4.311 -16.817  1.00  0.00     0.143 C 
BRANCH  22  25
HETATM   25  N1  UNL     1     -11.629   5.960 -20.099  1.00  0.00     0.084 N 
HETATM   26  C1  UNL     1     -11.165   5.874 -21.464  1.00  0.00     0.309 C 
HETATM   27  C2  UNL     1     -11.240   7.196 -19.464  1.00  0.00     0.309 C 
ENDBRANCH  22  25
ENDBRANCH   1  19
BRANCH   9  28
HETATM   28  C9  UNL     1     -14.963  -0.104 -10.743  1.00  0.00     0.286 C 
HETATM   29  N6  UNL     1     -14.337  -1.157 -10.045  1.00  0.00    -0.056 NA
HETATM   30  O1  UNL     1     -16.152   0.201 -10.425  1.00  0.00    -0.269 OA
ENDBRANCH   9  28
TORSDOF 3
ENDMDL
MODEL 3
REMARK VINA RESULT: -6.118157701      3.898      4.822
REMARK  3 active torsions:
REMARK  status: ('A' for Active; 'I' for Inactive)
REMARK    1  A    between atoms: N1_2  and  C3_4 
REMARK    2  A    between atoms: N2_7  and  C6_8 
REMARK    3  A    between atoms: C8_16  and  C9_17 
ROOT
HETATM    1  C6  UNL     1     -11.048   2.583 -14.775  1.00  0.00     0.683 A 
HETATM    2  N3  UNL     1     -11.959   3.024 -13.890  1.00  0.00    -0.174 N 
ATOM      3  H3  UNL     1     -12.169   4.021 -13.847  1.00  0.00     0.186 HD
HETATM    4  C7  UNL     1     -12.592   2.193 -13.072  1.00  0.00     0.153 A 
HETATM    5  N4  UNL     1     -13.501   2.647 -12.178  1.00  0.00    -0.283 N 
ATOM      6  H4  UNL     1     -13.705   3.645 -12.141  1.00  0.00     0.188 HD
HETATM    7  N5  UNL     1     -14.120   1.842 -11.366  1.00  0.00    -0.291 N 
ATOM      8  H5  UNL     1     -14.793   2.246 -10.715  1.00  0.00     0.187 HD
HETATM    9  C8  UNL     1     -13.931   0.530 -11.331  1.00  0.00     0.164 A 
HETATM   10  C10 UNL     1     -13.009  -0.017 -12.223  1.00  0.00     0.222 A 
HETATM   11  O2  UNL     1     -12.820  -1.258 -12.203  1.00  0.00    -0.285 OA
HETATM   12  C11 UNL     1     -12.350   0.816 -13.082  1.00  0.00     0.106 A 
HETATM   13  C12 UNL     1     -11.425   0.354 -13.979  1.00  0.00     0.133 A 
HETATM   14  N7  UNL     1     -11.110  -0.844 -14.104  1.00  0.00    -0.384 N 
ATOM     15  H71 UNL     1     -10.421  -1.188 -14.772  1.00  0.00     0.157 HD
ATOM     16  H72 UNL     1     -11.568  -1.527 -13.499  1.00  0.00     0.157 HD
HETATM   17  N8  UNL     1     -10.811   1.271 -14.790  1.00  0.00    -0.176 N 
ATOM     18  H8  UNL     1     -10.121   0.924 -15.456  1.00  0.00     0.186 HD
ENDROOT
BRANCH   1  19
HETATM   19  N2  UNL     1     -10.367   3.465 -15.653  1.00  0.00    -0.217 N 
HETATM   20  C5  UNL     1     -11.033   3.918 -16.849  1.00  0.00     0.143 C 
HETATM   21  C4  UNL     1     -10.861   5.438 -16.839  1.00  0.00     0.056 C 
HETATM   22  C3  UNL     1      -9.423   5.720 -17.071  1.00  0.00     0.225 C 
HETATM   23  C14 UNL     1      -8.502   4.976 -16.191  1.00  0.00     0.056 C 
HETATM   24  C13 UNL     1      -9.052   3.899 -15.335  1.00  0.00     0.143 C 
BRANCH  22  25
HETATM   25  N1  UNL     1      -9.212   7.152 -17.074  1.00  0.00     0.084 N 
HETATM   26  C1  UNL     1      -8.345   7.597 -16.009  1.00  0.00     0.309 C 
HETATM   27  C2  UNL     1     -10.444   7.903 -17.129  1.00  0.00     0.309 C 
ENDBRANCH  22  25
ENDBRANCH   1  19
BRANCH   9  28
HETATM   28  C9  UNL     1     -14.619  -0.360 -10.409  1.00  0.00     0.286 C 
HETATM   29  N6  UNL     1     -13.942  -1.065  -9.392  1.00  0.00    -0.056 NA
HETATM   30  O1  UNL     1     -15.872  -0.520 -10.515  1.00  0.00    -0.269 OA
ENDBRANCH   9  28
TORSDOF 3
ENDMDL
MODEL 4
REMARK VINA RESULT: -6.102849537      1.927      2.376
REMARK  3 active torsions:
REMARK  status: ('A' for Active; 'I' for Inactive)
REMARK    1  A    between atoms: N1_2  and  C3_4 
REMARK    2  A    between atoms: N2_7  and  C6_8 
REMARK    3  A    between atoms: C8_16  and  C9_17 
ROOT
HETATM    1  C6  UNL     1     -12.532   1.676 -15.126  1.00  0.00     0.683 A 
HETATM    2  N3  UNL     1     -12.482   0.361 -14.851  1.00  0.00    -0.174 N 
ATOM      3  H3  UNL     1     -12.184  -0.289 -15.578  1.00  0.00     0.186 HD
HETATM    4  C7  UNL     1     -12.812  -0.111 -13.655  1.00  0.00     0.153 A 
HETATM    5  N4  UNL     1     -12.768  -1.437 -13.390  1.00  0.00    -0.283 N 
ATOM      6  H4  UNL     1     -12.468  -2.081 -14.122  1.00  0.00     0.188 HD
HETATM    7  N5  UNL     1     -13.098  -1.911 -12.225  1.00  0.00    -0.291 N 
ATOM      8  H5  UNL     1     -13.044  -2.920 -12.087  1.00  0.00     0.187 HD
HETATM    9  C8  UNL     1     -13.500  -1.165 -11.204  1.00  0.00     0.164 A 
HETATM   10  C10 UNL     1     -13.571   0.214 -11.398  1.00  0.00     0.222 A 
HETATM   11  O2  UNL     1     -13.948   0.934 -10.442  1.00  0.00    -0.285 OA
HETATM   12  C11 UNL     1     -13.228   0.727 -12.618  1.00  0.00     0.106 A 
HETATM   13  C12 UNL     1     -13.283   2.068 -12.885  1.00  0.00     0.133 A 
HETATM   14  N7  UNL     1     -13.630   2.932 -12.058  1.00  0.00    -0.384 N 
ATOM     15  H71 UNL     1     -13.670   3.932 -12.258  1.00  0.00     0.157 HD
ATOM     16  H72 UNL     1     -13.894   2.624 -11.122  1.00  0.00     0.157 HD
HETATM   17  N8  UNL     1     -12.928   2.482 -14.141  1.00  0.00    -0.176 N 
ATOM     18  H8  UNL     1     -12.971   3.482 -14.338  1.00  0.00     0.186 HD
ENDROOT
BRANCH   1  19
HETATM   19  N2  UNL     1     -12.181   2.189 -16.402  1.00  0.00    -0.217 N 
HETATM   20  C5  UNL     1     -12.450   1.396 -17.576  1.00  0.00     0.143 C 
HETATM   21  C4  UNL     1     -13.176   2.346 -18.530  1.00  0.00     0.056 C 
HETATM   22  C3  UNL     1     -12.191   3.363 -18.972  1.00  0.00     0.225 C 
HETATM   23  C14 UNL     1     -11.449   4.016 -17.878  1.00  0.00     0.056 C 
HETATM   24  C13 UNL     1     -11.587   3.475 -16.505  1.00  0.00     0.143 C 
BRANCH  22  25
HETATM   25  N1  UNL     1     -12.836   4.285 -19.884  1.00  0.00     0.084 N 
HETATM   26  C1  UNL     1     -13.167   3.683 -21.154  1.00  0.00     0.309 C 
HETATM   27  C2  UNL     1     -12.113   5.525 -20.037  1.00  0.00     0.309 C 
ENDBRANCH  22  25
ENDBRANCH   1  19
BRANCH   9  28
HETATM   28  C9  UNL     1     -13.879  -1.706  -9.909  1.00  0.00     0.286 C 
HETATM   29  N6  UNL     1     -12.931  -2.015  -8.912  1.00  0.00    -0.056 NA
HETATM   30  O1  UNL     1     -15.104  -1.916  -9.656  1.00  0.00    -0.269 OA
ENDBRANCH   9  28
TORSDOF 3
ENDMDL
MODEL 5
REMARK VINA RESULT: -6.089715649      3.286      4.003
REMARK  3 active torsions:
REMARK  status: ('A' for Active; 'I' for Inactive)
REMARK    1  A    between atoms: N1_2  and  C3_4 
REMARK    2  A    between atoms: N2_7  and  C6_8 
REMARK    3  A    between atoms: C8_16  and  C9_17 
ROOT
HETATM    1  C6  UNL     1     -11.651   2.620 -15.164  1.00  0.00     0.683 A 
HETATM    2  N3  UNL     1     -12.265   3.051 -14.049  1.00  0.00    -0.174 N 
ATOM      3  H3  UNL     1     -12.302   4.052 -13.856  1.00  0.00     0.186 HD
HETATM    4  C7  UNL     1     -12.826   2.206 -13.194  1.00  0.00     0.153 A 
HETATM    5  N4  UNL     1     -13.434   2.648 -12.069  1.00  0.00    -0.283 N 
ATOM      6  H4  UNL     1     -13.467   3.651 -11.883  1.00  0.00     0.188 HD
HETATM    7  N5  UNL     1     -13.979   1.829 -11.220  1.00  0.00    -0.291 N 
ATOM      8  H5  UNL     1     -14.421   2.224 -10.390  1.00  0.00     0.187 HD
HETATM    9  C8  UNL     1     -13.995   0.510 -11.364  1.00  0.00     0.164 A 
HETATM   10  C10 UNL     1     -13.389  -0.026 -12.500  1.00  0.00     0.222 A 
HETATM   11  O2  UNL     1     -13.396  -1.271 -12.651  1.00  0.00    -0.285 OA
HETATM   12  C11 UNL     1     -12.811   0.824 -13.401  1.00  0.00     0.106 A 
HETATM   13  C12 UNL     1     -12.189   0.372 -14.533  1.00  0.00     0.133 A 
HETATM   14  N7  UNL     1     -12.102  -0.829 -14.851  1.00  0.00    -0.384 N 
ATOM     15  H71 UNL     1     -11.638  -1.166 -15.695  1.00  0.00     0.157 HD
ATOM     16  H72 UNL     1     -12.516  -1.522 -14.228  1.00  0.00     0.157 HD
HETATM   17  N8  UNL     1     -11.632   1.303 -15.369  1.00  0.00    -0.176 N 
ATOM     18  H8  UNL     1     -11.168   0.963 -16.211  1.00  0.00     0.186 HD
ENDROOT
BRANCH   1  19
HETATM   19  N2  UNL     1     -11.049   3.517 -16.084  1.00  0.00    -0.217 N 
HETATM   20  C5  UNL     1     -11.252   3.315 -17.497  1.00  0.00     0.143 C 
HETATM   21  C4  UNL     1     -11.691   4.681 -18.028  1.00  0.00     0.056 C 
HETATM   22  C3  UNL     1     -10.519   5.587 -17.934  1.00  0.00     0.225 C 
HETATM   23  C14 UNL     1      -9.862   5.605 -16.615  1.00  0.00     0.056 C 
HETATM   24  C13 UNL     1     -10.273   4.605 -15.602  1.00  0.00     0.143 C 
BRANCH  22  25
HETATM   25  N1  UNL     1     -10.888   6.896 -18.432  1.00  0.00     0.084 N 
HETATM   26  C1  UNL     1     -10.403   7.147 -19.769  1.00  0.00     0.309 C 
HETATM   27  C2  UNL     1     -10.554   7.961 -17.518  1.00  0.00     0.309 C 
ENDBRANCH  22  25
ENDBRANCH   1  19
BRANCH   9  28
HETATM   28  C9  UNL     1     -14.595  -0.400 -10.401  1.00  0.00     0.286 C 
HETATM   29  N6  UNL     1     -13.830  -1.100  -9.445  1.00  0.00    -0.056 NA
HETATM   30  O1  UNL     1     -15.849  -0.582 -10.414  1.00  0.00    -0.269 OA
ENDBRANCH   9  28
TORSDOF 3
ENDMDL
