MODEL 1
REMARK VINA RESULT: -5.615678132      0.000      0.000
REMARK  3 active torsions:
REMARK  status: ('A' for Active; 'I' for Inactive)
REMARK    1  A    between atoms: C4_4  and  C5_5 
REMARK    2  A    between atoms: N1_6  and  O1_8 
REMARK    3  A    between atoms: C6_11  and  C7_12 
ROOT
HETATM    1  C1  UNL     1     -10.325  28.373  50.720  1.00  0.00     0.011 C 
HETATM    2  C2  UNL     1      -9.752  27.316  51.684  1.00  0.00    -0.005 C 
HETATM    3  C3  UNL     1     -10.889  26.567  52.243  1.00  0.00     0.049 C 
HETATM    4  C4  UNL     1     -10.860  26.601  53.746  1.00  0.00     0.108 C 
HETATM    5  O2  UNL     1     -11.964  26.111  54.427  1.00  0.00    -0.337 OA
HETATM    6  C6  UNL     1     -11.871  27.238  55.282  1.00  0.00     0.176 C 
HETATM    7  O3  UNL     1     -10.880  27.266  56.211  1.00  0.00    -0.348 OA
HETATM    8  C10 UNL     1     -10.148  28.459  56.032  1.00  0.00     0.133 C 
HETATM    9  C11 UNL     1      -8.849  28.492  56.753  1.00  0.00     0.040 C 
HETATM   10  C12 UNL     1     -10.172  28.825  54.613  1.00  0.00     0.097 C 
HETATM   11  C13 UNL     1      -9.023  28.593  53.757  1.00  0.00     0.138 C 
HETATM   12  O4  UNL     1      -8.018  29.140  54.196  1.00  0.00    -0.297 OA
HETATM   13  C14 UNL     1      -8.708  27.887  52.508  1.00  0.00     0.055 C 
HETATM   14  C15 UNL     1      -7.956  28.934  51.653  1.00  0.00     0.018 C 
HETATM   15  C16 UNL     1     -11.265  27.931  54.124  1.00  0.00     0.102 C 
ENDROOT
BRANCH   4  16
HETATM   16  C5  UNL     1      -9.728  25.834  54.222  1.00  0.00     0.125 C 
HETATM   17  N1  UNL     1     -10.019  24.600  54.493  1.00  0.00    -0.281 N 
ATOM     18  H1  UNL     1     -10.971  24.254  54.364  1.00  0.00     0.193 HD
BRANCH  17  19
HETATM   19  O1  UNL     1      -9.037  23.770  54.952  1.00  0.00    -0.290 OA
ATOM     20  H1  UNL     1      -9.169  22.830  54.910  1.00  0.00     0.244 HD
ENDBRANCH  17  19
ENDBRANCH   4  16
BRANCH   6  21
HETATM   21  C7  UNL     1     -13.268  27.605  55.696  1.00  0.00     0.041 C 
HETATM   22  C8  UNL     1     -13.632  29.039  55.521  1.00  0.00     0.015 C 
HETATM   23  C9  UNL     1     -13.478  27.110  57.103  1.00  0.00     0.015 C 
ENDBRANCH   6  21
TORSDOF 3
ENDMDL
MODEL 2
REMARK VINA RESULT: -5.397850342      1.653      4.891
REMARK  3 active torsions:
REMARK  status: ('A' for Active; 'I' for Inactive)
REMARK    1  A    between atoms: C4_4  and  C5_5 
REMARK    2  A    between atoms: N1_6  and  O1_8 
REMARK    3  A    between atoms: C6_11  and  C7_12 
ROOT
HETATM    1  C1  UNL     1     -13.546  29.574  55.267  1.00  0.00     0.011 C 
HETATM    2  C2  UNL     1     -12.293  28.913  55.874  1.00  0.00    -0.005 C 
HETATM    3  C3  UNL     1     -11.118  29.605  55.318  1.00  0.00     0.049 C 
HETATM    4  C4  UNL     1     -10.181  28.622  54.670  1.00  0.00     0.108 C 
HETATM    5  O2  UNL     1      -9.124  29.128  53.927  1.00  0.00    -0.337 OA
HETATM    6  C6  UNL     1      -9.415  28.148  52.945  1.00  0.00     0.176 C 
HETATM    7  O3  UNL     1      -9.071  26.858  53.196  1.00  0.00    -0.348 OA
HETATM    8  C10 UNL     1     -10.228  26.063  53.049  1.00  0.00     0.133 C 
HETATM    9  C11 UNL     1     -10.096  24.686  53.593  1.00  0.00     0.040 C 
HETATM   10  C12 UNL     1     -11.403  26.855  53.423  1.00  0.00     0.097 C 
HETATM   11  C13 UNL     1     -12.058  26.668  54.705  1.00  0.00     0.138 C 
HETATM   12  O4  UNL     1     -12.412  25.506  54.863  1.00  0.00    -0.297 OA
HETATM   13  C14 UNL     1     -12.425  27.472  55.878  1.00  0.00     0.055 C 
HETATM   14  C15 UNL     1     -13.915  27.139  56.123  1.00  0.00     0.018 C 
HETATM   15  C16 UNL     1     -10.809  28.226  53.434  1.00  0.00     0.102 C 
ENDROOT
BRANCH   4  16
HETATM   16  C5  UNL     1      -9.585  27.783  55.688  1.00  0.00     0.125 C 
HETATM   17  N1  UNL     1      -8.870  28.443  56.545  1.00  0.00    -0.281 N 
ATOM     18  H1  UNL     1      -8.770  29.455  56.464  1.00  0.00     0.193 HD
BRANCH  17  19
HETATM   19  O1  UNL     1      -8.253  27.765  57.557  1.00  0.00    -0.290 OA
ATOM     20  H1  UNL     1      -8.533  27.915  58.452  1.00  0.00     0.244 HD
ENDBRANCH  17  19
ENDBRANCH   4  16
BRANCH   6  21
HETATM   21  C7  UNL     1      -9.083  28.743  51.606  1.00  0.00     0.041 C 
HETATM   22  C8  UNL     1      -9.536  27.955  50.425  1.00  0.00     0.015 C 
HETATM   23  C9  UNL     1      -7.606  29.041  51.586  1.00  0.00     0.015 C 
ENDBRANCH   6  21
TORSDOF 3
ENDMDL
MODEL 3
REMARK VINA RESULT: -5.335356119      1.203      1.364
REMARK  3 active torsions:
REMARK  status: ('A' for Active; 'I' for Inactive)
REMARK    1  A    between atoms: C4_4  and  C5_5 
REMARK    2  A    between atoms: N1_6  and  O1_8 
REMARK    3  A    between atoms: C6_11  and  C7_12 
ROOT
HETATM    1  C1  UNL     1     -11.115  28.346  50.935  1.00  0.00     0.011 C 
HETATM    2  C2  UNL     1     -10.370  27.267  51.744  1.00  0.00    -0.005 C 
HETATM    3  C3  UNL     1     -11.261  26.844  52.838  1.00  0.00     0.049 C 
HETATM    4  C4  UNL     1     -10.575  26.992  54.168  1.00  0.00     0.108 C 
HETATM    5  O2  UNL     1     -11.340  26.822  55.313  1.00  0.00    -0.337 OA
HETATM    6  C6  UNL     1     -10.692  27.963  55.851  1.00  0.00     0.176 C 
HETATM    7  O3  UNL     1      -9.408  27.839  56.275  1.00  0.00    -0.348 OA
HETATM    8  C10 UNL     1      -8.634  28.815  55.612  1.00  0.00     0.133 C 
HETATM    9  C11 UNL     1      -7.166  28.610  55.724  1.00  0.00     0.040 C 
HETATM   10  C12 UNL     1      -9.209  29.063  54.287  1.00  0.00     0.097 C 
HETATM   11  C13 UNL     1      -8.605  28.507  53.090  1.00  0.00     0.138 C 
HETATM   12  O4  UNL     1      -7.433  28.845  52.981  1.00  0.00    -0.297 OA
HETATM   13  C14 UNL     1      -8.991  27.651  51.961  1.00  0.00     0.055 C 
HETATM   14  C15 UNL     1      -8.519  28.427  50.710  1.00  0.00     0.018 C 
HETATM   15  C16 UNL     1     -10.541  28.405  54.447  1.00  0.00     0.102 C 
ENDROOT
BRANCH   4  16
HETATM   16  C5  UNL     1      -9.499  26.028  54.264  1.00  0.00     0.125 C 
HETATM   17  N1  UNL     1      -9.862  24.902  54.794  1.00  0.00    -0.281 N 
ATOM     18  H1  UNL     1     -10.826  24.760  55.098  1.00  0.00     0.193 HD
BRANCH  17  19
HETATM   19  O1  UNL     1      -8.938  23.908  54.941  1.00  0.00    -0.290 OA
ATOM     20  H1  UNL     1      -9.062  23.088  54.478  1.00  0.00     0.244 HD
ENDBRANCH  17  19
ENDBRANCH   4  16
BRANCH   6  21
HETATM   21  C7  UNL     1     -11.684  28.670  56.730  1.00  0.00     0.041 C 
HETATM   22  C8  UNL     1     -11.984  30.080  56.353  1.00  0.00     0.015 C 
HETATM   23  C9  UNL     1     -11.223  28.526  58.156  1.00  0.00     0.015 C 
ENDBRANCH   6  21
TORSDOF 3
ENDMDL
MODEL 4
REMARK VINA RESULT: -5.026044959      2.272      4.989
REMARK  3 active torsions:
REMARK  status: ('A' for Active; 'I' for Inactive)
REMARK    1  A    between atoms: C4_4  and  C5_5 
REMARK    2  A    between atoms: N1_6  and  O1_8 
REMARK    3  A    between atoms: C6_11  and  C7_12 
ROOT
HETATM    1  C1  UNL     1     -13.870  26.700  56.374  1.00  0.00     0.011 C 
HETATM    2  C2  UNL     1     -13.030  27.980  56.546  1.00  0.00    -0.005 C 
HETATM    3  C3  UNL     1     -13.099  28.726  55.278  1.00  0.00     0.049 C 
HETATM    4  C4  UNL     1     -11.719  29.006  54.750  1.00  0.00     0.108 C 
HETATM    5  O2  UNL     1     -11.608  29.528  53.470  1.00  0.00    -0.337 OA
HETATM    6  C6  UNL     1     -10.546  28.615  53.247  1.00  0.00     0.176 C 
HETATM    7  O3  UNL     1      -9.343  28.868  53.826  1.00  0.00    -0.348 OA
HETATM    8  C10 UNL     1      -8.975  27.733  54.579  1.00  0.00     0.133 C 
HETATM    9  C11 UNL     1      -7.848  27.965  55.520  1.00  0.00     0.040 C 
HETATM   10  C12 UNL     1     -10.186  27.080  55.082  1.00  0.00     0.097 C 
HETATM   11  C13 UNL     1     -10.602  27.230  56.465  1.00  0.00     0.138 C 
HETATM   12  O4  UNL     1      -9.721  26.877  57.239  1.00  0.00    -0.297 OA
HETATM   13  C14 UNL     1     -11.780  27.686  57.214  1.00  0.00     0.055 C 
HETATM   14  C15 UNL     1     -12.049  26.556  58.234  1.00  0.00     0.018 C 
HETATM   15  C16 UNL     1     -11.222  27.753  54.242  1.00  0.00     0.102 C 
ENDROOT
BRANCH   4  16
HETATM   16  C5  UNL     1     -11.054  29.952  55.623  1.00  0.00     0.125 C 
HETATM   17  N1  UNL     1     -11.144  31.179  55.214  1.00  0.00    -0.281 N 
ATOM     18  H1  UNL     1     -11.646  31.403  54.354  1.00  0.00     0.193 HD
BRANCH  17  19
HETATM   19  O1  UNL     1     -10.558  32.169  55.949  1.00  0.00    -0.290 OA
ATOM     20  H1  UNL     1     -11.021  32.989  56.075  1.00  0.00     0.244 HD
ENDBRANCH  17  19
ENDBRANCH   4  16
BRANCH   6  21
HETATM   21  C7  UNL     1     -10.589  28.220  51.799  1.00  0.00     0.041 C 
HETATM   22  C8  UNL     1     -10.822  26.772  51.535  1.00  0.00     0.015 C 
HETATM   23  C9  UNL     1      -9.341  28.747  51.139  1.00  0.00     0.015 C 
ENDBRANCH   6  21
TORSDOF 3
ENDMDL
MODEL 5
REMARK VINA RESULT: -4.724697739      2.099      4.361
REMARK  3 active torsions:
REMARK  status: ('A' for Active; 'I' for Inactive)
REMARK    1  A    between atoms: C4_4  and  C5_5 
REMARK    2  A    between atoms: N1_6  and  O1_8 
REMARK    3  A    between atoms: C6_11  and  C7_12 
ROOT
HETATM    1  C1  UNL     1      -7.875  31.657  56.032  1.00  0.00     0.011 C 
HETATM    2  C2  UNL     1      -8.412  30.429  56.791  1.00  0.00    -0.005 C 
HETATM    3  C3  UNL     1      -8.018  29.232  56.029  1.00  0.00     0.049 C 
HETATM    4  C4  UNL     1      -9.221  28.392  55.700  1.00  0.00     0.108 C 
HETATM    5  O2  UNL     1      -9.051  27.333  54.820  1.00  0.00    -0.337 OA
HETATM    6  C6  UNL     1     -10.260  27.729  54.193  1.00  0.00     0.176 C 
HETATM    7  O3  UNL     1     -11.433  27.465  54.824  1.00  0.00    -0.348 OA
HETATM    8  C10 UNL     1     -12.143  28.679  54.950  1.00  0.00     0.133 C 
HETATM    9  C11 UNL     1     -13.292  28.619  55.890  1.00  0.00     0.040 C 
HETATM   10  C12 UNL     1     -11.186  29.781  55.081  1.00  0.00     0.097 C 
HETATM   11  C13 UNL     1     -10.919  30.395  56.369  1.00  0.00     0.138 C 
HETATM   12  O4  UNL     1     -11.945  30.821  56.884  1.00  0.00    -0.297 OA
HETATM   13  C14 UNL     1      -9.768  30.659  57.243  1.00  0.00     0.055 C 
HETATM   14  C15 UNL     1      -9.894  32.157  57.604  1.00  0.00     0.018 C 
HETATM   15  C16 UNL     1      -9.927  29.094  54.659  1.00  0.00     0.102 C 
ENDROOT
BRANCH   4  16
HETATM   16  C5  UNL     1      -9.751  27.814  56.918  1.00  0.00     0.125 C 
HETATM   17  N1  UNL     1      -9.410  26.576  57.091  1.00  0.00    -0.281 N 
ATOM     18  H1  UNL     1      -8.823  26.101  56.405  1.00  0.00     0.193 HD
BRANCH  17  19
HETATM   19  O1  UNL     1      -9.847  25.915  58.203  1.00  0.00    -0.290 OA
ATOM     20  H1  UNL     1     -10.256  25.064  58.105  1.00  0.00     0.244 HD
ENDBRANCH  17  19
ENDBRANCH   4  16
BRANCH   6  21
HETATM   21  C7  UNL     1     -10.131  27.412  52.731  1.00  0.00     0.041 C 
HETATM   22  C8  UNL     1     -10.493  28.518  51.801  1.00  0.00     0.015 C 
HETATM   23  C9  UNL     1     -10.898  26.142  52.465  1.00  0.00     0.015 C 
ENDBRANCH   6  21
TORSDOF 3
ENDMDL
