MODEL 1
REMARK VINA RESULT: -6.548482248      0.000      0.000
REMARK  4 active torsions:
REMARK  status: ('A' for Active; 'I' for Inactive)
REMARK    1  A    between atoms: C2_2  and  C4_4 
REMARK    2  A    between atoms: C2_2  and  S1_7 
REMARK    3  A    between atoms: S1_7  and  C5_10 
REMARK    4  A    between atoms: C7_16  and  N3_17 
ROOT
HETATM    1  C5  UNL     1      16.046  -2.415  13.117  1.00  0.00     0.206 A 
HETATM    2  N1  UNL     1      15.613  -1.156  13.285  1.00  0.00    -0.317 N 
ATOM      3  H1  UNL     1      14.942  -0.865  13.996  1.00  0.00     0.169 HD
HETATM    4  C6  UNL     1      16.185  -0.327  12.389  1.00  0.00     0.155 A 
HETATM    5  N2  UNL     1      16.103   0.989  12.128  1.00  0.00    -0.174 N 
ATOM      6  H2  UNL     1      15.482   1.555  12.706  1.00  0.00     0.186 HD
HETATM    7  C7  UNL     1      16.790   1.602  11.156  1.00  0.00     0.680 A 
HETATM    8  N4  UNL     1      17.605   0.838  10.405  1.00  0.00    -0.154 N 
ATOM      9  H4  UNL     1      18.140   1.277   9.656  1.00  0.00     0.187 HD
HETATM   10  C8  UNL     1      17.737  -0.486  10.609  1.00  0.00     0.290 A 
HETATM   11  O5  UNL     1      18.500  -1.210   9.908  1.00  0.00    -0.265 OA
HETATM   12  C9  UNL     1      17.019  -1.103  11.618  1.00  0.00     0.148 A 
HETATM   13  N5  UNL     1      16.916  -2.361  12.079  1.00  0.00    -0.325 N 
ATOM     14  H5  UNL     1      17.422  -3.163  11.701  1.00  0.00     0.168 HD
ENDROOT
BRANCH   1  15
HETATM   15  S1  UNL     1      15.573  -3.815  14.051  1.00  0.00     0.225 S 
HETATM   16  O3  UNL     1      14.110  -3.762  14.414  1.00  0.00    -0.218 OA
HETATM   17  O4  UNL     1      15.761  -5.040  13.203  1.00  0.00    -0.218 OA
BRANCH  15  18
HETATM   18  C2  UNL     1      16.549  -3.950  15.536  1.00  0.00     0.152 C 
HETATM   19  C1  UNL     1      16.114  -2.843  16.461  1.00  0.00     0.044 C 
HETATM   20  C3  UNL     1      16.370  -5.312  16.175  1.00  0.00     0.044 C 
BRANCH  18  21
HETATM   21  C4  UNL     1      17.990  -3.793  15.248  1.00  0.00     0.197 C 
HETATM   22  O1  UNL     1      18.543  -2.695  15.487  1.00  0.00    -0.647 OA
HETATM   23  O2  UNL     1      18.767  -4.809  14.721  1.00  0.00    -0.647 OA
ENDBRANCH  18  21
ENDBRANCH  15  18
ENDBRANCH   1  15
BRANCH   7  24
HETATM   24  N3  UNL     1      16.708   2.860  10.912  1.00  0.00    -0.234 N 
ATOM     25  H32 UNL     1      17.504   3.339  10.489  1.00  0.00     0.174 HD
ATOM     26  H31 UNL     1      15.883   3.424  11.117  1.00  0.00     0.174 HD
ENDBRANCH   7  24
TORSDOF 4
ENDMDL
MODEL 2
REMARK VINA RESULT: -6.385141044      1.365      2.144
REMARK  4 active torsions:
REMARK  status: ('A' for Active; 'I' for Inactive)
REMARK    1  A    between atoms: C2_2  and  C4_4 
REMARK    2  A    between atoms: C2_2  and  S1_7 
REMARK    3  A    between atoms: S1_7  and  C5_10 
REMARK    4  A    between atoms: C7_16  and  N3_17 
ROOT
HETATM    1  C5  UNL     1      17.068  -1.943  13.894  1.00  0.00     0.206 A 
HETATM    2  N1  UNL     1      16.434  -0.761  13.941  1.00  0.00    -0.317 N 
ATOM      3  H1  UNL     1      15.885  -0.431  14.734  1.00  0.00     0.169 HD
HETATM    4  C6  UNL     1      16.618  -0.071  12.798  1.00  0.00     0.155 A 
HETATM    5  N2  UNL     1      16.216   1.126  12.338  1.00  0.00    -0.174 N 
ATOM      6  H2  UNL     1      15.630   1.701  12.944  1.00  0.00     0.186 HD
HETATM    7  C7  UNL     1      16.538   1.610  11.132  1.00  0.00     0.680 A 
HETATM    8  N4  UNL     1      17.312   0.836  10.348  1.00  0.00    -0.154 N 
ATOM      9  H4  UNL     1      17.573   1.178   9.423  1.00  0.00     0.187 HD
HETATM   10  C8  UNL     1      17.752  -0.373  10.743  1.00  0.00     0.290 A 
HETATM   11  O5  UNL     1      18.479  -1.105  10.011  1.00  0.00    -0.265 OA
HETATM   12  C9  UNL     1      17.409  -0.858  11.992  1.00  0.00     0.148 A 
HETATM   13  N5  UNL     1      17.666  -1.983  12.678  1.00  0.00    -0.325 N 
ATOM     14  H5  UNL     1      18.232  -2.759  12.333  1.00  0.00     0.168 HD
ENDROOT
BRANCH   1  15
HETATM   15  S1  UNL     1      17.103  -3.160  15.150  1.00  0.00     0.225 S 
HETATM   16  O3  UNL     1      18.518  -3.469  15.572  1.00  0.00    -0.218 OA
HETATM   17  O4  UNL     1      16.403  -2.614  16.362  1.00  0.00    -0.218 OA
BRANCH  15  18
HETATM   18  C2  UNL     1      16.303  -4.657  14.609  1.00  0.00     0.152 C 
HETATM   19  C1  UNL     1      16.284  -5.603  15.781  1.00  0.00     0.044 C 
HETATM   20  C3  UNL     1      14.903  -4.366  14.106  1.00  0.00     0.044 C 
BRANCH  18  21
HETATM   21  C4  UNL     1      17.040  -5.289  13.496  1.00  0.00     0.197 C 
HETATM   22  O1  UNL     1      16.720  -5.012  12.318  1.00  0.00    -0.647 OA
HETATM   23  O2  UNL     1      18.078  -6.181  13.692  1.00  0.00    -0.647 OA
ENDBRANCH  18  21
ENDBRANCH  15  18
ENDBRANCH   1  15
BRANCH   7  24
HETATM   24  N3  UNL     1      16.151   2.755  10.698  1.00  0.00    -0.234 N 
ATOM     25  H32 UNL     1      15.989   3.511  11.363  1.00  0.00     0.174 HD
ATOM     26  H31 UNL     1      15.991   2.961   9.712  1.00  0.00     0.174 HD
ENDBRANCH   7  24
TORSDOF 4
ENDMDL
MODEL 3
REMARK VINA RESULT: -6.333784212      1.045      1.538
REMARK  4 active torsions:
REMARK  status: ('A' for Active; 'I' for Inactive)
REMARK    1  A    between atoms: C2_2  and  C4_4 
REMARK    2  A    between atoms: C2_2  and  S1_7 
REMARK    3  A    between atoms: S1_7  and  C5_10 
REMARK    4  A    between atoms: C7_16  and  N3_17 
ROOT
HETATM    1  C5  UNL     1      16.056  -2.288  13.293  1.00  0.00     0.206 A 
HETATM    2  N1  UNL     1      15.666  -1.012  13.436  1.00  0.00    -0.317 N 
ATOM      3  H1  UNL     1      15.037  -0.678  14.166  1.00  0.00     0.169 HD
HETATM    4  C6  UNL     1      16.215  -0.232  12.484  1.00  0.00     0.155 A 
HETATM    5  N2  UNL     1      16.156   1.077  12.181  1.00  0.00    -0.174 N 
ATOM      6  H2  UNL     1      15.578   1.680  12.766  1.00  0.00     0.186 HD
HETATM    7  C7  UNL     1      16.811   1.636  11.156  1.00  0.00     0.680 A 
HETATM    8  N4  UNL     1      17.569   0.824  10.395  1.00  0.00    -0.154 N 
ATOM      9  H4  UNL     1      18.079   1.221   9.607  1.00  0.00     0.187 HD
HETATM   10  C8  UNL     1      17.675  -0.496  10.641  1.00  0.00     0.290 A 
HETATM   11  O5  UNL     1      18.385  -1.265   9.931  1.00  0.00    -0.265 OA
HETATM   12  C9  UNL     1      16.990  -1.057  11.704  1.00  0.00     0.148 A 
HETATM   13  N5  UNL     1      16.877  -2.295  12.214  1.00  0.00    -0.325 N 
ATOM     14  H5  UNL     1      17.342  -3.123  11.842  1.00  0.00     0.168 HD
ENDROOT
BRANCH   1  15
HETATM   15  S1  UNL     1      15.592  -3.641  14.299  1.00  0.00     0.225 S 
HETATM   16  O3  UNL     1      15.474  -3.231  15.746  1.00  0.00    -0.218 OA
HETATM   17  O4  UNL     1      14.228  -4.107  13.872  1.00  0.00    -0.218 OA
BRANCH  15  18
HETATM   18  C2  UNL     1      16.763  -4.976  14.152  1.00  0.00     0.152 C 
HETATM   19  C1  UNL     1      16.327  -6.061  15.101  1.00  0.00     0.044 C 
HETATM   20  C3  UNL     1      16.828  -5.478  12.724  1.00  0.00     0.044 C 
BRANCH  18  21
HETATM   21  C4  UNL     1      18.125  -4.539  14.519  1.00  0.00     0.197 C 
HETATM   22  O1  UNL     1      19.035  -5.395  14.615  1.00  0.00    -0.647 OA
HETATM   23  O2  UNL     1      18.451  -3.218  14.765  1.00  0.00    -0.647 OA
ENDBRANCH  18  21
ENDBRANCH  15  18
ENDBRANCH   1  15
BRANCH   7  24
HETATM   24  N3  UNL     1      16.751   2.887  10.871  1.00  0.00    -0.234 N 
ATOM     25  H32 UNL     1      16.056   3.212  10.198  1.00  0.00     0.174 HD
ATOM     26  H31 UNL     1      17.365   3.590  11.281  1.00  0.00     0.174 HD
ENDBRANCH   7  24
TORSDOF 4
ENDMDL
MODEL 4
REMARK VINA RESULT: -6.214257053      1.091      1.823
REMARK  4 active torsions:
REMARK  status: ('A' for Active; 'I' for Inactive)
REMARK    1  A    between atoms: C2_2  and  C4_4 
REMARK    2  A    between atoms: C2_2  and  S1_7 
REMARK    3  A    between atoms: S1_7  and  C5_10 
REMARK    4  A    between atoms: C7_16  and  N3_17 
ROOT
HETATM    1  C5  UNL     1      16.072  -2.365  13.165  1.00  0.00     0.206 A 
HETATM    2  N1  UNL     1      15.653  -1.101  13.331  1.00  0.00    -0.317 N 
ATOM      3  H1  UNL     1      14.998  -0.799  14.052  1.00  0.00     0.169 HD
HETATM    4  C6  UNL     1      16.213  -0.284  12.417  1.00  0.00     0.155 A 
HETATM    5  N2  UNL     1      16.137   1.031  12.147  1.00  0.00    -0.174 N 
ATOM      6  H2  UNL     1      15.531   1.606  12.732  1.00  0.00     0.186 HD
HETATM    7  C7  UNL     1      16.810   1.630  11.157  1.00  0.00     0.680 A 
HETATM    8  N4  UNL     1      17.604   0.853  10.397  1.00  0.00    -0.154 N 
ATOM      9  H4  UNL     1      18.128   1.281   9.634  1.00  0.00     0.187 HD
HETATM   10  C8  UNL     1      17.730  -0.471  10.609  1.00  0.00     0.290 A 
HETATM   11  O5  UNL     1      18.473  -1.206   9.900  1.00  0.00    -0.265 OA
HETATM   12  C9  UNL     1      17.026  -1.074  11.637  1.00  0.00     0.148 A 
HETATM   13  N5  UNL     1      16.923  -2.327  12.110  1.00  0.00    -0.325 N 
ATOM     14  H5  UNL     1      17.414  -3.135  11.729  1.00  0.00     0.168 HD
ENDROOT
BRANCH   1  15
HETATM   15  S1  UNL     1      15.606  -3.753  14.120  1.00  0.00     0.225 S 
HETATM   16  O3  UNL     1      14.105  -3.882  14.202  1.00  0.00    -0.218 OA
HETATM   17  O4  UNL     1      16.106  -4.993  13.435  1.00  0.00    -0.218 OA
BRANCH  15  18
HETATM   18  C2  UNL     1      16.285  -3.653  15.764  1.00  0.00     0.152 C 
HETATM   19  C1  UNL     1      16.302  -5.049  16.329  1.00  0.00     0.044 C 
HETATM   20  C3  UNL     1      17.674  -3.047  15.736  1.00  0.00     0.044 C 
BRANCH  18  21
HETATM   21  C4  UNL     1      15.456  -2.795  16.637  1.00  0.00     0.197 C 
HETATM   22  O1  UNL     1      14.874  -3.308  17.620  1.00  0.00    -0.647 OA
HETATM   23  O2  UNL     1      15.289  -1.440  16.419  1.00  0.00    -0.647 OA
ENDBRANCH  18  21
ENDBRANCH  15  18
ENDBRANCH   1  15
BRANCH   7  24
HETATM   24  N3  UNL     1      16.733   2.887  10.904  1.00  0.00    -0.234 N 
ATOM     25  H32 UNL     1      17.412   3.522  11.323  1.00  0.00     0.174 HD
ATOM     26  H31 UNL     1      16.024   3.299  10.298  1.00  0.00     0.174 HD
ENDBRANCH   7  24
TORSDOF 4
ENDMDL
MODEL 5
REMARK VINA RESULT: -6.171657750      1.534      2.251
REMARK  4 active torsions:
REMARK  status: ('A' for Active; 'I' for Inactive)
REMARK    1  A    between atoms: C2_2  and  C4_4 
REMARK    2  A    between atoms: C2_2  and  S1_7 
REMARK    3  A    between atoms: S1_7  and  C5_10 
REMARK    4  A    between atoms: C7_16  and  N3_17 
ROOT
HETATM    1  C5  UNL     1      17.127  -1.830  13.971  1.00  0.00     0.206 A 
HETATM    2  N1  UNL     1      16.553  -0.617  13.970  1.00  0.00    -0.317 N 
ATOM      3  H1  UNL     1      16.051  -0.214  14.762  1.00  0.00     0.169 HD
HETATM    4  C6  UNL     1      16.727  -0.003  12.783  1.00  0.00     0.155 A 
HETATM    5  N2  UNL     1      16.366   1.185  12.269  1.00  0.00    -0.174 N 
ATOM      6  H2  UNL     1      15.831   1.822  12.860  1.00  0.00     0.186 HD
HETATM    7  C7  UNL     1      16.665   1.583  11.026  1.00  0.00     0.680 A 
HETATM    8  N4  UNL     1      17.371   0.728  10.262  1.00  0.00    -0.154 N 
ATOM      9  H4  UNL     1      17.614   1.003   9.310  1.00  0.00     0.187 HD
HETATM   10  C8  UNL     1      17.768  -0.478  10.711  1.00  0.00     0.290 A 
HETATM   11  O5  UNL     1      18.430  -1.285   9.999  1.00  0.00    -0.265 OA
HETATM   12  C9  UNL     1      17.448  -0.873  11.998  1.00  0.00     0.148 A 
HETATM   13  N5  UNL     1      17.677  -1.969  12.740  1.00  0.00    -0.325 N 
ATOM     14  H5  UNL     1      18.191  -2.791  12.422  1.00  0.00     0.168 HD
ENDROOT
BRANCH   1  15
HETATM   15  S1  UNL     1      17.151  -2.973  15.294  1.00  0.00     0.225 S 
HETATM   16  O3  UNL     1      16.526  -4.286  14.892  1.00  0.00    -0.218 OA
HETATM   17  O4  UNL     1      18.582  -3.268  15.644  1.00  0.00    -0.218 OA
BRANCH  15  18
HETATM   18  C2  UNL     1      16.300  -2.320  16.717  1.00  0.00     0.152 C 
HETATM   19  C1  UNL     1      14.969  -1.797  16.243  1.00  0.00     0.044 C 
HETATM   20  C3  UNL     1      16.132  -3.387  17.780  1.00  0.00     0.044 C 
BRANCH  18  21
HETATM   21  C4  UNL     1      17.057  -1.211  17.333  1.00  0.00     0.197 C 
HETATM   22  O1  UNL     1      17.756  -1.440  18.346  1.00  0.00    -0.647 OA
HETATM   23  O2  UNL     1      17.031   0.082  16.843  1.00  0.00    -0.647 OA
ENDBRANCH  18  21
ENDBRANCH  15  18
ENDBRANCH   1  15
BRANCH   7  24
HETATM   24  N3  UNL     1      16.317   2.719  10.539  1.00  0.00    -0.234 N 
ATOM     25  H32 UNL     1      15.343   2.874  10.282  1.00  0.00     0.174 HD
ATOM     26  H31 UNL     1      16.966   3.493  10.390  1.00  0.00     0.174 HD
ENDBRANCH   7  24
TORSDOF 4
ENDMDL
