MODEL 1
REMARK VINA RESULT: -6.624850469      0.000      0.000
REMARK  3 active torsions:
REMARK  status: ('A' for Active; 'I' for Inactive)
REMARK    1  A    between atoms: C2_2  and  N1_4 
REMARK    2  A    between atoms: C7_14  and  C8_15 
REMARK    3  A    between atoms: C8_15  and  C9_16 
ROOT
HETATM    1  N1  UNL     1     -14.287   2.340 -13.001  1.00  0.00    -0.279 N 
HETATM    2  C4  UNL     1     -14.883   2.912 -11.945  1.00  0.00     0.329 A 
HETATM    3  O1  UNL     1     -15.067   4.153 -11.828  1.00  0.00    -0.246 OA
HETATM    4  N2  UNL     1     -15.244   1.956 -11.053  1.00  0.00    -0.301 N 
ATOM      5  H2  UNL     1     -15.715   2.124 -10.164  1.00  0.00     0.171 HD
HETATM    6  C5  UNL     1     -14.882   0.753 -11.528  1.00  0.00     0.150 A 
HETATM    7  C6  UNL     1     -14.982  -0.548 -11.077  1.00  0.00     0.277 A 
HETATM    8  O2  UNL     1     -15.526  -0.779  -9.970  1.00  0.00    -0.266 OA
HETATM    9  N3  UNL     1     -14.498  -1.579 -11.825  1.00  0.00    -0.311 N 
ATOM     10  H3  UNL     1     -14.577  -2.537 -11.483  1.00  0.00     0.170 HD
HETATM   11  C7  UNL     1     -13.916  -1.333 -13.012  1.00  0.00     0.092 A 
HETATM   12  N7  UNL     1     -13.829  -0.069 -13.428  1.00  0.00    -0.329 N 
ATOM     13  H7  UNL     1     -13.385   0.101 -14.330  1.00  0.00     0.168 HD
HETATM   14  C11 UNL     1     -14.283   0.998 -12.746  1.00  0.00     0.146 A 
ENDROOT
BRANCH  11  15
HETATM   15  C8  UNL     1     -13.372  -2.455 -13.858  1.00  0.00     0.154 C 
BRANCH  15  16
HETATM   16  C9  UNL     1     -14.525  -3.122 -14.553  1.00  0.00     0.106 A 
HETATM   17  N4  UNL     1     -15.119  -4.277 -14.248  1.00  0.00    -0.285 N 
HETATM   18  N5  UNL     1     -16.105  -4.519 -15.114  1.00  0.00    -0.250 N 
ATOM     19  H4  UNL     1     -14.859  -4.884 -13.471  1.00  0.00     0.188 HD
HETATM   20  C10 UNL     1     -16.128  -3.489 -15.983  1.00  0.00     0.340 A 
ATOM     21  H5  UNL     1     -16.724  -5.330 -15.118  1.00  0.00     0.192 HD
HETATM   22  O3  UNL     1     -16.932  -3.357 -16.955  1.00  0.00    -0.245 OA
HETATM   23  N6  UNL     1     -15.149  -2.632 -15.627  1.00  0.00    -0.295 N 
ATOM     24  H6  UNL     1     -14.922  -1.757 -16.100  1.00  0.00     0.172 HD
ENDBRANCH  15  16
ENDBRANCH  11  15
BRANCH   1  25
HETATM   25  C2  UNL     1     -13.734   2.943 -14.200  1.00  0.00     0.088 C 
HETATM   26  C1  UNL     1     -12.230   3.018 -14.170  1.00  0.00     0.032 C 
HETATM   27  C3  UNL     1     -14.279   2.343 -15.462  1.00  0.00     0.032 C 
ENDBRANCH   1  25
TORSDOF 3
ENDMDL
MODEL 2
REMARK VINA RESULT: -5.780714411      3.371      5.843
REMARK  3 active torsions:
REMARK  status: ('A' for Active; 'I' for Inactive)
REMARK    1  A    between atoms: C2_2  and  N1_4 
REMARK    2  A    between atoms: C7_14  and  C8_15 
REMARK    3  A    between atoms: C8_15  and  C9_16 
ROOT
HETATM    1  N1  UNL     1     -14.288   1.146 -16.913  1.00  0.00    -0.279 N 
HETATM    2  C4  UNL     1     -13.294   0.560 -17.596  1.00  0.00     0.329 A 
HETATM    3  O1  UNL     1     -13.442   0.011 -18.721  1.00  0.00    -0.246 OA
HETATM    4  N2  UNL     1     -12.139   0.657 -16.892  1.00  0.00    -0.301 N 
ATOM      5  H2  UNL     1     -11.234   0.293 -17.188  1.00  0.00     0.171 HD
HETATM    6  C5  UNL     1     -12.379   1.309 -15.743  1.00  0.00     0.150 A 
HETATM    7  C6  UNL     1     -11.616   1.693 -14.658  1.00  0.00     0.277 A 
HETATM    8  O2  UNL     1     -10.391   1.421 -14.635  1.00  0.00    -0.266 OA
HETATM    9  N3  UNL     1     -12.182   2.365 -13.617  1.00  0.00    -0.311 N 
ATOM     10  H3  UNL     1     -11.610   2.645 -12.820  1.00  0.00     0.170 HD
HETATM   11  C7  UNL     1     -13.494   2.659 -13.640  1.00  0.00     0.092 A 
HETATM   12  N7  UNL     1     -14.212   2.277 -14.698  1.00  0.00    -0.329 N 
ATOM     13  H7  UNL     1     -15.206   2.507 -14.700  1.00  0.00     0.168 HD
HETATM   14  C11 UNL     1     -13.724   1.612 -15.759  1.00  0.00     0.146 A 
ENDROOT
BRANCH  11  15
HETATM   15  C8  UNL     1     -14.145   3.400 -12.502  1.00  0.00     0.154 C 
BRANCH  15  16
HETATM   16  C9  UNL     1     -14.984   2.426 -11.725  1.00  0.00     0.106 A 
HETATM   17  N4  UNL     1     -16.199   2.611 -11.204  1.00  0.00    -0.285 N 
HETATM   18  N5  UNL     1     -16.599   1.497 -10.586  1.00  0.00    -0.250 N 
ATOM     19  H4  UNL     1     -16.740   3.472 -11.268  1.00  0.00     0.188 HD
HETATM   20  C10 UNL     1     -15.609   0.593 -10.724  1.00  0.00     0.340 A 
ATOM     21  H5  UNL     1     -17.485   1.358 -10.102  1.00  0.00     0.192 HD
HETATM   22  O3  UNL     1     -15.618  -0.591 -10.270  1.00  0.00    -0.245 OA
HETATM   23  N6  UNL     1     -14.617   1.177 -11.429  1.00  0.00    -0.295 N 
ATOM     24  H6  UNL     1     -13.735   0.738 -11.690  1.00  0.00     0.172 HD
ENDBRANCH  15  16
ENDBRANCH  11  15
BRANCH   1  25
HETATM   25  C2  UNL     1     -15.692   1.296 -17.252  1.00  0.00     0.088 C 
HETATM   26  C1  UNL     1     -15.910   2.231 -18.412  1.00  0.00     0.032 C 
HETATM   27  C3  UNL     1     -16.402  -0.016 -17.398  1.00  0.00     0.032 C 
ENDBRANCH   1  25
TORSDOF 3
ENDMDL
MODEL 3
REMARK VINA RESULT: -5.735042906      3.515      6.088
REMARK  3 active torsions:
REMARK  status: ('A' for Active; 'I' for Inactive)
REMARK    1  A    between atoms: C2_2  and  N1_4 
REMARK    2  A    between atoms: C7_14  and  C8_15 
REMARK    3  A    between atoms: C8_15  and  C9_16 
ROOT
HETATM    1  N1  UNL     1     -12.400   3.791 -17.670  1.00  0.00    -0.279 N 
HETATM    2  C4  UNL     1     -13.093   3.463 -18.770  1.00  0.00     0.329 A 
HETATM    3  O1  UNL     1     -12.814   3.876 -19.927  1.00  0.00    -0.246 OA
HETATM    4  N2  UNL     1     -14.116   2.638 -18.434  1.00  0.00    -0.301 N 
ATOM      5  H2  UNL     1     -14.795   2.242 -19.084  1.00  0.00     0.171 HD
HETATM    6  C5  UNL     1     -14.090   2.424 -17.108  1.00  0.00     0.150 A 
HETATM    7  C6  UNL     1     -14.855   1.695 -16.219  1.00  0.00     0.277 A 
HETATM    8  O2  UNL     1     -15.834   1.034 -16.642  1.00  0.00    -0.266 OA
HETATM    9  N3  UNL     1     -14.553   1.687 -14.891  1.00  0.00    -0.311 N 
ATOM     10  H3  UNL     1     -15.124   1.146 -14.241  1.00  0.00     0.170 HD
HETATM   11  C7  UNL     1     -13.503   2.395 -14.436  1.00  0.00     0.092 A 
HETATM   12  N7  UNL     1     -12.779   3.092 -15.312  1.00  0.00    -0.329 N 
ATOM     13  H7  UNL     1     -11.986   3.624 -14.951  1.00  0.00     0.168 HD
HETATM   14  C11 UNL     1     -13.016   3.148 -16.634  1.00  0.00     0.146 A 
ENDROOT
BRANCH  11  15
HETATM   15  C8  UNL     1     -13.149   2.404 -12.971  1.00  0.00     0.154 C 
BRANCH  15  16
HETATM   16  C9  UNL     1     -14.414   2.232 -12.180  1.00  0.00     0.106 A 
HETATM   17  N4  UNL     1     -15.257   3.173 -11.751  1.00  0.00    -0.285 N 
HETATM   18  N5  UNL     1     -16.262   2.607 -11.081  1.00  0.00    -0.250 N 
ATOM     19  H4  UNL     1     -15.150   4.174 -11.912  1.00  0.00     0.188 HD
HETATM   20  C10 UNL     1     -16.042   1.277 -11.090  1.00  0.00     0.340 A 
ATOM     21  H5  UNL     1     -17.048   3.089 -10.644  1.00  0.00     0.192 HD
HETATM   22  O3  UNL     1     -16.783   0.400 -10.552  1.00  0.00    -0.245 OA
HETATM   23  N6  UNL     1     -14.898   1.057 -11.771  1.00  0.00    -0.295 N 
ATOM     24  H6  UNL     1     -14.475   0.145 -11.944  1.00  0.00     0.172 HD
ENDBRANCH  15  16
ENDBRANCH  11  15
BRANCH   1  25
HETATM   25  C2  UNL     1     -11.232   4.641 -17.522  1.00  0.00     0.088 C 
HETATM   26  C1  UNL     1     -10.013   4.074 -18.201  1.00  0.00     0.032 C 
HETATM   27  C3  UNL     1     -11.502   6.073 -17.875  1.00  0.00     0.032 C 
ENDBRANCH   1  25
TORSDOF 3
ENDMDL
MODEL 4
REMARK VINA RESULT: -5.734250038      3.093      5.148
REMARK  3 active torsions:
REMARK  status: ('A' for Active; 'I' for Inactive)
REMARK    1  A    between atoms: C2_2  and  N1_4 
REMARK    2  A    between atoms: C7_14  and  C8_15 
REMARK    3  A    between atoms: C8_15  and  C9_16 
ROOT
HETATM    1  N1  UNL     1     -11.940   2.968 -15.564  1.00  0.00    -0.279 N 
HETATM    2  C4  UNL     1     -11.730   2.347 -16.734  1.00  0.00     0.329 A 
HETATM    3  O1  UNL     1     -10.837   2.681 -17.557  1.00  0.00    -0.246 OA
HETATM    4  N2  UNL     1     -12.617   1.331 -16.875  1.00  0.00    -0.301 N 
ATOM      5  H2  UNL     1     -12.672   0.701 -17.676  1.00  0.00     0.171 HD
HETATM    6  C5  UNL     1     -13.410   1.287 -15.793  1.00  0.00     0.150 A 
HETATM    7  C6  UNL     1     -14.463   0.493 -15.382  1.00  0.00     0.277 A 
HETATM    8  O2  UNL     1     -14.857  -0.442 -16.120  1.00  0.00    -0.266 OA
HETATM    9  N3  UNL     1     -15.074   0.718 -14.186  1.00  0.00    -0.311 N 
ATOM     10  H3  UNL     1     -15.852   0.126 -13.891  1.00  0.00     0.170 HD
HETATM   11  C7  UNL     1     -14.652   1.719 -13.393  1.00  0.00     0.092 A 
HETATM   12  N7  UNL     1     -13.634   2.474 -13.810  1.00  0.00    -0.329 N 
ATOM     13  H7  UNL     1     -13.326   3.230 -13.198  1.00  0.00     0.168 HD
HETATM   14  C11 UNL     1     -12.984   2.313 -14.975  1.00  0.00     0.146 A 
ENDROOT
BRANCH  11  15
HETATM   15  C8  UNL     1     -15.311   1.990 -12.066  1.00  0.00     0.154 C 
BRANCH  15  16
HETATM   16  C9  UNL     1     -15.255   0.731 -11.247  1.00  0.00     0.106 A 
HETATM   17  N4  UNL     1     -16.243  -0.121 -10.971  1.00  0.00    -0.285 N 
HETATM   18  N5  UNL     1     -15.781  -1.116 -10.210  1.00  0.00    -0.250 N 
ATOM     19  H4  UNL     1     -17.206  -0.028 -11.292  1.00  0.00     0.188 HD
HETATM   20  C10 UNL     1     -14.471  -0.879 -10.005  1.00  0.00     0.340 A 
ATOM     21  H5  UNL     1     -16.318  -1.905  -9.852  1.00  0.00     0.192 HD
HETATM   22  O3  UNL     1     -13.683  -1.606  -9.327  1.00  0.00    -0.245 OA
HETATM   23  N6  UNL     1     -14.156   0.264 -10.650  1.00  0.00    -0.295 N 
ATOM     24  H6  UNL     1     -13.234   0.698 -10.677  1.00  0.00     0.172 HD
ENDBRANCH  15  16
ENDBRANCH  11  15
BRANCH   1  25
HETATM   25  C2  UNL     1     -11.252   4.102 -14.973  1.00  0.00     0.088 C 
HETATM   26  C1  UNL     1      -9.902   3.734 -14.418  1.00  0.00     0.032 C 
HETATM   27  C3  UNL     1     -11.225   5.302 -15.870  1.00  0.00     0.032 C 
ENDBRANCH   1  25
TORSDOF 3
ENDMDL
MODEL 5
REMARK VINA RESULT: -5.723109149      2.222      5.479
REMARK  3 active torsions:
REMARK  status: ('A' for Active; 'I' for Inactive)
REMARK    1  A    between atoms: C2_2  and  N1_4 
REMARK    2  A    between atoms: C7_14  and  C8_15 
REMARK    3  A    between atoms: C8_15  and  C9_16 
ROOT
HETATM    1  N1  UNL     1     -14.966   0.208 -16.872  1.00  0.00    -0.279 N 
HETATM    2  C4  UNL     1     -15.359  -0.742 -17.732  1.00  0.00     0.329 A 
HETATM    3  O1  UNL     1     -15.655  -0.521 -18.937  1.00  0.00    -0.246 OA
HETATM    4  N2  UNL     1     -15.384  -1.943 -17.104  1.00  0.00    -0.301 N 
ATOM      5  H2  UNL     1     -15.647  -2.830 -17.533  1.00  0.00     0.171 HD
HETATM    6  C5  UNL     1     -15.004  -1.778 -15.826  1.00  0.00     0.150 A 
HETATM    7  C6  UNL     1     -14.842  -2.612 -14.737  1.00  0.00     0.277 A 
HETATM    8  O2  UNL     1     -15.076  -3.838 -14.857  1.00  0.00    -0.266 OA
HETATM    9  N3  UNL     1     -14.429  -2.113 -13.539  1.00  0.00    -0.311 N 
ATOM     10  H3  UNL     1     -14.312  -2.737 -12.740  1.00  0.00     0.170 HD
HETATM   11  C7  UNL     1     -14.177  -0.798 -13.409  1.00  0.00     0.092 A 
HETATM   12  N7  UNL     1     -14.342  -0.011 -14.473  1.00  0.00    -0.329 N 
ATOM     13  H7  UNL     1     -14.146   0.984 -14.358  1.00  0.00     0.168 HD
HETATM   14  C11 UNL     1     -14.745  -0.431 -15.685  1.00  0.00     0.146 A 
ENDROOT
BRANCH  11  15
HETATM   15  C8  UNL     1     -13.721  -0.221 -12.094  1.00  0.00     0.154 C 
BRANCH  15  16
HETATM   16  C9  UNL     1     -14.706   0.833 -11.675  1.00  0.00     0.106 A 
HETATM   17  N4  UNL     1     -15.883   0.671 -11.068  1.00  0.00    -0.285 N 
HETATM   18  N5  UNL     1     -16.456   1.860 -10.869  1.00  0.00    -0.250 N 
ATOM     19  H4  UNL     1     -16.284  -0.226 -10.796  1.00  0.00     0.188 HD
HETATM   20  C10 UNL     1     -15.616   2.789 -11.366  1.00  0.00     0.340 A 
ATOM     21  H5  UNL     1     -17.358   2.032 -10.426  1.00  0.00     0.192 HD
HETATM   22  O3  UNL     1     -15.811   4.042 -11.362  1.00  0.00    -0.245 OA
HETATM   23  N6  UNL     1     -14.539   2.145 -11.861  1.00  0.00    -0.295 N 
ATOM     24  H6  UNL     1     -13.732   2.585 -12.303  1.00  0.00     0.172 HD
ENDBRANCH  15  16
ENDBRANCH  11  15
BRANCH   1  25
HETATM   25  C2  UNL     1     -14.788   1.635 -17.075  1.00  0.00     0.088 C 
HETATM   26  C1  UNL     1     -13.512   1.961 -17.805  1.00  0.00     0.032 C 
HETATM   27  C3  UNL     1     -15.999   2.299 -17.659  1.00  0.00     0.032 C 
ENDBRANCH   1  25
TORSDOF 3
ENDMDL
