MODEL 1
REMARK VINA RESULT: -5.559578400      0.000      0.000
REMARK  9 active torsions:
REMARK  status: ('A' for Active; 'I' for Inactive)
REMARK    1  A    between atoms: O1_2  and  C2_3 
REMARK    2  A    between atoms: C2_3  and  O2_4 
REMARK    3  A    between atoms: C2_3  and  C3_6 
REMARK    4  A    between atoms: C3_6  and  C4_7 
REMARK    5  A    between atoms: C4_7  and  N1_8 
REMARK    6  A    between atoms: N1_8  and  S1_10 
REMARK    7  A    between atoms: S1_10  and  C5_13 
REMARK    8  A    between atoms: C8_16  and  N2_17 
REMARK    9  A    between atoms: N2_17  and  N3_19 
ROOT
HETATM    1  N3  UNL     1     -68.603 -16.704 -22.136  1.00  0.00    -0.236 N 
ATOM      2  H3  UNL     1     -69.273 -17.319 -21.673  1.00  0.00     0.199 HD
HETATM    3  C9  UNL     1     -68.489 -15.360 -21.771  1.00  0.00     0.197 C 
HETATM    4  N4  UNL     1     -68.412 -14.244 -21.460  1.00  0.00    -0.170 NA
ENDROOT
BRANCH   1   5
HETATM    5  N2  UNL     1     -67.775 -17.179 -23.152  1.00  0.00    -0.292 N 
ATOM      6  H2  UNL     1     -67.859 -16.813 -24.100  1.00  0.00     0.187 HD
BRANCH   5   7
HETATM    7  C8  UNL     1     -66.811 -18.180 -22.852  1.00  0.00     0.048 A 
HETATM    8  C7  UNL     1     -66.366 -18.427 -21.568  1.00  0.00     0.032 A 
HETATM    9  C6  UNL     1     -65.430 -19.399 -21.278  1.00  0.00     0.027 A 
HETATM   10  C5  UNL     1     -64.907 -20.162 -22.290  1.00  0.00     0.079 A 
HETATM   11  C11 UNL     1     -65.316 -19.955 -23.582  1.00  0.00     0.027 A 
HETATM   12  C10 UNL     1     -66.261 -18.970 -23.852  1.00  0.00     0.032 A 
BRANCH  10  13
HETATM   13  S1  UNL     1     -63.727 -21.400 -21.969  1.00  0.00     0.258 S 
HETATM   14  O3  UNL     1     -64.362 -22.611 -21.341  1.00  0.00    -0.201 OA
HETATM   15  O4  UNL     1     -63.125 -21.804 -23.294  1.00  0.00    -0.201 OA
BRANCH  13  16
HETATM   16  N1  UNL     1     -62.522 -20.726 -20.932  1.00  0.00    -0.315 N 
ATOM     17  H1  UNL     1     -62.707 -20.410 -19.980  1.00  0.00     0.172 HD
BRANCH  16  18
HETATM   18  C4  UNL     1     -61.234 -20.659 -21.554  1.00  0.00     0.137 C 
BRANCH  18  19
HETATM   19  C3  UNL     1     -60.220 -20.501 -20.412  1.00  0.00     0.081 C 
BRANCH  19  20
HETATM   20  C2  UNL     1     -60.243 -19.051 -19.976  1.00  0.00     0.257 C 
BRANCH  20  21
HETATM   21  O1  UNL     1     -60.661 -18.205 -20.975  1.00  0.00    -0.366 OA
HETATM   22  C1  UNL     1     -61.078 -16.966 -20.553  1.00  0.00     0.204 C 
ENDBRANCH  20  21
BRANCH  20  23
HETATM   23  O2  UNL     1     -61.062 -18.986 -18.837  1.00  0.00    -0.371 OA
ATOM     24  H2  UNL     1     -61.069 -18.121 -18.442  1.00  0.00     0.212 HD
ENDBRANCH  20  23
ENDBRANCH  19  20
ENDBRANCH  18  19
ENDBRANCH  16  18
ENDBRANCH  13  16
ENDBRANCH  10  13
ENDBRANCH   5   7
ENDBRANCH   1   5
TORSDOF 9
ENDMDL
MODEL 2
REMARK VINA RESULT: -5.474409887      3.231      5.853
REMARK  9 active torsions:
REMARK  status: ('A' for Active; 'I' for Inactive)
REMARK    1  A    between atoms: O1_2  and  C2_3 
REMARK    2  A    between atoms: C2_3  and  O2_4 
REMARK    3  A    between atoms: C2_3  and  C3_6 
REMARK    4  A    between atoms: C3_6  and  C4_7 
REMARK    5  A    between atoms: C4_7  and  N1_8 
REMARK    6  A    between atoms: N1_8  and  S1_10 
REMARK    7  A    between atoms: S1_10  and  C5_13 
REMARK    8  A    between atoms: C8_16  and  N2_17 
REMARK    9  A    between atoms: N2_17  and  N3_19 
ROOT
HETATM    1  N3  UNL     1     -59.999 -17.853 -20.112  1.00  0.00    -0.236 N 
ATOM      2  H3  UNL     1     -59.022 -17.601 -20.262  1.00  0.00     0.199 HD
HETATM    3  C9  UNL     1     -61.023 -16.929 -20.338  1.00  0.00     0.197 C 
HETATM    4  N4  UNL     1     -61.860 -16.147 -20.525  1.00  0.00    -0.170 NA
ENDROOT
BRANCH   1   5
HETATM    5  N2  UNL     1     -60.353 -19.129 -19.675  1.00  0.00    -0.292 N 
ATOM      6  H2  UNL     1     -59.850 -19.568 -18.904  1.00  0.00     0.187 HD
BRANCH   5   7
HETATM    7  C8  UNL     1     -61.423 -19.810 -20.314  1.00  0.00     0.048 A 
HETATM    8  C7  UNL     1     -61.285 -20.437 -21.538  1.00  0.00     0.032 A 
HETATM    9  C6  UNL     1     -62.325 -21.099 -22.158  1.00  0.00     0.027 A 
HETATM   10  C5  UNL     1     -63.555 -21.148 -21.554  1.00  0.00     0.079 A 
HETATM   11  C11 UNL     1     -63.744 -20.541 -20.339  1.00  0.00     0.027 A 
HETATM   12  C10 UNL     1     -62.682 -19.880 -19.731  1.00  0.00     0.032 A 
BRANCH  10  13
HETATM   13  S1  UNL     1     -64.894 -21.974 -22.299  1.00  0.00     0.258 S 
HETATM   14  O3  UNL     1     -64.451 -23.255 -22.952  1.00  0.00    -0.201 OA
HETATM   15  O4  UNL     1     -65.883 -22.306 -21.207  1.00  0.00    -0.201 OA
BRANCH  13  16
HETATM   16  N1  UNL     1     -65.599 -20.902 -23.455  1.00  0.00    -0.315 N 
ATOM     17  H1  UNL     1     -66.193 -21.211 -24.224  1.00  0.00     0.172 HD
BRANCH  16  18
HETATM   18  C4  UNL     1     -65.257 -19.532 -23.218  1.00  0.00     0.137 C 
BRANCH  18  19
HETATM   19  C3  UNL     1     -66.587 -18.785 -23.054  1.00  0.00     0.081 C 
BRANCH  19  20
HETATM   20  C2  UNL     1     -67.035 -18.956 -21.618  1.00  0.00     0.257 C 
BRANCH  20  21
HETATM   21  O1  UNL     1     -67.639 -17.829 -21.115  1.00  0.00    -0.366 OA
HETATM   22  C1  UNL     1     -67.414 -16.678 -21.829  1.00  0.00     0.204 C 
ENDBRANCH  20  21
BRANCH  20  23
HETATM   23  O2  UNL     1     -67.881 -20.078 -21.590  1.00  0.00    -0.371 OA
ATOM     24  H2  UNL     1     -68.342 -20.167 -20.764  1.00  0.00     0.212 HD
ENDBRANCH  20  23
ENDBRANCH  19  20
ENDBRANCH  18  19
ENDBRANCH  16  18
ENDBRANCH  13  16
ENDBRANCH  10  13
ENDBRANCH   5   7
ENDBRANCH   1   5
TORSDOF 9
ENDMDL
MODEL 3
REMARK VINA RESULT: -5.466384188      3.127      6.020
REMARK  9 active torsions:
REMARK  status: ('A' for Active; 'I' for Inactive)
REMARK    1  A    between atoms: O1_2  and  C2_3 
REMARK    2  A    between atoms: C2_3  and  O2_4 
REMARK    3  A    between atoms: C2_3  and  C3_6 
REMARK    4  A    between atoms: C3_6  and  C4_7 
REMARK    5  A    between atoms: C4_7  and  N1_8 
REMARK    6  A    between atoms: N1_8  and  S1_10 
REMARK    7  A    between atoms: S1_10  and  C5_13 
REMARK    8  A    between atoms: C8_16  and  N2_17 
REMARK    9  A    between atoms: N2_17  and  N3_19 
ROOT
HETATM    1  N3  UNL     1     -60.323 -18.209 -19.782  1.00  0.00    -0.236 N 
ATOM      2  H3  UNL     1     -59.769 -18.104 -18.931  1.00  0.00     0.199 HD
HETATM    3  C9  UNL     1     -60.951 -17.109 -20.372  1.00  0.00     0.197 C 
HETATM    4  N4  UNL     1     -61.470 -16.185 -20.845  1.00  0.00    -0.170 NA
ENDROOT
BRANCH   1   5
HETATM    5  N2  UNL     1     -60.476 -19.455 -20.390  1.00  0.00    -0.292 N 
ATOM      6  H2  UNL     1     -59.663 -20.044 -20.570  1.00  0.00     0.187 HD
BRANCH   5   7
HETATM    7  C8  UNL     1     -61.776 -19.894 -20.756  1.00  0.00     0.048 A 
HETATM    8  C7  UNL     1     -62.811 -20.004 -19.847  1.00  0.00     0.032 A 
HETATM    9  C6  UNL     1     -64.074 -20.432 -20.204  1.00  0.00     0.027 A 
HETATM   10  C5  UNL     1     -64.335 -20.767 -21.507  1.00  0.00     0.079 A 
HETATM   11  C11 UNL     1     -63.340 -20.675 -22.448  1.00  0.00     0.027 A 
HETATM   12  C10 UNL     1     -62.075 -20.241 -22.067  1.00  0.00     0.032 A 
BRANCH  10  13
HETATM   13  S1  UNL     1     -65.913 -21.307 -22.002  1.00  0.00     0.258 S 
HETATM   14  O3  UNL     1     -65.920 -21.719 -23.449  1.00  0.00    -0.201 OA
HETATM   15  O4  UNL     1     -66.265 -22.508 -21.157  1.00  0.00    -0.201 OA
BRANCH  13  16
HETATM   16  N1  UNL     1     -67.026 -20.017 -21.721  1.00  0.00    -0.315 N 
ATOM     17  H1  UNL     1     -67.745 -20.038 -20.998  1.00  0.00     0.172 HD
BRANCH  16  18
HETATM   18  C4  UNL     1     -66.830 -18.915 -22.614  1.00  0.00     0.137 C 
BRANCH  18  19
HETATM   19  C3  UNL     1     -66.403 -17.730 -21.738  1.00  0.00     0.081 C 
BRANCH  19  20
HETATM   20  C2  UNL     1     -67.627 -16.873 -21.497  1.00  0.00     0.257 C 
BRANCH  20  21
HETATM   21  O1  UNL     1     -68.649 -17.566 -20.895  1.00  0.00    -0.366 OA
HETATM   22  C1  UNL     1     -69.719 -16.802 -20.498  1.00  0.00     0.204 C 
ENDBRANCH  20  21
BRANCH  20  23
HETATM   23  O2  UNL     1     -67.203 -15.770 -20.735  1.00  0.00    -0.371 OA
ATOM     24  H2  UNL     1     -67.915 -15.175 -20.529  1.00  0.00     0.212 HD
ENDBRANCH  20  23
ENDBRANCH  19  20
ENDBRANCH  18  19
ENDBRANCH  16  18
ENDBRANCH  13  16
ENDBRANCH  10  13
ENDBRANCH   5   7
ENDBRANCH   1   5
TORSDOF 9
ENDMDL
MODEL 4
REMARK VINA RESULT: -5.414251333      1.377      1.581
REMARK  9 active torsions:
REMARK  status: ('A' for Active; 'I' for Inactive)
REMARK    1  A    between atoms: O1_2  and  C2_3 
REMARK    2  A    between atoms: C2_3  and  O2_4 
REMARK    3  A    between atoms: C2_3  and  C3_6 
REMARK    4  A    between atoms: C3_6  and  C4_7 
REMARK    5  A    between atoms: C4_7  and  N1_8 
REMARK    6  A    between atoms: N1_8  and  S1_10 
REMARK    7  A    between atoms: S1_10  and  C5_13 
REMARK    8  A    between atoms: C8_16  and  N2_17 
REMARK    9  A    between atoms: N2_17  and  N3_19 
ROOT
HETATM    1  N3  UNL     1     -68.591 -17.440 -21.923  1.00  0.00    -0.236 N 
ATOM      2  H3  UNL     1     -69.376 -17.332 -22.566  1.00  0.00     0.199 HD
HETATM    3  C9  UNL     1     -67.986 -16.328 -21.332  1.00  0.00     0.197 C 
HETATM    4  N4  UNL     1     -67.491 -15.393 -20.855  1.00  0.00    -0.170 NA
ENDROOT
BRANCH   1   5
HETATM    5  N2  UNL     1     -68.091 -18.703 -21.608  1.00  0.00    -0.292 N 
ATOM      6  H2  UNL     1     -68.668 -19.374 -21.101  1.00  0.00     0.187 HD
BRANCH   5   7
HETATM    7  C8  UNL     1     -66.769 -19.045 -22.001  1.00  0.00     0.048 A 
HETATM    8  C7  UNL     1     -65.751 -19.257 -21.091  1.00  0.00     0.032 A 
HETATM    9  C6  UNL     1     -64.467 -19.589 -21.474  1.00  0.00     0.027 A 
HETATM   10  C5  UNL     1     -64.167 -19.719 -22.806  1.00  0.00     0.079 A 
HETATM   11  C11 UNL     1     -65.143 -19.517 -23.748  1.00  0.00     0.027 A 
HETATM   12  C10 UNL     1     -66.431 -19.184 -23.340  1.00  0.00     0.032 A 
BRANCH  10  13
HETATM   13  S1  UNL     1     -62.563 -20.139 -23.334  1.00  0.00     0.258 S 
HETATM   14  O3  UNL     1     -62.602 -21.018 -24.554  1.00  0.00    -0.201 OA
HETATM   15  O4  UNL     1     -61.853 -18.854 -23.687  1.00  0.00    -0.201 OA
BRANCH  13  16
HETATM   16  N1  UNL     1     -61.768 -20.935 -22.024  1.00  0.00    -0.315 N 
ATOM     17  H1  UNL     1     -62.244 -21.547 -21.361  1.00  0.00     0.172 HD
BRANCH  16  18
HETATM   18  C4  UNL     1     -60.367 -20.643 -21.969  1.00  0.00     0.137 C 
BRANCH  18  19
HETATM   19  C3  UNL     1     -59.991 -20.652 -20.481  1.00  0.00     0.081 C 
BRANCH  19  20
HETATM   20  C2  UNL     1     -60.414 -19.323 -19.892  1.00  0.00     0.257 C 
BRANCH  20  21
HETATM   21  O1  UNL     1     -60.370 -18.301 -20.808  1.00  0.00    -0.366 OA
HETATM   22  C1  UNL     1     -61.116 -17.194 -20.484  1.00  0.00     0.204 C 
ENDBRANCH  20  21
BRANCH  20  23
HETATM   23  O2  UNL     1     -61.699 -19.512 -19.355  1.00  0.00    -0.371 OA
ATOM     24  H2  UNL     1     -61.777 -20.328 -18.875  1.00  0.00     0.212 HD
ENDBRANCH  20  23
ENDBRANCH  19  20
ENDBRANCH  18  19
ENDBRANCH  16  18
ENDBRANCH  13  16
ENDBRANCH  10  13
ENDBRANCH   5   7
ENDBRANCH   1   5
TORSDOF 9
ENDMDL
MODEL 5
REMARK VINA RESULT: -5.394818978      4.224      5.914
REMARK  9 active torsions:
REMARK  status: ('A' for Active; 'I' for Inactive)
REMARK    1  A    between atoms: O1_2  and  C2_3 
REMARK    2  A    between atoms: C2_3  and  O2_4 
REMARK    3  A    between atoms: C2_3  and  C3_6 
REMARK    4  A    between atoms: C3_6  and  C4_7 
REMARK    5  A    between atoms: C4_7  and  N1_8 
REMARK    6  A    between atoms: N1_8  and  S1_10 
REMARK    7  A    between atoms: S1_10  and  C5_13 
REMARK    8  A    between atoms: C8_16  and  N2_17 
REMARK    9  A    between atoms: N2_17  and  N3_19 
ROOT
HETATM    1  N3  UNL     1     -60.010 -17.876 -20.122  1.00  0.00    -0.236 N 
ATOM      2  H3  UNL     1     -59.032 -17.616 -20.249  1.00  0.00     0.199 HD
HETATM    3  C9  UNL     1     -61.036 -16.955 -20.352  1.00  0.00     0.197 C 
HETATM    4  N4  UNL     1     -61.874 -16.175 -20.541  1.00  0.00    -0.170 NA
ENDROOT
BRANCH   1   5
HETATM    5  N2  UNL     1     -60.364 -19.162 -19.715  1.00  0.00    -0.292 N 
ATOM      6  H2  UNL     1     -59.807 -19.654 -19.017  1.00  0.00     0.187 HD
BRANCH   5   7
HETATM    7  C8  UNL     1     -61.511 -19.780 -20.283  1.00  0.00     0.048 A 
HETATM    8  C7  UNL     1     -62.739 -19.799 -19.651  1.00  0.00     0.032 A 
HETATM    9  C6  UNL     1     -63.852 -20.400 -20.204  1.00  0.00     0.027 A 
HETATM   10  C5  UNL     1     -63.758 -21.009 -21.428  1.00  0.00     0.079 A 
HETATM   11  C11 UNL     1     -62.560 -21.019 -22.095  1.00  0.00     0.027 A 
HETATM   12  C10 UNL     1     -61.451 -20.407 -21.521  1.00  0.00     0.032 A 
BRANCH  10  13
HETATM   13  S1  UNL     1     -65.136 -21.777 -22.163  1.00  0.00     0.258 S 
HETATM   14  O3  UNL     1     -66.070 -22.335 -21.124  1.00  0.00    -0.201 OA
HETATM   15  O4  UNL     1     -65.871 -20.722 -22.955  1.00  0.00    -0.201 OA
BRANCH  13  16
HETATM   16  N1  UNL     1     -64.552 -23.025 -23.205  1.00  0.00    -0.315 N 
ATOM     17  H1  UNL     1     -63.742 -22.920 -23.815  1.00  0.00     0.172 HD
BRANCH  16  18
HETATM   18  C4  UNL     1     -65.331 -24.224 -23.118  1.00  0.00     0.137 C 
BRANCH  18  19
HETATM   19  C3  UNL     1     -64.342 -25.384 -23.297  1.00  0.00     0.081 C 
BRANCH  19  20
HETATM   20  C2  UNL     1     -63.447 -25.417 -22.076  1.00  0.00     0.257 C 
BRANCH  20  21
HETATM   21  O1  UNL     1     -62.237 -24.803 -22.290  1.00  0.00    -0.366 OA
HETATM   22  C1  UNL     1     -61.595 -25.166 -23.449  1.00  0.00     0.204 C 
ENDBRANCH  20  21
BRANCH  20  23
HETATM   23  O2  UNL     1     -64.174 -24.825 -21.029  1.00  0.00    -0.371 OA
ATOM     24  H2  UNL     1     -64.684 -24.076 -21.317  1.00  0.00     0.212 HD
ENDBRANCH  20  23
ENDBRANCH  19  20
ENDBRANCH  18  19
ENDBRANCH  16  18
ENDBRANCH  13  16
ENDBRANCH  10  13
ENDBRANCH   5   7
ENDBRANCH   1   5
TORSDOF 9
ENDMDL
