MODEL 1
REMARK VINA RESULT: -6.424364341      0.000      0.000
REMARK  13 active torsions:
REMARK  status: ('A' for Active; 'I' for Inactive)
REMARK    1  A    between atoms: N1_1  and  C1_5 
REMARK    2  A    between atoms: C1_5  and  C2_6 
REMARK    3  A    between atoms: C1_5  and  C9_13 
REMARK    4  A    between atoms: C2_6  and  C3_7 
REMARK    5  A    between atoms: C9_13  and  O1_14 
REMARK    6  A    between atoms: C9_13  and  N2_16 
REMARK    7  A    between atoms: N2_16  and  C10_19 
REMARK    8  A    between atoms: C10_19  and  C11_20 
REMARK    9  A    between atoms: C11_20  and  C12_21 
REMARK   10  A    between atoms: C11_20  and  N7_30 
REMARK   11  A    between atoms: C12_21  and  N3_22 
REMARK   12  A    between atoms: N7_30  and  C14_33 
REMARK   13  A    between atoms: C14_33  and  C15_34 
ROOT
HETATM    1  N2  UNL     1      16.029 -65.461  21.745  1.00  0.00    -0.045 N 
ATOM      2  H21 UNL     1      16.800 -65.198  21.131  1.00  0.00     0.280 HD
ATOM      3  H22 UNL     1      16.145 -64.702  22.417  1.00  0.00     0.280 HD
ENDROOT
BRANCH   1   4
HETATM    4  C9  UNL     1      16.177 -66.800  22.336  1.00  0.00     0.349 C 
BRANCH   4   5
HETATM    5  C1  UNL     1      17.544 -67.336  22.099  1.00  0.00     0.243 C 
BRANCH   5   6
HETATM    6  N1  UNL     1      17.415 -68.740  21.731  1.00  0.00    -0.071 N 
ATOM      7  H13 UNL     1      18.304 -69.239  21.727  1.00  0.00     0.274 HD
ATOM      8  H12 UNL     1      16.956 -69.304  22.445  1.00  0.00     0.274 HD
ATOM      9  H11 UNL     1      16.936 -68.760  20.830  1.00  0.00     0.274 HD
ENDBRANCH   5   6
BRANCH   5  10
HETATM   10  C2  UNL     1      18.233 -66.655  20.951  1.00  0.00     0.075 C 
BRANCH  10  11
HETATM   11  C3  UNL     1      19.689 -66.734  20.960  1.00  0.00    -0.056 A 
HETATM   12  C4  UNL     1      20.357 -67.399  19.960  1.00  0.00     0.007 A 
HETATM   13  C5  UNL     1      21.748 -67.490  19.955  1.00  0.00     0.001 A 
HETATM   14  C6  UNL     1      22.487 -66.906  20.965  1.00  0.00     0.000 A 
HETATM   15  C7  UNL     1      21.841 -66.235  21.974  1.00  0.00     0.001 A 
HETATM   16  C8  UNL     1      20.458 -66.162  21.951  1.00  0.00     0.007 A 
ENDBRANCH  10  11
ENDBRANCH   5  10
ENDBRANCH   4   5
BRANCH   4  17
HETATM   17  O1  UNL     1      15.184 -67.570  21.715  1.00  0.00    -0.368 OA
ATOM     18  H1  UNL     1      15.482 -67.956  20.900  1.00  0.00     0.212 HD
ENDBRANCH   4  17
ENDBRANCH   1   4
BRANCH   1  19
HETATM   19  C10 UNL     1      14.755 -65.463  21.097  1.00  0.00     0.270 C 
BRANCH  19  20
HETATM   20  C11 UNL     1      13.945 -64.227  21.190  1.00  0.00     0.231 C 
BRANCH  20  21
HETATM   21  C12 UNL     1      14.041 -63.358  19.949  1.00  0.00     0.186 C 
BRANCH  21  22
HETATM   22  N3  UNL     1      14.819 -62.148  20.188  1.00  0.00    -0.269 N 
HETATM   23  C13 UNL     1      15.455 -61.910  21.358  1.00  0.00     0.219 A 
HETATM   24  N4  UNL     1      16.083 -60.729  21.276  1.00  0.00    -0.279 N 
HETATM   25  N5  UNL     1      15.826 -60.256  20.063  1.00  0.00    -0.227 N 
ATOM     26  H4  UNL     1      16.646 -60.283  22.001  1.00  0.00     0.189 HD
HETATM   27  N6  UNL     1      15.067 -61.120  19.425  1.00  0.00    -0.225 N 
ATOM     28  H5  UNL     1      16.162 -59.369  19.688  1.00  0.00     0.210 HD
ATOM     29  H6  UNL     1      14.724 -61.004  18.472  1.00  0.00     0.210 HD
ENDBRANCH  21  22
ENDBRANCH  20  21
BRANCH  20  30
HETATM   30  N7  UNL     1      12.644 -64.311  21.753  1.00  0.00    -0.067 N 
ATOM     31  H72 UNL     1      11.954 -64.567  21.047  1.00  0.00     0.277 HD
ATOM     32  H71 UNL     1      12.562 -65.123  22.365  1.00  0.00     0.277 HD
BRANCH  30  33
HETATM   33  C14 UNL     1      12.265 -63.128  22.427  1.00  0.00     0.237 C 
BRANCH  33  34
HETATM   34  C15 UNL     1      11.027 -62.473  21.837  1.00  0.00     0.011 A 
HETATM   35  C16 UNL     1      10.905 -60.982  22.177  1.00  0.00     0.007 A 
HETATM   36  C17 UNL     1      11.157 -61.439  20.790  1.00  0.00     0.007 A 
ENDBRANCH  33  34
ENDBRANCH  30  33
ENDBRANCH  20  30
ENDBRANCH  19  20
ENDBRANCH   1  19
TORSDOF 13
ENDMDL
MODEL 2
REMARK VINA RESULT: -6.221972466      1.805      2.639
REMARK  13 active torsions:
REMARK  status: ('A' for Active; 'I' for Inactive)
REMARK    1  A    between atoms: N1_1  and  C1_5 
REMARK    2  A    between atoms: C1_5  and  C2_6 
REMARK    3  A    between atoms: C1_5  and  C9_13 
REMARK    4  A    between atoms: C2_6  and  C3_7 
REMARK    5  A    between atoms: C9_13  and  O1_14 
REMARK    6  A    between atoms: C9_13  and  N2_16 
REMARK    7  A    between atoms: N2_16  and  C10_19 
REMARK    8  A    between atoms: C10_19  and  C11_20 
REMARK    9  A    between atoms: C11_20  and  C12_21 
REMARK   10  A    between atoms: C11_20  and  N7_30 
REMARK   11  A    between atoms: C12_21  and  N3_22 
REMARK   12  A    between atoms: N7_30  and  C14_33 
REMARK   13  A    between atoms: C14_33  and  C15_34 
ROOT
HETATM    1  N2  UNL     1      14.814 -65.449  21.103  1.00  0.00    -0.045 N 
ATOM      2  H21 UNL     1      14.986 -65.555  20.103  1.00  0.00     0.280 HD
ATOM      3  H22 UNL     1      15.594 -64.819  21.295  1.00  0.00     0.280 HD
ENDROOT
BRANCH   1   4
HETATM    4  C9  UNL     1      14.879 -66.714  21.850  1.00  0.00     0.349 C 
BRANCH   4   5
HETATM    5  C1  UNL     1      16.277 -67.018  22.256  1.00  0.00     0.243 C 
BRANCH   5   6
HETATM    6  N1  UNL     1      16.694 -68.225  21.555  1.00  0.00    -0.071 N 
ATOM      7  H13 UNL     1      15.916 -68.834  21.303  1.00  0.00     0.274 HD
ATOM      8  H12 UNL     1      17.028 -68.047  20.608  1.00  0.00     0.274 HD
ATOM      9  H11 UNL     1      17.387 -68.680  22.149  1.00  0.00     0.274 HD
ENDBRANCH   5   6
BRANCH   5  10
HETATM   10  C2  UNL     1      17.238 -65.936  21.851  1.00  0.00     0.075 C 
BRANCH  10  11
HETATM   11  C3  UNL     1      18.626 -66.154  22.238  1.00  0.00    -0.056 A 
HETATM   12  C4  UNL     1      19.650 -65.792  21.396  1.00  0.00     0.007 A 
HETATM   13  C5  UNL     1      20.983 -65.998  21.748  1.00  0.00     0.001 A 
HETATM   14  C6  UNL     1      21.302 -66.577  22.961  1.00  0.00     0.000 A 
HETATM   15  C7  UNL     1      20.295 -66.947  23.818  1.00  0.00     0.001 A 
HETATM   16  C8  UNL     1      18.981 -66.728  23.442  1.00  0.00     0.007 A 
ENDBRANCH  10  11
ENDBRANCH   5  10
ENDBRANCH   4   5
BRANCH   4  17
HETATM   17  O1  UNL     1      14.358 -67.670  20.967  1.00  0.00    -0.368 OA
ATOM     18  H1  UNL     1      13.440 -67.850  21.129  1.00  0.00     0.212 HD
ENDBRANCH   4  17
ENDBRANCH   1   4
BRANCH   1  19
HETATM   19  C10 UNL     1      13.535 -64.886  21.407  1.00  0.00     0.270 C 
BRANCH  19  20
HETATM   20  C11 UNL     1      13.514 -63.518  21.974  1.00  0.00     0.231 C 
BRANCH  20  21
HETATM   21  C12 UNL     1      13.260 -62.445  20.930  1.00  0.00     0.186 C 
BRANCH  21  22
HETATM   22  N3  UNL     1      14.440 -61.621  20.695  1.00  0.00    -0.269 N 
HETATM   23  C13 UNL     1      15.470 -61.557  21.569  1.00  0.00     0.219 A 
HETATM   24  N4  UNL     1      16.401 -60.727  21.080  1.00  0.00    -0.279 N 
HETATM   25  N5  UNL     1      15.936 -60.293  19.916  1.00  0.00    -0.227 N 
ATOM     26  H4  UNL     1      17.291 -60.480  21.514  1.00  0.00     0.189 HD
HETATM   27  N6  UNL     1      14.759 -60.840  19.701  1.00  0.00    -0.225 N 
ATOM     28  H5  UNL     1      16.412 -59.643  19.291  1.00  0.00     0.210 HD
ATOM     29  H6  UNL     1      14.180 -60.677  18.877  1.00  0.00     0.210 HD
ENDBRANCH  21  22
ENDBRANCH  20  21
BRANCH  20  30
HETATM   30  N7  UNL     1      12.849 -63.308  23.211  1.00  0.00    -0.067 N 
ATOM     31  H72 UNL     1      13.086 -62.396  23.605  1.00  0.00     0.277 HD
ATOM     32  H71 UNL     1      11.848 -63.171  23.070  1.00  0.00     0.277 HD
BRANCH  30  33
HETATM   33  C14 UNL     1      13.093 -64.342  24.143  1.00  0.00     0.237 C 
BRANCH  33  34
HETATM   34  C15 UNL     1      14.398 -64.168  24.902  1.00  0.00     0.011 A 
HETATM   35  C16 UNL     1      14.310 -64.599  26.372  1.00  0.00     0.007 A 
HETATM   36  C17 UNL     1      15.136 -65.349  25.396  1.00  0.00     0.007 A 
ENDBRANCH  33  34
ENDBRANCH  30  33
ENDBRANCH  20  30
ENDBRANCH  19  20
ENDBRANCH   1  19
TORSDOF 13
ENDMDL
MODEL 3
REMARK VINA RESULT: -6.121514216      1.609      2.099
REMARK  13 active torsions:
REMARK  status: ('A' for Active; 'I' for Inactive)
REMARK    1  A    between atoms: N1_1  and  C1_5 
REMARK    2  A    between atoms: C1_5  and  C2_6 
REMARK    3  A    between atoms: C1_5  and  C9_13 
REMARK    4  A    between atoms: C2_6  and  C3_7 
REMARK    5  A    between atoms: C9_13  and  O1_14 
REMARK    6  A    between atoms: C9_13  and  N2_16 
REMARK    7  A    between atoms: N2_16  and  C10_19 
REMARK    8  A    between atoms: C10_19  and  C11_20 
REMARK    9  A    between atoms: C11_20  and  C12_21 
REMARK   10  A    between atoms: C11_20  and  N7_30 
REMARK   11  A    between atoms: C12_21  and  N3_22 
REMARK   12  A    between atoms: N7_30  and  C14_33 
REMARK   13  A    between atoms: C14_33  and  C15_34 
ROOT
HETATM    1  N2  UNL     1      14.777 -65.509  21.318  1.00  0.00    -0.045 N 
ATOM      2  H21 UNL     1      14.350 -65.479  20.393  1.00  0.00     0.280 HD
ATOM      3  H22 UNL     1      15.689 -65.144  21.044  1.00  0.00     0.280 HD
ENDROOT
BRANCH   1   4
HETATM    4  C9  UNL     1      14.833 -66.860  21.897  1.00  0.00     0.349 C 
BRANCH   4   5
HETATM    5  C1  UNL     1      16.241 -67.280  22.129  1.00  0.00     0.243 C 
BRANCH   5   6
HETATM    6  N1  UNL     1      16.407 -68.615  21.569  1.00  0.00    -0.071 N 
ATOM      7  H13 UNL     1      16.067 -68.696  20.611  1.00  0.00     0.274 HD
ATOM      8  H12 UNL     1      17.379 -68.856  21.380  1.00  0.00     0.274 HD
ATOM      9  H11 UNL     1      15.950 -69.258  22.216  1.00  0.00     0.274 HD
ENDBRANCH   5   6
BRANCH   5  10
HETATM   10  C2  UNL     1      17.225 -66.395  21.419  1.00  0.00     0.075 C 
BRANCH  10  11
HETATM   11  C3  UNL     1      18.588 -66.434  21.934  1.00  0.00    -0.056 A 
HETATM   12  C4  UNL     1      19.640 -66.017  21.155  1.00  0.00     0.007 A 
HETATM   13  C5  UNL     1      20.951 -66.053  21.629  1.00  0.00     0.001 A 
HETATM   14  C6  UNL     1      21.217 -66.513  22.903  1.00  0.00     0.000 A 
HETATM   15  C7  UNL     1      20.181 -66.935  23.700  1.00  0.00     0.001 A 
HETATM   16  C8  UNL     1      18.891 -66.887  23.201  1.00  0.00     0.007 A 
ENDBRANCH  10  11
ENDBRANCH   5  10
ENDBRANCH   4   5
BRANCH   4  17
HETATM   17  O1  UNL     1      14.179 -67.672  20.960  1.00  0.00    -0.368 OA
ATOM     18  H1  UNL     1      13.286 -67.871  21.214  1.00  0.00     0.212 HD
ENDBRANCH   4  17
ENDBRANCH   1   4
BRANCH   1  19
HETATM   19  C10 UNL     1      14.104 -64.701  22.287  1.00  0.00     0.270 C 
BRANCH  19  20
HETATM   20  C11 UNL     1      13.352 -63.528  21.786  1.00  0.00     0.231 C 
BRANCH  20  21
HETATM   21  C12 UNL     1      13.751 -63.123  20.378  1.00  0.00     0.186 C 
BRANCH  21  22
HETATM   22  N3  UNL     1      14.680 -61.999  20.376  1.00  0.00    -0.269 N 
HETATM   23  C13 UNL     1      15.444 -61.682  21.447  1.00  0.00     0.219 A 
HETATM   24  N4  UNL     1      16.192 -60.613  21.143  1.00  0.00    -0.279 N 
HETATM   25  N5  UNL     1      15.882 -60.286  19.895  1.00  0.00    -0.227 N 
ATOM     26  H4  UNL     1      16.867 -60.145  21.749  1.00  0.00     0.189 HD
HETATM   27  N6  UNL     1      14.974 -61.127  19.451  1.00  0.00    -0.225 N 
ATOM     28  H5  UNL     1      16.281 -59.509  19.368  1.00  0.00     0.210 HD
ATOM     29  H6  UNL     1      14.560 -61.103  18.519  1.00  0.00     0.210 HD
ENDBRANCH  21  22
ENDBRANCH  20  21
BRANCH  20  30
HETATM   30  N7  UNL     1      11.958 -63.454  22.050  1.00  0.00    -0.067 N 
ATOM     31  H72 UNL     1      11.718 -62.573  22.506  1.00  0.00     0.277 HD
ATOM     32  H71 UNL     1      11.428 -63.342  21.186  1.00  0.00     0.277 HD
BRANCH  30  33
HETATM   33  C14 UNL     1      11.487 -64.558  22.796  1.00  0.00     0.237 C 
BRANCH  33  34
HETATM   34  C15 UNL     1       9.976 -64.712  22.746  1.00  0.00     0.011 A 
HETATM   35  C16 UNL     1       9.520 -66.141  22.423  1.00  0.00     0.007 A 
HETATM   36  C17 UNL     1       9.277 -65.536  23.755  1.00  0.00     0.007 A 
ENDBRANCH  33  34
ENDBRANCH  30  33
ENDBRANCH  20  30
ENDBRANCH  19  20
ENDBRANCH   1  19
TORSDOF 13
ENDMDL
MODEL 4
REMARK VINA RESULT: -6.111843787      1.077      1.372
REMARK  13 active torsions:
REMARK  status: ('A' for Active; 'I' for Inactive)
REMARK    1  A    between atoms: N1_1  and  C1_5 
REMARK    2  A    between atoms: C1_5  and  C2_6 
REMARK    3  A    between atoms: C1_5  and  C9_13 
REMARK    4  A    between atoms: C2_6  and  C3_7 
REMARK    5  A    between atoms: C9_13  and  O1_14 
REMARK    6  A    between atoms: C9_13  and  N2_16 
REMARK    7  A    between atoms: N2_16  and  C10_19 
REMARK    8  A    between atoms: C10_19  and  C11_20 
REMARK    9  A    between atoms: C11_20  and  C12_21 
REMARK   10  A    between atoms: C11_20  and  N7_30 
REMARK   11  A    between atoms: C12_21  and  N3_22 
REMARK   12  A    between atoms: N7_30  and  C14_33 
REMARK   13  A    between atoms: C14_33  and  C15_34 
ROOT
HETATM    1  N2  UNL     1      15.412 -65.595  22.752  1.00  0.00    -0.045 N 
ATOM      2  H21 UNL     1      16.411 -65.392  22.738  1.00  0.00     0.280 HD
ATOM      3  H22 UNL     1      15.161 -64.920  23.475  1.00  0.00     0.280 HD
ENDROOT
BRANCH   1   4
HETATM    4  C9  UNL     1      15.100 -66.987  23.111  1.00  0.00     0.349 C 
BRANCH   4   5
HETATM    5  C1  UNL     1      16.329 -67.718  23.520  1.00  0.00     0.243 C 
BRANCH   5   6
HETATM    6  N1  UNL     1      15.917 -68.929  24.217  1.00  0.00    -0.071 N 
ATOM      7  H13 UNL     1      16.525 -69.727  24.034  1.00  0.00     0.274 HD
ATOM      8  H12 UNL     1      16.064 -68.885  25.225  1.00  0.00     0.274 HD
ATOM      9  H11 UNL     1      14.944 -69.095  23.958  1.00  0.00     0.274 HD
ENDBRANCH   5   6
BRANCH   5  10
HETATM   10  C2  UNL     1      17.148 -68.161  22.342  1.00  0.00     0.075 C 
BRANCH  10  11
HETATM   11  C3  UNL     1      18.380 -67.415  22.120  1.00  0.00    -0.056 A 
HETATM   12  C4  UNL     1      18.589 -66.750  20.936  1.00  0.00     0.007 A 
HETATM   13  C5  UNL     1      19.765 -66.037  20.704  1.00  0.00     0.001 A 
HETATM   14  C6  UNL     1      20.749 -65.985  21.671  1.00  0.00     0.000 A 
HETATM   15  C7  UNL     1      20.562 -66.642  22.862  1.00  0.00     0.001 A 
HETATM   16  C8  UNL     1      19.385 -67.341  23.064  1.00  0.00     0.007 A 
ENDBRANCH  10  11
ENDBRANCH   5  10
ENDBRANCH   4   5
BRANCH   4  17
HETATM   17  O1  UNL     1      14.516 -67.525  21.956  1.00  0.00    -0.368 OA
ATOM     18  H1  UNL     1      13.917 -66.919  21.536  1.00  0.00     0.212 HD
ENDBRANCH   4  17
ENDBRANCH   1   4
BRANCH   1  19
HETATM   19  C10 UNL     1      14.762 -65.363  21.500  1.00  0.00     0.270 C 
BRANCH  19  20
HETATM   20  C11 UNL     1      13.903 -64.161  21.395  1.00  0.00     0.231 C 
BRANCH  20  21
HETATM   21  C12 UNL     1      14.075 -63.421  20.080  1.00  0.00     0.186 C 
BRANCH  21  22
HETATM   22  N3  UNL     1      14.832 -62.186  20.243  1.00  0.00    -0.269 N 
HETATM   23  C13 UNL     1      15.465 -61.866  21.395  1.00  0.00     0.219 A 
HETATM   24  N4  UNL     1      16.073 -60.682  21.240  1.00  0.00    -0.279 N 
HETATM   25  N5  UNL     1      15.808 -60.289  20.000  1.00  0.00    -0.227 N 
ATOM     26  H4  UNL     1      16.629 -60.183  21.934  1.00  0.00     0.189 HD
HETATM   27  N6  UNL     1      15.064 -61.203  19.417  1.00  0.00    -0.225 N 
ATOM     28  H5  UNL     1      16.129 -59.422  19.571  1.00  0.00     0.210 HD
ATOM     29  H6  UNL     1      14.718 -61.152  18.459  1.00  0.00     0.210 HD
ENDBRANCH  21  22
ENDBRANCH  20  21
BRANCH  20  30
HETATM   30  N7  UNL     1      12.563 -64.245  21.856  1.00  0.00    -0.067 N 
ATOM     31  H72 UNL     1      11.933 -64.526  21.104  1.00  0.00     0.277 HD
ATOM     32  H71 UNL     1      12.439 -65.042  22.480  1.00  0.00     0.277 HD
BRANCH  30  33
HETATM   33  C14 UNL     1      12.122 -63.049  22.466  1.00  0.00     0.237 C 
BRANCH  33  34
HETATM   34  C15 UNL     1      11.022 -62.348  21.686  1.00  0.00     0.011 A 
HETATM   35  C16 UNL     1      10.704 -60.942  22.210  1.00  0.00     0.007 A 
HETATM   36  C17 UNL     1      11.328 -61.148  20.880  1.00  0.00     0.007 A 
ENDBRANCH  33  34
ENDBRANCH  30  33
ENDBRANCH  20  30
ENDBRANCH  19  20
ENDBRANCH   1  19
TORSDOF 13
ENDMDL
MODEL 5
REMARK VINA RESULT: -6.082176048      1.425      2.266
REMARK  13 active torsions:
REMARK  status: ('A' for Active; 'I' for Inactive)
REMARK    1  A    between atoms: N1_1  and  C1_5 
REMARK    2  A    between atoms: C1_5  and  C2_6 
REMARK    3  A    between atoms: C1_5  and  C9_13 
REMARK    4  A    between atoms: C2_6  and  C3_7 
REMARK    5  A    between atoms: C9_13  and  O1_14 
REMARK    6  A    between atoms: C9_13  and  N2_16 
REMARK    7  A    between atoms: N2_16  and  C10_19 
REMARK    8  A    between atoms: C10_19  and  C11_20 
REMARK    9  A    between atoms: C11_20  and  C12_21 
REMARK   10  A    between atoms: C11_20  and  N7_30 
REMARK   11  A    between atoms: C12_21  and  N3_22 
REMARK   12  A    between atoms: N7_30  and  C14_33 
REMARK   13  A    between atoms: C14_33  and  C15_34 
ROOT
HETATM    1  N2  UNL     1      15.809 -65.194  21.729  1.00  0.00    -0.045 N 
ATOM      2  H21 UNL     1      16.688 -65.012  21.245  1.00  0.00     0.280 HD
ATOM      3  H22 UNL     1      15.927 -64.495  22.462  1.00  0.00     0.280 HD
ENDROOT
BRANCH   1   4
HETATM    4  C9  UNL     1      15.692 -66.569  22.240  1.00  0.00     0.349 C 
BRANCH   4   5
HETATM    5  C1  UNL     1      17.025 -67.226  22.304  1.00  0.00     0.243 C 
BRANCH   5   6
HETATM    6  N1  UNL     1      16.914 -68.525  21.654  1.00  0.00    -0.071 N 
ATOM      7  H13 UNL     1      17.812 -68.905  21.356  1.00  0.00     0.274 HD
ATOM      8  H12 UNL     1      16.663 -69.278  22.295  1.00  0.00     0.274 HD
ATOM      9  H11 UNL     1      16.250 -68.409  20.888  1.00  0.00     0.274 HD
ENDBRANCH   5   6
BRANCH   5  10
HETATM   10  C2  UNL     1      18.076 -66.461  21.553  1.00  0.00     0.075 C 
BRANCH  10  11
HETATM   11  C3  UNL     1      19.408 -66.482  22.143  1.00  0.00    -0.056 A 
HETATM   12  C4  UNL     1      19.600 -66.969  23.414  1.00  0.00     0.007 A 
HETATM   13  C5  UNL     1      20.866 -66.991  23.997  1.00  0.00     0.001 A 
HETATM   14  C6  UNL     1      21.961 -66.520  23.301  1.00  0.00     0.000 A 
HETATM   15  C7  UNL     1      21.794 -66.029  22.030  1.00  0.00     0.001 A 
HETATM   16  C8  UNL     1      20.524 -66.021  21.477  1.00  0.00     0.007 A 
ENDBRANCH  10  11
ENDBRANCH   5  10
ENDBRANCH   4   5
BRANCH   4  17
HETATM   17  O1  UNL     1      14.824 -67.205  21.341  1.00  0.00    -0.368 OA
ATOM     18  H1  UNL     1      13.968 -66.795  21.313  1.00  0.00     0.212 HD
ENDBRANCH   4  17
ENDBRANCH   1   4
BRANCH   1  19
HETATM   19  C10 UNL     1      14.652 -64.984  20.916  1.00  0.00     0.270 C 
BRANCH  19  20
HETATM   20  C11 UNL     1      13.733 -63.893  21.315  1.00  0.00     0.231 C 
BRANCH  20  21
HETATM   21  C12 UNL     1      13.585 -62.821  20.251  1.00  0.00     0.186 C 
BRANCH  21  22
HETATM   22  N3  UNL     1      14.641 -61.818  20.335  1.00  0.00    -0.269 N 
HETATM   23  C13 UNL     1      15.339 -61.589  21.470  1.00  0.00     0.219 A 
HETATM   24  N4  UNL     1      16.237 -60.621  21.238  1.00  0.00    -0.279 N 
HETATM   25  N5  UNL     1      16.080 -60.268  19.968  1.00  0.00    -0.227 N 
ATOM     26  H4  UNL     1      16.907 -60.234  21.902  1.00  0.00     0.189 HD
HETATM   27  N6  UNL     1      15.119 -60.996  19.442  1.00  0.00    -0.225 N 
ATOM     28  H5  UNL     1      16.616 -59.550  19.481  1.00  0.00     0.210 HD
ATOM     29  H6  UNL     1      14.796 -60.929  18.477  1.00  0.00     0.210 HD
ENDBRANCH  21  22
ENDBRANCH  20  21
BRANCH  20  30
HETATM   30  N7  UNL     1      12.527 -64.235  21.982  1.00  0.00    -0.067 N 
ATOM     31  H72 UNL     1      11.716 -63.867  21.484  1.00  0.00     0.277 HD
ATOM     32  H71 UNL     1      12.332 -65.233  21.899  1.00  0.00     0.277 HD
BRANCH  30  33
HETATM   33  C14 UNL     1      12.519 -63.828  23.335  1.00  0.00     0.237 C 
BRANCH  33  34
HETATM   34  C15 UNL     1      13.055 -64.888  24.283  1.00  0.00     0.011 A 
HETATM   35  C16 UNL     1      14.208 -64.390  25.165  1.00  0.00     0.007 A 
HETATM   36  C17 UNL     1      12.887 -64.736  25.743  1.00  0.00     0.007 A 
ENDBRANCH  33  34
ENDBRANCH  30  33
ENDBRANCH  20  30
ENDBRANCH  19  20
ENDBRANCH   1  19
TORSDOF 13
ENDMDL
