MODEL 1
REMARK VINA RESULT: -5.570349986      0.000      0.000
REMARK  12 active torsions:
REMARK  status: ('A' for Active; 'I' for Inactive)
REMARK    1  A    between atoms: C2_2  and  N1_4 
REMARK    2  A    between atoms: N1_4  and  C4_6 
REMARK    3  A    between atoms: C4_6  and  C5_7 
REMARK    4  A    between atoms: C5_7  and  C6_8 
REMARK    5  A    between atoms: C5_7  and  O2_11 
REMARK    6  A    between atoms: C6_8  and  O1_9 
REMARK    7  A    between atoms: O2_11  and  C7_12 
REMARK    8  A    between atoms: C7_12  and  N2_13 
REMARK    9  A    between atoms: C8_14  and  C9_15 
REMARK   10  A    between atoms: C9_15  and  C10_16 
REMARK   11  A    between atoms: C10_16  and  N3_17 
REMARK   12  A    between atoms: C14_23  and  N5_24 
ROOT
HETATM    1  N2  UNL     1      13.856 -64.430  21.802  1.00  0.00    -0.298 N 
HETATM    2  C8  UNL     1      15.223 -64.506  21.904  1.00  0.00     0.092 A 
HETATM    3  N4  UNL     1      15.674 -63.375  21.339  1.00  0.00    -0.339 N 
ATOM      4  H4  UNL     1      16.662 -63.134  21.261  1.00  0.00     0.167 HD
HETATM    5  C13 UNL     1      14.681 -62.600  20.891  1.00  0.00     0.122 A 
HETATM    6  C14 UNL     1      14.572 -61.372  20.249  1.00  0.00     0.131 A 
HETATM    7  N6  UNL     1      13.373 -60.842  19.923  1.00  0.00    -0.337 N 
ATOM      8  H6  UNL     1      13.319 -59.939  19.451  1.00  0.00     0.168 HD
HETATM    9  C15 UNL     1      12.259 -61.513  20.224  1.00  0.00     0.183 A 
HETATM   10  N7  UNL     1      12.347 -62.691  20.836  1.00  0.00    -0.336 N 
ATOM     11  H7  UNL     1      11.483 -63.186  21.057  1.00  0.00     0.168 HD
HETATM   12  C16 UNL     1      13.533 -63.272  21.185  1.00  0.00     0.142 A 
ENDROOT
BRANCH   1  13
HETATM   13  C7  UNL     1      12.911 -65.394  22.282  1.00  0.00     0.302 C 
BRANCH  13  14
HETATM   14  O2  UNL     1      12.735 -66.449  21.401  1.00  0.00    -0.359 OA
BRANCH  14  15
HETATM   15  C5  UNL     1      12.590 -67.635  22.171  1.00  0.00     0.185 C 
BRANCH  15  16
HETATM   16  C4  UNL     1      11.885 -67.180  23.436  1.00  0.00     0.089 C 
BRANCH  16  17
HETATM   17  N1  UNL     1      10.564 -67.636  23.593  1.00  0.00    -0.396 N 
ATOM     18  H1  UNL     1      10.339 -68.626  23.505  1.00  0.00     0.159 HD
BRANCH  17  19
HETATM   19  C2  UNL     1       9.554 -66.684  23.878  1.00  0.00     0.072 C 
HETATM   20  C1  UNL     1       9.974 -65.944  25.159  1.00  0.00     0.031 C 
HETATM   21  C3  UNL     1       9.270 -65.654  22.847  1.00  0.00     0.031 C 
ENDBRANCH  17  19
ENDBRANCH  16  17
ENDBRANCH  15  16
BRANCH  15  22
HETATM   22  C6  UNL     1      11.753 -68.548  21.338  1.00  0.00     0.201 C 
BRANCH  22  23
HETATM   23  O1  UNL     1      10.930 -67.759  20.542  1.00  0.00    -0.398 OA
ATOM     24  H1  UNL     1      10.607 -67.044  21.078  1.00  0.00     0.209 HD
ENDBRANCH  22  23
ENDBRANCH  15  22
ENDBRANCH  14  15
ENDBRANCH  13  14
ENDBRANCH   1  13
BRANCH   2  25
HETATM   25  C9  UNL     1      16.015 -65.599  22.481  1.00  0.00     0.121 C 
BRANCH  25  26
HETATM   26  C10 UNL     1      17.154 -66.090  21.658  1.00  0.00     0.064 C 
BRANCH  26  27
HETATM   27  N3  UNL     1      18.408 -66.097  22.292  1.00  0.00    -0.401 N 
HETATM   28  C11 UNL     1      19.545 -65.867  21.436  1.00  0.00     0.148 C 
HETATM   29  C12 UNL     1      18.641 -66.796  23.485  1.00  0.00     0.148 C 
ENDBRANCH  26  27
ENDBRANCH  25  26
ENDBRANCH   2  25
BRANCH   6  30
HETATM   30  N5  UNL     1      15.597 -60.710  19.950  1.00  0.00    -0.383 N 
ATOM     31  H52 UNL     1      15.948 -60.795  18.996  1.00  0.00     0.157 HD
ATOM     32  H51 UNL     1      16.052 -60.113  20.641  1.00  0.00     0.157 HD
ENDBRANCH   6  30
TORSDOF 12
ENDMDL
MODEL 2
REMARK VINA RESULT: -5.568852022      1.000      1.138
REMARK  12 active torsions:
REMARK  status: ('A' for Active; 'I' for Inactive)
REMARK    1  A    between atoms: C2_2  and  N1_4 
REMARK    2  A    between atoms: N1_4  and  C4_6 
REMARK    3  A    between atoms: C4_6  and  C5_7 
REMARK    4  A    between atoms: C5_7  and  C6_8 
REMARK    5  A    between atoms: C5_7  and  O2_11 
REMARK    6  A    between atoms: C6_8  and  O1_9 
REMARK    7  A    between atoms: O2_11  and  C7_12 
REMARK    8  A    between atoms: C7_12  and  N2_13 
REMARK    9  A    between atoms: C8_14  and  C9_15 
REMARK   10  A    between atoms: C9_15  and  C10_16 
REMARK   11  A    between atoms: C10_16  and  N3_17 
REMARK   12  A    between atoms: C14_23  and  N5_24 
ROOT
HETATM    1  N2  UNL     1      13.673 -64.359  22.023  1.00  0.00    -0.298 N 
HETATM    2  C8  UNL     1      15.039 -64.492  22.050  1.00  0.00     0.092 A 
HETATM    3  N4  UNL     1      15.503 -63.417  21.394  1.00  0.00    -0.339 N 
ATOM      4  H4  UNL     1      16.494 -63.228  21.245  1.00  0.00     0.167 HD
HETATM    5  C13 UNL     1      14.520 -62.623  20.959  1.00  0.00     0.122 A 
HETATM    6  C14 UNL     1      14.425 -61.429  20.253  1.00  0.00     0.131 A 
HETATM    7  N6  UNL     1      13.233 -60.863  19.966  1.00  0.00    -0.337 N 
ATOM      8  H6  UNL     1      13.190 -59.987  19.446  1.00  0.00     0.168 HD
HETATM    9  C15 UNL     1      12.111 -61.464  20.370  1.00  0.00     0.183 A 
HETATM   10  N7  UNL     1      12.185 -62.608  21.045  1.00  0.00    -0.336 N 
ATOM     11  H7  UNL     1      11.315 -63.049  21.344  1.00  0.00     0.168 HD
HETATM   12  C16 UNL     1      13.364 -63.224  21.359  1.00  0.00     0.142 A 
ENDROOT
BRANCH   1  13
HETATM   13  C7  UNL     1      12.719 -65.249  22.613  1.00  0.00     0.302 C 
BRANCH  13  14
HETATM   14  O2  UNL     1      12.463 -66.355  21.820  1.00  0.00    -0.359 OA
BRANCH  14  15
HETATM   15  C5  UNL     1      11.445 -67.117  22.455  1.00  0.00     0.185 C 
BRANCH  15  16
HETATM   16  C4  UNL     1      10.244 -66.189  22.486  1.00  0.00     0.089 C 
BRANCH  16  17
HETATM   17  N1  UNL     1       9.033 -66.746  22.040  1.00  0.00    -0.396 N 
ATOM     18  H1  UNL     1       8.925 -67.053  21.074  1.00  0.00     0.159 HD
BRANCH  17  19
HETATM   19  C2  UNL     1       7.967 -66.869  22.966  1.00  0.00     0.072 C 
HETATM   20  C1  UNL     1       7.930 -65.572  23.791  1.00  0.00     0.031 C 
HETATM   21  C3  UNL     1       6.604 -67.082  22.418  1.00  0.00     0.031 C 
ENDBRANCH  17  19
ENDBRANCH  16  17
ENDBRANCH  15  16
BRANCH  15  22
HETATM   22  C6  UNL     1      11.235 -68.307  21.578  1.00  0.00     0.201 C 
BRANCH  22  23
HETATM   23  O1  UNL     1      11.023 -67.846  20.284  1.00  0.00    -0.398 OA
ATOM     24  H1  UNL     1      10.118 -67.561  20.222  1.00  0.00     0.209 HD
ENDBRANCH  22  23
ENDBRANCH  15  22
ENDBRANCH  14  15
ENDBRANCH  13  14
ENDBRANCH   1  13
BRANCH   2  25
HETATM   25  C9  UNL     1      15.816 -65.587  22.644  1.00  0.00     0.121 C 
BRANCH  25  26
HETATM   26  C10 UNL     1      16.927 -66.129  21.814  1.00  0.00     0.064 C 
BRANCH  26  27
HETATM   27  N3  UNL     1      18.194 -66.140  22.421  1.00  0.00    -0.401 N 
HETATM   28  C11 UNL     1      19.310 -65.875  21.547  1.00  0.00     0.148 C 
HETATM   29  C12 UNL     1      18.460 -66.866  23.589  1.00  0.00     0.148 C 
ENDBRANCH  26  27
ENDBRANCH  25  26
ENDBRANCH   2  25
BRANCH   6  30
HETATM   30  N5  UNL     1      15.458 -60.834  19.856  1.00  0.00    -0.383 N 
ATOM     31  H52 UNL     1      15.761 -61.008  18.898  1.00  0.00     0.157 HD
ATOM     32  H51 UNL     1      15.965 -60.203  20.476  1.00  0.00     0.157 HD
ENDBRANCH   6  30
TORSDOF 12
ENDMDL
MODEL 3
REMARK VINA RESULT: -5.516314361      1.348      1.715
REMARK  12 active torsions:
REMARK  status: ('A' for Active; 'I' for Inactive)
REMARK    1  A    between atoms: C2_2  and  N1_4 
REMARK    2  A    between atoms: N1_4  and  C4_6 
REMARK    3  A    between atoms: C4_6  and  C5_7 
REMARK    4  A    between atoms: C5_7  and  C6_8 
REMARK    5  A    between atoms: C5_7  and  O2_11 
REMARK    6  A    between atoms: C6_8  and  O1_9 
REMARK    7  A    between atoms: O2_11  and  C7_12 
REMARK    8  A    between atoms: C7_12  and  N2_13 
REMARK    9  A    between atoms: C8_14  and  C9_15 
REMARK   10  A    between atoms: C9_15  and  C10_16 
REMARK   11  A    between atoms: C10_16  and  N3_17 
REMARK   12  A    between atoms: C14_23  and  N5_24 
ROOT
HETATM    1  N2  UNL     1      13.854 -64.417  21.841  1.00  0.00    -0.298 N 
HETATM    2  C8  UNL     1      15.222 -64.497  21.934  1.00  0.00     0.092 A 
HETATM    3  N4  UNL     1      15.673 -63.376  21.350  1.00  0.00    -0.339 N 
ATOM      4  H4  UNL     1      16.662 -63.140  21.261  1.00  0.00     0.167 HD
HETATM    5  C13 UNL     1      14.681 -62.603  20.898  1.00  0.00     0.122 A 
HETATM    6  C14 UNL     1      14.571 -61.383  20.239  1.00  0.00     0.131 A 
HETATM    7  N6  UNL     1      13.372 -60.853  19.915  1.00  0.00    -0.337 N 
ATOM      8  H6  UNL     1      13.318 -59.956  19.431  1.00  0.00     0.168 HD
HETATM    9  C15 UNL     1      12.258 -61.515  20.233  1.00  0.00     0.183 A 
HETATM   10  N7  UNL     1      12.345 -62.685  20.861  1.00  0.00    -0.336 N 
ATOM     11  H7  UNL     1      11.481 -63.173  21.095  1.00  0.00     0.168 HD
HETATM   12  C16 UNL     1      13.532 -63.266  21.210  1.00  0.00     0.142 A 
ENDROOT
BRANCH   1  13
HETATM   13  C7  UNL     1      12.910 -65.370  22.341  1.00  0.00     0.302 C 
BRANCH  13  14
HETATM   14  O2  UNL     1      11.765 -64.771  22.841  1.00  0.00    -0.359 OA
BRANCH  14  15
HETATM   15  C5  UNL     1      10.851 -65.805  23.182  1.00  0.00     0.185 C 
BRANCH  15  16
HETATM   16  C4  UNL     1       9.482 -65.185  22.967  1.00  0.00     0.089 C 
BRANCH  16  17
HETATM   17  N1  UNL     1       8.435 -65.747  23.717  1.00  0.00    -0.396 N 
ATOM     18  H1  UNL     1       8.291 -66.756  23.739  1.00  0.00     0.159 HD
BRANCH  17  19
HETATM   19  C2  UNL     1       7.583 -64.876  24.441  1.00  0.00     0.072 C 
HETATM   20  C1  UNL     1       6.136 -65.263  24.093  1.00  0.00     0.031 C 
HETATM   21  C3  UNL     1       7.697 -64.879  25.922  1.00  0.00     0.031 C 
ENDBRANCH  17  19
ENDBRANCH  16  17
ENDBRANCH  15  16
BRANCH  15  22
HETATM   22  C6  UNL     1      11.139 -66.918  22.231  1.00  0.00     0.201 C 
BRANCH  22  23
HETATM   23  O1  UNL     1      10.010 -67.103  21.441  1.00  0.00    -0.398 OA
ATOM     24  H1  UNL     1       9.325 -67.461  21.994  1.00  0.00     0.209 HD
ENDBRANCH  22  23
ENDBRANCH  15  22
ENDBRANCH  14  15
ENDBRANCH  13  14
ENDBRANCH   1  13
BRANCH   2  25
HETATM   25  C9  UNL     1      16.013 -65.585  22.520  1.00  0.00     0.121 C 
BRANCH  25  26
HETATM   26  C10 UNL     1      17.138 -66.100  21.691  1.00  0.00     0.064 C 
BRANCH  26  27
HETATM   27  N3  UNL     1      18.402 -66.092  22.303  1.00  0.00    -0.401 N 
HETATM   28  C11 UNL     1      19.521 -65.849  21.427  1.00  0.00     0.148 C 
HETATM   29  C12 UNL     1      18.664 -66.786  23.492  1.00  0.00     0.148 C 
ENDBRANCH  26  27
ENDBRANCH  25  26
ENDBRANCH   2  25
BRANCH   6  30
HETATM   30  N5  UNL     1      15.597 -60.729  19.924  1.00  0.00    -0.383 N 
ATOM     31  H52 UNL     1      15.514 -59.713  19.892  1.00  0.00     0.157 HD
ATOM     32  H51 UNL     1      16.473 -61.206  19.711  1.00  0.00     0.157 HD
ENDBRANCH   6  30
TORSDOF 12
ENDMDL
MODEL 4
REMARK VINA RESULT: -5.487808001      1.560      1.981
REMARK  12 active torsions:
REMARK  status: ('A' for Active; 'I' for Inactive)
REMARK    1  A    between atoms: C2_2  and  N1_4 
REMARK    2  A    between atoms: N1_4  and  C4_6 
REMARK    3  A    between atoms: C4_6  and  C5_7 
REMARK    4  A    between atoms: C5_7  and  C6_8 
REMARK    5  A    between atoms: C5_7  and  O2_11 
REMARK    6  A    between atoms: C6_8  and  O1_9 
REMARK    7  A    between atoms: O2_11  and  C7_12 
REMARK    8  A    between atoms: C7_12  and  N2_13 
REMARK    9  A    between atoms: C8_14  and  C9_15 
REMARK   10  A    between atoms: C9_15  and  C10_16 
REMARK   11  A    between atoms: C10_16  and  N3_17 
REMARK   12  A    between atoms: C14_23  and  N5_24 
ROOT
HETATM    1  N2  UNL     1      13.601 -64.318  22.078  1.00  0.00    -0.298 N 
HETATM    2  C8  UNL     1      14.966 -64.466  22.115  1.00  0.00     0.092 A 
HETATM    3  N4  UNL     1      15.445 -63.408  21.442  1.00  0.00    -0.339 N 
ATOM      4  H4  UNL     1      16.439 -63.232  21.294  1.00  0.00     0.167 HD
HETATM    5  C13 UNL     1      14.473 -62.612  20.986  1.00  0.00     0.122 A 
HETATM    6  C14 UNL     1      14.395 -61.430  20.257  1.00  0.00     0.131 A 
HETATM    7  N6  UNL     1      13.211 -60.857  19.954  1.00  0.00    -0.337 N 
ATOM      8  H6  UNL     1      13.180 -59.990  19.417  1.00  0.00     0.168 HD
HETATM    9  C15 UNL     1      12.081 -61.437  20.363  1.00  0.00     0.183 A 
HETATM   10  N7  UNL     1      12.138 -62.570  21.059  1.00  0.00    -0.336 N 
ATOM     11  H7  UNL     1      11.262 -62.995  21.362  1.00  0.00     0.168 HD
HETATM   12  C16 UNL     1      13.308 -63.192  21.391  1.00  0.00     0.142 A 
ENDROOT
BRANCH   1  13
HETATM   13  C7  UNL     1      12.634 -65.186  22.679  1.00  0.00     0.302 C 
BRANCH  13  14
HETATM   14  O2  UNL     1      12.345 -66.287  21.889  1.00  0.00    -0.359 OA
BRANCH  14  15
HETATM   15  C5  UNL     1      11.308 -67.018  22.530  1.00  0.00     0.185 C 
BRANCH  15  16
HETATM   16  C4  UNL     1      10.123 -66.070  22.533  1.00  0.00     0.089 C 
BRANCH  16  17
HETATM   17  N1  UNL     1       8.908 -66.615  22.085  1.00  0.00    -0.396 N 
ATOM     18  H1  UNL     1       8.778 -66.868  21.106  1.00  0.00     0.159 HD
BRANCH  17  19
HETATM   19  C2  UNL     1       7.866 -66.803  23.028  1.00  0.00     0.072 C 
HETATM   20  C1  UNL     1       7.815 -65.541  23.905  1.00  0.00     0.031 C 
HETATM   21  C3  UNL     1       6.496 -67.030  22.501  1.00  0.00     0.031 C 
ENDBRANCH  17  19
ENDBRANCH  16  17
ENDBRANCH  15  16
BRANCH  15  22
HETATM   22  C6  UNL     1      11.086 -68.221  21.675  1.00  0.00     0.201 C 
BRANCH  22  23
HETATM   23  O1  UNL     1      11.011 -67.794  20.354  1.00  0.00    -0.398 OA
ATOM     24  H1  UNL     1      10.199 -67.311  20.252  1.00  0.00     0.209 HD
ENDBRANCH  22  23
ENDBRANCH  15  22
ENDBRANCH  14  15
ENDBRANCH  13  14
ENDBRANCH   1  13
BRANCH   2  25
HETATM   25  C9  UNL     1      15.728 -65.557  22.734  1.00  0.00     0.121 C 
BRANCH  25  26
HETATM   26  C10 UNL     1      15.907 -66.783  21.908  1.00  0.00     0.064 C 
BRANCH  26  27
HETATM   27  N3  UNL     1      15.342 -67.959  22.431  1.00  0.00    -0.401 N 
HETATM   28  C11 UNL     1      14.777 -68.867  21.464  1.00  0.00     0.148 C 
HETATM   29  C12 UNL     1      14.848 -68.036  23.740  1.00  0.00     0.148 C 
ENDBRANCH  26  27
ENDBRANCH  25  26
ENDBRANCH   2  25
BRANCH   6  30
HETATM   30  N5  UNL     1      15.436 -60.854  19.856  1.00  0.00    -0.383 N 
ATOM     31  H52 UNL     1      16.262 -60.908  20.452  1.00  0.00     0.157 HD
ATOM     32  H51 UNL     1      15.445 -60.355  18.966  1.00  0.00     0.157 HD
ENDBRANCH   6  30
TORSDOF 12
ENDMDL
MODEL 5
REMARK VINA RESULT: -5.426340926      1.409      1.745
REMARK  12 active torsions:
REMARK  status: ('A' for Active; 'I' for Inactive)
REMARK    1  A    between atoms: C2_2  and  N1_4 
REMARK    2  A    between atoms: N1_4  and  C4_6 
REMARK    3  A    between atoms: C4_6  and  C5_7 
REMARK    4  A    between atoms: C5_7  and  C6_8 
REMARK    5  A    between atoms: C5_7  and  O2_11 
REMARK    6  A    between atoms: C6_8  and  O1_9 
REMARK    7  A    between atoms: O2_11  and  C7_12 
REMARK    8  A    between atoms: C7_12  and  N2_13 
REMARK    9  A    between atoms: C8_14  and  C9_15 
REMARK   10  A    between atoms: C9_15  and  C10_16 
REMARK   11  A    between atoms: C10_16  and  N3_17 
REMARK   12  A    between atoms: C14_23  and  N5_24 
ROOT
HETATM    1  N2  UNL     1      13.762 -64.395  21.885  1.00  0.00    -0.298 N 
HETATM    2  C8  UNL     1      15.128 -64.491  21.979  1.00  0.00     0.092 A 
HETATM    3  N4  UNL     1      15.594 -63.381  21.386  1.00  0.00    -0.339 N 
ATOM      4  H4  UNL     1      16.585 -63.159  21.295  1.00  0.00     0.167 HD
HETATM    5  C13 UNL     1      14.611 -62.600  20.926  1.00  0.00     0.122 A 
HETATM    6  C14 UNL     1      14.518 -61.385  20.257  1.00  0.00     0.131 A 
HETATM    7  N6  UNL     1      13.325 -60.842  19.928  1.00  0.00    -0.337 N 
ATOM      8  H6  UNL     1      13.283 -59.949  19.437  1.00  0.00     0.168 HD
HETATM    9  C15 UNL     1      12.203 -61.487  20.252  1.00  0.00     0.183 A 
HETATM   10  N7  UNL     1      12.275 -62.653  20.890  1.00  0.00    -0.336 N 
ATOM     11  H7  UNL     1      11.405 -63.128  21.128  1.00  0.00     0.168 HD
HETATM   12  C16 UNL     1      13.454 -63.246  21.245  1.00  0.00     0.142 A 
ENDROOT
BRANCH   1  13
HETATM   13  C7  UNL     1      12.806 -65.332  22.393  1.00  0.00     0.302 C 
BRANCH  13  14
HETATM   14  O2  UNL     1      11.651 -64.717  22.849  1.00  0.00    -0.359 OA
BRANCH  14  15
HETATM   15  C5  UNL     1      10.835 -65.718  23.444  1.00  0.00     0.185 C 
BRANCH  15  16
HETATM   16  C4  UNL     1       9.500 -65.588  22.734  1.00  0.00     0.089 C 
BRANCH  16  17
HETATM   17  N1  UNL     1       9.121 -66.687  21.945  1.00  0.00    -0.396 N 
ATOM     18  H1  UNL     1       9.698 -66.990  21.161  1.00  0.00     0.159 HD
BRANCH  17  19
HETATM   19  C2  UNL     1       7.918 -67.364  22.266  1.00  0.00     0.072 C 
HETATM   20  C1  UNL     1       7.192 -66.521  23.327  1.00  0.00     0.031 C 
HETATM   21  C3  UNL     1       6.954 -67.611  21.164  1.00  0.00     0.031 C 
ENDBRANCH  17  19
ENDBRANCH  16  17
ENDBRANCH  15  16
BRANCH  15  22
HETATM   22  C6  UNL     1      11.521 -67.011  23.155  1.00  0.00     0.201 C 
BRANCH  22  23
HETATM   23  O1  UNL     1      10.977 -67.976  23.994  1.00  0.00    -0.398 OA
ATOM     24  H1  UNL     1      11.264 -68.827  23.683  1.00  0.00     0.209 HD
ENDBRANCH  22  23
ENDBRANCH  15  22
ENDBRANCH  14  15
ENDBRANCH  13  14
ENDBRANCH   1  13
BRANCH   2  25
HETATM   25  C9  UNL     1      15.906 -65.584  22.576  1.00  0.00     0.121 C 
BRANCH  25  26
HETATM   26  C10 UNL     1      17.017 -66.128  21.746  1.00  0.00     0.064 C 
BRANCH  26  27
HETATM   27  N3  UNL     1      18.288 -66.120  22.346  1.00  0.00    -0.401 N 
HETATM   28  C11 UNL     1      19.396 -65.855  21.462  1.00  0.00     0.148 C 
HETATM   29  C12 UNL     1      18.567 -66.830  23.521  1.00  0.00     0.148 C 
ENDBRANCH  26  27
ENDBRANCH  25  26
ENDBRANCH   2  25
BRANCH   6  30
HETATM   30  N5  UNL     1      15.551 -60.747  19.936  1.00  0.00    -0.383 N 
ATOM     31  H52 UNL     1      15.893 -60.046  20.594  1.00  0.00     0.157 HD
ATOM     32  H51 UNL     1      16.023 -60.931  19.051  1.00  0.00     0.157 HD
ENDBRANCH   6  30
TORSDOF 12
ENDMDL
