MODEL 1
REMARK VINA RESULT: -5.356112344      0.000      0.000
REMARK  12 active torsions:
REMARK  status: ('A' for Active; 'I' for Inactive)
REMARK    1  A    between atoms: O1_2  and  C2_3 
REMARK    2  A    between atoms: C2_3  and  C3_5 
REMARK    3  A    between atoms: C3_5  and  N1_6 
REMARK    4  A    between atoms: C6_12  and  C7_13 
REMARK       I    between atoms: C7_13  and  N2_15 
REMARK    5  A    between atoms: N2_15  and  C8_17 
REMARK    6  A    between atoms: C8_17  and  C9_18 
REMARK    7  A    between atoms: C8_17  and  C13_28 
REMARK       I    between atoms: C9_18  and  N3_20 
REMARK    8  A    between atoms: N3_20  and  C10_21 
REMARK    9  A    between atoms: N3_20  and  N4_24 
REMARK   10  A    between atoms: C10_21  and  S1_22 
REMARK   11  A    between atoms: C13_28  and  O5_29 
REMARK   12  A    between atoms: N6_31  and  O6_33 
ROOT
HETATM    1  N4  UNL     1     -66.030 -23.102 -23.092  1.00  0.00    -0.227 N 
ATOM      2  H4  UNL     1     -66.343 -23.535 -23.960  1.00  0.00     0.200 HD
HETATM    3  C12 UNL     1     -65.800 -23.881 -21.961  1.00  0.00     0.198 C 
HETATM    4  N5  UNL     1     -65.586 -24.545 -21.014  1.00  0.00    -0.170 NA
ENDROOT
BRANCH   1   5
HETATM    5  N3  UNL     1     -65.822 -21.688 -23.023  1.00  0.00    -0.218 N 
HETATM    6  C9  UNL     1     -65.145 -21.077 -24.084  1.00  0.00     0.274 C 
HETATM    7  O4  UNL     1     -64.740 -21.809 -25.056  1.00  0.00    -0.268 OA
BRANCH   6   8
HETATM    8  C8  UNL     1     -64.831 -19.624 -24.203  1.00  0.00     0.256 C 
BRANCH   8   9
HETATM    9  N2  UNL     1     -63.528 -19.482 -23.529  1.00  0.00    -0.340 N 
HETATM   10  C7  UNL     1     -63.378 -18.736 -22.337  1.00  0.00     0.231 C 
HETATM   11  O3  UNL     1     -64.367 -18.159 -21.796  1.00  0.00    -0.273 OA
ATOM     12  H2  UNL     1     -62.709 -19.936 -23.935  1.00  0.00     0.163 HD
BRANCH  10  13
HETATM   13  C6  UNL     1     -62.042 -18.639 -21.723  1.00  0.00     0.091 A 
HETATM   14  C3  UNL     1     -61.788 -19.427 -20.501  1.00  0.00     0.231 A 
HETATM   15  C4  UNL     1     -61.762 -17.861 -20.503  1.00  0.00     0.055 A 
HETATM   16  C5  UNL     1     -61.467 -17.214 -21.801  1.00  0.00     0.032 A 
BRANCH  14  17
HETATM   17  C2  UNL     1     -60.411 -19.944 -20.227  1.00  0.00     0.296 C 
HETATM   18  O2  UNL     1     -60.019 -20.279 -19.087  1.00  0.00    -0.262 OA
BRANCH  17  19
HETATM   19  O1  UNL     1     -59.527 -20.059 -21.275  1.00  0.00    -0.324 OA
HETATM   20  C1  UNL     1     -58.878 -21.241 -21.675  1.00  0.00     0.213 C 
ENDBRANCH  17  19
ENDBRANCH  14  17
BRANCH  14  21
HETATM   21  N1  UNL     1     -62.810 -20.031 -19.717  1.00  0.00    -0.059 N 
ATOM     22  H13 UNL     1     -62.405 -20.675 -19.038  1.00  0.00     0.275 HD
ATOM     23  H12 UNL     1     -63.222 -19.346 -19.083  1.00  0.00     0.275 HD
ATOM     24  H11 UNL     1     -63.539 -20.497 -20.258  1.00  0.00     0.275 HD
ENDBRANCH  14  21
ENDBRANCH  10  13
ENDBRANCH   8   9
BRANCH   8  25
HETATM   25  C13 UNL     1     -64.585 -19.216 -25.598  1.00  0.00     0.168 C 
HETATM   26  N6  UNL     1     -65.536 -18.780 -26.341  1.00  0.00    -0.249 N 
ATOM     27  H6  UNL     1     -66.473 -18.721 -25.943  1.00  0.00     0.196 HD
BRANCH  25  28
HETATM   28  O5  UNL     1     -63.332 -19.286 -26.162  1.00  0.00    -0.346 OA
ATOM     29  H5  UNL     1     -63.091 -18.752 -26.910  1.00  0.00     0.219 HD
ENDBRANCH  25  28
BRANCH  26  30
HETATM   30  O6  UNL     1     -65.356 -18.389 -27.647  1.00  0.00    -0.288 OA
ATOM     31  H6  UNL     1     -66.073 -18.157 -28.226  1.00  0.00     0.244 HD
ENDBRANCH  26  30
ENDBRANCH   8  25
ENDBRANCH   6   8
BRANCH   5  32
HETATM   32  C10 UNL     1     -66.304 -20.980 -21.887  1.00  0.00     0.164 C 
BRANCH  32  33
HETATM   33  S1  UNL     1     -67.954 -20.312 -22.041  1.00  0.00    -0.127 SA
HETATM   34  C11 UNL     1     -67.906 -18.489 -22.163  1.00  0.00     0.096 C 
ENDBRANCH  32  33
ENDBRANCH   5  32
ENDBRANCH   1   5
TORSDOF 12
ENDMDL
MODEL 2
REMARK VINA RESULT: -5.151659853      1.647      1.756
REMARK  12 active torsions:
REMARK  status: ('A' for Active; 'I' for Inactive)
REMARK    1  A    between atoms: O1_2  and  C2_3 
REMARK    2  A    between atoms: C2_3  and  C3_5 
REMARK    3  A    between atoms: C3_5  and  N1_6 
REMARK    4  A    between atoms: C6_12  and  C7_13 
REMARK       I    between atoms: C7_13  and  N2_15 
REMARK    5  A    between atoms: N2_15  and  C8_17 
REMARK    6  A    between atoms: C8_17  and  C9_18 
REMARK    7  A    between atoms: C8_17  and  C13_28 
REMARK       I    between atoms: C9_18  and  N3_20 
REMARK    8  A    between atoms: N3_20  and  C10_21 
REMARK    9  A    between atoms: N3_20  and  N4_24 
REMARK   10  A    between atoms: C10_21  and  S1_22 
REMARK   11  A    between atoms: C13_28  and  O5_29 
REMARK   12  A    between atoms: N6_31  and  O6_33 
ROOT
HETATM    1  N4  UNL     1     -64.070 -23.510 -25.070  1.00  0.00    -0.227 N 
ATOM      2  H4  UNL     1     -64.647 -23.873 -25.829  1.00  0.00     0.200 HD
HETATM    3  C12 UNL     1     -63.056 -24.292 -24.523  1.00  0.00     0.198 C 
HETATM    4  N5  UNL     1     -62.186 -24.947 -24.078  1.00  0.00    -0.170 NA
ENDROOT
BRANCH   1   5
HETATM    5  N3  UNL     1     -64.295 -22.194 -24.557  1.00  0.00    -0.218 N 
HETATM    6  C9  UNL     1     -63.865 -21.111 -25.330  1.00  0.00     0.274 C 
HETATM    7  O4  UNL     1     -63.286 -21.349 -26.450  1.00  0.00    -0.268 OA
BRANCH   6   8
HETATM    8  C8  UNL     1     -64.006 -19.669 -24.977  1.00  0.00     0.256 C 
BRANCH   8   9
HETATM    9  N2  UNL     1     -62.869 -19.408 -24.076  1.00  0.00    -0.340 N 
HETATM   10  C7  UNL     1     -63.050 -18.913 -22.764  1.00  0.00     0.231 C 
HETATM   11  O3  UNL     1     -64.208 -18.676 -22.307  1.00  0.00    -0.273 OA
ATOM     12  H2  UNL     1     -61.922 -19.590 -24.410  1.00  0.00     0.163 HD
BRANCH  10  13
HETATM   13  C6  UNL     1     -61.863 -18.675 -21.924  1.00  0.00     0.091 A 
HETATM   14  C3  UNL     1     -61.708 -19.493 -20.705  1.00  0.00     0.231 A 
HETATM   15  C4  UNL     1     -61.904 -17.941 -20.647  1.00  0.00     0.055 A 
HETATM   16  C5  UNL     1     -61.491 -17.184 -21.850  1.00  0.00     0.032 A 
BRANCH  14  17
HETATM   17  C2  UNL     1     -60.337 -19.837 -20.215  1.00  0.00     0.296 C 
HETATM   18  O2  UNL     1     -60.056 -19.970 -19.002  1.00  0.00    -0.262 OA
BRANCH  17  19
HETATM   19  O1  UNL     1     -59.330 -20.018 -21.135  1.00  0.00    -0.324 OA
HETATM   20  C1  UNL     1     -58.848 -21.257 -21.591  1.00  0.00     0.213 C 
ENDBRANCH  17  19
ENDBRANCH  14  17
BRANCH  14  21
HETATM   21  N1  UNL     1     -62.751 -20.273 -20.133  1.00  0.00    -0.059 N 
ATOM     22  H13 UNL     1     -62.362 -21.049 -19.596  1.00  0.00     0.275 HD
ATOM     23  H12 UNL     1     -63.211 -19.756 -19.384  1.00  0.00     0.275 HD
ATOM     24  H11 UNL     1     -63.440 -20.616 -20.803  1.00  0.00     0.275 HD
ENDBRANCH  14  21
ENDBRANCH  10  13
ENDBRANCH   8   9
BRANCH   8  25
HETATM   25  C13 UNL     1     -63.787 -18.784 -26.134  1.00  0.00     0.168 C 
HETATM   26  N6  UNL     1     -64.732 -18.527 -26.963  1.00  0.00    -0.249 N 
ATOM     27  H6  UNL     1     -65.646 -18.951 -26.802  1.00  0.00     0.196 HD
BRANCH  25  28
HETATM   28  O5  UNL     1     -62.565 -18.198 -26.377  1.00  0.00    -0.346 OA
ATOM     29  H5  UNL     1     -62.487 -17.276 -26.591  1.00  0.00     0.219 HD
ENDBRANCH  25  28
BRANCH  26  30
HETATM   30  O6  UNL     1     -64.576 -17.708 -28.057  1.00  0.00    -0.288 OA
ATOM     31  H6  UNL     1     -65.192 -17.023 -28.289  1.00  0.00     0.244 HD
ENDBRANCH  26  30
ENDBRANCH   8  25
ENDBRANCH   6   8
BRANCH   5  32
HETATM   32  C10 UNL     1     -64.934 -22.052 -23.294  1.00  0.00     0.164 C 
BRANCH  32  33
HETATM   33  S1  UNL     1     -66.711 -21.865 -23.348  1.00  0.00    -0.127 SA
HETATM   34  C11 UNL     1     -67.270 -20.637 -22.116  1.00  0.00     0.096 C 
ENDBRANCH  32  33
ENDBRANCH   5  32
ENDBRANCH   1   5
TORSDOF 12
ENDMDL
MODEL 3
REMARK VINA RESULT: -5.120606905      2.190      2.605
REMARK  12 active torsions:
REMARK  status: ('A' for Active; 'I' for Inactive)
REMARK    1  A    between atoms: O1_2  and  C2_3 
REMARK    2  A    between atoms: C2_3  and  C3_5 
REMARK    3  A    between atoms: C3_5  and  N1_6 
REMARK    4  A    between atoms: C6_12  and  C7_13 
REMARK       I    between atoms: C7_13  and  N2_15 
REMARK    5  A    between atoms: N2_15  and  C8_17 
REMARK    6  A    between atoms: C8_17  and  C9_18 
REMARK    7  A    between atoms: C8_17  and  C13_28 
REMARK       I    between atoms: C9_18  and  N3_20 
REMARK    8  A    between atoms: N3_20  and  C10_21 
REMARK    9  A    between atoms: N3_20  and  N4_24 
REMARK   10  A    between atoms: C10_21  and  S1_22 
REMARK   11  A    between atoms: C13_28  and  O5_29 
REMARK   12  A    between atoms: N6_31  and  O6_33 
ROOT
HETATM    1  N4  UNL     1     -63.441 -24.013 -25.799  1.00  0.00    -0.227 N 
ATOM      2  H4  UNL     1     -62.757 -23.928 -26.551  1.00  0.00     0.200 HD
HETATM    3  C12 UNL     1     -63.918 -25.265 -25.421  1.00  0.00     0.198 C 
HETATM    4  N5  UNL     1     -64.304 -26.327 -25.091  1.00  0.00    -0.170 NA
ENDROOT
BRANCH   1   5
HETATM    5  N3  UNL     1     -63.918 -22.847 -25.121  1.00  0.00    -0.218 N 
HETATM    6  C9  UNL     1     -63.572 -21.599 -25.650  1.00  0.00     0.274 C 
HETATM    7  O4  UNL     1     -62.843 -21.561 -26.705  1.00  0.00    -0.268 OA
BRANCH   6   8
HETATM    8  C8  UNL     1     -63.967 -20.272 -25.097  1.00  0.00     0.256 C 
BRANCH   8   9
HETATM    9  N2  UNL     1     -62.839 -19.896 -24.226  1.00  0.00    -0.340 N 
HETATM   10  C7  UNL     1     -63.037 -19.358 -22.934  1.00  0.00     0.231 C 
HETATM   11  O3  UNL     1     -64.202 -19.179 -22.469  1.00  0.00    -0.273 OA
ATOM     12  H2  UNL     1     -61.886 -20.028 -24.566  1.00  0.00     0.163 HD
BRANCH  10  13
HETATM   13  C6  UNL     1     -61.857 -19.004 -22.124  1.00  0.00     0.091 A 
HETATM   14  C3  UNL     1     -61.710 -19.652 -20.806  1.00  0.00     0.231 A 
HETATM   15  C4  UNL     1     -61.912 -18.107 -20.955  1.00  0.00     0.055 A 
HETATM   16  C5  UNL     1     -61.492 -17.514 -22.245  1.00  0.00     0.032 A 
BRANCH  14  17
HETATM   17  C2  UNL     1     -60.341 -19.921 -20.263  1.00  0.00     0.296 C 
HETATM   18  O2  UNL     1     -60.095 -20.007 -19.039  1.00  0.00    -0.262 OA
BRANCH  17  19
HETATM   19  O1  UNL     1     -59.299 -20.082 -21.146  1.00  0.00    -0.324 OA
HETATM   20  C1  UNL     1     -58.844 -21.307 -21.664  1.00  0.00     0.213 C 
ENDBRANCH  17  19
ENDBRANCH  14  17
BRANCH  14  21
HETATM   21  N1  UNL     1     -62.755 -20.355 -20.143  1.00  0.00    -0.059 N 
ATOM     22  H13 UNL     1     -63.245 -19.736 -19.497  1.00  0.00     0.275 HD
ATOM     23  H12 UNL     1     -63.511 -20.564 -20.794  1.00  0.00     0.275 HD
ATOM     24  H11 UNL     1     -62.455 -21.203 -19.662  1.00  0.00     0.275 HD
ENDBRANCH  14  21
ENDBRANCH  10  13
ENDBRANCH   8   9
BRANCH   8  25
HETATM   25  C13 UNL     1     -64.015 -19.225 -26.133  1.00  0.00     0.168 C 
HETATM   26  N6  UNL     1     -65.082 -19.010 -26.812  1.00  0.00    -0.249 N 
ATOM     27  H6  UNL     1     -65.903 -19.583 -26.619  1.00  0.00     0.196 HD
BRANCH  25  28
HETATM   28  O5  UNL     1     -62.923 -18.436 -26.416  1.00  0.00    -0.346 OA
ATOM     29  H5  UNL     1     -62.830 -17.563 -26.053  1.00  0.00     0.219 HD
ENDBRANCH  25  28
BRANCH  26  30
HETATM   30  O6  UNL     1     -65.174 -18.045 -27.789  1.00  0.00    -0.288 OA
ATOM     31  H6  UNL     1     -64.477 -17.859 -28.407  1.00  0.00     0.244 HD
ENDBRANCH  26  30
ENDBRANCH   8  25
ENDBRANCH   6   8
BRANCH   5  32
HETATM   32  C10 UNL     1     -64.707 -23.012 -23.950  1.00  0.00     0.164 C 
BRANCH  32  33
HETATM   33  S1  UNL     1     -63.802 -23.029 -22.409  1.00  0.00    -0.127 SA
HETATM   34  C11 UNL     1     -62.005 -23.151 -22.716  1.00  0.00     0.096 C 
ENDBRANCH  32  33
ENDBRANCH   5  32
ENDBRANCH   1   5
TORSDOF 12
ENDMDL
MODEL 4
REMARK VINA RESULT: -5.055306692      3.107      6.333
REMARK  12 active torsions:
REMARK  status: ('A' for Active; 'I' for Inactive)
REMARK    1  A    between atoms: O1_2  and  C2_3 
REMARK    2  A    between atoms: C2_3  and  C3_5 
REMARK    3  A    between atoms: C3_5  and  N1_6 
REMARK    4  A    between atoms: C6_12  and  C7_13 
REMARK       I    between atoms: C7_13  and  N2_15 
REMARK    5  A    between atoms: N2_15  and  C8_17 
REMARK    6  A    between atoms: C8_17  and  C9_18 
REMARK    7  A    between atoms: C8_17  and  C13_28 
REMARK       I    between atoms: C9_18  and  N3_20 
REMARK    8  A    between atoms: N3_20  and  C10_21 
REMARK    9  A    between atoms: N3_20  and  N4_24 
REMARK   10  A    between atoms: C10_21  and  S1_22 
REMARK   11  A    between atoms: C13_28  and  O5_29 
REMARK   12  A    between atoms: N6_31  and  O6_33 
ROOT
HETATM    1  N4  UNL     1     -59.725 -21.637 -21.394  1.00  0.00    -0.227 N 
ATOM      2  H4  UNL     1     -60.064 -22.241 -20.644  1.00  0.00     0.200 HD
HETATM    3  C12 UNL     1     -58.410 -21.740 -21.838  1.00  0.00     0.198 C 
HETATM    4  N5  UNL     1     -57.304 -21.844 -22.226  1.00  0.00    -0.170 NA
ENDROOT
BRANCH   1   5
HETATM    5  N3  UNL     1     -60.597 -20.677 -21.998  1.00  0.00    -0.218 N 
HETATM    6  C9  UNL     1     -60.635 -19.393 -21.445  1.00  0.00     0.274 C 
HETATM    7  O4  UNL     1     -59.898 -19.142 -20.426  1.00  0.00    -0.268 OA
BRANCH   6   8
HETATM    8  C8  UNL     1     -61.471 -18.255 -21.925  1.00  0.00     0.256 C 
BRANCH   8   9
HETATM    9  N2  UNL     1     -62.832 -18.595 -21.474  1.00  0.00    -0.340 N 
HETATM   10  C7  UNL     1     -63.889 -18.825 -22.385  1.00  0.00     0.231 C 
HETATM   11  O3  UNL     1     -63.704 -18.751 -23.636  1.00  0.00    -0.273 OA
ATOM     12  H2  UNL     1     -63.018 -18.666 -20.473  1.00  0.00     0.163 HD
BRANCH  10  13
HETATM   13  C6  UNL     1     -65.223 -19.158 -21.856  1.00  0.00     0.091 A 
HETATM   14  C3  UNL     1     -65.952 -20.278 -22.484  1.00  0.00     0.231 A 
HETATM   15  C4  UNL     1     -66.481 -18.804 -22.539  1.00  0.00     0.055 A 
HETATM   16  C5  UNL     1     -66.021 -17.905 -21.457  1.00  0.00     0.032 A 
BRANCH  14  17
HETATM   17  C2  UNL     1     -66.886 -21.107 -21.660  1.00  0.00     0.296 C 
HETATM   18  O2  UNL     1     -66.495 -21.944 -20.816  1.00  0.00    -0.262 OA
BRANCH  17  19
HETATM   19  O1  UNL     1     -68.241 -20.948 -21.835  1.00  0.00    -0.324 OA
HETATM   20  C1  UNL     1     -69.042 -21.665 -22.741  1.00  0.00     0.213 C 
ENDBRANCH  17  19
ENDBRANCH  14  17
BRANCH  14  21
HETATM   21  N1  UNL     1     -65.597 -20.857 -23.734  1.00  0.00    -0.059 N 
ATOM     22  H13 UNL     1     -66.260 -21.589 -23.988  1.00  0.00     0.275 HD
ATOM     23  H12 UNL     1     -65.766 -20.196 -24.492  1.00  0.00     0.275 HD
ATOM     24  H11 UNL     1     -64.641 -21.212 -23.779  1.00  0.00     0.275 HD
ENDBRANCH  14  21
ENDBRANCH  10  13
ENDBRANCH   8   9
BRANCH   8  25
HETATM   25  C13 UNL     1     -61.146 -16.992 -21.240  1.00  0.00     0.168 C 
HETATM   26  N6  UNL     1     -62.050 -16.311 -20.636  1.00  0.00    -0.249 N 
ATOM     27  H6  UNL     1     -63.006 -16.665 -20.639  1.00  0.00     0.196 HD
BRANCH  25  28
HETATM   28  O5  UNL     1     -59.865 -16.489 -21.219  1.00  0.00    -0.346 OA
ATOM     29  H5  UNL     1     -59.593 -15.842 -20.578  1.00  0.00     0.219 HD
ENDBRANCH  25  28
BRANCH  26  30
HETATM   30  O6  UNL     1     -61.795 -15.127 -19.984  1.00  0.00    -0.288 OA
ATOM     31  H6  UNL     1     -62.068 -14.954 -19.090  1.00  0.00     0.244 HD
ENDBRANCH  26  30
ENDBRANCH   8  25
ENDBRANCH   6   8
BRANCH   5  32
HETATM   32  C10 UNL     1     -61.380 -21.074 -23.117  1.00  0.00     0.164 C 
BRANCH  32  33
HETATM   33  S1  UNL     1     -62.563 -22.377 -22.804  1.00  0.00    -0.127 SA
HETATM   34  C11 UNL     1     -61.758 -24.016 -22.893  1.00  0.00     0.096 C 
ENDBRANCH  32  33
ENDBRANCH   5  32
ENDBRANCH   1   5
TORSDOF 12
ENDMDL
MODEL 5
REMARK VINA RESULT: -5.040621123      2.645      4.412
REMARK  12 active torsions:
REMARK  status: ('A' for Active; 'I' for Inactive)
REMARK    1  A    between atoms: O1_2  and  C2_3 
REMARK    2  A    between atoms: C2_3  and  C3_5 
REMARK    3  A    between atoms: C3_5  and  N1_6 
REMARK    4  A    between atoms: C6_12  and  C7_13 
REMARK       I    between atoms: C7_13  and  N2_15 
REMARK    5  A    between atoms: N2_15  and  C8_17 
REMARK    6  A    between atoms: C8_17  and  C9_18 
REMARK    7  A    between atoms: C8_17  and  C13_28 
REMARK       I    between atoms: C9_18  and  N3_20 
REMARK    8  A    between atoms: N3_20  and  C10_21 
REMARK    9  A    between atoms: N3_20  and  N4_24 
REMARK   10  A    between atoms: C10_21  and  S1_22 
REMARK   11  A    between atoms: C13_28  and  O5_29 
REMARK   12  A    between atoms: N6_31  and  O6_33 
ROOT
HETATM    1  N4  UNL     1     -67.284 -21.284 -21.550  1.00  0.00    -0.227 N 
ATOM      2  H4  UNL     1     -67.196 -21.096 -20.551  1.00  0.00     0.200 HD
HETATM    3  C12 UNL     1     -68.535 -21.270 -22.160  1.00  0.00     0.198 C 
HETATM    4  N5  UNL     1     -69.591 -21.237 -22.677  1.00  0.00    -0.170 NA
ENDROOT
BRANCH   1   5
HETATM    5  N3  UNL     1     -66.122 -21.564 -22.337  1.00  0.00    -0.218 N 
HETATM    6  C9  UNL     1     -65.372 -22.698 -22.010  1.00  0.00     0.274 C 
HETATM    7  O4  UNL     1     -65.755 -23.423 -21.023  1.00  0.00    -0.268 OA
BRANCH   6   8
HETATM    8  C8  UNL     1     -64.136 -23.162 -22.703  1.00  0.00     0.256 C 
BRANCH   8   9
HETATM    9  N2  UNL     1     -63.043 -22.505 -21.965  1.00  0.00    -0.340 N 
HETATM   10  C7  UNL     1     -62.161 -21.592 -22.589  1.00  0.00     0.231 C 
HETATM   11  O3  UNL     1     -62.281 -21.298 -23.815  1.00  0.00    -0.273 OA
ATOM     12  H2  UNL     1     -62.918 -22.715 -20.975  1.00  0.00     0.163 HD
BRANCH  10  13
HETATM   13  C6  UNL     1     -61.090 -20.977 -21.784  1.00  0.00     0.091 A 
HETATM   14  C3  UNL     1     -61.055 -19.503 -21.699  1.00  0.00     0.231 A 
HETATM   15  C4  UNL     1     -59.904 -20.327 -22.370  1.00  0.00     0.055 A 
HETATM   16  C5  UNL     1     -59.755 -21.729 -21.918  1.00  0.00     0.032 A 
BRANCH  14  17
HETATM   17  C2  UNL     1     -60.534 -18.846 -20.459  1.00  0.00     0.296 C 
HETATM   18  O2  UNL     1     -60.415 -19.444 -19.366  1.00  0.00    -0.262 OA
BRANCH  17  19
HETATM   19  O1  UNL     1     -60.168 -17.521 -20.517  1.00  0.00    -0.324 OA
HETATM   20  C1  UNL     1     -60.981 -16.429 -20.169  1.00  0.00     0.213 C 
ENDBRANCH  17  19
ENDBRANCH  14  17
BRANCH  14  21
HETATM   21  N1  UNL     1     -61.784 -18.638 -22.562  1.00  0.00    -0.059 N 
ATOM     22  H13 UNL     1     -61.145 -18.077 -23.125  1.00  0.00     0.275 HD
ATOM     23  H12 UNL     1     -62.241 -19.175 -23.298  1.00  0.00     0.275 HD
ATOM     24  H11 UNL     1     -62.459 -18.039 -22.087  1.00  0.00     0.275 HD
ENDBRANCH  14  21
ENDBRANCH  10  13
ENDBRANCH   8   9
BRANCH   8  25
HETATM   25  C13 UNL     1     -63.902 -24.606 -22.525  1.00  0.00     0.168 C 
HETATM   26  N6  UNL     1     -62.935 -25.039 -21.802  1.00  0.00    -0.249 N 
ATOM     27  H6  UNL     1     -62.327 -24.358 -21.348  1.00  0.00     0.196 HD
BRANCH  25  28
HETATM   28  O5  UNL     1     -64.706 -25.549 -23.125  1.00  0.00    -0.346 OA
ATOM     29  H5  UNL     1     -64.413 -26.443 -23.258  1.00  0.00     0.219 HD
ENDBRANCH  25  28
BRANCH  26  30
HETATM   30  O6  UNL     1     -62.677 -26.376 -21.607  1.00  0.00    -0.288 OA
ATOM     31  H6  UNL     1     -62.878 -27.046 -22.251  1.00  0.00     0.244 HD
ENDBRANCH  26  30
ENDBRANCH   8  25
ENDBRANCH   6   8
BRANCH   5  32
HETATM   32  C10 UNL     1     -65.786 -20.679 -23.398  1.00  0.00     0.164 C 
BRANCH  32  33
HETATM   33  S1  UNL     1     -65.414 -19.000 -22.911  1.00  0.00    -0.127 SA
HETATM   34  C11 UNL     1     -66.899 -17.944 -23.040  1.00  0.00     0.096 C 
ENDBRANCH  32  33
ENDBRANCH   5  32
ENDBRANCH   1   5
TORSDOF 12
ENDMDL
