MODEL 1
REMARK VINA RESULT: -3.923817098      0.000      0.000
REMARK  2 active torsions:
REMARK  status: ('A' for Active; 'I' for Inactive)
REMARK    1  A    between atoms: C3_3  and  N1_4 
REMARK    2  A    between atoms: N1_4  and  C4_6 
ROOT
HETATM    1  C1  UNL     1     -93.796   6.289 -19.639  1.00  0.00     0.018 C 
HETATM    2  C2  UNL     1     -94.958   6.572 -19.785  1.00  0.00    -0.072 C 
HETATM    3  C3  UNL     1     -96.397   6.935 -19.943  1.00  0.00     0.153 C 
ENDROOT
BRANCH   3   4
HETATM    4  N1  UNL     1     -96.489   8.221 -20.408  1.00  0.00    -0.344 N 
ATOM      5  H1  UNL     1     -96.321   8.159 -21.412  1.00  0.00     0.167 HD
BRANCH   4   6
HETATM    6  C4  UNL     1     -96.679   9.407 -20.184  1.00  0.00     0.126 A 
HETATM    7  N2  UNL     1     -97.954   9.847 -19.862  1.00  0.00    -0.351 N 
HETATM    8  C5  UNL     1     -98.173  11.116 -19.619  1.00  0.00     0.090 A 
ATOM      9  H2  UNL     1     -98.724   9.181 -19.814  1.00  0.00     0.166 HD
HETATM   10  C6  UNL     1     -97.217  12.107 -19.655  1.00  0.00     0.019 A 
HETATM   11  C7  UNL     1     -95.936  11.719 -19.971  1.00  0.00     0.028 A 
HETATM   12  C8  UNL     1     -95.696  10.360 -20.231  1.00  0.00     0.088 A 
HETATM   13  C9  UNL     1     -94.334  10.031 -20.554  1.00  0.00     0.103 C 
HETATM   14  N3  UNL     1     -93.216   9.797 -20.815  1.00  0.00    -0.191 NA
ENDBRANCH   4   6
ENDBRANCH   3   4
TORSDOF 2
ENDMDL
MODEL 2
REMARK VINA RESULT: -3.893184954      1.531      3.045
REMARK  2 active torsions:
REMARK  status: ('A' for Active; 'I' for Inactive)
REMARK    1  A    between atoms: C3_3  and  N1_4 
REMARK    2  A    between atoms: N1_4  and  C4_6 
ROOT
HETATM    1  C1  UNL     1     -94.447   5.807 -19.716  1.00  0.00     0.018 C 
HETATM    2  C2  UNL     1     -93.803   6.824 -19.661  1.00  0.00    -0.072 C 
HETATM    3  C3  UNL     1     -93.007   8.085 -19.618  1.00  0.00     0.153 C 
ENDROOT
BRANCH   3   4
HETATM    4  N1  UNL     1     -93.852   9.157 -19.737  1.00  0.00    -0.344 N 
ATOM      5  H1  UNL     1     -94.217   9.321 -18.798  1.00  0.00     0.167 HD
BRANCH   4   6
HETATM    6  C4  UNL     1     -94.374  10.009 -20.440  1.00  0.00     0.126 A 
HETATM    7  N2  UNL     1     -93.600  11.035 -20.961  1.00  0.00    -0.351 N 
HETATM    8  C5  UNL     1     -94.146  11.956 -21.717  1.00  0.00     0.090 A 
ATOM      9  H2  UNL     1     -92.602  11.072 -20.755  1.00  0.00     0.166 HD
HETATM   10  C6  UNL     1     -95.478  12.012 -22.062  1.00  0.00     0.019 A 
HETATM   11  C7  UNL     1     -96.287  11.016 -21.568  1.00  0.00     0.028 A 
HETATM   12  C8  UNL     1     -95.706  10.026 -20.759  1.00  0.00     0.088 A 
HETATM   13  C9  UNL     1     -96.615   9.018 -20.279  1.00  0.00     0.103 C 
HETATM   14  N3  UNL     1     -97.380   8.215 -19.905  1.00  0.00    -0.191 NA
ENDBRANCH   4   6
ENDBRANCH   3   4
TORSDOF 2
ENDMDL
MODEL 3
REMARK VINA RESULT: -3.837278670      2.504      3.085
REMARK  2 active torsions:
REMARK  status: ('A' for Active; 'I' for Inactive)
REMARK    1  A    between atoms: C3_3  and  N1_4 
REMARK    2  A    between atoms: N1_4  and  C4_6 
ROOT
HETATM    1  C1  UNL     1     -91.546   8.065 -19.667  1.00  0.00     0.018 C 
HETATM    2  C2  UNL     1     -92.542   7.387 -19.650  1.00  0.00    -0.072 C 
HETATM    3  C3  UNL     1     -93.770   6.541 -19.607  1.00  0.00     0.153 C 
ENDROOT
BRANCH   3   4
HETATM    4  N1  UNL     1     -94.734   7.181 -18.873  1.00  0.00    -0.344 N 
ATOM      5  H1  UNL     1     -95.494   6.506 -18.778  1.00  0.00     0.167 HD
BRANCH   4   6
HETATM    6  C4  UNL     1     -95.112   8.179 -18.279  1.00  0.00     0.126 A 
HETATM    7  N2  UNL     1     -94.876   8.296 -16.917  1.00  0.00    -0.351 N 
HETATM    8  C5  UNL     1     -95.275   9.361 -16.267  1.00  0.00     0.090 A 
ATOM      9  H2  UNL     1     -94.390   7.549 -16.421  1.00  0.00     0.166 HD
HETATM   10  C6  UNL     1     -95.939  10.430 -16.826  1.00  0.00     0.019 A 
HETATM   11  C7  UNL     1     -96.197  10.360 -18.175  1.00  0.00     0.028 A 
HETATM   12  C8  UNL     1     -95.771   9.221 -18.877  1.00  0.00     0.088 A 
HETATM   13  C9  UNL     1     -96.076   9.219 -20.283  1.00  0.00     0.103 C 
HETATM   14  N3  UNL     1     -96.340   9.249 -21.423  1.00  0.00    -0.191 NA
ENDBRANCH   4   6
ENDBRANCH   3   4
TORSDOF 2
ENDMDL
MODEL 4
REMARK VINA RESULT: -3.771431296      3.481      4.524
REMARK  2 active torsions:
REMARK  status: ('A' for Active; 'I' for Inactive)
REMARK    1  A    between atoms: C3_3  and  N1_4 
REMARK    2  A    between atoms: N1_4  and  C4_6 
ROOT
HETATM    1  C1  UNL     1     -94.453   5.885 -19.752  1.00  0.00     0.018 C 
HETATM    2  C2  UNL     1     -93.704   6.826 -19.678  1.00  0.00    -0.072 C 
HETATM    3  C3  UNL     1     -92.794   8.006 -19.596  1.00  0.00     0.153 C 
ENDROOT
BRANCH   3   4
HETATM    4  N1  UNL     1     -93.157   8.784 -18.528  1.00  0.00    -0.344 N 
ATOM      5  H1  UNL     1     -93.005   9.747 -18.831  1.00  0.00     0.167 HD
BRANCH   4   6
HETATM    6  C4  UNL     1     -93.577   8.866 -17.384  1.00  0.00     0.126 A 
HETATM    7  N2  UNL     1     -92.701   8.710 -16.321  1.00  0.00    -0.351 N 
HETATM    8  C5  UNL     1     -93.137   8.796 -15.088  1.00  0.00     0.090 A 
ATOM      9  H2  UNL     1     -91.713   8.528 -16.499  1.00  0.00     0.166 HD
HETATM   10  C6  UNL     1     -94.443   9.037 -14.723  1.00  0.00     0.019 A 
HETATM   11  C7  UNL     1     -95.350   9.197 -15.743  1.00  0.00     0.028 A 
HETATM   12  C8  UNL     1     -94.888   9.107 -17.067  1.00  0.00     0.088 A 
HETATM   13  C9  UNL     1     -95.894   9.285 -18.079  1.00  0.00     0.103 C 
HETATM   14  N3  UNL     1     -96.737   9.434 -18.878  1.00  0.00    -0.191 NA
ENDBRANCH   4   6
ENDBRANCH   3   4
TORSDOF 2
ENDMDL
MODEL 5
REMARK VINA RESULT: -3.763809125      3.439      5.636
REMARK  2 active torsions:
REMARK  status: ('A' for Active; 'I' for Inactive)
REMARK    1  A    between atoms: C3_3  and  N1_4 
REMARK    2  A    between atoms: N1_4  and  C4_6 
ROOT
HETATM    1  C1  UNL     1     -94.335   5.918 -19.688  1.00  0.00     0.018 C 
HETATM    2  C2  UNL     1     -94.178   7.111 -19.625  1.00  0.00    -0.072 C 
HETATM    3  C3  UNL     1     -93.974   8.586 -19.524  1.00  0.00     0.153 C 
ENDROOT
BRANCH   3   4
HETATM    4  N1  UNL     1     -92.649   8.873 -19.719  1.00  0.00    -0.344 N 
ATOM      5  H1  UNL     1     -92.350   9.360 -18.873  1.00  0.00     0.167 HD
BRANCH   4   6
HETATM    6  C4  UNL     1     -91.656   8.821 -20.429  1.00  0.00     0.126 A 
HETATM    7  N2  UNL     1     -91.625   9.538 -21.616  1.00  0.00    -0.351 N 
HETATM    8  C5  UNL     1     -90.568   9.491 -22.388  1.00  0.00     0.090 A 
ATOM      9  H2  UNL     1     -92.429  10.104 -21.888  1.00  0.00     0.166 HD
HETATM   10  C6  UNL     1     -89.427   8.765 -22.128  1.00  0.00     0.019 A 
HETATM   11  C7  UNL     1     -89.410   8.036 -20.963  1.00  0.00     0.028 A 
HETATM   12  C8  UNL     1     -90.541   8.083 -20.131  1.00  0.00     0.088 A 
HETATM   13  C9  UNL     1     -90.450   7.295 -18.931  1.00  0.00     0.103 C 
HETATM   14  N3  UNL     1     -90.345   6.643 -17.964  1.00  0.00    -0.191 NA
ENDBRANCH   4   6
ENDBRANCH   3   4
TORSDOF 2
ENDMDL
