MODEL 1
REMARK VINA RESULT: -4.226540792      0.000      0.000
REMARK  1 active torsions:
REMARK  status: ('A' for Active; 'I' for Inactive)
REMARK    1  A    between atoms: N1_5  and  C5_6 
ROOT
HETATM    1  C5  UNL     1     -97.489  10.603 -20.233  1.00  0.00     0.703 A 
HETATM    2  N2  UNL     1     -98.561  10.913 -19.482  1.00  0.00    -0.185 N 
ATOM      3  H2  UNL     1     -98.864  10.394 -18.658  1.00  0.00     0.185 HD
HETATM    4  C6  UNL     1     -99.169  11.991 -19.964  1.00  0.00     0.215 A 
HETATM    5  N3  UNL     1     -98.467  12.376 -21.048  1.00  0.00    -0.281 N 
ATOM      6  H3  UNL     1     -98.681  13.176 -21.643  1.00  0.00     0.188 HD
HETATM    7  N4  UNL     1     -97.452  11.541 -21.213  1.00  0.00    -0.131 N 
ATOM      8  H4  UNL     1     -96.756  11.594 -21.956  1.00  0.00     0.205 HD
ENDROOT
BRANCH   1   9
HETATM    9  N1  UNL     1     -96.566   9.519 -20.054  1.00  0.00    -0.167 N 
HETATM   10  C4  UNL     1     -95.273   9.717 -19.793  1.00  0.00     0.115 A 
HETATM   11  C3  UNL     1     -94.388   8.670 -19.623  1.00  0.00     0.025 A 
HETATM   12  C2  UNL     1     -94.812   7.358 -19.716  1.00  0.00    -0.059 A 
HETATM   13  C1  UNL     1     -93.872   6.214 -19.535  1.00  0.00     0.048 C 
HETATM   14  C8  UNL     1     -96.153   7.164 -19.986  1.00  0.00     0.025 A 
HETATM   15  C7  UNL     1     -96.994   8.247 -20.148  1.00  0.00     0.115 A 
ENDBRANCH   1   9
TORSDOF 1
ENDMDL
MODEL 2
REMARK VINA RESULT: -4.225801723      1.267      1.368
REMARK  1 active torsions:
REMARK  status: ('A' for Active; 'I' for Inactive)
REMARK    1  A    between atoms: N1_5  and  C5_6 
ROOT
HETATM    1  C5  UNL     1     -97.631  10.477 -18.959  1.00  0.00     0.703 A 
HETATM    2  N2  UNL     1     -97.590  11.466 -18.047  1.00  0.00    -0.185 N 
ATOM      3  H2  UNL     1     -96.884  11.555 -17.317  1.00  0.00     0.185 HD
HETATM    4  C6  UNL     1     -98.599  12.309 -18.231  1.00  0.00     0.215 A 
HETATM    5  N3  UNL     1     -99.300  11.846 -19.287  1.00  0.00    -0.281 N 
ATOM      6  H3  UNL     1    -100.138  12.274 -19.679  1.00  0.00     0.188 HD
HETATM    7  N4  UNL     1     -98.718  10.741 -19.727  1.00  0.00    -0.131 N 
ATOM      8  H4  UNL     1     -99.036  10.179 -20.517  1.00  0.00     0.205 HD
ENDROOT
BRANCH   1   9
HETATM    9  N1  UNL     1     -96.729   9.371 -19.107  1.00  0.00    -0.167 N 
HETATM   10  C4  UNL     1     -95.650   9.221 -18.337  1.00  0.00     0.115 A 
HETATM   11  C3  UNL     1     -94.785   8.155 -18.483  1.00  0.00     0.025 A 
HETATM   12  C2  UNL     1     -95.004   7.187 -19.444  1.00  0.00    -0.059 A 
HETATM   13  C1  UNL     1     -94.082   6.028 -19.618  1.00  0.00     0.048 C 
HETATM   14  C8  UNL     1     -96.125   7.351 -20.235  1.00  0.00     0.025 A 
HETATM   15  C7  UNL     1     -96.957   8.436 -20.048  1.00  0.00     0.115 A 
ENDBRANCH   1   9
TORSDOF 1
ENDMDL
MODEL 3
REMARK VINA RESULT: -4.197739865      1.269      1.806
REMARK  1 active torsions:
REMARK  status: ('A' for Active; 'I' for Inactive)
REMARK    1  A    between atoms: N1_5  and  C5_6 
ROOT
HETATM    1  C5  UNL     1     -97.578  10.492 -19.009  1.00  0.00     0.703 A 
HETATM    2  N2  UNL     1     -97.400  11.558 -18.208  1.00  0.00    -0.185 N 
ATOM      3  H2  UNL     1     -96.598  11.696 -17.593  1.00  0.00     0.185 HD
HETATM    4  C6  UNL     1     -98.414  12.406 -18.331  1.00  0.00     0.215 A 
HETATM    5  N3  UNL     1     -99.259  11.866 -19.233  1.00  0.00    -0.281 N 
ATOM      6  H3  UNL     1    -100.138  12.278 -19.546  1.00  0.00     0.188 HD
HETATM    7  N4  UNL     1     -98.757  10.712 -19.644  1.00  0.00    -0.131 N 
ATOM      8  H4  UNL     1     -99.187  10.089 -20.327  1.00  0.00     0.205 HD
ENDROOT
BRANCH   1   9
HETATM    9  N1  UNL     1     -96.718   9.355 -19.174  1.00  0.00    -0.167 N 
HETATM   10  C4  UNL     1     -96.947   8.414 -20.092  1.00  0.00     0.115 A 
HETATM   11  C3  UNL     1     -96.117   7.321 -20.248  1.00  0.00     0.025 A 
HETATM   12  C2  UNL     1     -95.002   7.155 -19.449  1.00  0.00    -0.059 A 
HETATM   13  C1  UNL     1     -94.094   5.982 -19.601  1.00  0.00     0.048 C 
HETATM   14  C8  UNL     1     -94.774   8.136 -18.502  1.00  0.00     0.025 A 
HETATM   15  C7  UNL     1     -95.636   9.208 -18.388  1.00  0.00     0.115 A 
ENDBRANCH   1   9
TORSDOF 1
ENDMDL
MODEL 4
REMARK VINA RESULT: -4.135047507      1.157      1.352
REMARK  1 active torsions:
REMARK  status: ('A' for Active; 'I' for Inactive)
REMARK    1  A    between atoms: N1_5  and  C5_6 
ROOT
HETATM    1  C5  UNL     1     -97.458  10.599 -19.085  1.00  0.00     0.703 A 
HETATM    2  N2  UNL     1     -98.657  10.832 -19.649  1.00  0.00    -0.185 N 
ATOM      3  H2  UNL     1     -99.155  10.174 -20.248  1.00  0.00     0.185 HD
HETATM    4  C6  UNL     1     -99.099  12.039 -19.317  1.00  0.00     0.215 A 
HETATM    5  N3  UNL     1     -98.159  12.587 -18.521  1.00  0.00    -0.281 N 
ATOM      6  H3  UNL     1     -98.203  13.515 -18.099  1.00  0.00     0.188 HD
HETATM    7  N4  UNL     1     -97.168  11.721 -18.380  1.00  0.00    -0.131 N 
ATOM      8  H4  UNL     1     -96.323  11.873 -17.829  1.00  0.00     0.205 HD
ENDROOT
BRANCH   1   9
HETATM    9  N1  UNL     1     -96.643   9.423 -19.192  1.00  0.00    -0.167 N 
HETATM   10  C4  UNL     1     -95.592   9.208 -18.399  1.00  0.00     0.115 A 
HETATM   11  C3  UNL     1     -94.809   8.074 -18.506  1.00  0.00     0.025 A 
HETATM   12  C2  UNL     1     -95.087   7.104 -19.450  1.00  0.00    -0.059 A 
HETATM   13  C1  UNL     1     -94.254   5.874 -19.581  1.00  0.00     0.048 C 
HETATM   14  C8  UNL     1     -96.178   7.337 -20.266  1.00  0.00     0.025 A 
HETATM   15  C7  UNL     1     -96.926   8.487 -20.117  1.00  0.00     0.115 A 
ENDBRANCH   1   9
TORSDOF 1
ENDMDL
MODEL 5
REMARK VINA RESULT: -4.051626312      3.958      6.404
REMARK  1 active torsions:
REMARK  status: ('A' for Active; 'I' for Inactive)
REMARK    1  A    between atoms: N1_5  and  C5_6 
ROOT
HETATM    1  C5  UNL     1     -91.510   7.522 -19.525  1.00  0.00     0.703 A 
HETATM    2  N2  UNL     1     -90.541   7.843 -20.401  1.00  0.00    -0.185 N 
ATOM      3  H2  UNL     1     -90.698   8.299 -21.299  1.00  0.00     0.185 HD
HETATM    4  C6  UNL     1     -89.352   7.484 -19.931  1.00  0.00     0.215 A 
HETATM    5  N3  UNL     1     -89.569   6.919 -18.726  1.00  0.00    -0.281 N 
ATOM      6  H3  UNL     1     -88.852   6.538 -18.109  1.00  0.00     0.188 HD
HETATM    7  N4  UNL     1     -90.870   6.940 -18.478  1.00  0.00    -0.131 N 
ATOM      8  H4  UNL     1     -91.318   6.579 -17.637  1.00  0.00     0.205 HD
ENDROOT
BRANCH   1   9
HETATM    9  N1  UNL     1     -92.923   7.737 -19.648  1.00  0.00    -0.167 N 
HETATM   10  C4  UNL     1     -93.799   6.731 -19.685  1.00  0.00     0.115 A 
HETATM   11  C3  UNL     1     -95.158   6.944 -19.804  1.00  0.00     0.025 A 
HETATM   12  C2  UNL     1     -95.673   8.223 -19.890  1.00  0.00    -0.059 A 
HETATM   13  C1  UNL     1     -97.138   8.473 -20.020  1.00  0.00     0.048 C 
HETATM   14  C8  UNL     1     -94.758   9.257 -19.850  1.00  0.00     0.025 A 
HETATM   15  C7  UNL     1     -93.409   8.989 -19.731  1.00  0.00     0.115 A 
ENDBRANCH   1   9
TORSDOF 1
ENDMDL
