MODEL 1
REMARK VINA RESULT: -8.055805550      0.000      0.000
REMARK  1 active torsions:
REMARK  status: ('A' for Active; 'I' for Inactive)
REMARK    1  A    between atoms: C3_4  and  C4_5 
ROOT
HETATM    1  C4  UNL     1      16.724  28.426  24.027  1.00  0.00     0.132 A 
HETATM    2  N1  UNL     1      16.443  27.591  23.049  1.00  0.00    -0.291 N 
ATOM      3  H1  UNL     1      16.099  26.660  23.282  1.00  0.00     0.187 HD
HETATM    4  N2  UNL     1      16.590  27.915  21.772  1.00  0.00    -0.251 N 
ATOM      5  H2  UNL     1      16.359  27.226  21.056  1.00  0.00     0.191 HD
HETATM    6  C5  UNL     1      17.034  29.124  21.396  1.00  0.00     0.341 A 
HETATM    7  O2  UNL     1      17.189  29.483  20.187  1.00  0.00    -0.245 OA
HETATM    8  N3  UNL     1      17.328  29.997  22.377  1.00  0.00    -0.272 N 
ATOM      9  H3  UNL     1      17.666  30.924  22.120  1.00  0.00     0.173 HD
HETATM   10  C6  UNL     1      17.195  29.702  23.664  1.00  0.00     0.278 A 
HETATM   11  O3  UNL     1      17.489  30.559  24.542  1.00  0.00    -0.265 OA
ENDROOT
BRANCH   1  12
HETATM   12  C3  UNL     1      16.632  28.162  25.457  1.00  0.00     0.072 A 
HETATM   13  C2  UNL     1      17.734  27.872  26.230  1.00  0.00     0.095 A 
HETATM   14  C1  UNL     1      17.576  27.625  27.584  1.00  0.00     0.260 A 
HETATM   15  O1  UNL     1      18.553  27.357  28.314  1.00  0.00    -0.267 OA
HETATM   16  N5  UNL     1      16.354  27.662  28.179  1.00  0.00    -0.264 N 
HETATM   17  N4  UNL     1      15.319  27.940  27.426  1.00  0.00    -0.263 N 
ATOM     18  H5  UNL     1      16.247  27.480  29.177  1.00  0.00     0.190 HD
HETATM   19  C7  UNL     1      15.414  28.192  26.089  1.00  0.00     0.272 A 
ATOM     20  H4  UNL     1      14.397  27.968  27.861  1.00  0.00     0.190 HD
HETATM   21  O4  UNL     1      14.395  28.459  25.398  1.00  0.00    -0.266 OA
ENDBRANCH   1  12
TORSDOF 1
ENDMDL
MODEL 2
REMARK VINA RESULT: -7.725568531      1.457      5.004
REMARK  1 active torsions:
REMARK  status: ('A' for Active; 'I' for Inactive)
REMARK    1  A    between atoms: C3_4  and  C4_5 
ROOT
HETATM    1  C4  UNL     1      16.706  28.369  25.554  1.00  0.00     0.132 A 
HETATM    2  N1  UNL     1      16.941  27.195  26.101  1.00  0.00    -0.291 N 
ATOM      3  H1  UNL     1      16.806  26.355  25.539  1.00  0.00     0.187 HD
HETATM    4  N2  UNL     1      17.347  27.063  27.356  1.00  0.00    -0.251 N 
ATOM      5  H2  UNL     1      17.510  26.128  27.728  1.00  0.00     0.191 HD
HETATM    6  C5  UNL     1      17.548  28.126  28.149  1.00  0.00     0.341 A 
HETATM    7  O2  UNL     1      17.938  28.052  29.356  1.00  0.00    -0.245 OA
HETATM    8  N3  UNL     1      17.316  29.339  27.614  1.00  0.00    -0.272 N 
ATOM      9  H3  UNL     1      17.462  30.165  28.194  1.00  0.00     0.173 HD
HETATM   10  C6  UNL     1      16.906  29.504  26.362  1.00  0.00     0.278 A 
HETATM   11  O3  UNL     1      16.701  30.665  25.913  1.00  0.00    -0.265 OA
ENDROOT
BRANCH   1  12
HETATM   12  C3  UNL     1      16.228  28.624  24.202  1.00  0.00     0.072 A 
HETATM   13  C2  UNL     1      17.078  28.890  23.152  1.00  0.00     0.095 A 
HETATM   14  C1  UNL     1      16.557  29.130  21.890  1.00  0.00     0.260 A 
HETATM   15  O1  UNL     1      17.299  29.376  20.917  1.00  0.00    -0.267 OA
HETATM   16  N5  UNL     1      15.218  29.111  21.655  1.00  0.00    -0.264 N 
HETATM   17  N4  UNL     1      14.427  28.857  22.667  1.00  0.00    -0.263 N 
ATOM     18  H5  UNL     1      14.843  29.287  20.724  1.00  0.00     0.190 HD
HETATM   19  C7  UNL     1      14.882  28.612  23.929  1.00  0.00     0.272 A 
ATOM     20  H4  UNL     1      13.420  28.842  22.503  1.00  0.00     0.190 HD
HETATM   21  O4  UNL     1      14.089  28.368  24.877  1.00  0.00    -0.266 OA
ENDBRANCH   1  12
TORSDOF 1
ENDMDL
MODEL 3
REMARK VINA RESULT: -7.469248888      1.989      5.139
REMARK  1 active torsions:
REMARK  status: ('A' for Active; 'I' for Inactive)
REMARK    1  A    between atoms: C3_4  and  C4_5 
ROOT
HETATM    1  C4  UNL     1      16.500  28.273  25.641  1.00  0.00     0.132 A 
HETATM    2  N1  UNL     1      17.094  27.132  25.919  1.00  0.00    -0.291 N 
ATOM      3  H1  UNL     1      16.987  26.352  25.270  1.00  0.00     0.187 HD
HETATM    4  N2  UNL     1      17.826  26.958  27.009  1.00  0.00    -0.251 N 
ATOM      5  H2  UNL     1      18.261  26.050  27.175  1.00  0.00     0.191 HD
HETATM    6  C5  UNL     1      18.012  27.942  27.901  1.00  0.00     0.341 A 
HETATM    7  O2  UNL     1      18.706  27.826  28.959  1.00  0.00    -0.245 OA
HETATM    8  N3  UNL     1      17.416  29.120  27.641  1.00  0.00    -0.272 N 
ATOM      9  H3  UNL     1      17.540  29.887  28.301  1.00  0.00     0.173 HD
HETATM   10  C6  UNL     1      16.674  29.325  26.560  1.00  0.00     0.278 A 
HETATM   11  O3  UNL     1      16.135  30.450  26.367  1.00  0.00    -0.265 OA
ENDROOT
BRANCH   1  12
HETATM   12  C3  UNL     1      15.649  28.560  24.494  1.00  0.00     0.072 A 
HETATM   13  C2  UNL     1      14.274  28.575  24.575  1.00  0.00     0.095 A 
HETATM   14  C1  UNL     1      13.522  28.850  23.445  1.00  0.00     0.260 A 
HETATM   15  O1  UNL     1      12.274  28.870  23.483  1.00  0.00    -0.267 OA
HETATM   16  N5  UNL     1      14.106  29.110  22.245  1.00  0.00    -0.264 N 
HETATM   17  N4  UNL     1      15.414  29.091  22.188  1.00  0.00    -0.263 N 
ATOM     18  H5  UNL     1      13.545  29.313  21.418  1.00  0.00     0.190 HD
HETATM   19  C7  UNL     1      16.205  28.828  23.268  1.00  0.00     0.272 A 
ATOM     20  H4  UNL     1      15.864  29.282  21.293  1.00  0.00     0.190 HD
HETATM   21  O4  UNL     1      17.462  28.821  23.175  1.00  0.00    -0.266 OA
ENDBRANCH   1  12
TORSDOF 1
ENDMDL
MODEL 4
REMARK VINA RESULT: -7.091934879      1.106      1.995
REMARK  1 active torsions:
REMARK  status: ('A' for Active; 'I' for Inactive)
REMARK    1  A    between atoms: C3_4  and  C4_5 
ROOT
HETATM    1  C4  UNL     1      16.622  28.373  24.176  1.00  0.00     0.132 A 
HETATM    2  N1  UNL     1      16.508  27.604  23.114  1.00  0.00    -0.291 N 
ATOM      3  H1  UNL     1      16.221  26.633  23.239  1.00  0.00     0.187 HD
HETATM    4  N2  UNL     1      16.749  28.044  21.887  1.00  0.00    -0.251 N 
ATOM      5  H2  UNL     1      16.648  27.402  21.101  1.00  0.00     0.191 HD
HETATM    6  C5  UNL     1      17.125  29.309  21.651  1.00  0.00     0.341 A 
HETATM    7  O2  UNL     1      17.366  29.779  20.496  1.00  0.00    -0.245 OA
HETATM    8  N3  UNL     1      17.248  30.118  22.720  1.00  0.00    -0.272 N 
ATOM      9  H3  UNL     1      17.532  31.086  22.570  1.00  0.00     0.173 HD
HETATM   10  C6  UNL     1      17.017  29.707  23.961  1.00  0.00     0.278 A 
HETATM   11  O3  UNL     1      17.152  30.507  24.927  1.00  0.00    -0.265 OA
ENDROOT
BRANCH   1  12
HETATM   12  C3  UNL     1      16.414  27.984  25.564  1.00  0.00     0.072 A 
HETATM   13  C2  UNL     1      15.170  27.981  26.156  1.00  0.00     0.095 A 
HETATM   14  C1  UNL     1      15.042  27.606  27.483  1.00  0.00     0.260 A 
HETATM   15  O1  UNL     1      13.930  27.593  28.050  1.00  0.00    -0.267 OA
HETATM   16  N5  UNL     1      16.118  27.236  28.228  1.00  0.00    -0.264 N 
HETATM   17  N4  UNL     1      17.292  27.247  27.647  1.00  0.00    -0.263 N 
ATOM     18  H5  UNL     1      16.015  26.961  29.204  1.00  0.00     0.190 HD
HETATM   19  C7  UNL     1      17.478  27.605  26.344  1.00  0.00     0.272 A 
ATOM     20  H4  UNL     1      18.107  26.973  28.197  1.00  0.00     0.190 HD
HETATM   21  O4  UNL     1      18.624  27.600  25.820  1.00  0.00    -0.266 OA
ENDBRANCH   1  12
TORSDOF 1
ENDMDL
MODEL 5
REMARK VINA RESULT: -7.008114815      1.657      5.352
REMARK  1 active torsions:
REMARK  status: ('A' for Active; 'I' for Inactive)
REMARK    1  A    between atoms: C3_4  and  C4_5 
ROOT
HETATM    1  C4  UNL     1      16.408  27.926  25.021  1.00  0.00     0.132 A 
HETATM    2  N1  UNL     1      17.193  27.222  25.809  1.00  0.00    -0.291 N 
ATOM      3  H1  UNL     1      18.174  27.111  25.552  1.00  0.00     0.187 HD
HETATM    4  N2  UNL     1      16.757  26.652  26.923  1.00  0.00    -0.251 N 
ATOM      5  H2  UNL     1      17.410  26.115  27.493  1.00  0.00     0.191 HD
HETATM    6  C5  UNL     1      15.481  26.762  27.321  1.00  0.00     0.341 A 
HETATM    7  O2  UNL     1      15.016  26.237  28.380  1.00  0.00    -0.245 OA
HETATM    8  N3  UNL     1      14.657  27.478  26.534  1.00  0.00    -0.272 N 
ATOM      9  H3  UNL     1      13.681  27.578  26.812  1.00  0.00     0.173 HD
HETATM   10  C6  UNL     1      15.061  28.058  25.411  1.00  0.00     0.278 A 
HETATM   11  O3  UNL     1      14.244  28.715  24.709  1.00  0.00    -0.265 OA
ENDROOT
BRANCH   1  12
HETATM   12  C3  UNL     1      16.774  28.564  23.763  1.00  0.00     0.072 A 
HETATM   13  C2  UNL     1      16.543  27.976  22.539  1.00  0.00     0.095 A 
HETATM   14  C1  UNL     1      16.921  28.633  21.380  1.00  0.00     0.260 A 
HETATM   15  O1  UNL     1      16.729  28.128  20.254  1.00  0.00    -0.267 OA
HETATM   16  N5  UNL     1      17.518  29.855  21.414  1.00  0.00    -0.264 N 
HETATM   17  N4  UNL     1      17.728  30.396  22.587  1.00  0.00    -0.263 N 
ATOM     18  H5  UNL     1      17.792  30.332  20.556  1.00  0.00     0.190 HD
HETATM   19  C7  UNL     1      17.376  29.797  23.761  1.00  0.00     0.272 A 
ATOM     20  H4  UNL     1      18.176  31.312  22.625  1.00  0.00     0.190 HD
HETATM   21  O4  UNL     1      17.593  30.351  24.871  1.00  0.00    -0.266 OA
ENDBRANCH   1  12
TORSDOF 1
ENDMDL
