MODEL 1
REMARK VINA RESULT: -6.954022810      0.000      0.000
REMARK  7 active torsions:
REMARK  status: ('A' for Active; 'I' for Inactive)
REMARK    1  A    between atoms: C2_2  and  S1_3 
REMARK    2  A    between atoms: S1_3  and  C3_4 
REMARK    3  A    between atoms: C3_4  and  C4_5 
REMARK    4  A    between atoms: C7_9  and  N1_10 
REMARK    5  A    between atoms: C8_11  and  N2_12 
REMARK    6  A    between atoms: C11_23  and  N6_24 
REMARK    7  A    between atoms: C14_30  and  N8_31 
ROOT
HETATM    1  N1  UNL     1      36.277  14.470 -23.327  1.00  0.00    -0.136 N 
HETATM    2  C8  UNL     1      37.445  14.181 -22.668  1.00  0.00     0.682 A 
HETATM    3  N3  UNL     1      37.832  15.191 -21.894  1.00  0.00    -0.174 N 
ATOM      4  H3  UNL     1      38.668  15.211 -21.309  1.00  0.00     0.186 HD
HETATM    5  C9  UNL     1      36.947  16.161 -22.014  1.00  0.00     0.153 A 
HETATM    6  N4  UNL     1      36.889  17.384 -21.441  1.00  0.00    -0.336 N 
ATOM      7  H4  UNL     1      37.611  17.690 -20.790  1.00  0.00     0.168 HD
HETATM    8  C10 UNL     1      35.854  18.184 -21.752  1.00  0.00     0.183 A 
HETATM    9  N5  UNL     1      34.903  17.791 -22.604  1.00  0.00    -0.337 N 
ATOM     10  H5  UNL     1      34.132  18.423 -22.819  1.00  0.00     0.168 HD
HETATM   11  C11 UNL     1      34.947  16.558 -23.193  1.00  0.00     0.131 A 
HETATM   12  C12 UNL     1      35.992  15.715 -22.897  1.00  0.00     0.142 A 
ENDROOT
BRANCH   1  13
HETATM   13  C7  UNL     1      35.624  13.601 -24.211  1.00  0.00     0.417 C 
HETATM   14  C6  UNL     1      35.130  12.309 -23.676  1.00  0.00     0.193 C 
HETATM   15  C4  UNL     1      34.612  11.630 -24.891  1.00  0.00     0.086 C 
HETATM   16  O1  UNL     1      35.177  11.975 -22.516  1.00  0.00    -0.293 OA
HETATM   17  C5  UNL     1      33.213  12.211 -25.120  1.00  0.00     0.028 C 
HETATM   18  C14 UNL     1      35.479  12.161 -25.979  1.00  0.00     0.436 C 
HETATM   19  N7  UNL     1      36.193  13.307 -25.488  1.00  0.00     0.147 N 
HETATM   20  C13 UNL     1      36.204  14.412 -26.399  1.00  0.00     0.316 C 
BRANCH  15  21
HETATM   21  C3  UNL     1      34.568  10.144 -24.754  1.00  0.00     0.095 C 
BRANCH  21  22
HETATM   22  S1  UNL     1      33.201   9.457 -25.665  1.00  0.00    -0.168 SA
BRANCH  22  23
HETATM   23  C2  UNL     1      33.651   8.798 -27.274  1.00  0.00     0.069 C 
HETATM   24  C1  UNL     1      33.600   7.302 -27.346  1.00  0.00     0.016 C 
ENDBRANCH  22  23
ENDBRANCH  21  22
ENDBRANCH  15  21
BRANCH  18  25
HETATM   25  N8  UNL     1      36.351  11.153 -26.535  1.00  0.00    -0.046 N 
ATOM     26  H83 UNL     1      37.275  11.189 -26.104  1.00  0.00     0.276 HD
ATOM     27  H82 UNL     1      36.068  10.219 -26.238  1.00  0.00     0.276 HD
ATOM     28  H81 UNL     1      36.418  11.210 -27.551  1.00  0.00     0.276 HD
ENDBRANCH  18  25
ENDBRANCH   1  13
BRANCH   2  29
HETATM   29  N2  UNL     1      38.135  13.092 -22.743  1.00  0.00    -0.234 N 
ATOM     30  H22 UNL     1      37.737  12.194 -22.467  1.00  0.00     0.174 HD
ATOM     31  H21 UNL     1      39.099  12.993 -23.063  1.00  0.00     0.174 HD
ENDBRANCH   2  29
BRANCH  11  32
HETATM   32  N6  UNL     1      34.034  16.219 -23.996  1.00  0.00    -0.383 N 
ATOM     33  H62 UNL     1      34.221  15.597 -24.782  1.00  0.00     0.157 HD
ATOM     34  H61 UNL     1      33.087  16.573 -23.860  1.00  0.00     0.157 HD
ENDBRANCH  11  32
TORSDOF 7
ENDMDL
MODEL 2
REMARK VINA RESULT: -6.809455989      3.047      7.082
REMARK  7 active torsions:
REMARK  status: ('A' for Active; 'I' for Inactive)
REMARK    1  A    between atoms: C2_2  and  S1_3 
REMARK    2  A    between atoms: S1_3  and  C3_4 
REMARK    3  A    between atoms: C3_4  and  C4_5 
REMARK    4  A    between atoms: C7_9  and  N1_10 
REMARK    5  A    between atoms: C8_11  and  N2_12 
REMARK    6  A    between atoms: C11_23  and  N6_24 
REMARK    7  A    between atoms: C14_30  and  N8_31 
ROOT
HETATM    1  N1  UNL     1      35.212  13.598 -24.380  1.00  0.00    -0.136 N 
HETATM    2  C8  UNL     1      34.904  14.145 -25.600  1.00  0.00     0.682 A 
HETATM    3  N3  UNL     1      34.185  13.309 -26.344  1.00  0.00    -0.174 N 
ATOM      4  H3  UNL     1      33.838  13.492 -27.286  1.00  0.00     0.186 HD
HETATM    5  C9  UNL     1      33.998  12.203 -25.651  1.00  0.00     0.153 A 
HETATM    6  N4  UNL     1      33.340  11.064 -25.961  1.00  0.00    -0.336 N 
ATOM      7  H4  UNL     1      32.879  10.955 -26.864  1.00  0.00     0.168 HD
HETATM    8  C10 UNL     1      33.310  10.077 -25.047  1.00  0.00     0.183 A 
HETATM    9  N5  UNL     1      33.911  10.209 -23.862  1.00  0.00    -0.337 N 
ATOM     10  H5  UNL     1      33.870   9.442 -23.191  1.00  0.00     0.168 HD
HETATM   11  C11 UNL     1      34.581  11.355 -23.532  1.00  0.00     0.131 A 
HETATM   12  C12 UNL     1      34.631  12.383 -24.444  1.00  0.00     0.142 A 
ENDROOT
BRANCH   1  13
HETATM   13  C7  UNL     1      35.957  14.240 -23.383  1.00  0.00     0.417 C 
HETATM   14  C6  UNL     1      35.395  15.473 -22.783  1.00  0.00     0.193 C 
HETATM   15  C4  UNL     1      36.482  15.919 -21.875  1.00  0.00     0.086 C 
HETATM   16  O1  UNL     1      34.305  15.932 -23.031  1.00  0.00    -0.293 OA
HETATM   17  C5  UNL     1      36.323  15.080 -20.603  1.00  0.00     0.028 C 
HETATM   18  C14 UNL     1      37.717  15.438 -22.553  1.00  0.00     0.436 C 
HETATM   19  N7  UNL     1      37.351  14.493 -23.572  1.00  0.00     0.147 N 
HETATM   20  C13 UNL     1      38.168  13.318 -23.588  1.00  0.00     0.316 C 
BRANCH  15  21
HETATM   21  C3  UNL     1      36.427  17.381 -21.572  1.00  0.00     0.095 C 
BRANCH  21  22
HETATM   22  S1  UNL     1      36.308  17.668 -19.820  1.00  0.00    -0.168 SA
BRANCH  22  23
HETATM   23  C2  UNL     1      36.855  19.301 -19.307  1.00  0.00     0.069 C 
HETATM   24  C1  UNL     1      36.707  19.549 -17.836  1.00  0.00     0.016 C 
ENDBRANCH  22  23
ENDBRANCH  21  22
ENDBRANCH  15  21
BRANCH  18  25
HETATM   25  N8  UNL     1      38.530  16.519 -23.057  1.00  0.00    -0.046 N 
ATOM     26  H83 UNL     1      38.901  16.299 -23.982  1.00  0.00     0.276 HD
ATOM     27  H82 UNL     1      37.957  17.327 -23.299  1.00  0.00     0.276 HD
ATOM     28  H81 UNL     1      39.279  16.779 -22.415  1.00  0.00     0.276 HD
ENDBRANCH  18  25
ENDBRANCH   1  13
BRANCH   2  29
HETATM   29  N2  UNL     1      35.237  15.314 -26.038  1.00  0.00    -0.234 N 
ATOM     30  H22 UNL     1      34.712  16.147 -25.773  1.00  0.00     0.174 HD
ATOM     31  H21 UNL     1      36.012  15.541 -26.662  1.00  0.00     0.174 HD
ENDBRANCH   2  29
BRANCH  11  32
HETATM   32  N6  UNL     1      35.141  11.446 -22.405  1.00  0.00    -0.383 N 
ATOM     33  H62 UNL     1      36.156  11.434 -22.312  1.00  0.00     0.157 HD
ATOM     34  H61 UNL     1      34.569  11.533 -21.565  1.00  0.00     0.157 HD
ENDBRANCH  11  32
TORSDOF 7
ENDMDL
MODEL 3
REMARK VINA RESULT: -6.647150172      3.095      6.169
REMARK  7 active torsions:
REMARK  status: ('A' for Active; 'I' for Inactive)
REMARK    1  A    between atoms: C2_2  and  S1_3 
REMARK    2  A    between atoms: S1_3  and  C3_4 
REMARK    3  A    between atoms: C3_4  and  C4_5 
REMARK    4  A    between atoms: C7_9  and  N1_10 
REMARK    5  A    between atoms: C8_11  and  N2_12 
REMARK    6  A    between atoms: C11_23  and  N6_24 
REMARK    7  A    between atoms: C14_30  and  N8_31 
ROOT
HETATM    1  N1  UNL     1      35.846  11.277 -24.202  1.00  0.00    -0.136 N 
HETATM    2  C8  UNL     1      36.413  10.104 -23.770  1.00  0.00     0.682 A 
HETATM    3  N3  UNL     1      35.526   9.114 -23.741  1.00  0.00    -0.174 N 
ATOM      4  H3  UNL     1      35.711   8.152 -23.455  1.00  0.00     0.186 HD
HETATM    5  C9  UNL     1      34.365   9.592 -24.147  1.00  0.00     0.153 A 
HETATM    6  N4  UNL     1      33.162   8.993 -24.292  1.00  0.00    -0.336 N 
ATOM      7  H4  UNL     1      33.041   8.005 -24.075  1.00  0.00     0.168 HD
HETATM    8  C10 UNL     1      32.131   9.736 -24.731  1.00  0.00     0.183 A 
HETATM    9  N5  UNL     1      32.280  11.032 -25.018  1.00  0.00    -0.337 N 
ATOM     10  H5  UNL     1      31.477  11.567 -25.348  1.00  0.00     0.168 HD
HETATM   11  C11 UNL     1      33.489  11.654 -24.876  1.00  0.00     0.131 A 
HETATM   12  C12 UNL     1      34.565  10.923 -24.429  1.00  0.00     0.142 A 
ENDROOT
BRANCH   1  13
HETATM   13  C7  UNL     1      36.530  12.491 -24.339  1.00  0.00     0.417 C 
HETATM   14  C6  UNL     1      36.214  13.578 -23.382  1.00  0.00     0.193 C 
HETATM   15  C4  UNL     1      37.026  14.710 -23.893  1.00  0.00     0.086 C 
HETATM   16  O1  UNL     1      35.465  13.476 -22.439  1.00  0.00    -0.293 OA
HETATM   17  C5  UNL     1      38.440  14.477 -23.352  1.00  0.00     0.028 C 
HETATM   18  C14 UNL     1      37.083  14.460 -25.360  1.00  0.00     0.436 C 
HETATM   19  N7  UNL     1      36.646  13.116 -25.619  1.00  0.00     0.147 N 
HETATM   20  C13 UNL     1      37.476  12.410 -26.548  1.00  0.00     0.316 C 
BRANCH  15  21
HETATM   21  C3  UNL     1      36.498  16.044 -23.476  1.00  0.00     0.095 C 
BRANCH  21  22
HETATM   22  S1  UNL     1      37.286  16.607 -21.984  1.00  0.00    -0.168 SA
BRANCH  22  23
HETATM   23  C2  UNL     1      36.248  16.499 -20.521  1.00  0.00     0.069 C 
HETATM   24  C1  UNL     1      36.594  15.350 -19.622  1.00  0.00     0.016 C 
ENDBRANCH  22  23
ENDBRANCH  21  22
ENDBRANCH  15  21
BRANCH  18  25
HETATM   25  N8  UNL     1      36.349  15.444 -26.120  1.00  0.00    -0.046 N 
ATOM     26  H83 UNL     1      36.328  15.201 -27.110  1.00  0.00     0.276 HD
ATOM     27  H82 UNL     1      35.350  15.393 -25.918  1.00  0.00     0.276 HD
ATOM     28  H81 UNL     1      36.704  16.391 -25.982  1.00  0.00     0.276 HD
ENDBRANCH  18  25
ENDBRANCH   1  13
BRANCH   2  29
HETATM   29  N2  UNL     1      37.641   9.914 -23.419  1.00  0.00    -0.234 N 
ATOM     30  H22 UNL     1      38.408  10.378 -23.905  1.00  0.00     0.174 HD
ATOM     31  H21 UNL     1      37.981   9.318 -22.664  1.00  0.00     0.174 HD
ENDBRANCH   2  29
BRANCH  11  32
HETATM   32  N6  UNL     1      33.596  12.880 -25.153  1.00  0.00    -0.383 N 
ATOM     33  H62 UNL     1      34.462  13.268 -25.525  1.00  0.00     0.157 HD
ATOM     34  H61 UNL     1      32.802  13.501 -25.003  1.00  0.00     0.157 HD
ENDBRANCH  11  32
TORSDOF 7
ENDMDL
MODEL 4
REMARK VINA RESULT: -6.643270362      2.690      3.767
REMARK  7 active torsions:
REMARK  status: ('A' for Active; 'I' for Inactive)
REMARK    1  A    between atoms: C2_2  and  S1_3 
REMARK    2  A    between atoms: S1_3  and  C3_4 
REMARK    3  A    between atoms: C3_4  and  C4_5 
REMARK    4  A    between atoms: C7_9  and  N1_10 
REMARK    5  A    between atoms: C8_11  and  N2_12 
REMARK    6  A    between atoms: C11_23  and  N6_24 
REMARK    7  A    between atoms: C14_30  and  N8_31 
ROOT
HETATM    1  N1  UNL     1      35.712  14.438 -23.824  1.00  0.00    -0.136 N 
HETATM    2  C8  UNL     1      34.798  14.904 -24.735  1.00  0.00     0.682 A 
HETATM    3  N3  UNL     1      34.386  16.132 -24.431  1.00  0.00    -0.174 N 
ATOM      4  H3  UNL     1      33.710  16.685 -24.957  1.00  0.00     0.186 HD
HETATM    5  C9  UNL     1      35.005  16.510 -23.329  1.00  0.00     0.153 A 
HETATM    6  N4  UNL     1      34.932  17.658 -22.621  1.00  0.00    -0.336 N 
ATOM      7  H4  UNL     1      34.319  18.417 -22.918  1.00  0.00     0.168 HD
HETATM    8  C10 UNL     1      35.689  17.774 -21.515  1.00  0.00     0.183 A 
HETATM    9  N5  UNL     1      36.494  16.785 -21.117  1.00  0.00    -0.337 N 
ATOM     10  H5  UNL     1      37.055  16.904 -20.274  1.00  0.00     0.168 HD
HETATM   11  C11 UNL     1      36.580  15.616 -21.822  1.00  0.00     0.131 A 
HETATM   12  C12 UNL     1      35.820  15.466 -22.958  1.00  0.00     0.142 A 
ENDROOT
BRANCH   1  13
HETATM   13  C7  UNL     1      36.325  13.180 -23.880  1.00  0.00     0.417 C 
HETATM   14  C6  UNL     1      37.601  13.063 -24.626  1.00  0.00     0.193 C 
HETATM   15  C4  UNL     1      37.881  11.606 -24.565  1.00  0.00     0.086 C 
HETATM   16  O1  UNL     1      38.200  13.984 -25.127  1.00  0.00    -0.293 OA
HETATM   17  C5  UNL     1      38.518  11.369 -23.192  1.00  0.00     0.028 C 
HETATM   18  C14 UNL     1      36.524  10.995 -24.518  1.00  0.00     0.436 C 
HETATM   19  N7  UNL     1      35.563  12.020 -24.219  1.00  0.00     0.147 N 
HETATM   20  C13 UNL     1      34.601  11.636 -23.230  1.00  0.00     0.316 C 
BRANCH  15  21
HETATM   21  C3  UNL     1      38.774  11.136 -25.667  1.00  0.00     0.095 C 
BRANCH  21  22
HETATM   22  S1  UNL     1      40.046  10.059 -25.046  1.00  0.00    -0.168 SA
BRANCH  22  23
HETATM   23  C2  UNL     1      39.715   8.311 -25.303  1.00  0.00     0.069 C 
HETATM   24  C1  UNL     1      38.501   7.816 -24.577  1.00  0.00     0.016 C 
ENDBRANCH  22  23
ENDBRANCH  21  22
ENDBRANCH  15  21
BRANCH  18  25
HETATM   25  N8  UNL     1      36.205  10.260 -25.720  1.00  0.00    -0.046 N 
ATOM     26  H83 UNL     1      35.925  10.890 -26.471  1.00  0.00     0.276 HD
ATOM     27  H82 UNL     1      37.045   9.865 -26.142  1.00  0.00     0.276 HD
ATOM     28  H81 UNL     1      35.499   9.540 -25.562  1.00  0.00     0.276 HD
ENDBRANCH  18  25
ENDBRANCH   1  13
BRANCH   2  29
HETATM   29  N2  UNL     1      34.348  14.286 -25.775  1.00  0.00    -0.234 N 
ATOM     30  H22 UNL     1      34.876  13.530 -26.211  1.00  0.00     0.174 HD
ATOM     31  H21 UNL     1      33.469  14.459 -26.263  1.00  0.00     0.174 HD
ENDBRANCH   2  29
BRANCH  11  32
HETATM   32  N6  UNL     1      37.349  14.701 -21.418  1.00  0.00    -0.383 N 
ATOM     33  H62 UNL     1      38.327  14.887 -21.196  1.00  0.00     0.157 HD
ATOM     34  H61 UNL     1      36.991  13.752 -21.312  1.00  0.00     0.157 HD
ENDBRANCH  11  32
TORSDOF 7
ENDMDL
MODEL 5
REMARK VINA RESULT: -6.512704234      1.121      1.176
REMARK  7 active torsions:
REMARK  status: ('A' for Active; 'I' for Inactive)
REMARK    1  A    between atoms: C2_2  and  S1_3 
REMARK    2  A    between atoms: S1_3  and  C3_4 
REMARK    3  A    between atoms: C3_4  and  C4_5 
REMARK    4  A    between atoms: C7_9  and  N1_10 
REMARK    5  A    between atoms: C8_11  and  N2_12 
REMARK    6  A    between atoms: C11_23  and  N6_24 
REMARK    7  A    between atoms: C14_30  and  N8_31 
ROOT
HETATM    1  N1  UNL     1      36.740  15.071 -23.694  1.00  0.00    -0.136 N 
HETATM    2  C8  UNL     1      38.056  14.781 -23.432  1.00  0.00     0.682 A 
HETATM    3  N3  UNL     1      38.575  15.627 -22.546  1.00  0.00    -0.174 N 
ATOM      4  H3  UNL     1      39.533  15.613 -22.196  1.00  0.00     0.186 HD
HETATM    5  C9  UNL     1      37.635  16.486 -22.202  1.00  0.00     0.153 A 
HETATM    6  N4  UNL     1      37.661  17.530 -21.343  1.00  0.00    -0.336 N 
ATOM      7  H4  UNL     1      38.511  17.764 -20.831  1.00  0.00     0.168 HD
HETATM    8  C10 UNL     1      36.536  18.250 -21.183  1.00  0.00     0.183 A 
HETATM    9  N5  UNL     1      35.418  17.951 -21.850  1.00  0.00    -0.337 N 
ATOM     10  H5  UNL     1      34.583  18.517 -21.706  1.00  0.00     0.168 HD
HETATM   11  C11 UNL     1      35.375  16.898 -22.723  1.00  0.00     0.131 A 
HETATM   12  C12 UNL     1      36.508  16.142 -22.910  1.00  0.00     0.142 A 
ENDROOT
BRANCH   1  13
HETATM   13  C7  UNL     1      35.928  14.354 -24.583  1.00  0.00     0.417 C 
HETATM   14  C6  UNL     1      35.313  13.095 -24.099  1.00  0.00     0.193 C 
HETATM   15  C4  UNL     1      34.637  12.575 -25.314  1.00  0.00     0.086 C 
HETATM   16  O1  UNL     1      35.393  12.672 -22.971  1.00  0.00    -0.293 OA
HETATM   17  C5  UNL     1      33.309  13.334 -25.401  1.00  0.00     0.028 C 
HETATM   18  C14 UNL     1      35.490  13.077 -26.426  1.00  0.00     0.436 C 
HETATM   19  N7  UNL     1      36.371  14.090 -25.915  1.00  0.00     0.147 N 
HETATM   20  C13 UNL     1      36.460  15.250 -26.749  1.00  0.00     0.316 C 
BRANCH  15  21
HETATM   21  C3  UNL     1      34.416  11.098 -25.273  1.00  0.00     0.095 C 
BRANCH  21  22
HETATM   22  S1  UNL     1      32.808  10.708 -24.618  1.00  0.00    -0.168 SA
BRANCH  22  23
HETATM   23  C2  UNL     1      32.264   9.031 -24.962  1.00  0.00     0.069 C 
HETATM   24  C1  UNL     1      32.978   8.392 -26.115  1.00  0.00     0.016 C 
ENDBRANCH  22  23
ENDBRANCH  21  22
ENDBRANCH  15  21
BRANCH  18  25
HETATM   25  N8  UNL     1      36.192  12.016 -27.110  1.00  0.00    -0.046 N 
ATOM     26  H83 UNL     1      36.537  11.320 -26.450  1.00  0.00     0.276 HD
ATOM     27  H82 UNL     1      35.545  11.432 -27.641  1.00  0.00     0.276 HD
ATOM     28  H81 UNL     1      36.945  12.364 -27.704  1.00  0.00     0.276 HD
ENDBRANCH  18  25
ENDBRANCH   1  13
BRANCH   2  29
HETATM   29  N2  UNL     1      38.762  13.829 -23.942  1.00  0.00    -0.234 N 
ATOM     30  H22 UNL     1      38.398  13.245 -24.695  1.00  0.00     0.174 HD
ATOM     31  H21 UNL     1      39.709  13.553 -23.678  1.00  0.00     0.174 HD
ENDBRANCH   2  29
BRANCH  11  32
HETATM   32  N6  UNL     1      34.304  16.644 -23.339  1.00  0.00    -0.383 N 
ATOM     33  H62 UNL     1      33.722  17.387 -23.723  1.00  0.00     0.157 HD
ATOM     34  H61 UNL     1      34.008  15.675 -23.456  1.00  0.00     0.157 HD
ENDBRANCH  11  32
TORSDOF 7
ENDMDL
