MODEL 1
REMARK VINA RESULT: -8.130138855      0.000      0.000
REMARK  6 active torsions:
REMARK  status: ('A' for Active; 'I' for Inactive)
REMARK    1  A    between atoms: N1_1  and  C1_4 
REMARK    2  A    between atoms: C3_6  and  C4_7 
REMARK    3  A    between atoms: C4_7  and  C5_8 
REMARK    4  A    between atoms: C5_8  and  N2_9 
REMARK    5  A    between atoms: C9_18  and  N5_19 
REMARK    6  A    between atoms: C11_27  and  N8_28 
ROOT
HETATM    1  C4  UNL     1      24.260  33.080  52.760  1.00  0.00     0.078 C 
ENDROOT
BRANCH   1   2
HETATM    2  C3  UNL     1      25.281  32.114  53.241  1.00  0.00     0.031 A 
HETATM    3  C2  UNL     1      26.571  32.250  52.767  1.00  0.00     0.074 A 
HETATM    4  C1  UNL     1      27.548  31.375  53.188  1.00  0.00     0.116 A 
HETATM    5  N9  UNL     1      27.187  30.421  54.053  1.00  0.00    -0.177 N 
HETATM    6  C11 UNL     1      25.948  30.268  54.526  1.00  0.00     0.683 A 
ATOM      7  H9  UNL     1      27.904  29.769  54.371  1.00  0.00     0.185 HD
HETATM    8  N7  UNL     1      25.004  31.129  54.106  1.00  0.00    -0.195 N 
ATOM      9  H7  UNL     1      24.050  31.029  54.455  1.00  0.00     0.184 HD
BRANCH   4  10
HETATM   10  N1  UNL     1      28.742  31.532  52.725  1.00  0.00    -0.385 N 
ATOM     11  H12 UNL     1      29.579  31.112  53.126  1.00  0.00     0.157 HD
ATOM     12  H11 UNL     1      28.861  32.120  51.899  1.00  0.00     0.157 HD
ENDBRANCH   4  10
BRANCH   6  13
HETATM   13  N8  UNL     1      25.623  29.216  55.459  1.00  0.00    -0.196 N 
HETATM   14  C12 UNL     1      26.241  27.932  55.403  1.00  0.00     0.145 C 
HETATM   15  C13 UNL     1      26.716  27.573  56.793  1.00  0.00     0.047 C 
HETATM   16  C14 UNL     1      25.876  28.215  57.872  1.00  0.00     0.171 C 
HETATM   17  O2  UNL     1      24.596  28.422  57.380  1.00  0.00    -0.371 OA
HETATM   18  C15 UNL     1      24.635  29.484  56.482  1.00  0.00     0.311 C 
ENDBRANCH   6  13
ENDBRANCH   1   2
BRANCH   1  19
HETATM   19  C5  UNL     1      23.463  33.630  53.945  1.00  0.00     0.137 C 
BRANCH  19  20
HETATM   20  N2  UNL     1      22.433  34.528  53.504  1.00  0.00    -0.326 N 
HETATM   21  C6  UNL     1      22.186  34.917  52.241  1.00  0.00     0.185 A 
HETATM   22  N3  UNL     1      21.143  35.765  52.180  1.00  0.00    -0.345 N 
HETATM   23  C7  UNL     1      20.708  35.926  53.439  1.00  0.00     0.147 A 
ATOM     24  H3  UNL     1      20.759  36.200  51.341  1.00  0.00     0.167 HD
HETATM   25  C8  UNL     1      19.672  36.680  53.974  1.00  0.00     0.290 A 
HETATM   26  C10 UNL     1      21.509  35.156  54.261  1.00  0.00     0.156 A 
HETATM   27  O1  UNL     1      18.943  37.381  53.227  1.00  0.00    -0.265 OA
HETATM   28  N4  UNL     1      19.492  36.624  55.306  1.00  0.00    -0.154 N 
HETATM   29  C9  UNL     1      20.289  35.863  56.093  1.00  0.00     0.680 A 
ATOM     30  H4  UNL     1      18.740  37.166  55.731  1.00  0.00     0.187 HD
HETATM   31  N6  UNL     1      21.289  35.136  55.572  1.00  0.00    -0.174 N 
ATOM     32  H6  UNL     1      21.879  34.569  56.181  1.00  0.00     0.186 HD
BRANCH  29  33
HETATM   33  N5  UNL     1      20.064  35.856  57.344  1.00  0.00    -0.234 N 
ATOM     34  H52 UNL     1      19.204  36.253  57.721  1.00  0.00     0.174 HD
ATOM     35  H51 UNL     1      20.767  35.442  57.957  1.00  0.00     0.174 HD
ENDBRANCH  29  33
ENDBRANCH  19  20
ENDBRANCH   1  19
TORSDOF 6
ENDMDL
MODEL 2
REMARK VINA RESULT: -8.080188203      2.015      2.954
REMARK  6 active torsions:
REMARK  status: ('A' for Active; 'I' for Inactive)
REMARK    1  A    between atoms: N1_1  and  C1_4 
REMARK    2  A    between atoms: C3_6  and  C4_7 
REMARK    3  A    between atoms: C4_7  and  C5_8 
REMARK    4  A    between atoms: C5_8  and  N2_9 
REMARK    5  A    between atoms: C9_18  and  N5_19 
REMARK    6  A    between atoms: C11_27  and  N8_28 
ROOT
HETATM    1  C4  UNL     1      24.507  32.761  53.279  1.00  0.00     0.078 C 
ENDROOT
BRANCH   1   2
HETATM    2  C3  UNL     1      25.126  31.553  53.882  1.00  0.00     0.031 A 
HETATM    3  C2  UNL     1      24.499  30.984  54.974  1.00  0.00     0.074 A 
HETATM    4  C1  UNL     1      25.041  29.863  55.563  1.00  0.00     0.116 A 
HETATM    5  N9  UNL     1      26.167  29.374  55.035  1.00  0.00    -0.177 N 
HETATM    6  C11 UNL     1      26.793  29.905  53.981  1.00  0.00     0.683 A 
ATOM      7  H9  UNL     1      26.575  28.543  55.464  1.00  0.00     0.185 HD
HETATM    8  N7  UNL     1      26.254  31.000  53.416  1.00  0.00    -0.195 N 
ATOM      9  H7  UNL     1      26.717  31.422  52.611  1.00  0.00     0.184 HD
BRANCH   4  10
HETATM   10  N1  UNL     1      24.428  29.358  56.580  1.00  0.00    -0.385 N 
ATOM     11  H12 UNL     1      23.768  29.864  57.169  1.00  0.00     0.157 HD
ATOM     12  H11 UNL     1      24.615  28.383  56.815  1.00  0.00     0.157 HD
ENDBRANCH   4  10
BRANCH   6  13
HETATM   13  N8  UNL     1      28.009  29.329  53.458  1.00  0.00    -0.196 N 
HETATM   14  C12 UNL     1      29.268  29.991  53.553  1.00  0.00     0.145 C 
HETATM   15  C13 UNL     1      30.283  29.009  54.091  1.00  0.00     0.047 C 
HETATM   16  C14 UNL     1      29.947  27.580  53.731  1.00  0.00     0.171 C 
HETATM   17  O2  UNL     1      29.222  27.574  52.550  1.00  0.00    -0.371 OA
HETATM   18  C15 UNL     1      27.936  28.032  52.820  1.00  0.00     0.311 C 
ENDBRANCH   6  13
ENDBRANCH   1   2
BRANCH   1  19
HETATM   19  C5  UNL     1      23.790  33.575  54.359  1.00  0.00     0.137 C 
BRANCH  19  20
HETATM   20  N2  UNL     1      22.784  34.423  53.785  1.00  0.00    -0.326 N 
HETATM   21  C6  UNL     1      22.643  34.747  52.488  1.00  0.00     0.185 A 
HETATM   22  N3  UNL     1      21.591  35.562  52.294  1.00  0.00    -0.345 N 
HETATM   23  C7  UNL     1      21.039  35.768  53.501  1.00  0.00     0.147 A 
ATOM     24  H3  UNL     1      21.274  35.949  51.405  1.00  0.00     0.167 HD
HETATM   25  C8  UNL     1      19.942  36.517  53.904  1.00  0.00     0.290 A 
HETATM   26  C10 UNL     1      21.781  35.059  54.427  1.00  0.00     0.156 A 
HETATM   27  O1  UNL     1      19.268  37.163  53.063  1.00  0.00    -0.265 OA
HETATM   28  N4  UNL     1      19.644  36.517  55.216  1.00  0.00    -0.154 N 
HETATM   29  C9  UNL     1      20.384  35.814  56.107  1.00  0.00     0.680 A 
ATOM     30  H4  UNL     1      18.844  37.056  55.546  1.00  0.00     0.187 HD
HETATM   31  N6  UNL     1      21.444  35.092  55.712  1.00  0.00    -0.174 N 
ATOM     32  H6  UNL     1      21.989  34.569  56.398  1.00  0.00     0.186 HD
BRANCH  29  33
HETATM   33  N5  UNL     1      20.047  35.857  57.332  1.00  0.00    -0.234 N 
ATOM     34  H52 UNL     1      20.393  35.162  57.992  1.00  0.00     0.174 HD
ATOM     35  H51 UNL     1      19.423  36.606  57.632  1.00  0.00     0.174 HD
ENDBRANCH  29  33
ENDBRANCH  19  20
ENDBRANCH   1  19
TORSDOF 6
ENDMDL
MODEL 3
REMARK VINA RESULT: -7.851022248      1.747      2.184
REMARK  6 active torsions:
REMARK  status: ('A' for Active; 'I' for Inactive)
REMARK    1  A    between atoms: N1_1  and  C1_4 
REMARK    2  A    between atoms: C3_6  and  C4_7 
REMARK    3  A    between atoms: C4_7  and  C5_8 
REMARK    4  A    between atoms: C5_8  and  N2_9 
REMARK    5  A    between atoms: C9_18  and  N5_19 
REMARK    6  A    between atoms: C11_27  and  N8_28 
ROOT
HETATM    1  C4  UNL     1      24.932  34.673  54.181  1.00  0.00     0.078 C 
ENDROOT
BRANCH   1   2
HETATM    2  C3  UNL     1      25.524  33.580  53.367  1.00  0.00     0.031 A 
HETATM    3  C2  UNL     1      26.283  33.932  52.269  1.00  0.00     0.074 A 
HETATM    4  C1  UNL     1      26.849  32.949  51.488  1.00  0.00     0.116 A 
HETATM    5  N9  UNL     1      26.629  31.679  51.843  1.00  0.00    -0.177 N 
HETATM    6  C11 UNL     1      25.898  31.312  52.899  1.00  0.00     0.683 A 
ATOM      7  H9  UNL     1      27.045  30.945  51.271  1.00  0.00     0.185 HD
HETATM    8  N7  UNL     1      25.351  32.283  53.653  1.00  0.00    -0.195 N 
ATOM      9  H7  UNL     1      24.788  32.023  54.463  1.00  0.00     0.184 HD
BRANCH   4  10
HETATM   10  N1  UNL     1      27.553  33.315  50.471  1.00  0.00    -0.385 N 
ATOM     11  H12 UNL     1      28.197  34.105  50.466  1.00  0.00     0.157 HD
ATOM     12  H11 UNL     1      27.462  32.779  49.608  1.00  0.00     0.157 HD
ENDBRANCH   4  10
BRANCH   6  13
HETATM   13  N8  UNL     1      25.697  29.922  53.229  1.00  0.00    -0.196 N 
HETATM   14  C12 UNL     1      25.376  28.944  52.242  1.00  0.00     0.145 C 
HETATM   15  C13 UNL     1      26.300  27.762  52.426  1.00  0.00     0.047 C 
HETATM   16  C14 UNL     1      26.752  27.602  53.859  1.00  0.00     0.171 C 
HETATM   17  O2  UNL     1      25.781  28.128  54.696  1.00  0.00    -0.371 OA
HETATM   18  C15 UNL     1      25.831  29.516  54.612  1.00  0.00     0.311 C 
ENDBRANCH   6  13
ENDBRANCH   1   2
BRANCH   1  19
HETATM   19  C5  UNL     1      23.543  34.264  54.674  1.00  0.00     0.137 C 
BRANCH  19  20
HETATM   20  N2  UNL     1      22.552  35.230  54.291  1.00  0.00    -0.326 N 
HETATM   21  C6  UNL     1      22.696  36.227  53.401  1.00  0.00     0.185 A 
HETATM   22  N3  UNL     1      21.567  36.948  53.280  1.00  0.00    -0.345 N 
HETATM   23  C7  UNL     1      20.671  36.399  54.115  1.00  0.00     0.147 A 
ATOM     24  H3  UNL     1      21.420  37.754  52.671  1.00  0.00     0.167 HD
HETATM   25  C8  UNL     1      19.353  36.722  54.404  1.00  0.00     0.290 A 
HETATM   26  C10 UNL     1      21.284  35.331  54.743  1.00  0.00     0.156 A 
HETATM   27  O1  UNL     1      18.795  37.693  53.834  1.00  0.00    -0.265 OA
HETATM   28  N4  UNL     1      18.714  35.958  55.309  1.00  0.00    -0.154 N 
HETATM   29  C9  UNL     1      19.334  34.915  55.913  1.00  0.00     0.680 A 
ATOM     30  H4  UNL     1      17.745  36.168  55.545  1.00  0.00     0.187 HD
HETATM   31  N6  UNL     1      20.608  34.607  55.630  1.00  0.00    -0.174 N 
ATOM     32  H6  UNL     1      21.058  33.818  56.095  1.00  0.00     0.186 HD
BRANCH  29  33
HETATM   33  N5  UNL     1      18.673  34.235  56.759  1.00  0.00    -0.234 N 
ATOM     34  H52 UNL     1      17.670  34.379  56.875  1.00  0.00     0.174 HD
ATOM     35  H51 UNL     1      19.174  33.543  57.316  1.00  0.00     0.174 HD
ENDBRANCH  29  33
ENDBRANCH  19  20
ENDBRANCH   1  19
TORSDOF 6
ENDMDL
MODEL 4
REMARK VINA RESULT: -7.806696292      1.589      1.825
REMARK  6 active torsions:
REMARK  status: ('A' for Active; 'I' for Inactive)
REMARK    1  A    between atoms: N1_1  and  C1_4 
REMARK    2  A    between atoms: C3_6  and  C4_7 
REMARK    3  A    between atoms: C4_7  and  C5_8 
REMARK    4  A    between atoms: C5_8  and  N2_9 
REMARK    5  A    between atoms: C9_18  and  N5_19 
REMARK    6  A    between atoms: C11_27  and  N8_28 
ROOT
HETATM    1  C4  UNL     1      25.276  35.225  54.302  1.00  0.00     0.078 C 
ENDROOT
BRANCH   1   2
HETATM    2  C3  UNL     1      25.644  33.939  53.657  1.00  0.00     0.031 A 
HETATM    3  C2  UNL     1      26.322  33.991  52.455  1.00  0.00     0.074 A 
HETATM    4  C1  UNL     1      26.682  32.821  51.824  1.00  0.00     0.116 A 
HETATM    5  N9  UNL     1      26.350  31.672  52.422  1.00  0.00    -0.177 N 
HETATM    6  C11 UNL     1      25.696  31.595  53.584  1.00  0.00     0.683 A 
ATOM      7  H9  UNL     1      26.614  30.801  51.963  1.00  0.00     0.185 HD
HETATM    8  N7  UNL     1      25.349  32.745  54.189  1.00  0.00    -0.195 N 
ATOM      9  H7  UNL     1      24.848  32.707  55.076  1.00  0.00     0.184 HD
BRANCH   4  10
HETATM   10  N1  UNL     1      27.315  32.908  50.703  1.00  0.00    -0.385 N 
ATOM     11  H12 UNL     1      28.101  32.317  50.434  1.00  0.00     0.157 HD
ATOM     12  H11 UNL     1      27.011  33.617  50.036  1.00  0.00     0.157 HD
ENDBRANCH   4  10
BRANCH   6  13
HETATM   13  N8  UNL     1      25.366  30.321  54.178  1.00  0.00    -0.196 N 
HETATM   14  C12 UNL     1      25.749  29.082  53.586  1.00  0.00     0.145 C 
HETATM   15  C13 UNL     1      26.388  28.222  54.652  1.00  0.00     0.047 C 
HETATM   16  C14 UNL     1      25.857  28.530  56.033  1.00  0.00     0.171 C 
HETATM   17  O2  UNL     1      24.564  29.015  55.918  1.00  0.00    -0.371 OA
HETATM   18  C15 UNL     1      24.623  30.314  55.420  1.00  0.00     0.311 C 
ENDBRANCH   6  13
ENDBRANCH   1   2
BRANCH   1  19
HETATM   19  C5  UNL     1      24.015  35.041  55.150  1.00  0.00     0.137 C 
BRANCH  19  20
HETATM   20  N2  UNL     1      22.930  35.834  54.644  1.00  0.00    -0.326 N 
HETATM   21  C6  UNL     1      23.012  36.856  53.775  1.00  0.00     0.185 A 
HETATM   22  N3  UNL     1      21.802  37.380  53.512  1.00  0.00    -0.345 N 
HETATM   23  C7  UNL     1      20.915  36.674  54.232  1.00  0.00     0.147 A 
ATOM     24  H3  UNL     1      21.597  38.160  52.887  1.00  0.00     0.167 HD
HETATM   25  C8  UNL     1      19.536  36.767  54.355  1.00  0.00     0.290 A 
HETATM   26  C10 UNL     1      21.617  35.713  54.935  1.00  0.00     0.156 A 
HETATM   27  O1  UNL     1      18.896  37.640  53.717  1.00  0.00    -0.265 OA
HETATM   28  N4  UNL     1      18.930  35.891  55.177  1.00  0.00    -0.154 N 
HETATM   29  C9  UNL     1      19.637  34.957  55.857  1.00  0.00     0.680 A 
ATOM     30  H4  UNL     1      17.917  35.931  55.291  1.00  0.00     0.187 HD
HETATM   31  N6  UNL     1      20.970  34.871  55.735  1.00  0.00    -0.174 N 
ATOM     32  H6  UNL     1      21.486  34.161  56.255  1.00  0.00     0.186 HD
BRANCH  29  33
HETATM   33  N5  UNL     1      19.002  34.160  56.617  1.00  0.00    -0.234 N 
ATOM     34  H52 UNL     1      19.247  33.172  56.658  1.00  0.00     0.174 HD
ATOM     35  H51 UNL     1      18.242  34.539  57.182  1.00  0.00     0.174 HD
ENDBRANCH  29  33
ENDBRANCH  19  20
ENDBRANCH   1  19
TORSDOF 6
ENDMDL
MODEL 5
REMARK VINA RESULT: -7.764380864      2.118      2.488
REMARK  6 active torsions:
REMARK  status: ('A' for Active; 'I' for Inactive)
REMARK    1  A    between atoms: N1_1  and  C1_4 
REMARK    2  A    between atoms: C3_6  and  C4_7 
REMARK    3  A    between atoms: C4_7  and  C5_8 
REMARK    4  A    between atoms: C5_8  and  N2_9 
REMARK    5  A    between atoms: C9_18  and  N5_19 
REMARK    6  A    between atoms: C11_27  and  N8_28 
ROOT
HETATM    1  C4  UNL     1      23.698  33.474  54.717  1.00  0.00     0.078 C 
ENDROOT
BRANCH   1   2
HETATM    2  C3  UNL     1      24.714  33.003  53.741  1.00  0.00     0.031 A 
HETATM    3  C2  UNL     1      25.192  33.912  52.818  1.00  0.00     0.074 A 
HETATM    4  C1  UNL     1      26.135  33.516  51.896  1.00  0.00     0.116 A 
HETATM    5  N9  UNL     1      26.546  32.244  51.945  1.00  0.00    -0.177 N 
HETATM    6  C11 UNL     1      26.099  31.346  52.826  1.00  0.00     0.683 A 
ATOM      7  H9  UNL     1      27.244  31.942  51.266  1.00  0.00     0.185 HD
HETATM    8  N7  UNL     1      25.178  31.746  53.720  1.00  0.00    -0.195 N 
ATOM      9  H7  UNL     1      24.823  31.075  54.401  1.00  0.00     0.184 HD
BRANCH   4  10
HETATM   10  N1  UNL     1      26.560  34.392  51.050  1.00  0.00    -0.385 N 
ATOM     11  H12 UNL     1      26.458  35.400  51.160  1.00  0.00     0.157 HD
ATOM     12  H11 UNL     1      27.032  34.057  50.210  1.00  0.00     0.157 HD
ENDBRANCH   4  10
BRANCH   6  13
HETATM   13  N8  UNL     1      26.583  29.986  52.825  1.00  0.00    -0.196 N 
HETATM   14  C12 UNL     1      27.857  29.631  53.359  1.00  0.00     0.145 C 
HETATM   15  C13 UNL     1      27.672  28.448  54.282  1.00  0.00     0.047 C 
HETATM   16  C14 UNL     1      26.497  27.585  53.883  1.00  0.00     0.171 C 
HETATM   17  O2  UNL     1      26.296  27.706  52.517  1.00  0.00    -0.371 OA
HETATM   18  C15 UNL     1      25.738  28.955  52.262  1.00  0.00     0.311 C 
ENDBRANCH   6  13
ENDBRANCH   1   2
BRANCH   1  19
HETATM   19  C5  UNL     1      23.923  34.955  55.032  1.00  0.00     0.137 C 
BRANCH  19  20
HETATM   20  N2  UNL     1      22.841  35.760  54.539  1.00  0.00    -0.326 N 
HETATM   21  C6  UNL     1      22.917  36.751  53.634  1.00  0.00     0.185 A 
HETATM   22  N3  UNL     1      21.712  37.298  53.397  1.00  0.00    -0.345 N 
HETATM   23  C7  UNL     1      20.835  36.640  54.172  1.00  0.00     0.147 A 
ATOM     24  H3  UNL     1      21.504  38.063  52.755  1.00  0.00     0.167 HD
HETATM   25  C8  UNL     1      19.464  36.773  54.342  1.00  0.00     0.290 A 
HETATM   26  C10 UNL     1      21.538  35.684  54.881  1.00  0.00     0.156 A 
HETATM   27  O1  UNL     1      18.824  37.643  53.698  1.00  0.00    -0.265 OA
HETATM   28  N4  UNL     1      18.866  35.941  55.214  1.00  0.00    -0.154 N 
HETATM   29  C9  UNL     1      19.574  35.011  55.898  1.00  0.00     0.680 A 
ATOM     30  H4  UNL     1      17.860  36.012  55.362  1.00  0.00     0.187 HD
HETATM   31  N6  UNL     1      20.899  34.886  55.731  1.00  0.00    -0.174 N 
ATOM     32  H6  UNL     1      21.415  34.179  56.256  1.00  0.00     0.186 HD
BRANCH  29  33
HETATM   33  N5  UNL     1      18.947  34.257  56.707  1.00  0.00    -0.234 N 
ATOM     34  H52 UNL     1      18.316  33.534  56.362  1.00  0.00     0.174 HD
ATOM     35  H51 UNL     1      19.094  34.397  57.706  1.00  0.00     0.174 HD
ENDBRANCH  29  33
ENDBRANCH  19  20
ENDBRANCH   1  19
TORSDOF 6
ENDMDL
