MODEL 1
REMARK VINA RESULT: -7.492338032      0.000      0.000
REMARK  7 active torsions:
REMARK  status: ('A' for Active; 'I' for Inactive)
REMARK    1  A    between atoms: N1_1  and  C1_4 
REMARK    2  A    between atoms: C2_7  and  N3_8 
REMARK    3  A    between atoms: N3_8  and  C3_10 
REMARK    4  A    between atoms: C6_19  and  C7_20 
REMARK    5  A    between atoms: C7_20  and  N7_21 
REMARK    6  A    between atoms: C8_23  and  C9_24 
REMARK    7  A    between atoms: C10_25  and  C11_26 
ROOT
HETATM    1  C1  UNL     1      28.025  32.478  53.577  1.00  0.00     0.679 A 
HETATM    2  N2  UNL     1      27.418  31.447  52.962  1.00  0.00    -0.175 N 
ATOM      3  H2  UNL     1      27.912  30.559  52.867  1.00  0.00     0.186 HD
HETATM    4  C2  UNL     1      26.171  31.566  52.470  1.00  0.00     0.149 A 
HETATM    5  C5  UNL     1      25.457  32.756  52.576  1.00  0.00     0.122 A 
HETATM    6  N6  UNL     1      24.207  32.877  52.086  1.00  0.00    -0.351 N 
ATOM      7  H6  UNL     1      23.766  32.082  51.623  1.00  0.00     0.166 HD
HETATM    8  C6  UNL     1      23.536  34.041  52.202  1.00  0.00     0.043 A 
HETATM    9  C14 UNL     1      24.186  35.079  52.837  1.00  0.00     0.116 A 
HETATM   10  N8  UNL     1      25.431  34.962  53.329  1.00  0.00    -0.348 N 
ATOM     11  H8  UNL     1      25.871  35.757  53.791  1.00  0.00     0.167 HD
HETATM   12  C15 UNL     1      26.102  33.797  53.212  1.00  0.00     0.151 A 
HETATM   13  N9  UNL     1      27.352  33.637  53.690  1.00  0.00    -0.174 N 
ATOM     14  H9  UNL     1      27.804  34.424  54.156  1.00  0.00     0.186 HD
ENDROOT
BRANCH   8  15
HETATM   15  C7  UNL     1      22.151  34.210  51.669  1.00  0.00     0.177 C 
BRANCH  15  16
HETATM   16  N7  UNL     1      21.607  35.423  52.193  1.00  0.00    -0.393 N 
HETATM   17  C8  UNL     1      20.533  35.437  52.920  1.00  0.00     0.083 C 
ATOM     18  H7  UNL     1      22.078  36.304  51.989  1.00  0.00     0.159 HD
BRANCH  17  19
HETATM   19  C9  UNL     1      19.962  36.644  53.460  1.00  0.00     0.015 C 
HETATM   20  C10 UNL     1      19.307  36.615  54.595  1.00  0.00     0.006 C 
BRANCH  20  21
HETATM   21  C11 UNL     1      19.142  35.357  55.336  1.00  0.00     0.146 C 
HETATM   22  C12 UNL     1      19.993  35.181  56.560  1.00  0.00     0.062 C 
HETATM   23  C13 UNL     1      18.730  34.453  57.008  1.00  0.00     0.171 C 
HETATM   24  O2  UNL     1      18.018  35.302  56.162  1.00  0.00    -0.382 OA
ENDBRANCH  20  21
ENDBRANCH  17  19
ENDBRANCH  15  16
ENDBRANCH   8  15
BRANCH   4  25
HETATM   25  N3  UNL     1      25.564  30.600  51.878  1.00  0.00    -0.346 N 
ATOM     26  H3  UNL     1      25.389  30.633  50.874  1.00  0.00     0.163 HD
BRANCH  25  27
HETATM   27  C3  UNL     1      25.128  29.450  52.679  1.00  0.00     0.292 C 
HETATM   28  N4  UNL     1      25.531  29.484  54.054  1.00  0.00    -0.103 NA
HETATM   29  N5  UNL     1      25.770  28.091  53.971  1.00  0.00    -0.269 N 
HETATM   30  C4  UNL     1      26.057  28.294  52.593  1.00  0.00     0.273 C 
ATOM     31  H5  UNL     1      25.747  27.297  54.612  1.00  0.00     0.185 HD
HETATM   32  O1  UNL     1      26.785  27.694  51.783  1.00  0.00    -0.268 OA
ENDBRANCH  25  27
ENDBRANCH   4  25
BRANCH   1  33
HETATM   33  N1  UNL     1      29.228  32.316  54.035  1.00  0.00    -0.234 N 
ATOM     34  H12 UNL     1      29.770  31.466  53.876  1.00  0.00     0.174 HD
ATOM     35  H11 UNL     1      29.655  33.067  54.577  1.00  0.00     0.174 HD
ENDBRANCH   1  33
TORSDOF 7
ENDMDL
MODEL 2
REMARK VINA RESULT: -7.342154615      3.203      7.935
REMARK  7 active torsions:
REMARK  status: ('A' for Active; 'I' for Inactive)
REMARK    1  A    between atoms: N1_1  and  C1_4 
REMARK    2  A    between atoms: C2_7  and  N3_8 
REMARK    3  A    between atoms: N3_8  and  C3_10 
REMARK    4  A    between atoms: C6_19  and  C7_20 
REMARK    5  A    between atoms: C7_20  and  N7_21 
REMARK    6  A    between atoms: C8_23  and  C9_24 
REMARK    7  A    between atoms: C10_25  and  C11_26 
ROOT
HETATM    1  C1  UNL     1      20.010  36.928  53.752  1.00  0.00     0.679 A 
HETATM    2  N2  UNL     1      21.067  37.630  54.196  1.00  0.00    -0.175 N 
ATOM      3  H2  UNL     1      20.913  38.505  54.697  1.00  0.00     0.186 HD
HETATM    4  C2  UNL     1      22.325  37.197  53.991  1.00  0.00     0.149 A 
HETATM    5  C5  UNL     1      22.586  36.009  53.314  1.00  0.00     0.122 A 
HETATM    6  N6  UNL     1      23.845  35.574  53.109  1.00  0.00    -0.351 N 
ATOM      7  H6  UNL     1      24.633  36.121  53.454  1.00  0.00     0.166 HD
HETATM    8  C6  UNL     1      24.070  34.419  52.450  1.00  0.00     0.043 A 
HETATM    9  C14 UNL     1      22.964  33.722  52.007  1.00  0.00     0.116 A 
HETATM   10  N8  UNL     1      21.708  34.153  52.211  1.00  0.00    -0.348 N 
ATOM     11  H8  UNL     1      20.921  33.604  51.865  1.00  0.00     0.167 HD
HETATM   12  C15 UNL     1      21.483  35.309  52.870  1.00  0.00     0.151 A 
HETATM   13  N9  UNL     1      20.240  35.777  53.096  1.00  0.00    -0.174 N 
ATOM     14  H9  UNL     1      19.443  35.237  52.755  1.00  0.00     0.186 HD
ENDROOT
BRANCH   8  15
HETATM   15  C7  UNL     1      25.452  33.907  52.204  1.00  0.00     0.177 C 
BRANCH  15  16
HETATM   16  N7  UNL     1      25.376  32.509  51.922  1.00  0.00    -0.393 N 
HETATM   17  C8  UNL     1      25.865  31.617  52.726  1.00  0.00     0.083 C 
ATOM     18  H7  UNL     1      24.923  32.203  51.060  1.00  0.00     0.159 HD
BRANCH  17  19
HETATM   19  C9  UNL     1      25.802  30.201  52.467  1.00  0.00     0.015 C 
HETATM   20  C10 UNL     1      25.641  29.355  53.454  1.00  0.00     0.006 C 
BRANCH  20  21
HETATM   21  C11 UNL     1      25.521  29.829  54.839  1.00  0.00     0.146 C 
HETATM   22  C12 UNL     1      24.129  29.964  55.386  1.00  0.00     0.062 C 
HETATM   23  C13 UNL     1      24.869  29.535  56.648  1.00  0.00     0.171 C 
HETATM   24  O2  UNL     1      25.765  28.864  55.818  1.00  0.00    -0.382 OA
ENDBRANCH  20  21
ENDBRANCH  17  19
ENDBRANCH  15  16
ENDBRANCH   8  15
BRANCH   4  25
HETATM   25  N3  UNL     1      23.357  37.844  54.403  1.00  0.00    -0.346 N 
ATOM     26  H3  UNL     1      23.890  37.517  55.208  1.00  0.00     0.163 HD
BRANCH  25  27
HETATM   27  C3  UNL     1      23.751  39.063  53.688  1.00  0.00     0.292 C 
HETATM   28  N4  UNL     1      22.901  39.423  52.591  1.00  0.00    -0.103 NA
HETATM   29  N5  UNL     1      24.061  39.801  51.874  1.00  0.00    -0.269 N 
HETATM   30  C4  UNL     1      24.761  38.817  52.626  1.00  0.00     0.273 C 
ATOM     31  H5  UNL     1      24.293  40.476  51.145  1.00  0.00     0.185 HD
HETATM   32  O1  UNL     1      25.766  38.125  52.387  1.00  0.00    -0.268 OA
ENDBRANCH  25  27
ENDBRANCH   4  25
BRANCH   1  33
HETATM   33  N1  UNL     1      18.815  37.385  53.973  1.00  0.00    -0.234 N 
ATOM     34  H12 UNL     1      18.642  38.281  54.429  1.00  0.00     0.174 HD
ATOM     35  H11 UNL     1      18.012  36.828  53.681  1.00  0.00     0.174 HD
ENDBRANCH   1  33
TORSDOF 7
ENDMDL
MODEL 3
REMARK VINA RESULT: -7.339288940      3.214      5.194
REMARK  7 active torsions:
REMARK  status: ('A' for Active; 'I' for Inactive)
REMARK    1  A    between atoms: N1_1  and  C1_4 
REMARK    2  A    between atoms: C2_7  and  N3_8 
REMARK    3  A    between atoms: N3_8  and  C3_10 
REMARK    4  A    between atoms: C6_19  and  C7_20 
REMARK    5  A    between atoms: C7_20  and  N7_21 
REMARK    6  A    between atoms: C8_23  and  C9_24 
REMARK    7  A    between atoms: C10_25  and  C11_26 
ROOT
HETATM    1  C1  UNL     1      28.078  35.714  53.638  1.00  0.00     0.679 A 
HETATM    2  N2  UNL     1      27.425  36.795  53.175  1.00  0.00    -0.175 N 
ATOM      3  H2  UNL     1      27.889  37.704  53.188  1.00  0.00     0.186 HD
HETATM    4  C2  UNL     1      26.172  36.698  52.693  1.00  0.00     0.149 A 
HETATM    5  C5  UNL     1      25.499  35.481  52.653  1.00  0.00     0.122 A 
HETATM    6  N6  UNL     1      24.245  35.381  52.170  1.00  0.00    -0.351 N 
ATOM      7  H6  UNL     1      23.769  36.214  51.823  1.00  0.00     0.166 HD
HETATM    8  C6  UNL     1      23.615  34.190  52.143  1.00  0.00     0.043 A 
HETATM    9  C14 UNL     1      24.310  33.100  52.625  1.00  0.00     0.116 A 
HETATM   10  N8  UNL     1      25.561  33.195  53.107  1.00  0.00    -0.348 N 
ATOM     11  H8  UNL     1      26.037  32.362  53.453  1.00  0.00     0.167 HD
HETATM   12  C15 UNL     1      26.192  34.388  53.134  1.00  0.00     0.151 A 
HETATM   13  N9  UNL     1      27.445  34.528  53.609  1.00  0.00    -0.174 N 
ATOM     14  H9  UNL     1      27.932  33.702  53.958  1.00  0.00     0.186 HD
ENDROOT
BRANCH   8  15
HETATM   15  C7  UNL     1      22.225  34.043  51.615  1.00  0.00     0.177 C 
BRANCH  15  16
HETATM   16  N7  UNL     1      21.483  35.215  51.954  1.00  0.00    -0.393 N 
HETATM   17  C8  UNL     1      20.744  35.278  53.018  1.00  0.00     0.083 C 
ATOM     18  H7  UNL     1      21.535  36.028  51.339  1.00  0.00     0.159 HD
BRANCH  17  19
HETATM   19  C9  UNL     1      19.986  36.447  53.385  1.00  0.00     0.015 C 
HETATM   20  C10 UNL     1      19.276  36.456  54.487  1.00  0.00     0.006 C 
BRANCH  20  21
HETATM   21  C11 UNL     1      19.240  35.280  55.367  1.00  0.00     0.146 C 
HETATM   22  C12 UNL     1      20.007  35.379  56.654  1.00  0.00     0.062 C 
HETATM   23  C13 UNL     1      18.833  34.519  57.110  1.00  0.00     0.171 C 
HETATM   24  O2  UNL     1      18.074  35.144  56.122  1.00  0.00    -0.382 OA
ENDBRANCH  20  21
ENDBRANCH  17  19
ENDBRANCH  15  16
ENDBRANCH   8  15
BRANCH   4  25
HETATM   25  N3  UNL     1      25.522  37.712  52.242  1.00  0.00    -0.346 N 
ATOM     26  H3  UNL     1      25.289  37.783  51.252  1.00  0.00     0.163 HD
BRANCH  25  27
HETATM   27  C3  UNL     1      25.123  38.764  53.184  1.00  0.00     0.292 C 
HETATM   28  N4  UNL     1      25.149  38.381  54.566  1.00  0.00    -0.103 NA
HETATM   29  N5  UNL     1      23.960  39.127  54.747  1.00  0.00    -0.269 N 
HETATM   30  C4  UNL     1      23.654  38.837  53.390  1.00  0.00     0.273 C 
ATOM     31  H5  UNL     1      23.520  39.642  55.511  1.00  0.00     0.185 HD
HETATM   32  O1  UNL     1      22.582  38.724  52.769  1.00  0.00    -0.268 OA
ENDBRANCH  25  27
ENDBRANCH   4  25
BRANCH   1  33
HETATM   33  N1  UNL     1      29.284  35.856  54.094  1.00  0.00    -0.234 N 
ATOM     34  H12 UNL     1      30.113  35.623  53.546  1.00  0.00     0.174 HD
ATOM     35  H11 UNL     1      29.416  36.217  55.039  1.00  0.00     0.174 HD
ENDBRANCH   1  33
TORSDOF 7
ENDMDL
MODEL 4
REMARK VINA RESULT: -7.169068605      3.436      4.689
REMARK  7 active torsions:
REMARK  status: ('A' for Active; 'I' for Inactive)
REMARK    1  A    between atoms: N1_1  and  C1_4 
REMARK    2  A    between atoms: C2_7  and  N3_8 
REMARK    3  A    between atoms: N3_8  and  C3_10 
REMARK    4  A    between atoms: C6_19  and  C7_20 
REMARK    5  A    between atoms: C7_20  and  N7_21 
REMARK    6  A    between atoms: C8_23  and  C9_24 
REMARK    7  A    between atoms: C10_25  and  C11_26 
ROOT
HETATM    1  C1  UNL     1      28.420  35.181  53.025  1.00  0.00     0.679 A 
HETATM    2  N2  UNL     1      28.083  35.810  51.885  1.00  0.00    -0.175 N 
ATOM      3  H2  UNL     1      28.782  36.366  51.394  1.00  0.00     0.186 HD
HETATM    4  C2  UNL     1      26.838  35.717  51.382  1.00  0.00     0.149 A 
HETATM    5  C5  UNL     1      25.850  34.969  52.016  1.00  0.00     0.122 A 
HETATM    6  N6  UNL     1      24.603  34.874  51.513  1.00  0.00    -0.351 N 
ATOM      7  H6  UNL     1      24.368  35.358  50.646  1.00  0.00     0.166 HD
HETATM    8  C6  UNL     1      23.663  34.143  52.147  1.00  0.00     0.043 A 
HETATM    9  C14 UNL     1      24.041  33.511  53.314  1.00  0.00     0.116 A 
HETATM   10  N8  UNL     1      25.283  33.603  53.817  1.00  0.00    -0.348 N 
ATOM     11  H8  UNL     1      25.517  33.118  54.683  1.00  0.00     0.167 HD
HETATM   12  C15 UNL     1      26.223  34.335  53.183  1.00  0.00     0.151 A 
HETATM   13  N9  UNL     1      27.480  34.453  53.654  1.00  0.00    -0.174 N 
ATOM     14  H9  UNL     1      27.727  33.973  54.520  1.00  0.00     0.186 HD
ENDROOT
BRANCH   8  15
HETATM   15  C7  UNL     1      22.272  34.016  51.618  1.00  0.00     0.177 C 
BRANCH  15  16
HETATM   16  N7  UNL     1      21.548  35.201  51.951  1.00  0.00    -0.393 N 
HETATM   17  C8  UNL     1      20.792  35.273  53.002  1.00  0.00     0.083 C 
ATOM     18  H7  UNL     1      21.628  36.017  51.343  1.00  0.00     0.159 HD
BRANCH  17  19
HETATM   19  C9  UNL     1      20.051  36.455  53.362  1.00  0.00     0.015 C 
HETATM   20  C10 UNL     1      19.333  36.477  54.459  1.00  0.00     0.006 C 
BRANCH  20  21
HETATM   21  C11 UNL     1      19.270  35.302  55.339  1.00  0.00     0.146 C 
HETATM   22  C12 UNL     1      20.030  35.389  56.631  1.00  0.00     0.062 C 
HETATM   23  C13 UNL     1      18.838  34.550  57.080  1.00  0.00     0.171 C 
HETATM   24  O2  UNL     1      18.097  35.188  56.087  1.00  0.00    -0.382 OA
ENDBRANCH  20  21
ENDBRANCH  17  19
ENDBRANCH  15  16
ENDBRANCH   8  15
BRANCH   4  25
HETATM   25  N3  UNL     1      26.484  36.304  50.295  1.00  0.00    -0.346 N 
ATOM     26  H3  UNL     1      25.833  37.089  50.315  1.00  0.00     0.163 HD
BRANCH  25  27
HETATM   27  C3  UNL     1      27.037  35.821  49.025  1.00  0.00     0.292 C 
HETATM   28  N4  UNL     1      28.468  35.756  48.974  1.00  0.00    -0.103 NA
HETATM   29  N5  UNL     1      28.396  36.221  47.640  1.00  0.00    -0.269 N 
HETATM   30  C4  UNL     1      27.202  36.896  48.013  1.00  0.00     0.273 C 
ATOM     31  H5  UNL     1      28.953  36.119  46.790  1.00  0.00     0.185 HD
HETATM   32  O1  UNL     1      26.646  37.928  47.596  1.00  0.00    -0.268 OA
ENDBRANCH  25  27
ENDBRANCH   4  25
BRANCH   1  33
HETATM   33  N1  UNL     1      29.633  35.300  53.473  1.00  0.00    -0.234 N 
ATOM     34  H12 UNL     1      30.269  34.508  53.561  1.00  0.00     0.174 HD
ATOM     35  H11 UNL     1      29.969  36.223  53.749  1.00  0.00     0.174 HD
ENDBRANCH   1  33
TORSDOF 7
ENDMDL
MODEL 5
REMARK VINA RESULT: -7.014413219      2.644      7.358
REMARK  7 active torsions:
REMARK  status: ('A' for Active; 'I' for Inactive)
REMARK    1  A    between atoms: N1_1  and  C1_4 
REMARK    2  A    between atoms: C2_7  and  N3_8 
REMARK    3  A    between atoms: N3_8  and  C3_10 
REMARK    4  A    between atoms: C6_19  and  C7_20 
REMARK    5  A    between atoms: C7_20  and  N7_21 
REMARK    6  A    between atoms: C8_23  and  C9_24 
REMARK    7  A    between atoms: C10_25  and  C11_26 
ROOT
HETATM    1  C1  UNL     1      23.587  37.844  54.054  1.00  0.00     0.679 A 
HETATM    2  N2  UNL     1      22.664  37.036  54.604  1.00  0.00    -0.175 N 
ATOM      3  H2  UNL     1      21.954  37.434  55.219  1.00  0.00     0.186 HD
HETATM    4  C2  UNL     1      22.661  35.713  54.358  1.00  0.00     0.149 A 
HETATM    5  C5  UNL     1      23.609  35.124  53.526  1.00  0.00     0.122 A 
HETATM    6  N6  UNL     1      23.607  33.800  53.277  1.00  0.00    -0.351 N 
ATOM      7  H6  UNL     1      22.897  33.205  53.705  1.00  0.00     0.166 HD
HETATM    8  C6  UNL     1      24.536  33.255  52.467  1.00  0.00     0.043 A 
HETATM    9  C14 UNL     1      25.470  34.110  51.917  1.00  0.00     0.116 A 
HETATM   10  N8  UNL     1      25.474  35.431  52.162  1.00  0.00    -0.348 N 
ATOM     11  H8  UNL     1      26.184  36.024  51.734  1.00  0.00     0.167 HD
HETATM   12  C15 UNL     1      24.544  35.976  52.974  1.00  0.00     0.151 A 
HETATM   13  N9  UNL     1      24.513  37.295  53.246  1.00  0.00    -0.174 N 
ATOM     14  H9  UNL     1      25.217  37.901  52.824  1.00  0.00     0.186 HD
ENDROOT
BRANCH   8  15
HETATM   15  C7  UNL     1      24.564  31.791  52.169  1.00  0.00     0.177 C 
BRANCH  15  16
HETATM   16  N7  UNL     1      25.689  31.212  52.833  1.00  0.00    -0.393 N 
HETATM   17  C8  UNL     1      25.962  29.947  52.748  1.00  0.00     0.083 C 
ATOM     18  H7  UNL     1      26.296  31.813  53.391  1.00  0.00     0.159 HD
BRANCH  17  19
HETATM   19  C9  UNL     1      27.089  29.337  53.407  1.00  0.00     0.015 C 
HETATM   20  C10 UNL     1      26.945  28.784  54.586  1.00  0.00     0.006 C 
BRANCH  20  21
HETATM   21  C11 UNL     1      25.639  28.775  55.258  1.00  0.00     0.146 C 
HETATM   22  C12 UNL     1      25.600  28.199  56.644  1.00  0.00     0.062 C 
HETATM   23  C13 UNL     1      24.549  29.295  56.783  1.00  0.00     0.171 C 
HETATM   24  O2  UNL     1      25.246  29.999  55.802  1.00  0.00    -0.382 OA
ENDBRANCH  20  21
ENDBRANCH  17  19
ENDBRANCH  15  16
ENDBRANCH   8  15
BRANCH   4  25
HETATM   25  N3  UNL     1      21.792  34.914  54.868  1.00  0.00    -0.346 N 
ATOM     26  H3  UNL     1      22.083  34.145  55.471  1.00  0.00     0.163 HD
BRANCH  25  27
HETATM   27  C3  UNL     1      20.374  35.135  54.564  1.00  0.00     0.292 C 
HETATM   28  N4  UNL     1      19.899  36.463  54.821  1.00  0.00    -0.103 NA
HETATM   29  N5  UNL     1      18.698  35.891  55.304  1.00  0.00    -0.269 N 
HETATM   30  C4  UNL     1      19.471  34.759  55.682  1.00  0.00     0.273 C 
ATOM     31  H5  UNL     1      17.717  36.167  55.358  1.00  0.00     0.185 HD
HETATM   32  O1  UNL     1      19.341  33.906  56.578  1.00  0.00    -0.268 OA
ENDBRANCH  25  27
ENDBRANCH   4  25
BRANCH   1  33
HETATM   33  N1  UNL     1      23.551  39.113  54.321  1.00  0.00    -0.234 N 
ATOM     34  H12 UNL     1      22.992  39.775  53.782  1.00  0.00     0.174 HD
ATOM     35  H11 UNL     1      24.103  39.470  55.101  1.00  0.00     0.174 HD
ENDBRANCH   1  33
TORSDOF 7
ENDMDL
