MODEL 1
REMARK VINA RESULT: -5.480179008      0.000      0.000
REMARK  3 active torsions:
REMARK  status: ('A' for Active; 'I' for Inactive)
REMARK    1  A    between atoms: C2_2  and  N1_3 
REMARK    2  A    between atoms: N1_3  and  C3_4 
REMARK    3  A    between atoms: N1_3  and  C5_6 
ROOT
HETATM    1  C5  UNL     1      22.029  17.206  14.130  1.00  0.00     0.286 C 
HETATM    2  C6  UNL     1      21.143  18.398  14.375  1.00  0.00     0.055 C 
HETATM    3  C7  UNL     1      21.092  18.833  15.794  1.00  0.00     0.014 C 
HETATM    4  C8  UNL     1      22.407  18.911  16.496  1.00  0.00     0.075 C 
HETATM    5  S1  UNL     1      22.642  17.319  17.362  1.00  0.00    -0.142 SA
HETATM    6  C9  UNL     1      22.919  16.079  16.071  1.00  0.00     0.308 C 
HETATM    7  N2  UNL     1      21.858  16.139  15.073  1.00  0.00    -0.046 N 
ATOM      8  H21 UNL     1      21.759  15.244  14.595  1.00  0.00     0.280 HD
ATOM      9  H22 UNL     1      20.942  16.192  15.520  1.00  0.00     0.280 HD
ENDROOT
BRANCH   1  10
HETATM   10  N1  UNL     1      22.085  16.750  12.821  1.00  0.00    -0.367 N 
BRANCH  10  11
HETATM   11  C2  UNL     1      21.076  16.820  11.883  1.00  0.00     0.056 C 
HETATM   12  C1  UNL     1      19.808  16.072  12.097  1.00  0.00     0.054 C 
ENDBRANCH  10  11
BRANCH  10  13
HETATM   13  C3  UNL     1      23.404  16.451  12.315  1.00  0.00     0.119 C 
HETATM   14  C4  UNL     1      23.468  16.789  10.846  1.00  0.00     0.026 C 
ENDBRANCH  10  13
ENDBRANCH   1  10
TORSDOF 3
ENDMDL
MODEL 2
REMARK VINA RESULT: -5.442048776      1.172      1.972
REMARK  3 active torsions:
REMARK  status: ('A' for Active; 'I' for Inactive)
REMARK    1  A    between atoms: C2_2  and  N1_3 
REMARK    2  A    between atoms: N1_3  and  C3_4 
REMARK    3  A    between atoms: N1_3  and  C5_6 
ROOT
HETATM    1  C5  UNL     1      22.070  16.986  14.124  1.00  0.00     0.286 C 
HETATM    2  C6  UNL     1      22.726  15.972  15.022  1.00  0.00     0.055 C 
HETATM    3  C7  UNL     1      22.801  16.384  16.447  1.00  0.00     0.014 C 
HETATM    4  C8  UNL     1      21.553  16.970  17.019  1.00  0.00     0.075 C 
HETATM    5  S1  UNL     1      21.696  18.784  16.856  1.00  0.00    -0.142 SA
HETATM    6  C9  UNL     1      21.564  19.143  15.084  1.00  0.00     0.308 C 
HETATM    7  N2  UNL     1      22.514  18.334  14.331  1.00  0.00    -0.046 N 
ATOM      8  H21 UNL     1      22.747  18.780  13.444  1.00  0.00     0.280 HD
ATOM      9  H22 UNL     1      23.434  18.350  14.772  1.00  0.00     0.280 HD
ENDROOT
BRANCH   1  10
HETATM   10  N1  UNL     1      22.002  16.652  12.779  1.00  0.00    -0.367 N 
BRANCH  10  11
HETATM   11  C2  UNL     1      20.901  16.773  11.958  1.00  0.00     0.056 C 
HETATM   12  C1  UNL     1      19.686  17.484  12.441  1.00  0.00     0.054 C 
ENDBRANCH  10  11
BRANCH  10  13
HETATM   13  C3  UNL     1      23.268  16.442  12.119  1.00  0.00     0.119 C 
HETATM   14  C4  UNL     1      23.160  16.872  10.677  1.00  0.00     0.026 C 
ENDBRANCH  10  13
ENDBRANCH   1  10
TORSDOF 3
ENDMDL
MODEL 3
REMARK VINA RESULT: -5.367009228      1.237      2.689
REMARK  3 active torsions:
REMARK  status: ('A' for Active; 'I' for Inactive)
REMARK    1  A    between atoms: C2_2  and  N1_3 
REMARK    2  A    between atoms: N1_3  and  C3_4 
REMARK    3  A    between atoms: N1_3  and  C5_6 
ROOT
HETATM    1  C5  UNL     1      21.967  17.040  14.098  1.00  0.00     0.286 C 
HETATM    2  C6  UNL     1      22.632  15.980  14.934  1.00  0.00     0.055 C 
HETATM    3  C7  UNL     1      22.796  16.351  16.363  1.00  0.00     0.014 C 
HETATM    4  C8  UNL     1      21.603  16.965  17.015  1.00  0.00     0.075 C 
HETATM    5  S1  UNL     1      21.803  18.778  16.889  1.00  0.00    -0.142 SA
HETATM    6  C9  UNL     1      21.592  19.187  15.137  1.00  0.00     0.308 C 
HETATM    7  N2  UNL     1      22.471  18.366  14.314  1.00  0.00    -0.046 N 
ATOM      8  H21 UNL     1      22.673  18.827  13.427  1.00  0.00     0.280 HD
ATOM      9  H22 UNL     1      23.412  18.337  14.705  1.00  0.00     0.280 HD
ENDROOT
BRANCH   1  10
HETATM   10  N1  UNL     1      21.817  16.745  12.751  1.00  0.00    -0.367 N 
BRANCH  10  11
HETATM   11  C2  UNL     1      22.825  16.447  11.858  1.00  0.00     0.056 C 
HETATM   12  C1  UNL     1      22.859  17.108  10.526  1.00  0.00     0.054 C 
ENDBRANCH  10  11
BRANCH  10  13
HETATM   13  C3  UNL     1      20.474  16.433  12.321  1.00  0.00     0.119 C 
HETATM   14  C4  UNL     1      19.602  17.655  12.469  1.00  0.00     0.026 C 
ENDBRANCH  10  13
ENDBRANCH   1  10
TORSDOF 3
ENDMDL
MODEL 4
REMARK VINA RESULT: -5.309839426      0.283      1.876
REMARK  3 active torsions:
REMARK  status: ('A' for Active; 'I' for Inactive)
REMARK    1  A    between atoms: C2_2  and  N1_3 
REMARK    2  A    between atoms: N1_3  and  C3_4 
REMARK    3  A    between atoms: N1_3  and  C5_6 
ROOT
HETATM    1  C5  UNL     1      21.961  17.394  14.064  1.00  0.00     0.286 C 
HETATM    2  C6  UNL     1      21.021  18.500  14.461  1.00  0.00     0.055 C 
HETATM    3  C7  UNL     1      20.994  18.778  15.920  1.00  0.00     0.014 C 
HETATM    4  C8  UNL     1      22.325  18.855  16.590  1.00  0.00     0.075 C 
HETATM    5  S1  UNL     1      22.673  17.195  17.272  1.00  0.00    -0.142 SA
HETATM    6  C9  UNL     1      22.973  16.118  15.846  1.00  0.00     0.308 C 
HETATM    7  N2  UNL     1      21.878  16.224  14.890  1.00  0.00    -0.046 N 
ATOM      8  H21 UNL     1      21.811  15.381  14.320  1.00  0.00     0.280 HD
ATOM      9  H22 UNL     1      20.976  16.177  15.365  1.00  0.00     0.280 HD
ENDROOT
BRANCH   1  10
HETATM   10  N1  UNL     1      21.998  17.085  12.712  1.00  0.00    -0.367 N 
BRANCH  10  11
HETATM   11  C2  UNL     1      22.996  16.397  12.054  1.00  0.00     0.056 C 
HETATM   12  C1  UNL     1      23.395  16.799  10.679  1.00  0.00     0.054 C 
ENDBRANCH  10  11
BRANCH  10  13
HETATM   13  C3  UNL     1      20.752  17.235  11.998  1.00  0.00     0.119 C 
HETATM   14  C4  UNL     1      19.934  15.976  12.144  1.00  0.00     0.026 C 
ENDBRANCH  10  13
ENDBRANCH   1  10
TORSDOF 3
ENDMDL
MODEL 5
REMARK VINA RESULT: -4.568414010      2.233      4.640
REMARK  3 active torsions:
REMARK  status: ('A' for Active; 'I' for Inactive)
REMARK    1  A    between atoms: C2_2  and  N1_3 
REMARK    2  A    between atoms: N1_3  and  C3_4 
REMARK    3  A    between atoms: N1_3  and  C5_6 
ROOT
HETATM    1  C5  UNL     1      21.994  17.164  13.865  1.00  0.00     0.286 C 
HETATM    2  C6  UNL     1      23.255  16.482  13.408  1.00  0.00     0.055 C 
HETATM    3  C7  UNL     1      23.302  16.210  11.949  1.00  0.00     0.014 C 
HETATM    4  C8  UNL     1      22.878  17.336  11.066  1.00  0.00     0.075 C 
HETATM    5  S1  UNL     1      21.106  17.082  10.696  1.00  0.00    -0.142 SA
HETATM    6  C9  UNL     1      20.219  17.395  12.245  1.00  0.00     0.308 C 
HETATM    7  N2  UNL     1      20.789  16.602  13.326  1.00  0.00    -0.046 N 
ATOM      8  H21 UNL     1      20.101  16.444  14.062  1.00  0.00     0.280 HD
ATOM      9  H22 UNL     1      20.940  15.638  13.029  1.00  0.00     0.280 HD
ENDROOT
BRANCH   1  10
HETATM   10  N1  UNL     1      21.897  17.414  15.226  1.00  0.00    -0.367 N 
BRANCH  10  11
HETATM   11  C2  UNL     1      22.324  16.588  16.245  1.00  0.00     0.056 C 
HETATM   12  C1  UNL     1      21.967  16.900  17.655  1.00  0.00     0.054 C 
ENDBRANCH  10  11
BRANCH  10  13
HETATM   13  C3  UNL     1      21.598  18.777  15.596  1.00  0.00     0.119 C 
HETATM   14  C4  UNL     1      22.884  19.518  15.870  1.00  0.00     0.026 C 
ENDBRANCH  10  13
ENDBRANCH   1  10
TORSDOF 3
ENDMDL
