MODEL 1
REMARK VINA RESULT: -4.787156534      0.000      0.000
REMARK  2 active torsions:
REMARK  status: ('A' for Active; 'I' for Inactive)
REMARK    1  A    between atoms: N1_1  and  N2_4 
REMARK       I    between atoms: N2_4  and  C1_6 
REMARK       I    between atoms: C1_6  and  N3_8 
REMARK       I    between atoms: N3_8  and  C2_10 
REMARK    2  A    between atoms: C2_10  and  C3_12 
ROOT
HETATM    1  N2  UNL     1      14.565  -6.208  -0.122  1.00  0.00    -0.258 N 
ATOM      2  H2  UNL     1      14.233  -7.068   0.315  1.00  0.00     0.191 HD
HETATM    3  C1  UNL     1      14.707  -5.047   0.632  1.00  0.00     0.341 C 
HETATM    4  O1  UNL     1      15.130  -3.990   0.033  1.00  0.00    -0.245 OA
HETATM    5  N3  UNL     1      14.437  -4.909   1.985  1.00  0.00    -0.271 N 
ATOM      6  H3  UNL     1      14.589  -3.992   2.407  1.00  0.00     0.174 HD
HETATM    7  C2  UNL     1      13.967  -5.944   2.819  1.00  0.00     0.296 C 
HETATM    8  O2  UNL     1      13.746  -7.096   2.417  1.00  0.00    -0.264 OA
ENDROOT
BRANCH   7   9
HETATM    9  C3  UNL     1      13.707  -5.689   4.266  1.00  0.00     0.203 A 
HETATM   10  N4  UNL     1      12.569  -5.932   4.926  1.00  0.00    -0.262 N 
HETATM   11  N5  UNL     1      12.747  -5.563   6.204  1.00  0.00    -0.005 NA
ATOM     12  H4  UNL     1      11.717  -6.327   4.529  1.00  0.00     0.186 HD
HETATM   13  N6  UNL     1      13.986  -5.089   6.353  1.00  0.00    -0.225 N 
HETATM   14  N7  UNL     1      14.554  -5.173   5.171  1.00  0.00    -0.267 N 
ATOM     15  H6  UNL     1      14.408  -4.735   7.212  1.00  0.00     0.205 HD
ATOM     16  H7  UNL     1      15.511  -4.885   4.968  1.00  0.00     0.190 HD
ENDBRANCH   7   9
BRANCH   1  17
HETATM   17  N1  UNL     1      14.890  -6.185  -1.526  1.00  0.00    -0.341 N 
ATOM     18  H12 UNL     1      15.853  -6.008  -1.812  1.00  0.00     0.177 HD
ATOM     19  H11 UNL     1      14.155  -6.346  -2.213  1.00  0.00     0.177 HD
ENDBRANCH   1  17
TORSDOF 2
ENDMDL
MODEL 2
REMARK VINA RESULT: -4.605771598      3.663      4.019
REMARK  2 active torsions:
REMARK  status: ('A' for Active; 'I' for Inactive)
REMARK    1  A    between atoms: N1_1  and  N2_4 
REMARK       I    between atoms: N2_4  and  C1_6 
REMARK       I    between atoms: C1_6  and  N3_8 
REMARK       I    between atoms: N3_8  and  C2_10 
REMARK    2  A    between atoms: C2_10  and  C3_12 
ROOT
HETATM    1  N2  UNL     1      10.713  -1.512   1.978  1.00  0.00    -0.258 N 
ATOM      2  H2  UNL     1      10.012  -2.034   2.503  1.00  0.00     0.191 HD
HETATM    3  C1  UNL     1      12.067  -1.682   2.252  1.00  0.00     0.341 C 
HETATM    4  O1  UNL     1      12.911  -1.000   1.560  1.00  0.00    -0.245 OA
HETATM    5  N3  UNL     1      12.611  -2.524   3.210  1.00  0.00    -0.271 N 
ATOM      6  H3  UNL     1      13.627  -2.546   3.299  1.00  0.00     0.174 HD
HETATM    7  C2  UNL     1      11.860  -3.353   4.068  1.00  0.00     0.296 C 
HETATM    8  O2  UNL     1      10.621  -3.410   4.050  1.00  0.00    -0.264 OA
ENDROOT
BRANCH   7   9
HETATM    9  C3  UNL     1      12.545  -4.225   5.067  1.00  0.00     0.203 A 
HETATM   10  N4  UNL     1      11.957  -5.026   5.962  1.00  0.00    -0.262 N 
HETATM   11  N5  UNL     1      12.922  -5.634   6.668  1.00  0.00    -0.005 NA
ATOM     12  H4  UNL     1      10.953  -5.152   6.086  1.00  0.00     0.186 HD
HETATM   13  N6  UNL     1      14.112  -5.222   6.225  1.00  0.00    -0.225 N 
HETATM   14  N7  UNL     1      13.866  -4.369   5.256  1.00  0.00    -0.267 N 
ATOM     15  H6  UNL     1      15.028  -5.510   6.570  1.00  0.00     0.205 HD
ATOM     16  H7  UNL     1      14.584  -3.883   4.719  1.00  0.00     0.190 HD
ENDBRANCH   7   9
BRANCH   1  17
HETATM   17  N1  UNL     1      10.311  -0.591   0.944  1.00  0.00    -0.341 N 
ATOM     18  H12 UNL     1      11.025  -0.124   0.385  1.00  0.00     0.177 HD
ATOM     19  H11 UNL     1       9.318  -0.420   0.785  1.00  0.00     0.177 HD
ENDBRANCH   1  17
TORSDOF 2
ENDMDL
MODEL 3
REMARK VINA RESULT: -4.557218911      3.131      3.245
REMARK  2 active torsions:
REMARK  status: ('A' for Active; 'I' for Inactive)
REMARK    1  A    between atoms: N1_1  and  N2_4 
REMARK       I    between atoms: N2_4  and  C1_6 
REMARK       I    between atoms: C1_6  and  N3_8 
REMARK       I    between atoms: N3_8  and  C2_10 
REMARK    2  A    between atoms: C2_10  and  C3_12 
ROOT
HETATM    1  N2  UNL     1      15.736  -1.761   1.938  1.00  0.00    -0.258 N 
ATOM      2  H2  UNL     1      14.810  -1.385   2.141  1.00  0.00     0.191 HD
HETATM    3  C1  UNL     1      16.184  -2.909   2.585  1.00  0.00     0.341 C 
HETATM    4  O1  UNL     1      17.360  -3.343   2.293  1.00  0.00    -0.245 OA
HETATM    5  N3  UNL     1      15.484  -3.646   3.528  1.00  0.00    -0.271 N 
ATOM      6  H3  UNL     1      15.942  -4.470   3.920  1.00  0.00     0.174 HD
HETATM    7  C2  UNL     1      14.186  -3.339   3.983  1.00  0.00     0.296 C 
HETATM    8  O2  UNL     1      13.534  -2.364   3.579  1.00  0.00    -0.264 OA
ENDROOT
BRANCH   7   9
HETATM    9  C3  UNL     1      13.520  -4.200   5.004  1.00  0.00     0.203 A 
HETATM   10  N4  UNL     1      12.204  -4.327   5.204  1.00  0.00    -0.262 N 
HETATM   11  N5  UNL     1      12.020  -5.193   6.211  1.00  0.00    -0.005 NA
ATOM     12  H4  UNL     1      11.469  -3.848   4.682  1.00  0.00     0.186 HD
HETATM   13  N6  UNL     1      13.210  -5.613   6.648  1.00  0.00    -0.225 N 
HETATM   14  N7  UNL     1      14.108  -5.003   5.906  1.00  0.00    -0.267 N 
ATOM     15  H6  UNL     1      13.388  -6.274   7.404  1.00  0.00     0.205 HD
ATOM     16  H7  UNL     1      15.116  -5.123   6.003  1.00  0.00     0.190 HD
ENDBRANCH   7   9
BRANCH   1  17
HETATM   17  N1  UNL     1      16.592  -1.110   0.978  1.00  0.00    -0.341 N 
ATOM     18  H12 UNL     1      17.441  -0.645   1.300  1.00  0.00     0.177 HD
ATOM     19  H11 UNL     1      16.336  -1.121  -0.009  1.00  0.00     0.177 HD
ENDBRANCH   1  17
TORSDOF 2
ENDMDL
MODEL 4
REMARK VINA RESULT: -4.553634564      3.283      3.625
REMARK  2 active torsions:
REMARK  status: ('A' for Active; 'I' for Inactive)
REMARK    1  A    between atoms: N1_1  and  N2_4 
REMARK       I    between atoms: N2_4  and  C1_6 
REMARK       I    between atoms: C1_6  and  N3_8 
REMARK       I    between atoms: N3_8  and  C2_10 
REMARK    2  A    between atoms: C2_10  and  C3_12 
ROOT
HETATM    1  N2  UNL     1      16.615  -2.745   3.113  1.00  0.00    -0.258 N 
ATOM      2  H2  UNL     1      16.687  -3.753   3.253  1.00  0.00     0.191 HD
HETATM    3  C1  UNL     1      15.417  -2.085   3.369  1.00  0.00     0.341 C 
HETATM    4  O1  UNL     1      15.380  -0.813   3.178  1.00  0.00    -0.245 OA
HETATM    5  N3  UNL     1      14.240  -2.664   3.817  1.00  0.00    -0.271 N 
ATOM      6  H3  UNL     1      13.436  -2.052   3.961  1.00  0.00     0.174 HD
HETATM    7  C2  UNL     1      14.074  -4.038   4.086  1.00  0.00     0.296 C 
HETATM    8  O2  UNL     1      14.979  -4.875   3.947  1.00  0.00    -0.264 OA
ENDROOT
BRANCH   7   9
HETATM    9  C3  UNL     1      12.762  -4.561   4.566  1.00  0.00     0.203 A 
HETATM   10  N4  UNL     1      12.462  -5.836   4.836  1.00  0.00    -0.262 N 
HETATM   11  N5  UNL     1      11.183  -5.883   5.238  1.00  0.00    -0.005 NA
ATOM     12  H4  UNL     1      13.094  -6.632   4.752  1.00  0.00     0.186 HD
HETATM   13  N6  UNL     1      10.675  -4.649   5.223  1.00  0.00    -0.225 N 
HETATM   14  N7  UNL     1      11.643  -3.860   4.814  1.00  0.00    -0.267 N 
ATOM     15  H6  UNL     1       9.726  -4.373   5.477  1.00  0.00     0.205 HD
ATOM     16  H7  UNL     1      11.557  -2.850   4.700  1.00  0.00     0.190 HD
ENDBRANCH   7   9
BRANCH   1  17
HETATM   17  N1  UNL     1      17.754  -1.992   2.650  1.00  0.00    -0.341 N 
ATOM     18  H12 UNL     1      18.591  -2.489   2.346  1.00  0.00     0.177 HD
ATOM     19  H11 UNL     1      17.707  -0.974   2.632  1.00  0.00     0.177 HD
ENDBRANCH   1  17
TORSDOF 2
ENDMDL
MODEL 5
REMARK VINA RESULT: -4.547946189      3.619      3.887
REMARK  2 active torsions:
REMARK  status: ('A' for Active; 'I' for Inactive)
REMARK    1  A    between atoms: N1_1  and  N2_4 
REMARK       I    between atoms: N2_4  and  C1_6 
REMARK       I    between atoms: C1_6  and  N3_8 
REMARK       I    between atoms: N3_8  and  C2_10 
REMARK    2  A    between atoms: C2_10  and  C3_12 
ROOT
HETATM    1  N2  UNL     1      12.068  -1.496   1.785  1.00  0.00    -0.258 N 
ATOM      2  H2  UNL     1      13.007  -1.333   2.148  1.00  0.00     0.191 HD
HETATM    3  C1  UNL     1      11.266  -2.490   2.337  1.00  0.00     0.341 C 
HETATM    4  O1  UNL     1      10.089  -2.656   1.843  1.00  0.00    -0.245 OA
HETATM    5  N3  UNL     1      11.607  -3.335   3.382  1.00  0.00    -0.271 N 
ATOM      6  H3  UNL     1      10.913  -4.020   3.683  1.00  0.00     0.174 HD
HETATM    7  C2  UNL     1      12.844  -3.315   4.058  1.00  0.00     0.296 C 
HETATM    8  O2  UNL     1      13.762  -2.528   3.778  1.00  0.00    -0.264 OA
ENDROOT
BRANCH   7   9
HETATM    9  C3  UNL     1      13.112  -4.271   5.172  1.00  0.00     0.203 A 
HETATM   10  N4  UNL     1      12.199  -4.910   5.911  1.00  0.00    -0.262 N 
HETATM   11  N5  UNL     1      12.850  -5.672   6.803  1.00  0.00    -0.005 NA
ATOM     12  H4  UNL     1      11.187  -4.832   5.813  1.00  0.00     0.186 HD
HETATM   13  N6  UNL     1      14.165  -5.517   6.632  1.00  0.00    -0.225 N 
HETATM   14  N7  UNL     1      14.307  -4.666   5.641  1.00  0.00    -0.267 N 
ATOM     15  H6  UNL     1      14.910  -5.968   7.164  1.00  0.00     0.205 HD
ATOM     16  H7  UNL     1      15.205  -4.348   5.276  1.00  0.00     0.190 HD
ENDBRANCH   7   9
BRANCH   1  17
HETATM   17  N1  UNL     1      11.561  -0.700   0.696  1.00  0.00    -0.341 N 
ATOM     18  H12 UNL     1      12.213  -0.318   0.010  1.00  0.00     0.177 HD
ATOM     19  H11 UNL     1      10.558  -0.529   0.625  1.00  0.00     0.177 HD
ENDBRANCH   1  17
TORSDOF 2
ENDMDL
