MODEL 1
REMARK VINA RESULT: -3.837916873      0.000      0.000
REMARK  1 active torsions:
REMARK  status: ('A' for Active; 'I' for Inactive)
REMARK    1  A    between atoms: C6_6  and  N1_7 
ROOT
HETATM    1  C1  UNL     1      19.754   8.769  -2.782  1.00  0.00     0.015 C 
HETATM    2  C2  UNL     1      20.602   7.530  -2.709  1.00  0.00    -0.042 C 
HETATM    3  C3  UNL     1      19.862   6.376  -2.135  1.00  0.00     0.009 C 
HETATM    4  C4  UNL     1      20.255   5.042  -2.644  1.00  0.00     0.003 C 
HETATM    5  C5  UNL     1      21.594   4.936  -3.257  1.00  0.00     0.038 C 
HETATM    6  C6  UNL     1      22.158   6.192  -3.814  1.00  0.00     0.124 C 
HETATM    7  C7  UNL     1      22.940   6.887  -2.703  1.00  0.00     0.039 C 
HETATM    8  C8  UNL     1      21.934   7.791  -2.003  1.00  0.00     0.011 C 
HETATM    9  C9  UNL     1      21.108   7.236  -4.128  1.00  0.00     0.047 C 
ENDROOT
BRANCH   6  10
HETATM   10  N1  UNL     1      22.963   5.967  -4.983  1.00  0.00    -0.070 N 
ATOM     11  H13 UNL     1      23.566   6.768  -5.172  1.00  0.00     0.275 HD
ATOM     12  H12 UNL     1      23.677   5.262  -4.804  1.00  0.00     0.275 HD
ATOM     13  H11 UNL     1      22.407   5.727  -5.803  1.00  0.00     0.275 HD
ENDBRANCH   6  10
TORSDOF 1
ENDMDL
MODEL 2
REMARK VINA RESULT: -3.749366264      1.908      3.332
REMARK  1 active torsions:
REMARK  status: ('A' for Active; 'I' for Inactive)
REMARK    1  A    between atoms: C6_6  and  N1_7 
ROOT
HETATM    1  C1  UNL     1      21.802   4.708  -3.320  1.00  0.00     0.015 C 
HETATM    2  C2  UNL     1      21.602   6.192  -3.449  1.00  0.00    -0.042 C 
HETATM    3  C3  UNL     1      21.712   6.653  -4.857  1.00  0.00     0.009 C 
HETATM    4  C4  UNL     1      20.879   7.822  -5.219  1.00  0.00     0.003 C 
HETATM    5  C5  UNL     1      20.426   8.681  -4.106  1.00  0.00     0.038 C 
HETATM    6  C6  UNL     1      20.342   8.032  -2.773  1.00  0.00     0.124 C 
HETATM    7  C7  UNL     1      21.694   8.196  -2.086  1.00  0.00     0.039 C 
HETATM    8  C8  UNL     1      22.507   6.974  -2.496  1.00  0.00     0.011 C 
HETATM    9  C9  UNL     1      20.231   6.525  -2.844  1.00  0.00     0.047 C 
ENDROOT
BRANCH   6  10
HETATM   10  N1  UNL     1      19.264   8.546  -1.974  1.00  0.00    -0.070 N 
ATOM     11  H13 UNL     1      18.359   8.272  -2.359  1.00  0.00     0.275 HD
ATOM     12  H12 UNL     1      19.213   8.067  -1.076  1.00  0.00     0.275 HD
ATOM     13  H11 UNL     1      19.316   9.557  -1.848  1.00  0.00     0.275 HD
ENDBRANCH   6  10
TORSDOF 1
ENDMDL
MODEL 3
REMARK VINA RESULT: -3.716015535      1.612      2.755
REMARK  1 active torsions:
REMARK  status: ('A' for Active; 'I' for Inactive)
REMARK    1  A    between atoms: C6_6  and  N1_7 
ROOT
HETATM    1  C1  UNL     1      22.027   7.638  -6.384  1.00  0.00     0.015 C 
HETATM    2  C2  UNL     1      21.769   7.595  -4.904  1.00  0.00    -0.042 C 
HETATM    3  C3  UNL     1      20.886   8.702  -4.456  1.00  0.00     0.009 C 
HETATM    4  C4  UNL     1      20.011   8.399  -3.300  1.00  0.00     0.003 C 
HETATM    5  C5  UNL     1      20.422   7.275  -2.436  1.00  0.00     0.038 C 
HETATM    6  C6  UNL     1      21.277   6.241  -3.073  1.00  0.00     0.124 C 
HETATM    7  C7  UNL     1      22.733   6.656  -2.886  1.00  0.00     0.039 C 
HETATM    8  C8  UNL     1      23.069   7.512  -4.102  1.00  0.00     0.011 C 
HETATM    9  C9  UNL     1      21.171   6.219  -4.582  1.00  0.00     0.047 C 
ENDROOT
BRANCH   6  10
HETATM   10  N1  UNL     1      21.022   4.921  -2.564  1.00  0.00    -0.070 N 
ATOM     11  H13 UNL     1      20.562   4.962  -1.654  1.00  0.00     0.275 HD
ATOM     12  H12 UNL     1      20.289   4.458  -3.099  1.00  0.00     0.275 HD
ATOM     13  H11 UNL     1      21.864   4.347  -2.521  1.00  0.00     0.275 HD
ENDBRANCH   6  10
TORSDOF 1
ENDMDL
MODEL 4
REMARK VINA RESULT: -3.707968184      1.236      2.394
REMARK  1 active torsions:
REMARK  status: ('A' for Active; 'I' for Inactive)
REMARK    1  A    between atoms: C6_6  and  N1_7 
ROOT
HETATM    1  C1  UNL     1      19.659   8.607  -2.107  1.00  0.00     0.015 C 
HETATM    2  C2  UNL     1      20.576   7.670  -2.841  1.00  0.00    -0.042 C 
HETATM    3  C3  UNL     1      20.833   8.114  -4.236  1.00  0.00     0.009 C 
HETATM    4  C4  UNL     1      22.163   7.768  -4.787  1.00  0.00     0.003 C 
HETATM    5  C5  UNL     1      22.880   6.654  -4.134  1.00  0.00     0.038 C 
HETATM    6  C6  UNL     1      22.515   6.382  -2.720  1.00  0.00     0.124 C 
HETATM    7  C7  UNL     1      21.365   5.380  -2.718  1.00  0.00     0.039 C 
HETATM    8  C8  UNL     1      20.094   6.220  -2.760  1.00  0.00     0.011 C 
HETATM    9  C9  UNL     1      21.873   7.564  -2.027  1.00  0.00     0.047 C 
ENDROOT
BRANCH   6  10
HETATM   10  N1  UNL     1      23.630   5.926  -1.937  1.00  0.00    -0.070 N 
ATOM     11  H13 UNL     1      24.293   5.405  -2.512  1.00  0.00     0.275 HD
ATOM     12  H12 UNL     1      24.227   6.706  -1.663  1.00  0.00     0.275 HD
ATOM     13  H11 UNL     1      23.343   5.380  -1.125  1.00  0.00     0.275 HD
ENDBRANCH   6  10
TORSDOF 1
ENDMDL
MODEL 5
REMARK VINA RESULT: -3.645073712      1.906      3.097
REMARK  1 active torsions:
REMARK  status: ('A' for Active; 'I' for Inactive)
REMARK    1  A    between atoms: C6_6  and  N1_7 
ROOT
HETATM    1  C1  UNL     1      23.706   6.993  -3.169  1.00  0.00     0.015 C 
HETATM    2  C2  UNL     1      22.206   6.964  -3.252  1.00  0.00    -0.042 C 
HETATM    3  C3  UNL     1      21.662   5.588  -3.126  1.00  0.00     0.009 C 
HETATM    4  C4  UNL     1      20.330   5.477  -2.488  1.00  0.00     0.003 C 
HETATM    5  C5  UNL     1      19.493   6.693  -2.490  1.00  0.00     0.038 C 
HETATM    6  C6  UNL     1      20.219   7.985  -2.585  1.00  0.00     0.124 C 
HETATM    7  C7  UNL     1      20.372   8.329  -4.063  1.00  0.00     0.039 C 
HETATM    8  C8  UNL     1      21.689   7.695  -4.493  1.00  0.00     0.011 C 
HETATM    9  C9  UNL     1      21.667   7.894  -2.155  1.00  0.00     0.047 C 
ENDROOT
BRANCH   6  10
HETATM   10  N1  UNL     1      19.575   9.038  -1.849  1.00  0.00    -0.070 N 
ATOM     11  H13 UNL     1      18.879   8.662  -1.205  1.00  0.00     0.275 HD
ATOM     12  H12 UNL     1      20.215   9.456  -1.174  1.00  0.00     0.275 HD
ATOM     13  H11 UNL     1      19.166   9.749  -2.456  1.00  0.00     0.275 HD
ENDBRANCH   6  10
TORSDOF 1
ENDMDL
