MODEL 1
REMARK VINA RESULT: -3.134409196      0.000      0.000
REMARK  0 active torsions:
REMARK  status: ('A' for Active; 'I' for Inactive)
ROOT
HETATM    1  C1  UNL     1      18.159   5.861  -1.736  1.00  0.00     0.022 C 
HETATM    2  C2  UNL     1      19.375   6.790  -1.706  1.00  0.00     0.054 C 
HETATM    3  C3  UNL     1      18.889   8.171  -1.970  1.00  0.00     0.016 C 
HETATM    4  C4  UNL     1      19.943   9.085  -2.555  1.00  0.00     0.012 C 
HETATM    5  C5  UNL     1      19.822   9.009  -4.064  1.00  0.00     0.086 C 
HETATM    6  S1  UNL     1      20.816   7.534  -4.536  1.00  0.00    -0.097 SA
HETATM    7  S2  UNL     1      20.587   6.188  -2.877  1.00  0.00    -0.093 SA
ENDROOT
TORSDOF 0
ENDMDL
MODEL 2
REMARK VINA RESULT: -3.033549764      2.121      3.461
REMARK  0 active torsions:
REMARK  status: ('A' for Active; 'I' for Inactive)
ROOT
HETATM    1  C1  UNL     1      19.649   9.027  -3.335  1.00  0.00     0.022 C 
HETATM    2  C2  UNL     1      20.165   7.972  -2.354  1.00  0.00     0.054 C 
HETATM    3  C3  UNL     1      20.709   6.843  -3.157  1.00  0.00     0.016 C 
HETATM    4  C4  UNL     1      20.705   5.520  -2.425  1.00  0.00     0.012 C 
HETATM    5  C5  UNL     1      19.404   4.820  -2.761  1.00  0.00     0.086 C 
HETATM    6  S1  UNL     1      18.186   5.503  -1.563  1.00  0.00    -0.097 SA
HETATM    7  S2  UNL     1      18.838   7.524  -1.241  1.00  0.00    -0.093 SA
ENDROOT
TORSDOF 0
ENDMDL
MODEL 3
REMARK VINA RESULT: -3.011459485      1.930      2.927
REMARK  0 active torsions:
REMARK  status: ('A' for Active; 'I' for Inactive)
ROOT
HETATM    1  C1  UNL     1      22.550   6.412  -2.306  1.00  0.00     0.022 C 
HETATM    2  C2  UNL     1      21.224   6.793  -2.967  1.00  0.00     0.054 C 
HETATM    3  C3  UNL     1      20.735   8.033  -2.306  1.00  0.00     0.016 C 
HETATM    4  C4  UNL     1      19.236   8.215  -2.389  1.00  0.00     0.012 C 
HETATM    5  C5  UNL     1      18.634   7.597  -1.143  1.00  0.00     0.086 C 
HETATM    6  S1  UNL     1      18.455   5.811  -1.550  1.00  0.00    -0.097 SA
HETATM    7  S2  UNL     1      20.106   5.400  -2.861  1.00  0.00    -0.093 SA
ENDROOT
TORSDOF 0
ENDMDL
MODEL 4
REMARK VINA RESULT: -2.971739550      1.349      2.066
REMARK  0 active torsions:
REMARK  status: ('A' for Active; 'I' for Inactive)
ROOT
HETATM    1  C1  UNL     1      19.039   8.002  -1.648  1.00  0.00     0.022 C 
HETATM    2  C2  UNL     1      20.159   8.733  -2.392  1.00  0.00     0.054 C 
HETATM    3  C3  UNL     1      19.634   9.109  -3.732  1.00  0.00     0.016 C 
HETATM    4  C4  UNL     1      20.711   9.284  -4.780  1.00  0.00     0.012 C 
HETATM    5  C5  UNL     1      20.879   7.952  -5.483  1.00  0.00     0.086 C 
HETATM    6  S1  UNL     1      22.046   7.009  -4.418  1.00  0.00    -0.097 SA
HETATM    7  S2  UNL     1      21.608   7.683  -2.426  1.00  0.00    -0.093 SA
ENDROOT
TORSDOF 0
ENDMDL
MODEL 5
REMARK VINA RESULT: -2.935378252      1.260      1.339
REMARK  0 active torsions:
REMARK  status: ('A' for Active; 'I' for Inactive)
ROOT
HETATM    1  C1  UNL     1      19.620   4.995  -2.666  1.00  0.00     0.022 C 
HETATM    2  C2  UNL     1      20.640   6.136  -2.658  1.00  0.00     0.054 C 
HETATM    3  C3  UNL     1      19.929   7.368  -2.220  1.00  0.00     0.016 C 
HETATM    4  C4  UNL     1      20.574   8.647  -2.706  1.00  0.00     0.012 C 
HETATM    5  C5  UNL     1      19.913   9.017  -4.018  1.00  0.00     0.086 C 
HETATM    6  S1  UNL     1      20.829   8.054  -5.290  1.00  0.00    -0.097 SA
HETATM    7  S2  UNL     1      21.394   6.245  -4.278  1.00  0.00    -0.093 SA
ENDROOT
TORSDOF 0
ENDMDL
