MODEL 1
REMARK VINA RESULT: -4.794802781      0.000      0.000
REMARK  1 active torsions:
REMARK  status: ('A' for Active; 'I' for Inactive)
REMARK    1  A    between atoms: N1_1  and  C1_5 
ROOT
HETATM    1  C1  UNL     1       3.842   5.208  -1.519  1.00  0.00     0.188 C 
HETATM    2  C2  UNL     1       4.597   6.351  -0.822  1.00  0.00     0.038 C 
HETATM    3  C3  UNL     1       5.734   5.339  -0.716  1.00  0.00    -0.007 C 
HETATM    4  C4  UNL     1       7.108   5.888  -0.835  1.00  0.00     0.005 C 
HETATM    5  C5  UNL     1       8.054   4.742  -0.444  1.00  0.00     0.000 C 
HETATM    6  C6  UNL     1       7.849   3.638  -1.435  1.00  0.00     0.000 C 
HETATM    7  C7  UNL     1       6.581   2.875  -1.252  1.00  0.00     0.000 C 
HETATM    8  C8  UNL     1       5.468   3.360  -2.188  1.00  0.00     0.007 C 
HETATM    9  C9  UNL     1       5.203   4.810  -2.059  1.00  0.00     0.020 C 
ENDROOT
BRANCH   1  10
HETATM   10  N1  UNL     1       2.881   5.623  -2.482  1.00  0.00    -0.075 N 
ATOM     11  H13 UNL     1       3.231   5.452  -3.425  1.00  0.00     0.274 HD
ATOM     12  H12 UNL     1       2.079   4.992  -2.473  1.00  0.00     0.274 HD
ATOM     13  H11 UNL     1       2.571   6.590  -2.391  1.00  0.00     0.274 HD
ENDBRANCH   1  10
TORSDOF 1
ENDMDL
MODEL 2
REMARK VINA RESULT: -4.685641044      0.964      1.159
REMARK  1 active torsions:
REMARK  status: ('A' for Active; 'I' for Inactive)
REMARK    1  A    between atoms: N1_1  and  C1_5 
ROOT
HETATM    1  C1  UNL     1       4.817   5.873  -0.739  1.00  0.00     0.188 C 
HETATM    2  C2  UNL     1       6.096   6.587  -0.271  1.00  0.00     0.038 C 
HETATM    3  C3  UNL     1       6.767   5.241  -0.534  1.00  0.00    -0.007 C 
HETATM    4  C4  UNL     1       8.159   5.296  -1.044  1.00  0.00     0.005 C 
HETATM    5  C5  UNL     1       8.688   3.855  -0.980  1.00  0.00     0.000 C 
HETATM    6  C6  UNL     1       7.835   3.028  -1.891  1.00  0.00     0.000 C 
HETATM    7  C7  UNL     1       6.475   2.729  -1.356  1.00  0.00     0.000 C 
HETATM    8  C8  UNL     1       5.409   3.683  -1.905  1.00  0.00     0.007 C 
HETATM    9  C9  UNL     1       5.738   5.106  -1.669  1.00  0.00     0.020 C 
ENDROOT
BRANCH   1  10
HETATM   10  N1  UNL     1       3.853   6.714  -1.361  1.00  0.00    -0.075 N 
ATOM     11  H13 UNL     1       4.076   7.694  -1.186  1.00  0.00     0.274 HD
ATOM     12  H12 UNL     1       3.964   6.685  -2.375  1.00  0.00     0.274 HD
ATOM     13  H11 UNL     1       2.885   6.521  -1.106  1.00  0.00     0.274 HD
ENDBRANCH   1  10
TORSDOF 1
ENDMDL
MODEL 3
REMARK VINA RESULT: -4.684694757      2.245      4.050
REMARK  1 active torsions:
REMARK  status: ('A' for Active; 'I' for Inactive)
REMARK    1  A    between atoms: N1_1  and  C1_5 
ROOT
HETATM    1  C1  UNL     1       7.706   3.810  -0.634  1.00  0.00     0.188 C 
HETATM    2  C2  UNL     1       6.836   2.831  -1.440  1.00  0.00     0.038 C 
HETATM    3  C3  UNL     1       5.736   3.869  -1.233  1.00  0.00    -0.007 C 
HETATM    4  C4  UNL     1       4.774   4.029  -2.352  1.00  0.00     0.005 C 
HETATM    5  C5  UNL     1       3.643   4.917  -1.809  1.00  0.00     0.000 C 
HETATM    6  C6  UNL     1       4.248   6.240  -1.454  1.00  0.00     0.000 C 
HETATM    7  C7  UNL     1       5.062   6.227  -0.204  1.00  0.00     0.000 C 
HETATM    8  C8  UNL     1       6.562   6.085  -0.485  1.00  0.00     0.007 C 
HETATM    9  C9  UNL     1       6.881   4.894  -1.302  1.00  0.00     0.020 C 
ENDROOT
BRANCH   1  10
HETATM   10  N1  UNL     1       9.091   3.786  -0.955  1.00  0.00    -0.075 N 
ATOM     11  H13 UNL     1       9.312   2.954  -1.503  1.00  0.00     0.274 HD
ATOM     12  H12 UNL     1       9.306   4.512  -1.639  1.00  0.00     0.274 HD
ATOM     13  H11 UNL     1       9.719   3.859  -0.154  1.00  0.00     0.274 HD
ENDBRANCH   1  10
TORSDOF 1
ENDMDL
MODEL 4
REMARK VINA RESULT: -4.546897628      0.942      2.229
REMARK  1 active torsions:
REMARK  status: ('A' for Active; 'I' for Inactive)
REMARK    1  A    between atoms: N1_1  and  C1_5 
ROOT
HETATM    1  C1  UNL     1       4.492   6.170  -1.832  1.00  0.00     0.188 C 
HETATM    2  C2  UNL     1       4.183   4.823  -2.506  1.00  0.00     0.038 C 
HETATM    3  C3  UNL     1       5.625   4.479  -2.143  1.00  0.00    -0.007 C 
HETATM    4  C4  UNL     1       5.886   3.064  -1.780  1.00  0.00     0.005 C 
HETATM    5  C5  UNL     1       7.415   2.921  -1.715  1.00  0.00     0.000 C 
HETATM    6  C6  UNL     1       7.900   3.832  -0.630  1.00  0.00     0.000 C 
HETATM    7  C7  UNL     1       7.885   5.279  -0.991  1.00  0.00     0.000 C 
HETATM    8  C8  UNL     1       6.638   5.999  -0.465  1.00  0.00     0.007 C 
HETATM    9  C9  UNL     1       5.379   5.359  -0.907  1.00  0.00     0.020 C 
ENDROOT
BRANCH   1  10
HETATM   10  N1  UNL     1       3.373   6.810  -1.230  1.00  0.00    -0.075 N 
ATOM     11  H13 UNL     1       2.971   6.211  -0.509  1.00  0.00     0.274 HD
ATOM     12  H12 UNL     1       3.683   7.595  -0.656  1.00  0.00     0.274 HD
ATOM     13  H11 UNL     1       2.649   7.113  -1.881  1.00  0.00     0.274 HD
ENDBRANCH   1  10
TORSDOF 1
ENDMDL
MODEL 5
REMARK VINA RESULT: -4.440447815      1.712      2.748
REMARK  1 active torsions:
REMARK  status: ('A' for Active; 'I' for Inactive)
REMARK    1  A    between atoms: N1_1  and  C1_5 
ROOT
HETATM    1  C1  UNL     1       6.046   7.219  -0.798  1.00  0.00     0.188 C 
HETATM    2  C2  UNL     1       4.732   6.749  -1.443  1.00  0.00     0.038 C 
HETATM    3  C3  UNL     1       5.489   5.446  -1.688  1.00  0.00    -0.007 C 
HETATM    4  C4  UNL     1       4.688   4.200  -1.599  1.00  0.00     0.005 C 
HETATM    5  C5  UNL     1       5.595   3.079  -2.129  1.00  0.00     0.000 C 
HETATM    6  C6  UNL     1       6.780   2.998  -1.218  1.00  0.00     0.000 C 
HETATM    7  C7  UNL     1       7.766   4.104  -1.394  1.00  0.00     0.000 C 
HETATM    8  C8  UNL     1       7.575   5.224  -0.365  1.00  0.00     0.007 C 
HETATM    9  C9  UNL     1       6.201   5.773  -0.365  1.00  0.00     0.020 C 
ENDROOT
BRANCH   1  10
HETATM   10  N1  UNL     1       5.895   8.175   0.244  1.00  0.00    -0.075 N 
ATOM     11  H13 UNL     1       6.550   7.977   1.001  1.00  0.00     0.274 HD
ATOM     12  H12 UNL     1       6.244   9.084  -0.060  1.00  0.00     0.274 HD
ATOM     13  H11 UNL     1       4.947   8.265   0.611  1.00  0.00     0.274 HD
ENDBRANCH   1  10
TORSDOF 1
ENDMDL
