MODEL 1
REMARK VINA RESULT: -3.291114233      0.000      0.000
REMARK  2 active torsions:
REMARK  status: ('A' for Active; 'I' for Inactive)
REMARK    1  A    between atoms: N1_1  and  C1_5 
REMARK    2  A    between atoms: C1_5  and  C2_6 
ROOT
HETATM    1  C2  UNL     1     -46.154 -30.464 -17.334  1.00  0.00    -0.002 A 
HETATM    2  C3  UNL     1     -45.715 -29.234 -17.125  1.00  0.00     0.097 A 
HETATM    3  N2  UNL     1     -45.937 -28.889 -18.475  1.00  0.00    -0.374 N 
ATOM      4  H2  UNL     1     -45.806 -28.044 -19.031  1.00  0.00     0.164 HD
HETATM    5  C4  UNL     1     -46.368 -30.064 -18.718  1.00  0.00     0.097 A 
ENDROOT
BRANCH   1   6
HETATM    6  C1  UNL     1     -46.358 -31.707 -16.564  1.00  0.00     0.270 C 
BRANCH   6   7
HETATM    7  N1  UNL     1     -47.714 -31.837 -16.058  1.00  0.00    -0.075 N 
ATOM      8  H13 UNL     1     -48.359 -31.247 -16.585  1.00  0.00     0.274 HD
ATOM      9  H12 UNL     1     -48.105 -32.751 -16.287  1.00  0.00     0.274 HD
ATOM     10  H11 UNL     1     -47.780 -31.649 -15.058  1.00  0.00     0.274 HD
ENDBRANCH   6   7
ENDBRANCH   1   6
TORSDOF 2
ENDMDL
MODEL 2
REMARK VINA RESULT: -3.260497369      0.084      1.104
REMARK  2 active torsions:
REMARK  status: ('A' for Active; 'I' for Inactive)
REMARK    1  A    between atoms: N1_1  and  C1_5 
REMARK    2  A    between atoms: C1_5  and  C2_6 
ROOT
HETATM    1  C2  UNL     1     -46.196 -30.483 -17.415  1.00  0.00    -0.002 A 
HETATM    2  C3  UNL     1     -46.414 -30.111 -18.665  1.00  0.00     0.097 A 
HETATM    3  N2  UNL     1     -45.928 -28.812 -18.399  1.00  0.00    -0.374 N 
ATOM      4  H2  UNL     1     -45.807 -27.964 -18.952  1.00  0.00     0.164 HD
HETATM    5  C4  UNL     1     -45.703 -29.132 -17.185  1.00  0.00     0.097 A 
ENDROOT
BRANCH   1   6
HETATM    6  C1  UNL     1     -46.357 -31.691 -16.581  1.00  0.00     0.270 C 
BRANCH   6   7
HETATM    7  N1  UNL     1     -47.710 -31.847 -16.076  1.00  0.00    -0.075 N 
ATOM      8  H13 UNL     1     -48.356 -31.224 -16.561  1.00  0.00     0.274 HD
ATOM      9  H12 UNL     1     -48.105 -32.744 -16.357  1.00  0.00     0.274 HD
ATOM     10  H11 UNL     1     -47.769 -31.721 -15.066  1.00  0.00     0.274 HD
ENDBRANCH   6   7
ENDBRANCH   1   6
TORSDOF 2
ENDMDL
MODEL 3
REMARK VINA RESULT: -3.239926130      0.925      3.106
REMARK  2 active torsions:
REMARK  status: ('A' for Active; 'I' for Inactive)
REMARK    1  A    between atoms: N1_1  and  C1_5 
REMARK    2  A    between atoms: C1_5  and  C2_6 
ROOT
HETATM    1  C2  UNL     1     -46.925 -30.883 -17.496  1.00  0.00    -0.002 A 
HETATM    2  C3  UNL     1     -46.498 -31.737 -16.581  1.00  0.00     0.097 A 
HETATM    3  N2  UNL     1     -47.793 -31.842 -16.027  1.00  0.00    -0.374 N 
ATOM      4  H2  UNL     1     -48.202 -32.362 -15.251  1.00  0.00     0.164 HD
HETATM    5  C4  UNL     1     -48.244 -31.021 -16.893  1.00  0.00     0.097 A 
ENDROOT
BRANCH   1   6
HETATM    6  C1  UNL     1     -46.371 -30.113 -18.629  1.00  0.00     0.270 C 
BRANCH   6   7
HETATM    7  N1  UNL     1     -46.264 -28.693 -18.341  1.00  0.00    -0.075 N 
ATOM      8  H13 UNL     1     -45.891 -28.535 -17.405  1.00  0.00     0.274 HD
ATOM      9  H12 UNL     1     -45.518 -28.263 -18.889  1.00  0.00     0.274 HD
ATOM     10  H11 UNL     1     -47.146 -28.199 -18.472  1.00  0.00     0.274 HD
ENDBRANCH   6   7
ENDBRANCH   1   6
TORSDOF 2
ENDMDL
MODEL 4
REMARK VINA RESULT: -3.152490486      1.305      1.305
REMARK  2 active torsions:
REMARK  status: ('A' for Active; 'I' for Inactive)
REMARK    1  A    between atoms: N1_1  and  C1_5 
REMARK    2  A    between atoms: C1_5  and  C2_6 
ROOT
HETATM    1  C2  UNL     1     -47.498 -29.970 -17.594  1.00  0.00    -0.002 A 
HETATM    2  C3  UNL     1     -47.182 -28.686 -17.571  1.00  0.00     0.097 A 
HETATM    3  N2  UNL     1     -46.148 -28.890 -18.512  1.00  0.00    -0.374 N 
ATOM      4  H2  UNL     1     -45.461 -28.288 -18.965  1.00  0.00     0.164 HD
HETATM    5  C4  UNL     1     -46.423 -30.134 -18.562  1.00  0.00     0.097 A 
ENDROOT
BRANCH   1   6
HETATM    6  C1  UNL     1     -48.478 -30.874 -16.958  1.00  0.00     0.270 C 
BRANCH   6   7
HETATM    7  N1  UNL     1     -47.864 -31.779 -16.001  1.00  0.00    -0.075 N 
ATOM      8  H13 UNL     1     -47.015 -31.374 -15.606  1.00  0.00     0.274 HD
ATOM      9  H12 UNL     1     -48.424 -31.848 -15.151  1.00  0.00     0.274 HD
ATOM     10  H11 UNL     1     -47.681 -32.702 -16.395  1.00  0.00     0.274 HD
ENDBRANCH   6   7
ENDBRANCH   1   6
TORSDOF 2
ENDMDL
MODEL 5
REMARK VINA RESULT: -3.136846494      1.940      3.093
REMARK  2 active torsions:
REMARK  status: ('A' for Active; 'I' for Inactive)
REMARK    1  A    between atoms: N1_1  and  C1_5 
REMARK    2  A    between atoms: C1_5  and  C2_6 
ROOT
HETATM    1  C2  UNL     1     -46.047 -28.922 -17.561  1.00  0.00    -0.002 A 
HETATM    2  C3  UNL     1     -47.342 -28.652 -17.585  1.00  0.00     0.097 A 
HETATM    3  N2  UNL     1     -47.578 -29.706 -18.495  1.00  0.00    -0.374 N 
ATOM      4  H2  UNL     1     -48.405 -30.081 -18.959  1.00  0.00     0.164 HD
HETATM    5  C4  UNL     1     -46.337 -29.998 -18.499  1.00  0.00     0.097 A 
ENDROOT
BRANCH   1   6
HETATM    6  C1  UNL     1     -44.826 -28.408 -16.908  1.00  0.00     0.270 C 
BRANCH   6   7
HETATM    7  N1  UNL     1     -44.091 -27.478 -17.748  1.00  0.00    -0.075 N 
ATOM      8  H13 UNL     1     -43.110 -27.430 -17.470  1.00  0.00     0.274 HD
ATOM      9  H12 UNL     1     -43.976 -27.850 -18.691  1.00  0.00     0.274 HD
ATOM     10  H11 UNL     1     -44.512 -26.550 -17.768  1.00  0.00     0.274 HD
ENDBRANCH   6   7
ENDBRANCH   1   6
TORSDOF 2
ENDMDL
