MODEL 1
REMARK VINA RESULT: -7.598695679      0.000      0.000
REMARK  6 active torsions:
REMARK  status: ('A' for Active; 'I' for Inactive)
REMARK    1  A    between atoms: C4_4  and  C5_5 
REMARK    2  A    between atoms: C5_5  and  N1_6 
REMARK    3  A    between atoms: C5_5  and  O1_10 
REMARK    4  A    between atoms: C5_5  and  C6_12 
REMARK    5  A    between atoms: C6_12  and  N2_13 
REMARK    6  A    between atoms: N5_23  and  C13_25 
ROOT
HETATM    1  C5  UNL     1     -47.705 -29.554  -5.605  1.00  0.00     0.292 C 
ENDROOT
BRANCH   1   2
HETATM    2  C4  UNL     1     -47.121 -29.657  -6.958  1.00  0.00     0.092 A 
HETATM    3  C3  UNL     1     -45.978 -28.998  -7.293  1.00  0.00     0.056 A 
HETATM    4  C2  UNL     1     -45.449 -29.129  -8.587  1.00  0.00     0.024 A 
HETATM    5  C1  UNL     1     -44.205 -28.401  -8.912  1.00  0.00     0.068 C 
HETATM    6  N6  UNL     1     -46.106 -29.907  -9.444  1.00  0.00    -0.196 N 
HETATM    7  C12 UNL     1     -47.263 -30.585  -9.137  1.00  0.00     0.679 A 
ATOM      8  H6  UNL     1     -45.728 -30.007 -10.387  1.00  0.00     0.184 HD
HETATM    9  N4  UNL     1     -47.729 -30.431  -7.892  1.00  0.00    -0.191 N 
HETATM   10  N5  UNL     1     -47.780 -31.280 -10.062  1.00  0.00    -0.222 N 
ATOM     11  H4  UNL     1     -48.586 -30.920  -7.633  1.00  0.00     0.184 HD
ATOM     12  H5  UNL     1     -47.292 -31.289 -10.957  1.00  0.00     0.178 HD
BRANCH  10  13
HETATM   13  C13 UNL     1     -48.964 -32.040  -9.976  1.00  0.00     0.091 C 
HETATM   14  C14 UNL     1     -49.531 -32.279 -11.387  1.00  0.00     0.032 C 
HETATM   15  C15 UNL     1     -48.928 -33.315  -9.204  1.00  0.00     0.032 C 
ENDBRANCH  10  13
ENDBRANCH   1   2
BRANCH   1  16
HETATM   16  N1  UNL     1     -48.441 -28.249  -5.639  1.00  0.00    -0.039 N 
ATOM     17  H13 UNL     1     -49.056 -28.132  -6.444  1.00  0.00     0.278 HD
ATOM     18  H12 UNL     1     -49.171 -28.157  -4.932  1.00  0.00     0.278 HD
ATOM     19  H11 UNL     1     -47.697 -27.553  -5.571  1.00  0.00     0.278 HD
ENDBRANCH   1  16
BRANCH   1  20
HETATM   20  O1  UNL     1     -46.727 -29.334  -4.642  1.00  0.00    -0.359 OA
ATOM     21  H1  UNL     1     -45.872 -29.624  -4.941  1.00  0.00     0.213 HD
ENDBRANCH   1  20
BRANCH   1  22
HETATM   22  C6  UNL     1     -48.734 -30.561  -5.283  1.00  0.00     0.347 C 
BRANCH  22  23
HETATM   23  N2  UNL     1     -50.096 -30.126  -5.184  1.00  0.00     0.097 N 
HETATM   24  C7  UNL     1     -50.798 -30.635  -6.397  1.00  0.00     0.302 C 
HETATM   25  C8  UNL     1     -52.273 -30.773  -6.163  1.00  0.00     0.302 C 
HETATM   26  N3  UNL     1     -52.557 -31.839  -5.222  1.00  0.00     0.087 N 
HETATM   27  C9  UNL     1     -53.647 -31.558  -4.337  1.00  0.00     0.310 C 
HETATM   28  C10 UNL     1     -51.348 -32.043  -4.457  1.00  0.00     0.302 C 
HETATM   29  C11 UNL     1     -50.809 -30.658  -4.075  1.00  0.00     0.302 C 
ENDBRANCH  22  23
ENDBRANCH   1  22
TORSDOF 6
ENDMDL
MODEL 2
REMARK VINA RESULT: -7.520255294      1.926      6.211
REMARK  6 active torsions:
REMARK  status: ('A' for Active; 'I' for Inactive)
REMARK    1  A    between atoms: C4_4  and  C5_5 
REMARK    2  A    between atoms: C5_5  and  N1_6 
REMARK    3  A    between atoms: C5_5  and  O1_10 
REMARK    4  A    between atoms: C5_5  and  C6_12 
REMARK    5  A    between atoms: C6_12  and  N2_13 
REMARK    6  A    between atoms: N5_23  and  C13_25 
ROOT
HETATM    1  C5  UNL     1     -47.680 -28.471  -6.428  1.00  0.00     0.292 C 
ENDROOT
BRANCH   1   2
HETATM    2  C4  UNL     1     -48.552 -29.508  -7.018  1.00  0.00     0.092 A 
HETATM    3  C3  UNL     1     -48.306 -30.028  -8.251  1.00  0.00     0.056 A 
HETATM    4  C2  UNL     1     -49.152 -31.019  -8.774  1.00  0.00     0.024 A 
HETATM    5  C1  UNL     1     -48.851 -31.561 -10.115  1.00  0.00     0.068 C 
HETATM    6  N6  UNL     1     -50.177 -31.411  -8.022  1.00  0.00    -0.196 N 
HETATM    7  C12 UNL     1     -50.453 -30.905  -6.773  1.00  0.00     0.679 A 
ATOM      8  H6  UNL     1     -50.797 -32.130  -8.395  1.00  0.00     0.184 HD
HETATM    9  N4  UNL     1     -49.620 -29.963  -6.316  1.00  0.00    -0.191 N 
HETATM   10  N5  UNL     1     -51.472 -31.370  -6.181  1.00  0.00    -0.222 N 
ATOM     11  H4  UNL     1     -49.797 -29.567  -5.393  1.00  0.00     0.184 HD
ATOM     12  H5  UNL     1     -52.002 -32.090  -6.673  1.00  0.00     0.178 HD
BRANCH  10  13
HETATM   13  C13 UNL     1     -51.948 -30.991  -4.909  1.00  0.00     0.091 C 
HETATM   14  C14 UNL     1     -53.345 -31.595  -4.676  1.00  0.00     0.032 C 
HETATM   15  C15 UNL     1     -51.071 -31.231  -3.728  1.00  0.00     0.032 C 
ENDBRANCH  10  13
ENDBRANCH   1   2
BRANCH   1  16
HETATM   16  N1  UNL     1     -48.373 -28.117  -5.147  1.00  0.00    -0.039 N 
ATOM     17  H13 UNL     1     -49.306 -27.723  -5.266  1.00  0.00     0.278 HD
ATOM     18  H12 UNL     1     -48.667 -28.920  -4.591  1.00  0.00     0.278 HD
ATOM     19  H11 UNL     1     -47.709 -27.499  -4.679  1.00  0.00     0.278 HD
ENDBRANCH   1  16
BRANCH   1  20
HETATM   20  O1  UNL     1     -47.738 -27.285  -7.150  1.00  0.00    -0.359 OA
ATOM     21  H1  UNL     1     -47.280 -27.358  -7.979  1.00  0.00     0.213 HD
ENDBRANCH   1  20
BRANCH   1  22
HETATM   22  C6  UNL     1     -46.339 -28.931  -6.019  1.00  0.00     0.347 C 
BRANCH  22  23
HETATM   23  N2  UNL     1     -45.199 -28.310  -6.626  1.00  0.00     0.097 N 
HETATM   24  C7  UNL     1     -43.999 -28.798  -5.886  1.00  0.00     0.302 C 
HETATM   25  C8  UNL     1     -42.762 -28.719  -6.729  1.00  0.00     0.302 C 
HETATM   26  N3  UNL     1     -42.810 -29.671  -7.822  1.00  0.00     0.087 N 
HETATM   27  C9  UNL     1     -42.236 -29.187  -9.041  1.00  0.00     0.310 C 
HETATM   28  C10 UNL     1     -44.205 -29.986  -8.030  1.00  0.00     0.302 C 
HETATM   29  C11 UNL     1     -44.984 -28.665  -7.985  1.00  0.00     0.302 C 
ENDBRANCH  22  23
ENDBRANCH   1  22
TORSDOF 6
ENDMDL
MODEL 3
REMARK VINA RESULT: -7.474205353      1.758      5.968
REMARK  6 active torsions:
REMARK  status: ('A' for Active; 'I' for Inactive)
REMARK    1  A    between atoms: C4_4  and  C5_5 
REMARK    2  A    between atoms: C5_5  and  N1_6 
REMARK    3  A    between atoms: C5_5  and  O1_10 
REMARK    4  A    between atoms: C5_5  and  C6_12 
REMARK    5  A    between atoms: C6_12  and  N2_13 
REMARK    6  A    between atoms: N5_23  and  C13_25 
ROOT
HETATM    1  C5  UNL     1     -47.614 -28.910  -5.803  1.00  0.00     0.292 C 
ENDROOT
BRANCH   1   2
HETATM    2  C4  UNL     1     -48.605 -30.005  -5.793  1.00  0.00     0.092 A 
HETATM    3  C3  UNL     1     -49.456 -30.186  -4.746  1.00  0.00     0.056 A 
HETATM    4  C2  UNL     1     -50.391 -31.233  -4.778  1.00  0.00     0.024 A 
HETATM    5  C1  UNL     1     -51.300 -31.397  -3.624  1.00  0.00     0.068 C 
HETATM    6  N6  UNL     1     -50.400 -32.017  -5.853  1.00  0.00    -0.196 N 
HETATM    7  C12 UNL     1     -49.554 -31.862  -6.926  1.00  0.00     0.679 A 
ATOM      8  H6  UNL     1     -51.076 -32.781  -5.883  1.00  0.00     0.184 HD
HETATM    9  N4  UNL     1     -48.680 -30.851  -6.852  1.00  0.00    -0.191 N 
HETATM   10  N5  UNL     1     -49.674 -32.694  -7.874  1.00  0.00    -0.222 N 
ATOM     11  H4  UNL     1     -48.038 -30.708  -7.632  1.00  0.00     0.184 HD
ATOM     12  H5  UNL     1     -50.396 -33.407  -7.771  1.00  0.00     0.178 HD
BRANCH  10  13
HETATM   13  C13 UNL     1     -48.909 -32.732  -9.058  1.00  0.00     0.091 C 
HETATM   14  C14 UNL     1     -48.980 -34.140  -9.676  1.00  0.00     0.032 C 
HETATM   15  C15 UNL     1     -49.163 -31.692 -10.095  1.00  0.00     0.032 C 
ENDBRANCH  10  13
ENDBRANCH   1   2
BRANCH   1  16
HETATM   16  N1  UNL     1     -46.627 -29.320  -4.752  1.00  0.00    -0.039 N 
ATOM     17  H13 UNL     1     -46.597 -28.705  -3.939  1.00  0.00     0.278 HD
ATOM     18  H12 UNL     1     -46.884 -30.163  -4.238  1.00  0.00     0.278 HD
ATOM     19  H11 UNL     1     -45.747 -29.389  -5.264  1.00  0.00     0.278 HD
ENDBRANCH   1  16
BRANCH   1  20
HETATM   20  O1  UNL     1     -48.146 -27.735  -5.288  1.00  0.00    -0.359 OA
ATOM     21  H1  UNL     1     -49.059 -27.842  -5.046  1.00  0.00     0.213 HD
ENDBRANCH   1  20
BRANCH   1  22
HETATM   22  C6  UNL     1     -46.820 -28.789  -7.042  1.00  0.00     0.347 C 
BRANCH  22  23
HETATM   23  N2  UNL     1     -45.457 -29.230  -7.015  1.00  0.00     0.097 N 
HETATM   24  C7  UNL     1     -45.348 -30.349  -7.995  1.00  0.00     0.302 C 
HETATM   25  C8  UNL     1     -43.944 -30.508  -8.496  1.00  0.00     0.302 C 
HETATM   26  N3  UNL     1     -43.553 -29.386  -9.326  1.00  0.00     0.087 N 
HETATM   27  C9  UNL     1     -42.186 -28.992  -9.165  1.00  0.00     0.310 C 
HETATM   28  C10 UNL     1     -44.422 -28.288  -8.968  1.00  0.00     0.302 C 
HETATM   29  C11 UNL     1     -44.511 -28.256  -7.436  1.00  0.00     0.302 C 
ENDBRANCH  22  23
ENDBRANCH   1  22
TORSDOF 6
ENDMDL
MODEL 4
REMARK VINA RESULT: -7.464351293      2.340      6.516
REMARK  6 active torsions:
REMARK  status: ('A' for Active; 'I' for Inactive)
REMARK    1  A    between atoms: C4_4  and  C5_5 
REMARK    2  A    between atoms: C5_5  and  N1_6 
REMARK    3  A    between atoms: C5_5  and  O1_10 
REMARK    4  A    between atoms: C5_5  and  C6_12 
REMARK    5  A    between atoms: C6_12  and  N2_13 
REMARK    6  A    between atoms: N5_23  and  C13_25 
ROOT
HETATM    1  C5  UNL     1     -48.689 -29.261  -5.896  1.00  0.00     0.292 C 
ENDROOT
BRANCH   1   2
HETATM    2  C4  UNL     1     -50.117 -29.525  -6.164  1.00  0.00     0.092 A 
HETATM    3  C3  UNL     1     -50.815 -28.800  -7.081  1.00  0.00     0.056 A 
HETATM    4  C2  UNL     1     -52.170 -29.087  -7.315  1.00  0.00     0.024 A 
HETATM    5  C1  UNL     1     -52.893 -28.281  -8.320  1.00  0.00     0.068 C 
HETATM    6  N6  UNL     1     -52.719 -30.074  -6.612  1.00  0.00    -0.196 N 
HETATM    7  C12 UNL     1     -52.042 -30.824  -5.678  1.00  0.00     0.679 A 
ATOM      8  H6  UNL     1     -53.703 -30.288  -6.775  1.00  0.00     0.184 HD
HETATM    9  N4  UNL     1     -50.754 -30.515  -5.489  1.00  0.00    -0.191 N 
HETATM   10  N5  UNL     1     -52.703 -31.724  -5.080  1.00  0.00    -0.222 N 
ATOM     11  H4  UNL     1     -50.223 -31.052  -4.803  1.00  0.00     0.184 HD
ATOM     12  H5  UNL     1     -53.682 -31.829  -5.346  1.00  0.00     0.178 HD
BRANCH  10  13
HETATM   13  C13 UNL     1     -52.220 -32.596  -4.083  1.00  0.00     0.091 C 
HETATM   14  C14 UNL     1     -53.217 -32.649  -2.912  1.00  0.00     0.032 C 
HETATM   15  C15 UNL     1     -51.814 -33.973  -4.488  1.00  0.00     0.032 C 
ENDBRANCH  10  13
ENDBRANCH   1   2
BRANCH   1  16
HETATM   16  N1  UNL     1     -48.283 -30.399  -5.008  1.00  0.00    -0.039 N 
ATOM     17  H13 UNL     1     -48.801 -31.263  -5.167  1.00  0.00     0.278 HD
ATOM     18  H12 UNL     1     -47.362 -30.787  -5.214  1.00  0.00     0.278 HD
ATOM     19  H11 UNL     1     -48.379 -30.014  -4.068  1.00  0.00     0.278 HD
ENDBRANCH   1  16
BRANCH   1  20
HETATM   20  O1  UNL     1     -48.519 -28.152  -5.076  1.00  0.00    -0.359 OA
ATOM     21  H1  UNL     1     -49.335 -27.897  -4.661  1.00  0.00     0.213 HD
ENDBRANCH   1  20
BRANCH   1  22
HETATM   22  C6  UNL     1     -47.798 -29.358  -7.068  1.00  0.00     0.347 C 
BRANCH  22  23
HETATM   23  N2  UNL     1     -46.389 -29.484  -6.836  1.00  0.00     0.097 N 
HETATM   24  C7  UNL     1     -45.886 -30.510  -7.794  1.00  0.00     0.302 C 
HETATM   25  C8  UNL     1     -44.424 -30.331  -8.077  1.00  0.00     0.302 C 
HETATM   26  N3  UNL     1     -44.180 -29.117  -8.831  1.00  0.00     0.087 N 
HETATM   27  C9  UNL     1     -42.978 -28.434  -8.461  1.00  0.00     0.310 C 
HETATM   28  C10 UNL     1     -45.319 -28.257  -8.603  1.00  0.00     0.302 C 
HETATM   29  C11 UNL     1     -45.638 -28.307  -7.103  1.00  0.00     0.302 C 
ENDBRANCH  22  23
ENDBRANCH   1  22
TORSDOF 6
ENDMDL
MODEL 5
REMARK VINA RESULT: -7.366751714      1.927      6.032
REMARK  6 active torsions:
REMARK  status: ('A' for Active; 'I' for Inactive)
REMARK    1  A    between atoms: C4_4  and  C5_5 
REMARK    2  A    between atoms: C5_5  and  N1_6 
REMARK    3  A    between atoms: C5_5  and  O1_10 
REMARK    4  A    between atoms: C5_5  and  C6_12 
REMARK    5  A    between atoms: C6_12  and  N2_13 
REMARK    6  A    between atoms: N5_23  and  C13_25 
ROOT
HETATM    1  C5  UNL     1     -47.418 -28.331  -7.257  1.00  0.00     0.292 C 
ENDROOT
BRANCH   1   2
HETATM    2  C4  UNL     1     -48.277 -29.456  -6.834  1.00  0.00     0.092 A 
HETATM    3  C3  UNL     1     -48.914 -29.451  -5.631  1.00  0.00     0.056 A 
HETATM    4  C2  UNL     1     -49.730 -30.535  -5.268  1.00  0.00     0.024 A 
HETATM    5  C1  UNL     1     -50.408 -30.493  -3.956  1.00  0.00     0.068 C 
HETATM    6  N6  UNL     1     -49.842 -31.538  -6.136  1.00  0.00    -0.196 N 
HETATM    7  C12 UNL     1     -49.211 -31.573  -7.357  1.00  0.00     0.679 A 
ATOM      8  H6  UNL     1     -50.432 -32.330  -5.879  1.00  0.00     0.184 HD
HETATM    9  N4  UNL     1     -48.445 -30.519  -7.660  1.00  0.00    -0.191 N 
HETATM   10  N5  UNL     1     -49.405 -32.601  -8.071  1.00  0.00    -0.222 N 
ATOM     11  H4  UNL     1     -47.961 -30.514  -8.559  1.00  0.00     0.184 HD
ATOM     12  H5  UNL     1     -50.023 -33.317  -7.688  1.00  0.00     0.178 HD
BRANCH  10  13
HETATM   13  C13 UNL     1     -48.853 -32.855  -9.343  1.00  0.00     0.091 C 
HETATM   14  C14 UNL     1     -49.006 -34.348  -9.687  1.00  0.00     0.032 C 
HETATM   15  C15 UNL     1     -49.295 -32.006 -10.486  1.00  0.00     0.032 C 
ENDBRANCH  10  13
ENDBRANCH   1   2
BRANCH   1  16
HETATM   16  N1  UNL     1     -47.768 -27.239  -6.292  1.00  0.00    -0.039 N 
ATOM     17  H13 UNL     1     -48.159 -26.402  -6.725  1.00  0.00     0.278 HD
ATOM     18  H12 UNL     1     -48.574 -27.441  -5.701  1.00  0.00     0.278 HD
ATOM     19  H11 UNL     1     -46.898 -27.084  -5.782  1.00  0.00     0.278 HD
ENDBRANCH   1  16
BRANCH   1  20
HETATM   20  O1  UNL     1     -47.826 -27.808  -8.478  1.00  0.00    -0.359 OA
ATOM     21  H1  UNL     1     -48.761 -27.634  -8.489  1.00  0.00     0.213 HD
ENDBRANCH   1  20
BRANCH   1  22
HETATM   22  C6  UNL     1     -45.968 -28.543  -7.081  1.00  0.00     0.347 C 
BRANCH  22  23
HETATM   23  N2  UNL     1     -45.132 -28.486  -8.243  1.00  0.00     0.097 N 
HETATM   24  C7  UNL     1     -43.734 -28.298  -7.758  1.00  0.00     0.302 C 
HETATM   25  C8  UNL     1     -42.732 -28.795  -8.758  1.00  0.00     0.302 C 
HETATM   26  N3  UNL     1     -42.783 -30.239  -8.879  1.00  0.00     0.087 N 
HETATM   27  C9  UNL     1     -42.578 -30.718 -10.212  1.00  0.00     0.310 C 
HETATM   28  C10 UNL     1     -44.089 -30.644  -8.410  1.00  0.00     0.302 C 
HETATM   29  C11 UNL     1     -45.113 -29.677  -9.019  1.00  0.00     0.302 C 
ENDBRANCH  22  23
ENDBRANCH   1  22
TORSDOF 6
ENDMDL
