MODEL 1
REMARK VINA RESULT: -7.377242950      0.000      0.000
REMARK  7 active torsions:
REMARK  status: ('A' for Active; 'I' for Inactive)
REMARK    1  A    between atoms: C2_2  and  N1_3 
REMARK    2  A    between atoms: N1_3  and  C3_5 
REMARK    3  A    between atoms: C4_8  and  N3_9 
REMARK    4  A    between atoms: C8_13  and  N4_14 
REMARK    5  A    between atoms: C10_21  and  N6_22 
REMARK    6  A    between atoms: N6_22  and  C11_24 
REMARK    7  A    between atoms: C11_24  and  C13_26 
ROOT
HETATM    1  C3  UNL     1     -48.340 -31.316  -9.001  1.00  0.00     0.707 A 
HETATM    2  N2  UNL     1     -47.298 -30.605  -8.551  1.00  0.00    -0.021 N 
ATOM      3  H2  UNL     1     -46.555 -30.323  -9.191  1.00  0.00     0.203 HD
HETATM    4  C4  UNL     1     -47.235 -30.257  -7.229  1.00  0.00     0.709 A 
HETATM    5  N5  UNL     1     -48.248 -30.664  -6.459  1.00  0.00    -0.021 N 
ATOM      6  H5  UNL     1     -48.226 -30.419  -5.469  1.00  0.00     0.203 HD
HETATM    7  C10 UNL     1     -49.294 -31.377  -6.908  1.00  0.00     0.707 A 
HETATM    8  N7  UNL     1     -49.345 -31.714  -8.210  1.00  0.00    -0.022 N 
ATOM      9  H7  UNL     1     -50.125 -32.256  -8.582  1.00  0.00     0.203 HD
ENDROOT
BRANCH   4  10
HETATM   10  N3  UNL     1     -46.136 -29.501  -6.732  1.00  0.00    -0.215 N 
HETATM   11  C5  UNL     1     -46.027 -29.363  -5.292  1.00  0.00     0.141 C 
HETATM   12  C6  UNL     1     -44.667 -29.968  -4.927  1.00  0.00     0.022 C 
HETATM   13  C7  UNL     1     -43.644 -29.023  -5.544  1.00  0.00     0.036 C 
HETATM   14  C8  UNL     1     -43.745 -29.024  -7.030  1.00  0.00     0.202 C 
HETATM   15  C9  UNL     1     -45.142 -28.877  -7.553  1.00  0.00     0.173 C 
BRANCH  14  16
HETATM   16  N4  UNL     1     -42.930 -27.900  -7.514  1.00  0.00    -0.073 N 
ATOM     17  H43 UNL     1     -43.353 -27.407  -8.300  1.00  0.00     0.274 HD
ATOM     18  H42 UNL     1     -42.905 -27.113  -6.866  1.00  0.00     0.274 HD
ATOM     19  H41 UNL     1     -42.005 -28.275  -7.726  1.00  0.00     0.274 HD
ENDBRANCH  14  16
ENDBRANCH   4  10
BRANCH   1  20
HETATM   20  N1  UNL     1     -48.383 -31.634 -10.243  1.00  0.00    -0.225 N 
ATOM     21  H1  UNL     1     -47.602 -31.376 -10.845  1.00  0.00     0.177 HD
BRANCH  20  22
HETATM   22  C2  UNL     1     -49.502 -32.345 -10.817  1.00  0.00     0.133 C 
HETATM   23  C1  UNL     1     -49.316 -32.402 -12.333  1.00  0.00     0.027 C 
ENDBRANCH  20  22
ENDBRANCH   1  20
BRANCH   7  24
HETATM   24  N6  UNL     1     -50.215 -31.721  -6.096  1.00  0.00    -0.220 N 
ATOM     25  H6  UNL     1     -50.422 -32.709  -5.952  1.00  0.00     0.178 HD
BRANCH  24  26
HETATM   26  C11 UNL     1     -50.968 -30.714  -5.376  1.00  0.00     0.105 C 
HETATM   27  C12 UNL     1     -51.180 -31.205  -3.984  1.00  0.00     0.033 C 
BRANCH  26  28
HETATM   28  C13 UNL     1     -52.264 -30.501  -6.126  1.00  0.00     0.111 C 
HETATM   29  S1  UNL     1     -52.159 -29.199  -7.356  1.00  0.00    -0.096 SA
ENDBRANCH  26  28
ENDBRANCH  24  26
ENDBRANCH   7  24
TORSDOF 7
ENDMDL
MODEL 2
REMARK VINA RESULT: -7.351814559      2.384      5.915
REMARK  7 active torsions:
REMARK  status: ('A' for Active; 'I' for Inactive)
REMARK    1  A    between atoms: C2_2  and  N1_3 
REMARK    2  A    between atoms: N1_3  and  C3_5 
REMARK    3  A    between atoms: C4_8  and  N3_9 
REMARK    4  A    between atoms: C8_13  and  N4_14 
REMARK    5  A    between atoms: C10_21  and  N6_22 
REMARK    6  A    between atoms: N6_22  and  C11_24 
REMARK    7  A    between atoms: C11_24  and  C13_26 
ROOT
HETATM    1  C3  UNL     1     -48.168 -31.236  -9.315  1.00  0.00     0.707 A 
HETATM    2  N2  UNL     1     -49.178 -31.111  -8.444  1.00  0.00    -0.021 N 
ATOM      3  H2  UNL     1     -50.120 -31.405  -8.705  1.00  0.00     0.203 HD
HETATM    4  C4  UNL     1     -48.941 -30.587  -7.202  1.00  0.00     0.709 A 
HETATM    5  N5  UNL     1     -47.681 -30.227  -6.939  1.00  0.00    -0.021 N 
ATOM      6  H5  UNL     1     -47.477 -29.834  -6.021  1.00  0.00     0.203 HD
HETATM    7  C10 UNL     1     -46.667 -30.352  -7.811  1.00  0.00     0.707 A 
HETATM    8  N7  UNL     1     -46.912 -30.868  -9.029  1.00  0.00    -0.022 N 
ATOM      9  H7  UNL     1     -46.164 -30.975  -9.714  1.00  0.00     0.203 HD
ENDROOT
BRANCH   4  10
HETATM   10  N3  UNL     1     -50.002 -30.447  -6.262  1.00  0.00    -0.215 N 
HETATM   11  C5  UNL     1     -51.046 -29.493  -6.583  1.00  0.00     0.141 C 
HETATM   12  C6  UNL     1     -52.343 -30.308  -6.628  1.00  0.00     0.022 C 
HETATM   13  C7  UNL     1     -52.572 -30.752  -5.189  1.00  0.00     0.036 C 
HETATM   14  C8  UNL     1     -51.488 -31.668  -4.735  1.00  0.00     0.202 C 
HETATM   15  C9  UNL     1     -50.103 -31.180  -5.036  1.00  0.00     0.173 C 
BRANCH  14  16
HETATM   16  N4  UNL     1     -51.638 -31.818  -3.280  1.00  0.00    -0.073 N 
ATOM     17  H43 UNL     1     -50.760 -32.028  -2.805  1.00  0.00     0.274 HD
ATOM     18  H42 UNL     1     -51.835 -30.937  -2.803  1.00  0.00     0.274 HD
ATOM     19  H41 UNL     1     -52.356 -32.526  -3.127  1.00  0.00     0.274 HD
ENDBRANCH  14  16
ENDBRANCH   4  10
BRANCH   1  20
HETATM   20  N1  UNL     1     -48.408 -31.729 -10.474  1.00  0.00    -0.225 N 
ATOM     21  H1  UNL     1     -47.639 -31.825 -11.138  1.00  0.00     0.177 HD
BRANCH  20  22
HETATM   22  C2  UNL     1     -49.731 -32.152 -10.872  1.00  0.00     0.133 C 
HETATM   23  C1  UNL     1     -49.829 -33.667 -10.696  1.00  0.00     0.027 C 
ENDBRANCH  20  22
ENDBRANCH   1  20
BRANCH   7  24
HETATM   24  N6  UNL     1     -45.497 -29.981  -7.470  1.00  0.00    -0.220 N 
ATOM     25  H6  UNL     1     -44.826 -30.667  -7.126  1.00  0.00     0.178 HD
BRANCH  24  26
HETATM   26  C11 UNL     1     -45.115 -28.587  -7.567  1.00  0.00     0.105 C 
HETATM   27  C12 UNL     1     -44.281 -28.421  -8.793  1.00  0.00     0.033 C 
BRANCH  26  28
HETATM   28  C13 UNL     1     -44.367 -28.236  -6.299  1.00  0.00     0.111 C 
HETATM   29  S1  UNL     1     -43.107 -29.439  -5.871  1.00  0.00    -0.096 SA
ENDBRANCH  26  28
ENDBRANCH  24  26
ENDBRANCH   7  24
TORSDOF 7
ENDMDL
MODEL 3
REMARK VINA RESULT: -7.319908877      2.294      5.885
REMARK  7 active torsions:
REMARK  status: ('A' for Active; 'I' for Inactive)
REMARK    1  A    between atoms: C2_2  and  N1_3 
REMARK    2  A    between atoms: N1_3  and  C3_5 
REMARK    3  A    between atoms: C4_8  and  N3_9 
REMARK    4  A    between atoms: C8_13  and  N4_14 
REMARK    5  A    between atoms: C10_21  and  N6_22 
REMARK    6  A    between atoms: N6_22  and  C11_24 
REMARK    7  A    between atoms: C11_24  and  C13_26 
ROOT
HETATM    1  C3  UNL     1     -47.921 -31.025  -9.027  1.00  0.00     0.707 A 
HETATM    2  N2  UNL     1     -48.980 -30.981  -8.209  1.00  0.00    -0.021 N 
ATOM      3  H2  UNL     1     -49.867 -31.397  -8.496  1.00  0.00     0.203 HD
HETATM    4  C4  UNL     1     -48.868 -30.376  -6.986  1.00  0.00     0.709 A 
HETATM    5  N5  UNL     1     -47.674 -29.857  -6.687  1.00  0.00    -0.021 N 
ATOM      6  H5  UNL     1     -47.563 -29.400  -5.783  1.00  0.00     0.203 HD
HETATM    7  C10 UNL     1     -46.610 -29.901  -7.506  1.00  0.00     0.707 A 
HETATM    8  N7  UNL     1     -46.731 -30.497  -8.706  1.00  0.00    -0.022 N 
ATOM      9  H7  UNL     1     -45.943 -30.546  -9.351  1.00  0.00     0.203 HD
ENDROOT
BRANCH   4  10
HETATM   10  N3  UNL     1     -49.983 -30.320  -6.103  1.00  0.00    -0.215 N 
HETATM   11  C5  UNL     1     -51.077 -29.442  -6.475  1.00  0.00     0.141 C 
HETATM   12  C6  UNL     1     -52.306 -30.350  -6.590  1.00  0.00     0.022 C 
HETATM   13  C7  UNL     1     -52.577 -30.819  -5.166  1.00  0.00     0.036 C 
HETATM   14  C8  UNL     1     -51.454 -31.656  -4.659  1.00  0.00     0.202 C 
HETATM   15  C9  UNL     1     -50.094 -31.067  -4.886  1.00  0.00     0.173 C 
BRANCH  14  16
HETATM   16  N4  UNL     1     -51.668 -31.827  -3.214  1.00  0.00    -0.073 N 
ATOM     17  H43 UNL     1     -52.397 -31.219  -2.842  1.00  0.00     0.274 HD
ATOM     18  H42 UNL     1     -52.106 -32.717  -2.975  1.00  0.00     0.274 HD
ATOM     19  H41 UNL     1     -50.763 -31.691  -2.763  1.00  0.00     0.274 HD
ENDBRANCH  14  16
ENDBRANCH   4  10
BRANCH   1  20
HETATM   20  N1  UNL     1     -48.043 -31.596 -10.169  1.00  0.00    -0.225 N 
ATOM     21  H1  UNL     1     -47.262 -31.560 -10.824  1.00  0.00     0.177 HD
BRANCH  20  22
HETATM   22  C2  UNL     1     -49.250 -32.288 -10.558  1.00  0.00     0.133 C 
HETATM   23  C1  UNL     1     -49.291 -32.371 -12.084  1.00  0.00     0.027 C 
ENDBRANCH  20  22
ENDBRANCH   1  20
BRANCH   7  24
HETATM   24  N6  UNL     1     -45.509 -29.377  -7.133  1.00  0.00    -0.220 N 
ATOM     25  H6  UNL     1     -45.480 -28.393  -6.866  1.00  0.00     0.178 HD
BRANCH  24  26
HETATM   26  C11 UNL     1     -44.299 -30.172  -7.087  1.00  0.00     0.105 C 
HETATM   27  C12 UNL     1     -44.086 -30.608  -5.676  1.00  0.00     0.033 C 
BRANCH  26  28
HETATM   28  C13 UNL     1     -43.173 -29.307  -7.609  1.00  0.00     0.111 C 
HETATM   29  S1  UNL     1     -43.462 -28.705  -9.274  1.00  0.00    -0.096 SA
ENDBRANCH  26  28
ENDBRANCH  24  26
ENDBRANCH   7  24
TORSDOF 7
ENDMDL
MODEL 4
REMARK VINA RESULT: -7.305262238      1.166      1.166
REMARK  7 active torsions:
REMARK  status: ('A' for Active; 'I' for Inactive)
REMARK    1  A    between atoms: C2_2  and  N1_3 
REMARK    2  A    between atoms: N1_3  and  C3_5 
REMARK    3  A    between atoms: C4_8  and  N3_9 
REMARK    4  A    between atoms: C8_13  and  N4_14 
REMARK    5  A    between atoms: C10_21  and  N6_22 
REMARK    6  A    between atoms: N6_22  and  C11_24 
REMARK    7  A    between atoms: C11_24  and  C13_26 
ROOT
HETATM    1  C3  UNL     1     -48.493 -31.249  -8.892  1.00  0.00     0.707 A 
HETATM    2  N2  UNL     1     -47.462 -30.528  -8.431  1.00  0.00    -0.021 N 
ATOM      3  H2  UNL     1     -46.738 -30.202  -9.072  1.00  0.00     0.203 HD
HETATM    4  C4  UNL     1     -47.385 -30.232  -7.098  1.00  0.00     0.709 A 
HETATM    5  N5  UNL     1     -48.373 -30.696  -6.327  1.00  0.00    -0.021 N 
ATOM      6  H5  UNL     1     -48.340 -30.489  -5.329  1.00  0.00     0.203 HD
HETATM    7  C10 UNL     1     -49.408 -31.419  -6.787  1.00  0.00     0.707 A 
HETATM    8  N7  UNL     1     -49.473 -31.705  -8.100  1.00  0.00    -0.022 N 
ATOM      9  H7  UNL     1     -50.245 -32.253  -8.480  1.00  0.00     0.203 HD
ENDROOT
BRANCH   4  10
HETATM   10  N3  UNL     1     -46.297 -29.466  -6.590  1.00  0.00    -0.215 N 
HETATM   11  C5  UNL     1     -46.234 -29.282  -5.152  1.00  0.00     0.141 C 
HETATM   12  C6  UNL     1     -44.891 -29.883  -4.724  1.00  0.00     0.022 C 
HETATM   13  C7  UNL     1     -43.842 -28.964  -5.337  1.00  0.00     0.036 C 
HETATM   14  C8  UNL     1     -43.895 -29.012  -6.824  1.00  0.00     0.202 C 
HETATM   15  C9  UNL     1     -45.274 -28.873  -7.397  1.00  0.00     0.173 C 
BRANCH  14  16
HETATM   16  N4  UNL     1     -43.058 -27.908  -7.317  1.00  0.00    -0.073 N 
ATOM     17  H43 UNL     1     -43.441 -27.452  -8.145  1.00  0.00     0.274 HD
ATOM     18  H42 UNL     1     -43.066 -27.093  -6.704  1.00  0.00     0.274 HD
ATOM     19  H41 UNL     1     -42.123 -28.289  -7.466  1.00  0.00     0.274 HD
ENDBRANCH  14  16
ENDBRANCH   4  10
BRANCH   1  20
HETATM   20  N1  UNL     1     -48.550 -31.519 -10.144  1.00  0.00    -0.225 N 
ATOM     21  H1  UNL     1     -47.762 -31.265 -10.740  1.00  0.00     0.177 HD
BRANCH  20  22
HETATM   22  C2  UNL     1     -49.693 -32.172 -10.740  1.00  0.00     0.133 C 
HETATM   23  C1  UNL     1     -49.382 -32.449 -12.210  1.00  0.00     0.027 C 
ENDBRANCH  20  22
ENDBRANCH   1  20
BRANCH   7  24
HETATM   24  N6  UNL     1     -50.304 -31.819  -5.974  1.00  0.00    -0.220 N 
ATOM     25  H6  UNL     1     -50.359 -32.806  -5.724  1.00  0.00     0.178 HD
BRANCH  24  26
HETATM   26  C11 UNL     1     -51.246 -30.878  -5.403  1.00  0.00     0.105 C 
HETATM   27  C12 UNL     1     -50.710 -30.429  -4.086  1.00  0.00     0.033 C 
BRANCH  26  28
HETATM   28  C13 UNL     1     -52.575 -31.590  -5.282  1.00  0.00     0.111 C 
HETATM   29  S1  UNL     1     -52.550 -32.926  -4.084  1.00  0.00    -0.096 SA
ENDBRANCH  26  28
ENDBRANCH  24  26
ENDBRANCH   7  24
TORSDOF 7
ENDMDL
MODEL 5
REMARK VINA RESULT: -7.283203757      1.533      1.878
REMARK  7 active torsions:
REMARK  status: ('A' for Active; 'I' for Inactive)
REMARK    1  A    between atoms: C2_2  and  N1_3 
REMARK    2  A    between atoms: N1_3  and  C3_5 
REMARK    3  A    between atoms: C4_8  and  N3_9 
REMARK    4  A    between atoms: C8_13  and  N4_14 
REMARK    5  A    between atoms: C10_21  and  N6_22 
REMARK    6  A    between atoms: N6_22  and  C11_24 
REMARK    7  A    between atoms: C11_24  and  C13_26 
ROOT
HETATM    1  C3  UNL     1     -48.319 -31.022  -9.446  1.00  0.00     0.707 A 
HETATM    2  N2  UNL     1     -47.164 -30.374  -9.248  1.00  0.00    -0.021 N 
ATOM      3  H2  UNL     1     -46.365 -30.553  -9.857  1.00  0.00     0.203 HD
HETATM    4  C4  UNL     1     -47.060 -29.471  -8.225  1.00  0.00     0.709 A 
HETATM    5  N5  UNL     1     -48.152 -29.295  -7.475  1.00  0.00    -0.021 N 
ATOM      6  H5  UNL     1     -48.102 -28.627  -6.706  1.00  0.00     0.203 HD
HETATM    7  C10 UNL     1     -49.311 -29.944  -7.672  1.00  0.00     0.707 A 
HETATM    8  N7  UNL     1     -49.402 -30.830  -8.680  1.00  0.00    -0.022 N 
ATOM      9  H7  UNL     1     -50.268 -31.340  -8.855  1.00  0.00     0.203 HD
ENDROOT
BRANCH   4  10
HETATM   10  N3  UNL     1     -45.841 -28.772  -8.000  1.00  0.00    -0.215 N 
HETATM   11  C5  UNL     1     -45.634 -28.214  -6.676  1.00  0.00     0.141 C 
HETATM   12  C6  UNL     1     -44.354 -28.874  -6.152  1.00  0.00     0.022 C 
HETATM   13  C7  UNL     1     -43.245 -28.329  -7.043  1.00  0.00     0.036 C 
HETATM   14  C8  UNL     1     -43.427 -28.772  -8.453  1.00  0.00     0.202 C 
HETATM   15  C9  UNL     1     -44.817 -28.586  -8.983  1.00  0.00     0.173 C 
BRANCH  14  16
HETATM   16  N4  UNL     1     -42.491 -27.987  -9.271  1.00  0.00    -0.073 N 
ATOM     17  H43 UNL     1     -41.540 -27.985  -8.903  1.00  0.00     0.274 HD
ATOM     18  H42 UNL     1     -42.280 -28.423 -10.170  1.00  0.00     0.274 HD
ATOM     19  H41 UNL     1     -42.889 -27.053  -9.362  1.00  0.00     0.274 HD
ENDBRANCH  14  16
ENDBRANCH   4  10
BRANCH   1  20
HETATM   20  N1  UNL     1     -48.399 -31.866 -10.409  1.00  0.00    -0.225 N 
ATOM     21  H1  UNL     1     -47.541 -32.267 -10.786  1.00  0.00     0.177 HD
BRANCH  20  22
HETATM   22  C2  UNL     1     -49.666 -32.267 -10.977  1.00  0.00     0.133 C 
HETATM   23  C1  UNL     1     -49.868 -33.758 -10.705  1.00  0.00     0.027 C 
ENDBRANCH  20  22
ENDBRANCH   1  20
BRANCH   7  24
HETATM   24  N6  UNL     1     -50.300 -29.709  -6.903  1.00  0.00    -0.220 N 
ATOM     25  H6  UNL     1     -50.148 -29.244  -6.008  1.00  0.00     0.178 HD
BRANCH  24  26
HETATM   26  C11 UNL     1     -51.639 -30.100  -7.293  1.00  0.00     0.105 C 
HETATM   27  C12 UNL     1     -52.344 -28.889  -7.805  1.00  0.00     0.033 C 
BRANCH  26  28
HETATM   28  C13 UNL     1     -52.308 -30.694  -6.072  1.00  0.00     0.111 C 
HETATM   29  S1  UNL     1     -51.256 -30.681  -4.619  1.00  0.00    -0.096 SA
ENDBRANCH  26  28
ENDBRANCH  24  26
ENDBRANCH   7  24
TORSDOF 7
ENDMDL
