MODEL 1
REMARK VINA RESULT: -6.823853735      0.000      0.000
REMARK  6 active torsions:
REMARK  status: ('A' for Active; 'I' for Inactive)
REMARK    1  A    between atoms: N1_1  and  C1_4 
REMARK    2  A    between atoms: C2_7  and  N3_8 
REMARK    3  A    between atoms: C7_18  and  N6_19 
REMARK    4  A    between atoms: N6_19  and  C8_21 
REMARK    5  A    between atoms: C8_21  and  C9_22 
REMARK    6  A    between atoms: C9_22  and  C10_25 
ROOT
HETATM    1  C1  UNL     1      30.983  48.483   9.540  1.00  0.00     0.705 A 
HETATM    2  N2  UNL     1      30.482  48.860   8.355  1.00  0.00    -0.022 N 
ATOM      3  H2  UNL     1      30.718  49.790   8.008  1.00  0.00     0.203 HD
HETATM    4  C2  UNL     1      29.684  48.080   7.593  1.00  0.00     0.709 A 
HETATM    5  N5  UNL     1      29.365  46.855   8.039  1.00  0.00    -0.021 N 
ATOM      6  H5  UNL     1      28.764  46.242   7.488  1.00  0.00     0.203 HD
HETATM    7  C7  UNL     1      29.859  46.441   9.242  1.00  0.00     0.707 A 
HETATM    8  N7  UNL     1      30.647  47.246   9.966  1.00  0.00    -0.022 N 
ATOM      9  H7  UNL     1      31.003  46.916  10.863  1.00  0.00     0.203 HD
ENDROOT
BRANCH   7  10
HETATM   10  N6  UNL     1      29.583  45.278   9.713  1.00  0.00    -0.221 N 
ATOM     11  H6  UNL     1      30.203  44.879  10.418  1.00  0.00     0.177 HD
BRANCH  10  12
HETATM   12  C8  UNL     1      28.436  44.512   9.291  1.00  0.00     0.203 C 
BRANCH  12  13
HETATM   13  C9  UNL     1      28.825  43.258   8.549  1.00  0.00     0.273 C 
HETATM   14  F1  UNL     1      27.781  42.351   8.722  1.00  0.00    -0.219 F 
HETATM   15 BR1  UNL     1      30.469  42.602   9.291  1.00  0.00    -0.037 Br
BRANCH  13  16
HETATM   16  C10 UNL     1      28.967  43.483   7.069  1.00  0.00     0.435 C 
HETATM   17  F2  UNL     1      28.861  42.347   6.324  1.00  0.00    -0.167 F 
HETATM   18  F3  UNL     1      30.164  44.096   6.771  1.00  0.00    -0.167 F 
HETATM   19  F4  UNL     1      27.928  44.334   6.694  1.00  0.00    -0.167 F 
ENDBRANCH  13  16
ENDBRANCH  12  13
ENDBRANCH  10  12
ENDBRANCH   7  10
BRANCH   4  20
HETATM   20  N3  UNL     1      29.201  48.575   6.345  1.00  0.00    -0.213 N 
HETATM   21  C3  UNL     1      29.342  50.009   6.067  1.00  0.00     0.168 C 
HETATM   22  C4  UNL     1      30.023  50.110   4.718  1.00  0.00     0.252 C 
HETATM   23  N4  UNL     1      29.027  49.630   3.750  1.00  0.00    -0.072 N 
HETATM   24  C5  UNL     1      28.823  48.227   3.925  1.00  0.00     0.252 C 
ATOM     25  H42 UNL     1      28.154  50.155   3.804  1.00  0.00     0.277 HD
ATOM     26  H41 UNL     1      29.280  49.865   2.790  1.00  0.00     0.277 HD
HETATM   27  C6  UNL     1      28.587  47.780   5.334  1.00  0.00     0.168 C 
ENDBRANCH   4  20
BRANCH   1  28
HETATM   28  N1  UNL     1      31.742  49.203  10.283  1.00  0.00    -0.234 N 
ATOM     29  H12 UNL     1      31.455  49.382  11.246  1.00  0.00     0.174 HD
ATOM     30  H11 UNL     1      32.625  49.622   9.990  1.00  0.00     0.174 HD
ENDBRANCH   1  28
TORSDOF 6
ENDMDL
MODEL 2
REMARK VINA RESULT: -6.815952703      0.527      1.063
REMARK  6 active torsions:
REMARK  status: ('A' for Active; 'I' for Inactive)
REMARK    1  A    between atoms: N1_1  and  C1_4 
REMARK    2  A    between atoms: C2_7  and  N3_8 
REMARK    3  A    between atoms: C7_18  and  N6_19 
REMARK    4  A    between atoms: N6_19  and  C8_21 
REMARK    5  A    between atoms: C8_21  and  C9_22 
REMARK    6  A    between atoms: C9_22  and  C10_25 
ROOT
HETATM    1  C1  UNL     1      30.977  48.450   9.540  1.00  0.00     0.705 A 
HETATM    2  N2  UNL     1      30.478  48.826   8.354  1.00  0.00    -0.022 N 
ATOM      3  H2  UNL     1      30.718  49.754   8.006  1.00  0.00     0.203 HD
HETATM    4  C2  UNL     1      29.677  48.048   7.593  1.00  0.00     0.709 A 
HETATM    5  N5  UNL     1      29.353  46.825   8.041  1.00  0.00    -0.021 N 
ATOM      6  H5  UNL     1      28.749  46.214   7.490  1.00  0.00     0.203 HD
HETATM    7  C7  UNL     1      29.844  46.412   9.245  1.00  0.00     0.707 A 
HETATM    8  N7  UNL     1      30.635  47.215   9.968  1.00  0.00    -0.022 N 
ATOM      9  H7  UNL     1      30.989  46.885  10.866  1.00  0.00     0.203 HD
ENDROOT
BRANCH   7  10
HETATM   10  N6  UNL     1      29.563  45.251   9.718  1.00  0.00    -0.221 N 
ATOM     11  H6  UNL     1      30.049  44.937  10.559  1.00  0.00     0.177 HD
BRANCH  10  12
HETATM   12  C8  UNL     1      28.592  44.371   9.115  1.00  0.00     0.203 C 
BRANCH  12  13
HETATM   13  C9  UNL     1      29.174  43.022   8.773  1.00  0.00     0.273 C 
HETATM   14  F1  UNL     1      28.137  42.099   8.886  1.00  0.00    -0.219 F 
HETATM   15 BR1  UNL     1      30.598  42.648  10.004  1.00  0.00    -0.037 Br
BRANCH  13  16
HETATM   16  C10 UNL     1      29.670  42.951   7.354  1.00  0.00     0.435 C 
HETATM   17  F2  UNL     1      30.422  44.023   6.977  1.00  0.00    -0.167 F 
HETATM   18  F3  UNL     1      28.626  42.811   6.468  1.00  0.00    -0.167 F 
HETATM   19  F4  UNL     1      30.477  41.816   7.271  1.00  0.00    -0.167 F 
ENDBRANCH  13  16
ENDBRANCH  12  13
ENDBRANCH  10  12
ENDBRANCH   7  10
BRANCH   4  20
HETATM   20  N3  UNL     1      29.197  48.543   6.343  1.00  0.00    -0.213 N 
HETATM   21  C3  UNL     1      29.314  49.981   6.077  1.00  0.00     0.168 C 
HETATM   22  C4  UNL     1      30.006  50.104   4.735  1.00  0.00     0.252 C 
HETATM   23  N4  UNL     1      29.028  49.613   3.754  1.00  0.00    -0.072 N 
HETATM   24  C5  UNL     1      28.848  48.205   3.918  1.00  0.00     0.252 C 
ATOM     25  H42 UNL     1      28.145  50.121   3.804  1.00  0.00     0.277 HD
ATOM     26  H41 UNL     1      29.286  49.859   2.798  1.00  0.00     0.277 HD
HETATM   27  C6  UNL     1      28.607  47.744   5.322  1.00  0.00     0.168 C 
ENDBRANCH   4  20
BRANCH   1  28
HETATM   28  N1  UNL     1      31.739  49.168  10.282  1.00  0.00    -0.234 N 
ATOM     29  H12 UNL     1      31.331  49.964  10.774  1.00  0.00     0.174 HD
ATOM     30  H11 UNL     1      32.736  49.010  10.426  1.00  0.00     0.174 HD
ENDBRANCH   1  28
TORSDOF 6
ENDMDL
MODEL 3
REMARK VINA RESULT: -6.546779200      3.388      5.792
REMARK  6 active torsions:
REMARK  status: ('A' for Active; 'I' for Inactive)
REMARK    1  A    between atoms: N1_1  and  C1_4 
REMARK    2  A    between atoms: C2_7  and  N3_8 
REMARK    3  A    between atoms: C7_18  and  N6_19 
REMARK    4  A    between atoms: N6_19  and  C8_21 
REMARK    5  A    between atoms: C8_21  and  C9_22 
REMARK    6  A    between atoms: C9_22  and  C10_25 
ROOT
HETATM    1  C1  UNL     1      30.820  48.252   9.466  1.00  0.00     0.705 A 
HETATM    2  N2  UNL     1      30.719  46.915   9.503  1.00  0.00    -0.022 N 
ATOM      3  H2  UNL     1      31.229  46.416  10.231  1.00  0.00     0.203 HD
HETATM    4  C2  UNL     1      29.981  46.192   8.632  1.00  0.00     0.709 A 
HETATM    5  N5  UNL     1      29.305  46.838   7.669  1.00  0.00    -0.021 N 
ATOM      6  H5  UNL     1      28.739  46.320   6.996  1.00  0.00     0.203 HD
HETATM    7  C7  UNL     1      29.387  48.198   7.604  1.00  0.00     0.707 A 
HETATM    8  N7  UNL     1      30.131  48.877   8.487  1.00  0.00    -0.022 N 
ATOM      9  H7  UNL     1      30.179  49.893   8.418  1.00  0.00     0.203 HD
ENDROOT
BRANCH   7  10
HETATM   10  N6  UNL     1      28.760  48.863   6.701  1.00  0.00    -0.221 N 
ATOM     11  H6  UNL     1      28.636  49.867   6.833  1.00  0.00     0.177 HD
BRANCH  10  12
HETATM   12  C8  UNL     1      28.224  48.254   5.509  1.00  0.00     0.203 C 
BRANCH  12  13
HETATM   13  C9  UNL     1      29.107  48.473   4.305  1.00  0.00     0.273 C 
HETATM   14  F1  UNL     1      28.259  48.711   3.225  1.00  0.00    -0.219 F 
HETATM   15 BR1  UNL     1      30.170  46.898   4.041  1.00  0.00    -0.037 Br
BRANCH  13  16
HETATM   16  C10 UNL     1      29.985  49.686   4.447  1.00  0.00     0.435 C 
HETATM   17  F2  UNL     1      30.790  49.660   5.547  1.00  0.00    -0.167 F 
HETATM   18  F3  UNL     1      29.237  50.842   4.476  1.00  0.00    -0.167 F 
HETATM   19  F4  UNL     1      30.807  49.717   3.321  1.00  0.00    -0.167 F 
ENDBRANCH  13  16
ENDBRANCH  12  13
ENDBRANCH  10  12
ENDBRANCH   7  10
BRANCH   4  20
HETATM   20  N3  UNL     1      29.939  44.771   8.756  1.00  0.00    -0.213 N 
HETATM   21  C3  UNL     1      29.377  44.199   9.986  1.00  0.00     0.168 C 
HETATM   22  C4  UNL     1      28.327  43.202   9.542  1.00  0.00     0.252 C 
HETATM   23  N4  UNL     1      29.080  42.104   8.920  1.00  0.00    -0.072 N 
HETATM   24  C5  UNL     1      29.663  42.553   7.695  1.00  0.00     0.252 C 
ATOM     25  H42 UNL     1      29.775  41.708   9.553  1.00  0.00     0.277 HD
ATOM     26  H41 UNL     1      28.507  41.270   8.790  1.00  0.00     0.277 HD
HETATM   27  C6  UNL     1      30.404  43.852   7.772  1.00  0.00     0.168 C 
ENDBRANCH   4  20
BRANCH   1  28
HETATM   28  N1  UNL     1      31.514  48.962  10.278  1.00  0.00    -0.234 N 
ATOM     29  H12 UNL     1      31.247  49.936  10.425  1.00  0.00     0.174 HD
ATOM     30  H11 UNL     1      32.326  48.633  10.800  1.00  0.00     0.174 HD
ENDBRANCH   1  28
TORSDOF 6
ENDMDL
MODEL 4
REMARK VINA RESULT: -6.259224275      1.412      1.953
REMARK  6 active torsions:
REMARK  status: ('A' for Active; 'I' for Inactive)
REMARK    1  A    between atoms: N1_1  and  C1_4 
REMARK    2  A    between atoms: C2_7  and  N3_8 
REMARK    3  A    between atoms: C7_18  and  N6_19 
REMARK    4  A    between atoms: N6_19  and  C8_21 
REMARK    5  A    between atoms: C8_21  and  C9_22 
REMARK    6  A    between atoms: C9_22  and  C10_25 
ROOT
HETATM    1  C1  UNL     1      30.967  48.447   9.542  1.00  0.00     0.705 A 
HETATM    2  N2  UNL     1      30.429  48.846   8.381  1.00  0.00    -0.022 N 
ATOM      3  H2  UNL     1      30.500  49.832   8.132  1.00  0.00     0.203 HD
HETATM    4  C2  UNL     1      29.798  48.017   7.520  1.00  0.00     0.709 A 
HETATM    5  N5  UNL     1      29.696  46.716   7.836  1.00  0.00    -0.021 N 
ATOM      6  H5  UNL     1      29.225  46.065   7.207  1.00  0.00     0.203 HD
HETATM    7  C7  UNL     1      30.233  46.278   9.011  1.00  0.00     0.707 A 
HETATM    8  N7  UNL     1      30.851  47.134   9.836  1.00  0.00    -0.022 N 
ATOM      9  H7  UNL     1      31.243  46.784  10.710  1.00  0.00     0.203 HD
ENDROOT
BRANCH   7  10
HETATM   10  N6  UNL     1      30.163  45.044   9.359  1.00  0.00    -0.221 N 
ATOM     11  H6  UNL     1      29.746  44.816  10.262  1.00  0.00     0.177 HD
BRANCH  10  12
HETATM   12  C8  UNL     1      30.646  43.966   8.532  1.00  0.00     0.203 C 
BRANCH  12  13
HETATM   13  C9  UNL     1      29.593  42.914   8.287  1.00  0.00     0.273 C 
HETATM   14  F1  UNL     1      30.224  41.865   7.621  1.00  0.00    -0.219 F 
HETATM   15 BR1  UNL     1      28.195  43.693   7.227  1.00  0.00    -0.037 Br
BRANCH  13  16
HETATM   16  C10 UNL     1      29.035  42.348   9.564  1.00  0.00     0.435 C 
HETATM   17  F2  UNL     1      28.538  41.085   9.438  1.00  0.00    -0.167 F 
HETATM   18  F3  UNL     1      28.050  43.160  10.079  1.00  0.00    -0.167 F 
HETATM   19  F4  UNL     1      30.091  42.299  10.474  1.00  0.00    -0.167 F 
ENDBRANCH  13  16
ENDBRANCH  12  13
ENDBRANCH  10  12
ENDBRANCH   7  10
BRANCH   4  20
HETATM   20  N3  UNL     1      29.257  48.540   6.307  1.00  0.00    -0.213 N 
HETATM   21  C3  UNL     1      29.399  49.979   6.050  1.00  0.00     0.168 C 
HETATM   22  C4  UNL     1      30.011  50.100   4.670  1.00  0.00     0.252 C 
HETATM   23  N4  UNL     1      28.963  49.648   3.745  1.00  0.00    -0.072 N 
HETATM   24  C5  UNL     1      28.753  48.244   3.903  1.00  0.00     0.252 C 
ATOM     25  H42 UNL     1      28.099  50.179   3.854  1.00  0.00     0.277 HD
ATOM     26  H41 UNL     1      29.169  49.899   2.778  1.00  0.00     0.277 HD
HETATM   27  C6  UNL     1      28.585  47.771   5.314  1.00  0.00     0.168 C 
ENDBRANCH   4  20
BRANCH   1  28
HETATM   28  N1  UNL     1      31.570  49.212  10.377  1.00  0.00    -0.234 N 
ATOM     29  H12 UNL     1      31.598  50.215  10.188  1.00  0.00     0.174 HD
ATOM     30  H11 UNL     1      32.035  48.900  11.229  1.00  0.00     0.174 HD
ENDBRANCH   1  28
TORSDOF 6
ENDMDL
MODEL 5
REMARK VINA RESULT: -6.202899307      3.354      5.976
REMARK  6 active torsions:
REMARK  status: ('A' for Active; 'I' for Inactive)
REMARK    1  A    between atoms: N1_1  and  C1_4 
REMARK    2  A    between atoms: C2_7  and  N3_8 
REMARK    3  A    between atoms: C7_18  and  N6_19 
REMARK    4  A    between atoms: N6_19  and  C8_21 
REMARK    5  A    between atoms: C8_21  and  C9_22 
REMARK    6  A    between atoms: C9_22  and  C10_25 
ROOT
HETATM    1  C1  UNL     1      26.952  47.228   9.162  1.00  0.00     0.705 A 
HETATM    2  N2  UNL     1      27.555  46.030   9.175  1.00  0.00    -0.022 N 
ATOM      3  H2  UNL     1      27.062  45.250   9.610  1.00  0.00     0.203 HD
HETATM    4  C2  UNL     1      28.776  45.796   8.646  1.00  0.00     0.709 A 
HETATM    5  N5  UNL     1      29.435  46.815   8.071  1.00  0.00    -0.021 N 
ATOM      6  H5  UNL     1      30.359  46.670   7.663  1.00  0.00     0.203 HD
HETATM    7  C7  UNL     1      28.849  48.047   8.041  1.00  0.00     0.707 A 
HETATM    8  N7  UNL     1      27.637  48.236   8.578  1.00  0.00    -0.022 N 
ATOM      9  H7  UNL     1      27.219  49.165   8.546  1.00  0.00     0.203 HD
ENDROOT
BRANCH   7  10
HETATM   10  N6  UNL     1      29.438  49.054   7.504  1.00  0.00    -0.221 N 
ATOM     11  H6  UNL     1      29.341  49.968   7.946  1.00  0.00     0.177 HD
BRANCH  10  12
HETATM   12  C8  UNL     1      30.230  48.950   6.303  1.00  0.00     0.203 C 
BRANCH  12  13
HETATM   13  C9  UNL     1      29.424  48.464   5.124  1.00  0.00     0.273 C 
HETATM   14  F1  UNL     1      28.088  48.470   5.523  1.00  0.00    -0.219 F 
HETATM   15 BR1  UNL     1      30.023  46.700   4.667  1.00  0.00    -0.037 Br
BRANCH  13  16
HETATM   16  C10 UNL     1      29.528  49.381   3.936  1.00  0.00     0.435 C 
HETATM   17  F2  UNL     1      30.693  49.254   3.240  1.00  0.00    -0.167 F 
HETATM   18  F3  UNL     1      29.380  50.698   4.309  1.00  0.00    -0.167 F 
HETATM   19  F4  UNL     1      28.482  49.044   3.078  1.00  0.00    -0.167 F 
ENDBRANCH  13  16
ENDBRANCH  12  13
ENDBRANCH  10  12
ENDBRANCH   7  10
BRANCH   4  20
HETATM   20  N3  UNL     1      29.331  44.483   8.712  1.00  0.00    -0.213 N 
HETATM   21  C3  UNL     1      28.935  43.619   9.830  1.00  0.00     0.168 C 
HETATM   22  C4  UNL     1      28.467  42.319   9.210  1.00  0.00     0.252 C 
HETATM   23  N4  UNL     1      29.680  41.699   8.659  1.00  0.00    -0.072 N 
HETATM   24  C5  UNL     1      30.146  42.460   7.544  1.00  0.00     0.252 C 
ATOM     25  H42 UNL     1      30.403  41.573   9.368  1.00  0.00     0.277 HD
ATOM     26  H41 UNL     1      29.535  40.717   8.421  1.00  0.00     0.277 HD
HETATM   27  C6  UNL     1      30.249  43.937   7.769  1.00  0.00     0.168 C 
ENDBRANCH   4  20
BRANCH   1  28
HETATM   28  N1  UNL     1      25.795  47.478   9.657  1.00  0.00    -0.234 N 
ATOM     29  H12 UNL     1      25.077  46.754   9.610  1.00  0.00     0.174 HD
ATOM     30  H11 UNL     1      25.524  48.355  10.102  1.00  0.00     0.174 HD
ENDBRANCH   1  28
TORSDOF 6
ENDMDL
