MODEL 1
REMARK VINA RESULT: -7.891475430      0.000      0.000
REMARK  6 active torsions:
REMARK  status: ('A' for Active; 'I' for Inactive)
REMARK    1  A    between atoms: C1_2  and  C2_4 
REMARK    2  A    between atoms: C5_9  and  C6_10 
REMARK       I    between atoms: C6_10  and  N3_12 
REMARK    3  A    between atoms: N3_12  and  N4_14 
REMARK       I    between atoms: N4_14  and  C7_16 
REMARK    4  A    between atoms: C7_16  and  C8_18 
REMARK    5  A    between atoms: C8_18  and  N5_19 
REMARK    6  A    between atoms: C8_18  and  C9_23 
ROOT
HETATM    1  C6  UNL     1      23.315  48.370 -16.038  1.00  0.00     0.272 C 
HETATM    2  O2  UNL     1      24.200  47.809 -16.729  1.00  0.00    -0.266 OA
HETATM    3  N3  UNL     1      22.351  49.195 -16.670  1.00  0.00    -0.263 N 
ATOM      4  H3  UNL     1      21.627  49.651 -16.114  1.00  0.00     0.190 HD
ENDROOT
BRANCH   3   5
HETATM    5  N4  UNL     1      22.393  49.381 -18.064  1.00  0.00    -0.265 N 
HETATM    6  C7  UNL     1      21.625  50.393 -18.670  1.00  0.00     0.274 C 
HETATM    7  O3  UNL     1      20.890  51.135 -17.936  1.00  0.00    -0.269 OA
ATOM      8  H4  UNL     1      22.983  48.780 -18.639  1.00  0.00     0.190 HD
BRANCH   6   9
HETATM    9  C8  UNL     1      21.577  50.703 -20.115  1.00  0.00     0.364 C 
BRANCH   9  10
HETATM   10  N5  UNL     1      20.295  51.156 -20.520  1.00  0.00    -0.059 N 
ATOM     11  H53 UNL     1      19.560  50.765 -19.930  1.00  0.00     0.275 HD
ATOM     12  H52 UNL     1      20.166  52.145 -20.303  1.00  0.00     0.275 HD
ATOM     13  H51 UNL     1      20.116  50.967 -21.506  1.00  0.00     0.275 HD
ENDBRANCH   9  10
BRANCH   9  14
HETATM   14  C9  UNL     1      22.616  51.760 -20.480  1.00  0.00     0.356 C 
HETATM   15  F1  UNL     1      22.266  52.419 -21.648  1.00  0.00    -0.185 F 
HETATM   16  F2  UNL     1      22.542  52.746 -19.486  1.00  0.00    -0.185 F 
HETATM   17 CL1  UNL     1      24.227  51.104 -20.637  1.00  0.00    -0.045 Cl
ENDBRANCH   9  14
ENDBRANCH   6   9
ENDBRANCH   3   5
BRANCH   1  18
HETATM   18  C5  UNL     1      23.326  48.142 -14.601  1.00  0.00     0.059 A 
HETATM   19  C4  UNL     1      22.254  47.478 -14.027  1.00  0.00     0.036 A 
HETATM   20  C3  UNL     1      22.233  47.269 -12.662  1.00  0.00     0.089 A 
HETATM   21  N2  UNL     1      23.235  47.700 -11.874  1.00  0.00    -0.360 N 
HETATM   22  C2  UNL     1      24.304  48.352 -12.384  1.00  0.00     0.120 A 
ATOM     23  H2  UNL     1      23.187  47.530 -10.869  1.00  0.00     0.165 HD
HETATM   24  C10 UNL     1      24.328  48.562 -13.746  1.00  0.00     0.081 A 
HETATM   25 CL2  UNL     1      25.689  49.392 -14.436  1.00  0.00    -0.081 Cl
BRANCH  22  26
HETATM   26  C1  UNL     1      25.324  48.804 -11.468  1.00  0.00     0.283 C 
HETATM   27  N1  UNL     1      25.150  49.965 -10.680  1.00  0.00    -0.056 NA
HETATM   28  O1  UNL     1      26.388  48.167 -11.354  1.00  0.00    -0.269 OA
ENDBRANCH  22  26
ENDBRANCH   1  18
TORSDOF 6
ENDMDL
MODEL 2
REMARK VINA RESULT: -7.711087167      4.217      7.633
REMARK  6 active torsions:
REMARK  status: ('A' for Active; 'I' for Inactive)
REMARK    1  A    between atoms: C1_2  and  C2_4 
REMARK    2  A    between atoms: C5_9  and  C6_10 
REMARK       I    between atoms: C6_10  and  N3_12 
REMARK    3  A    between atoms: N3_12  and  N4_14 
REMARK       I    between atoms: N4_14  and  C7_16 
REMARK    4  A    between atoms: C7_16  and  C8_18 
REMARK    5  A    between atoms: C8_18  and  N5_19 
REMARK    6  A    between atoms: C8_18  and  C9_23 
ROOT
HETATM    1  C6  UNL     1      22.909  48.226 -16.501  1.00  0.00     0.272 C 
HETATM    2  O2  UNL     1      23.163  46.996 -16.482  1.00  0.00    -0.266 OA
HETATM    3  N3  UNL     1      22.401  48.854 -15.337  1.00  0.00    -0.263 N 
ATOM      4  H3  UNL     1      22.196  49.854 -15.344  1.00  0.00     0.190 HD
ENDROOT
BRANCH   3   5
HETATM    5  N4  UNL     1      22.181  48.097 -14.170  1.00  0.00    -0.265 N 
HETATM    6  C7  UNL     1      23.064  48.197 -13.080  1.00  0.00     0.274 C 
HETATM    7  O3  UNL     1      24.068  48.982 -13.166  1.00  0.00    -0.269 OA
ATOM      8  H4  UNL     1      21.376  47.473 -14.115  1.00  0.00     0.190 HD
BRANCH   6   9
HETATM    9  C8  UNL     1      22.952  47.469 -11.799  1.00  0.00     0.364 C 
BRANCH   9  10
HETATM   10  N5  UNL     1      24.187  46.893 -11.403  1.00  0.00    -0.059 N 
ATOM     11  H53 UNL     1      24.324  45.979 -11.835  1.00  0.00     0.275 HD
ATOM     12  H52 UNL     1      24.976  47.387 -11.820  1.00  0.00     0.275 HD
ATOM     13  H51 UNL     1      24.277  46.839 -10.389  1.00  0.00     0.275 HD
ENDBRANCH   9  10
BRANCH   9  14
HETATM   14  C9  UNL     1      22.457  48.392 -10.688  1.00  0.00     0.356 C 
HETATM   15  F1  UNL     1      21.897  47.665  -9.649  1.00  0.00    -0.185 F 
HETATM   16  F2  UNL     1      23.599  48.982 -10.128  1.00  0.00    -0.185 F 
HETATM   17 CL1  UNL     1      21.312  49.583 -11.255  1.00  0.00    -0.045 Cl
ENDBRANCH   9  14
ENDBRANCH   6   9
ENDBRANCH   3   5
BRANCH   1  18
HETATM   18  C5  UNL     1      23.154  48.953 -17.737  1.00  0.00     0.059 A 
HETATM   19  C4  UNL     1      22.077  49.521 -18.397  1.00  0.00     0.036 A 
HETATM   20  C3  UNL     1      22.283  50.198 -19.582  1.00  0.00     0.089 A 
HETATM   21  N2  UNL     1      23.514  50.318 -20.113  1.00  0.00    -0.360 N 
HETATM   22  C2  UNL     1      24.599  49.784 -19.509  1.00  0.00     0.120 A 
ATOM     23  H2  UNL     1      23.631  50.823 -20.991  1.00  0.00     0.165 HD
HETATM   24  C10 UNL     1      24.396  49.108 -18.324  1.00  0.00     0.081 A 
HETATM   25 CL2  UNL     1      25.768  48.413 -17.517  1.00  0.00    -0.081 Cl
BRANCH  22  26
HETATM   26  C1  UNL     1      25.880  49.935 -20.156  1.00  0.00     0.283 C 
HETATM   27  N1  UNL     1      27.089  49.890 -19.425  1.00  0.00    -0.056 NA
HETATM   28  O1  UNL     1      25.940  50.108 -21.388  1.00  0.00    -0.269 OA
ENDBRANCH  22  26
ENDBRANCH   1  18
TORSDOF 6
ENDMDL
MODEL 3
REMARK VINA RESULT: -7.410213724      4.212      7.580
REMARK  6 active torsions:
REMARK  status: ('A' for Active; 'I' for Inactive)
REMARK    1  A    between atoms: C1_2  and  C2_4 
REMARK    2  A    between atoms: C5_9  and  C6_10 
REMARK       I    between atoms: C6_10  and  N3_12 
REMARK    3  A    between atoms: N3_12  and  N4_14 
REMARK       I    between atoms: N4_14  and  C7_16 
REMARK    4  A    between atoms: C7_16  and  C8_18 
REMARK    5  A    between atoms: C8_18  and  N5_19 
REMARK    6  A    between atoms: C8_18  and  C9_23 
ROOT
HETATM    1  C6  UNL     1      23.552  48.211 -15.780  1.00  0.00     0.272 C 
HETATM    2  O2  UNL     1      22.880  47.169 -15.583  1.00  0.00    -0.266 OA
HETATM    3  N3  UNL     1      24.201  48.843 -14.691  1.00  0.00    -0.263 N 
ATOM      4  H3  UNL     1      24.752  49.688 -14.845  1.00  0.00     0.190 HD
ENDROOT
BRANCH   3   5
HETATM    5  N4  UNL     1      24.084  48.304 -13.396  1.00  0.00    -0.265 N 
HETATM    6  C7  UNL     1      23.572  49.084 -12.344  1.00  0.00     0.274 C 
HETATM    7  O3  UNL     1      23.218  50.288 -12.581  1.00  0.00    -0.269 OA
ATOM      8  H4  UNL     1      24.373  47.342 -13.219  1.00  0.00     0.190 HD
BRANCH   6   9
HETATM    9  C8  UNL     1      23.390  48.647 -10.943  1.00  0.00     0.364 C 
BRANCH   9  10
HETATM   10  N5  UNL     1      23.741  49.664 -10.018  1.00  0.00    -0.059 N 
ATOM     11  H53 UNL     1      22.923  50.002  -9.510  1.00  0.00     0.275 HD
ATOM     12  H52 UNL     1      24.271  49.284  -9.233  1.00  0.00     0.275 HD
ATOM     13  H51 UNL     1      24.241  50.433 -10.465  1.00  0.00     0.275 HD
ENDBRANCH   9  10
BRANCH   9  14
HETATM   14  C9  UNL     1      21.947  48.220 -10.688  1.00  0.00     0.356 C 
HETATM   15  F1  UNL     1      21.853  47.435  -9.550  1.00  0.00    -0.185 F 
HETATM   16  F2  UNL     1      21.242  49.388 -10.366  1.00  0.00    -0.185 F 
HETATM   17 CL1  UNL     1      21.239  47.377 -12.043  1.00  0.00    -0.045 Cl
ENDBRANCH   9  14
ENDBRANCH   6   9
ENDBRANCH   3   5
BRANCH   1  18
HETATM   18  C5  UNL     1      23.632  48.723 -17.140  1.00  0.00     0.059 A 
HETATM   19  C4  UNL     1      22.456  49.034 -17.802  1.00  0.00     0.036 A 
HETATM   20  C3  UNL     1      22.507  49.502 -19.100  1.00  0.00     0.089 A 
HETATM   21  N2  UNL     1      23.681  49.661 -19.739  1.00  0.00    -0.360 N 
HETATM   22  C2  UNL     1      24.857  49.373 -19.139  1.00  0.00     0.120 A 
ATOM     23  H2  UNL     1      23.683  50.007 -20.699  1.00  0.00     0.165 HD
HETATM   24  C10 UNL     1      24.809  48.906 -17.842  1.00  0.00     0.081 A 
HETATM   25 CL2  UNL     1      26.302  48.530 -17.037  1.00  0.00    -0.081 Cl
BRANCH  22  26
HETATM   26  C1  UNL     1      26.070  49.546 -19.902  1.00  0.00     0.283 C 
HETATM   27  N1  UNL     1      26.083  50.268 -21.118  1.00  0.00    -0.056 NA
HETATM   28  O1  UNL     1      27.140  49.055 -19.495  1.00  0.00    -0.269 OA
ENDBRANCH  22  26
ENDBRANCH   1  18
TORSDOF 6
ENDMDL
MODEL 4
REMARK VINA RESULT: -7.394729313      3.227      3.659
REMARK  6 active torsions:
REMARK  status: ('A' for Active; 'I' for Inactive)
REMARK    1  A    between atoms: C1_2  and  C2_4 
REMARK    2  A    between atoms: C5_9  and  C6_10 
REMARK       I    between atoms: C6_10  and  N3_12 
REMARK    3  A    between atoms: N3_12  and  N4_14 
REMARK       I    between atoms: N4_14  and  C7_16 
REMARK    4  A    between atoms: C7_16  and  C8_18 
REMARK    5  A    between atoms: C8_18  and  N5_19 
REMARK    6  A    between atoms: C8_18  and  C9_23 
ROOT
HETATM    1  C6  UNL     1      24.440  47.910 -15.165  1.00  0.00     0.272 C 
HETATM    2  O2  UNL     1      24.319  46.752 -15.635  1.00  0.00    -0.266 OA
HETATM    3  N3  UNL     1      24.619  49.008 -16.043  1.00  0.00    -0.263 N 
ATOM      4  H3  UNL     1      24.715  49.951 -15.668  1.00  0.00     0.190 HD
ENDROOT
BRANCH   3   5
HETATM    5  N4  UNL     1      24.664  48.793 -17.434  1.00  0.00    -0.265 N 
HETATM    6  C7  UNL     1      25.852  49.024 -18.151  1.00  0.00     0.274 C 
HETATM    7  O3  UNL     1      26.885  49.433 -17.522  1.00  0.00    -0.269 OA
ATOM      8  H4  UNL     1      23.831  48.469 -17.925  1.00  0.00     0.190 HD
BRANCH   6   9
HETATM    9  C8  UNL     1      26.042  48.837 -19.605  1.00  0.00     0.364 C 
BRANCH   9  10
HETATM   10  N5  UNL     1      24.988  48.085 -20.187  1.00  0.00    -0.059 N 
ATOM     11  H53 UNL     1      25.249  47.106 -20.299  1.00  0.00     0.275 HD
ATOM     12  H52 UNL     1      24.211  47.972 -19.536  1.00  0.00     0.275 HD
ATOM     13  H51 UNL     1      24.675  48.487 -21.071  1.00  0.00     0.275 HD
ENDBRANCH   9  10
BRANCH   9  14
HETATM   14  C9  UNL     1      26.146  50.182 -20.319  1.00  0.00     0.356 C 
HETATM   15  F1  UNL     1      26.114  50.019 -21.695  1.00  0.00    -0.185 F 
HETATM   16  F2  UNL     1      24.967  50.879 -20.021  1.00  0.00    -0.185 F 
HETATM   17 CL1  UNL     1      27.574  51.081 -19.868  1.00  0.00    -0.045 Cl
ENDBRANCH   9  14
ENDBRANCH   6   9
ENDBRANCH   3   5
BRANCH   1  18
HETATM   18  C5  UNL     1      24.389  48.068 -13.719  1.00  0.00     0.059 A 
HETATM   19  C4  UNL     1      25.570  48.304 -13.036  1.00  0.00     0.036 A 
HETATM   20  C3  UNL     1      25.549  48.437 -11.662  1.00  0.00     0.089 A 
HETATM   21  N2  UNL     1      24.399  48.339 -10.969  1.00  0.00    -0.360 N 
HETATM   22  C2  UNL     1      23.219  48.109 -11.587  1.00  0.00     0.120 A 
ATOM     23  H2  UNL     1      24.419  48.439  -9.954  1.00  0.00     0.165 HD
HETATM   24  C10 UNL     1      23.237  47.977 -12.960  1.00  0.00     0.081 A 
HETATM   25 CL2  UNL     1      21.739  47.687 -13.788  1.00  0.00    -0.081 Cl
BRANCH  22  26
HETATM   26  C1  UNL     1      22.035  47.991 -10.769  1.00  0.00     0.283 C 
HETATM   27  N1  UNL     1      20.941  48.874 -10.918  1.00  0.00    -0.056 NA
HETATM   28  O1  UNL     1      21.958  47.095  -9.908  1.00  0.00    -0.269 OA
ENDBRANCH  22  26
ENDBRANCH   1  18
TORSDOF 6
ENDMDL
MODEL 5
REMARK VINA RESULT: -7.394380552      3.149      3.678
REMARK  6 active torsions:
REMARK  status: ('A' for Active; 'I' for Inactive)
REMARK    1  A    between atoms: C1_2  and  C2_4 
REMARK    2  A    between atoms: C5_9  and  C6_10 
REMARK       I    between atoms: C6_10  and  N3_12 
REMARK    3  A    between atoms: N3_12  and  N4_14 
REMARK       I    between atoms: N4_14  and  C7_16 
REMARK    4  A    between atoms: C7_16  and  C8_18 
REMARK    5  A    between atoms: C8_18  and  N5_19 
REMARK    6  A    between atoms: C8_18  and  C9_23 
ROOT
HETATM    1  C6  UNL     1      25.484  48.326 -15.015  1.00  0.00     0.272 C 
HETATM    2  O2  UNL     1      25.283  47.207 -15.546  1.00  0.00    -0.266 OA
HETATM    3  N3  UNL     1      26.136  49.345 -15.753  1.00  0.00    -0.263 N 
ATOM      4  H3  UNL     1      26.299  50.259 -15.329  1.00  0.00     0.190 HD
ENDROOT
BRANCH   3   5
HETATM    5  N4  UNL     1      26.557  49.096 -17.073  1.00  0.00    -0.265 N 
HETATM    6  C7  UNL     1      25.621  49.061 -18.123  1.00  0.00     0.274 C 
HETATM    7  O3  UNL     1      24.388  49.256 -17.860  1.00  0.00    -0.269 OA
ATOM      8  H4  UNL     1      27.545  48.939 -17.269  1.00  0.00     0.190 HD
BRANCH   6   9
HETATM    9  C8  UNL     1      25.923  48.815 -19.550  1.00  0.00     0.364 C 
BRANCH   9  10
HETATM   10  N5  UNL     1      24.911  48.047 -20.183  1.00  0.00    -0.059 N 
ATOM     11  H53 UNL     1      25.314  47.339 -20.797  1.00  0.00     0.275 HD
ATOM     12  H52 UNL     1      24.441  47.434 -19.517  1.00  0.00     0.275 HD
ATOM     13  H51 UNL     1      24.243  48.633 -20.684  1.00  0.00     0.275 HD
ENDBRANCH   9  10
BRANCH   9  14
HETATM   14  C9  UNL     1      26.093  50.131 -20.305  1.00  0.00     0.356 C 
HETATM   15  F1  UNL     1      26.142  49.917 -21.674  1.00  0.00    -0.185 F 
HETATM   16  F2  UNL     1      24.909  50.855 -20.106  1.00  0.00    -0.185 F 
HETATM   17 CL1  UNL     1      27.505  51.026 -19.800  1.00  0.00    -0.045 Cl
ENDBRANCH   9  14
ENDBRANCH   6   9
ENDBRANCH   3   5
BRANCH   1  18
HETATM   18  C5  UNL     1      25.030  48.523 -13.647  1.00  0.00     0.059 A 
HETATM   19  C4  UNL     1      25.949  48.401 -12.619  1.00  0.00     0.036 A 
HETATM   20  C3  UNL     1      25.536  48.563 -11.311  1.00  0.00     0.089 A 
HETATM   21  N2  UNL     1      24.253  48.837 -11.013  1.00  0.00    -0.360 N 
HETATM   22  C2  UNL     1      23.315  48.967 -11.979  1.00  0.00     0.120 A 
ATOM     23  H2  UNL     1      23.981  48.948 -10.036  1.00  0.00     0.165 HD
HETATM   24  C10 UNL     1      23.726  48.806 -13.286  1.00  0.00     0.081 A 
HETATM   25 CL2  UNL     1      22.550  48.972 -14.553  1.00  0.00    -0.081 Cl
BRANCH  22  26
HETATM   26  C1  UNL     1      21.956  49.235 -11.574  1.00  0.00     0.283 C 
HETATM   27  N1  UNL     1      20.971  48.222 -11.571  1.00  0.00    -0.056 NA
HETATM   28  O1  UNL     1      21.626  50.381 -11.215  1.00  0.00    -0.269 OA
ENDBRANCH  22  26
ENDBRANCH   1  18
TORSDOF 6
ENDMDL
