MODEL 1
REMARK VINA RESULT: -7.688526296      0.000      0.000
REMARK  8 active torsions:
REMARK  status: ('A' for Active; 'I' for Inactive)
REMARK    1  A    between atoms: C1_2  and  C2_3 
REMARK       I    between atoms: C1_2  and  N2_16 
REMARK    2  A    between atoms: C2_3  and  C3_4 
REMARK    3  A    between atoms: C3_4  and  C4_5 
REMARK    4  A    between atoms: C4_5  and  C5_6 
REMARK       I    between atoms: C5_6  and  N1_8 
REMARK    5  A    between atoms: N1_8  and  C6_10 
REMARK    6  A    between atoms: N2_16  and  C12_18 
REMARK    7  A    between atoms: C12_18  and  C13_19 
REMARK    8  A    between atoms: C13_19  and  N3_20 
ROOT
HETATM    1  O1  UNL     1       1.875  13.527 -42.586  1.00  0.00    -0.274 OA
HETATM    2  C1  UNL     1       1.668  14.746 -42.708  1.00  0.00     0.217 C 
HETATM    3  N2  UNL     1       2.274  15.657 -41.812  1.00  0.00    -0.359 N 
ATOM      4  H2  UNL     1       2.114  16.661 -41.900  1.00  0.00     0.162 HD
ENDROOT
BRANCH   2   5
HETATM    5  C2  UNL     1       0.803  15.277 -43.769  1.00  0.00     0.103 C 
BRANCH   5   6
HETATM    6  C3  UNL     1       0.234  14.235 -44.682  1.00  0.00     0.018 C 
BRANCH   6   7
HETATM    7  C4  UNL     1      -1.261  14.170 -44.662  1.00  0.00     0.103 C 
BRANCH   7   8
HETATM    8  C5  UNL     1      -1.731  13.391 -43.460  1.00  0.00     0.217 C 
HETATM    9  O2  UNL     1      -1.915  12.159 -43.564  1.00  0.00    -0.274 OA
HETATM   10  N1  UNL     1      -1.943  14.110 -42.256  1.00  0.00    -0.356 N 
ATOM     11  H1  UNL     1      -1.781  15.117 -42.210  1.00  0.00     0.162 HD
BRANCH  10  12
HETATM   12  C6  UNL     1      -2.394  13.374 -41.094  1.00  0.00     0.084 C 
HETATM   13  C7  UNL     1      -1.181  13.018 -40.247  1.00  0.00     0.025 C 
HETATM   14  C8  UNL     1      -1.623  12.447 -38.903  1.00  0.00     0.002 C 
HETATM   15  C9  UNL     1      -2.260  13.554 -38.108  1.00  0.00     0.000 C 
HETATM   16  C10 UNL     1      -2.678  14.711 -38.982  1.00  0.00     0.002 C 
HETATM   17  C11 UNL     1      -3.327  14.177 -40.247  1.00  0.00     0.025 C 
ENDBRANCH  10  12
ENDBRANCH   7   8
ENDBRANCH   6   7
ENDBRANCH   5   6
ENDBRANCH   2   5
BRANCH   3  18
HETATM   18  C12 UNL     1       3.135  15.128 -40.755  1.00  0.00     0.152 C 
BRANCH  18  19
HETATM   19  C13 UNL     1       4.391  15.924 -40.724  1.00  0.00     0.292 C 
BRANCH  19  20
HETATM   20  N3  UNL     1       5.405  15.423 -39.828  1.00  0.00     0.090 N 
HETATM   21  C14 UNL     1       4.642  14.659 -38.809  1.00  0.00     0.272 C 
HETATM   22  C15 UNL     1       5.654  14.272 -37.745  1.00  0.00     0.033 C 
HETATM   23  C16 UNL     1       6.305  12.982 -38.204  1.00  0.00     0.039 C 
HETATM   24  C17 UNL     1       7.618  13.217 -38.871  1.00  0.00     0.171 C 
HETATM   25  F1  UNL     1       8.592  13.414 -37.913  1.00  0.00    -0.249 F 
HETATM   26  C18 UNL     1       7.612  14.344 -39.869  1.00  0.00     0.067 C 
HETATM   27  C19 UNL     1       6.271  14.519 -40.546  1.00  0.00     0.275 C 
ENDBRANCH  19  20
ENDBRANCH  18  19
ENDBRANCH   3  18
TORSDOF 8
ENDMDL
MODEL 2
REMARK VINA RESULT: -7.591961149      1.440      2.004
REMARK  8 active torsions:
REMARK  status: ('A' for Active; 'I' for Inactive)
REMARK    1  A    between atoms: C1_2  and  C2_3 
REMARK       I    between atoms: C1_2  and  N2_16 
REMARK    2  A    between atoms: C2_3  and  C3_4 
REMARK    3  A    between atoms: C3_4  and  C4_5 
REMARK    4  A    between atoms: C4_5  and  C5_6 
REMARK       I    between atoms: C5_6  and  N1_8 
REMARK    5  A    between atoms: N1_8  and  C6_10 
REMARK    6  A    between atoms: N2_16  and  C12_18 
REMARK    7  A    between atoms: C12_18  and  C13_19 
REMARK    8  A    between atoms: C13_19  and  N3_20 
ROOT
HETATM    1  O1  UNL     1       1.449  13.621 -43.379  1.00  0.00    -0.274 OA
HETATM    2  C1  UNL     1       0.779  14.604 -43.741  1.00  0.00     0.217 C 
HETATM    3  N2  UNL     1       0.477  15.629 -42.814  1.00  0.00    -0.359 N 
ATOM      4  H2  UNL     1      -0.071  16.442 -43.097  1.00  0.00     0.162 HD
ENDROOT
BRANCH   2   5
HETATM    5  C2  UNL     1       0.286  14.734 -45.117  1.00  0.00     0.103 C 
BRANCH   5   6
HETATM    6  C3  UNL     1      -1.167  15.078 -45.224  1.00  0.00     0.018 C 
BRANCH   6   7
HETATM    7  C4  UNL     1      -2.041  13.904 -45.533  1.00  0.00     0.103 C 
BRANCH   7   8
HETATM    8  C5  UNL     1      -2.413  13.184 -44.262  1.00  0.00     0.217 C 
HETATM    9  O2  UNL     1      -2.654  11.958 -44.302  1.00  0.00    -0.274 OA
HETATM   10  N1  UNL     1      -2.472  13.950 -43.069  1.00  0.00    -0.356 N 
ATOM     11  H1  UNL     1      -2.269  14.949 -43.076  1.00  0.00     0.162 HD
BRANCH  10  12
HETATM   12  C6  UNL     1      -2.828  13.270 -41.841  1.00  0.00     0.084 C 
HETATM   13  C7  UNL     1      -1.558  12.723 -41.207  1.00  0.00     0.025 C 
HETATM   14  C8  UNL     1      -1.849  12.202 -39.802  1.00  0.00     0.002 C 
HETATM   15  C9  UNL     1      -2.172  13.379 -38.922  1.00  0.00     0.000 C 
HETATM   16  C10 UNL     1      -2.552  14.600 -39.724  1.00  0.00     0.002 C 
HETATM   17  C11 UNL     1      -3.475  14.190 -40.857  1.00  0.00     0.025 C 
ENDBRANCH  10  12
ENDBRANCH   7   8
ENDBRANCH   6   7
ENDBRANCH   5   6
ENDBRANCH   2   5
BRANCH   3  18
HETATM   18  C12 UNL     1       0.967  15.498 -41.443  1.00  0.00     0.152 C 
BRANCH  18  19
HETATM   19  C13 UNL     1       2.081  16.463 -41.244  1.00  0.00     0.292 C 
BRANCH  19  20
HETATM   20  N3  UNL     1       3.396  15.871 -41.193  1.00  0.00     0.090 N 
HETATM   21  C14 UNL     1       4.211  16.865 -40.448  1.00  0.00     0.272 C 
HETATM   22  C15 UNL     1       5.643  16.367 -40.536  1.00  0.00     0.033 C 
HETATM   23  C16 UNL     1       5.836  15.378 -39.401  1.00  0.00     0.039 C 
HETATM   24  C17 UNL     1       5.685  13.964 -39.850  1.00  0.00     0.171 C 
HETATM   25  F1  UNL     1       6.851  13.550 -40.462  1.00  0.00    -0.249 F 
HETATM   26  C18 UNL     1       4.496  13.721 -40.741  1.00  0.00     0.067 C 
HETATM   27  C19 UNL     1       3.338  14.644 -40.436  1.00  0.00     0.275 C 
ENDBRANCH  19  20
ENDBRANCH  18  19
ENDBRANCH   3  18
TORSDOF 8
ENDMDL
MODEL 3
REMARK VINA RESULT: -7.585568235      1.644      2.225
REMARK  8 active torsions:
REMARK  status: ('A' for Active; 'I' for Inactive)
REMARK    1  A    between atoms: C1_2  and  C2_3 
REMARK       I    between atoms: C1_2  and  N2_16 
REMARK    2  A    between atoms: C2_3  and  C3_4 
REMARK    3  A    between atoms: C3_4  and  C4_5 
REMARK    4  A    between atoms: C4_5  and  C5_6 
REMARK       I    between atoms: C5_6  and  N1_8 
REMARK    5  A    between atoms: N1_8  and  C6_10 
REMARK    6  A    between atoms: N2_16  and  C12_18 
REMARK    7  A    between atoms: C12_18  and  C13_19 
REMARK    8  A    between atoms: C13_19  and  N3_20 
ROOT
HETATM    1  O1  UNL     1       1.169  15.174 -43.314  1.00  0.00    -0.274 OA
HETATM    2  C1  UNL     1       1.296  14.068 -42.763  1.00  0.00     0.217 C 
HETATM    3  N2  UNL     1       1.959  13.973 -41.518  1.00  0.00    -0.359 N 
ATOM      4  H2  UNL     1       2.071  13.071 -41.054  1.00  0.00     0.162 HD
ENDROOT
BRANCH   2   5
HETATM    5  C2  UNL     1       0.772  12.840 -43.374  1.00  0.00     0.103 C 
BRANCH   5   6
HETATM    6  C3  UNL     1       1.043  11.593 -42.590  1.00  0.00     0.018 C 
BRANCH   6   7
HETATM    7  C4  UNL     1      -0.048  10.575 -42.684  1.00  0.00     0.103 C 
BRANCH   7   8
HETATM    8  C5  UNL     1      -1.130  10.877 -41.679  1.00  0.00     0.217 C 
HETATM    9  O2  UNL     1      -2.199  10.230 -41.718  1.00  0.00    -0.274 OA
HETATM   10  N1  UNL     1      -0.873  11.898 -40.728  1.00  0.00    -0.356 N 
ATOM     11  H1  UNL     1       0.012  12.405 -40.728  1.00  0.00     0.162 HD
BRANCH  10  12
HETATM   12  C6  UNL     1      -1.904  12.199 -39.757  1.00  0.00     0.084 C 
HETATM   13  C7  UNL     1      -1.235  12.680 -38.478  1.00  0.00     0.025 C 
HETATM   14  C8  UNL     1      -2.280  13.227 -37.507  1.00  0.00     0.002 C 
HETATM   15  C9  UNL     1      -2.835  14.501 -38.083  1.00  0.00     0.000 C 
HETATM   16  C10 UNL     1      -2.567  14.618 -39.564  1.00  0.00     0.002 C 
HETATM   17  C11 UNL     1      -2.824  13.277 -40.229  1.00  0.00     0.025 C 
ENDBRANCH  10  12
ENDBRANCH   7   8
ENDBRANCH   6   7
ENDBRANCH   5   6
ENDBRANCH   2   5
BRANCH   3  18
HETATM   18  C12 UNL     1       2.482  15.195 -40.910  1.00  0.00     0.152 C 
BRANCH  18  19
HETATM   19  C13 UNL     1       3.919  15.327 -41.268  1.00  0.00     0.292 C 
BRANCH  19  20
HETATM   20  N3  UNL     1       4.826  14.591 -40.421  1.00  0.00     0.090 N 
HETATM   21  C14 UNL     1       6.161  14.826 -41.030  1.00  0.00     0.272 C 
HETATM   22  C15 UNL     1       7.118  13.918 -40.279  1.00  0.00     0.033 C 
HETATM   23  C16 UNL     1       7.565  14.674 -39.042  1.00  0.00     0.039 C 
HETATM   24  C17 UNL     1       6.791  14.281 -37.829  1.00  0.00     0.171 C 
HETATM   25  F1  UNL     1       7.290  13.093 -37.332  1.00  0.00    -0.249 F 
HETATM   26  C18 UNL     1       5.304  14.189 -38.046  1.00  0.00     0.067 C 
HETATM   27  C19 UNL     1       4.805  15.157 -39.095  1.00  0.00     0.275 C 
ENDBRANCH  19  20
ENDBRANCH  18  19
ENDBRANCH   3  18
TORSDOF 8
ENDMDL
MODEL 4
REMARK VINA RESULT: -7.564254299      0.802      1.406
REMARK  8 active torsions:
REMARK  status: ('A' for Active; 'I' for Inactive)
REMARK    1  A    between atoms: C1_2  and  C2_3 
REMARK       I    between atoms: C1_2  and  N2_16 
REMARK    2  A    between atoms: C2_3  and  C3_4 
REMARK    3  A    between atoms: C3_4  and  C4_5 
REMARK    4  A    between atoms: C4_5  and  C5_6 
REMARK       I    between atoms: C5_6  and  N1_8 
REMARK    5  A    between atoms: N1_8  and  C6_10 
REMARK    6  A    between atoms: N2_16  and  C12_18 
REMARK    7  A    between atoms: C12_18  and  C13_19 
REMARK    8  A    between atoms: C13_19  and  N3_20 
ROOT
HETATM    1  O1  UNL     1       1.534  13.470 -43.234  1.00  0.00    -0.274 OA
HETATM    2  C1  UNL     1       1.199  14.662 -43.339  1.00  0.00     0.217 C 
HETATM    3  N2  UNL     1       1.473  15.566 -42.286  1.00  0.00    -0.359 N 
ATOM      4  H2  UNL     1       1.204  16.548 -42.358  1.00  0.00     0.162 HD
ENDROOT
BRANCH   2   5
HETATM    5  C2  UNL     1       0.519  15.167 -44.538  1.00  0.00     0.103 C 
BRANCH   5   6
HETATM    6  C3  UNL     1      -0.274  14.136 -45.280  1.00  0.00     0.018 C 
BRANCH   6   7
HETATM    7  C4  UNL     1      -1.750  14.239 -45.059  1.00  0.00     0.103 C 
BRANCH   7   8
HETATM    8  C5  UNL     1      -2.154  13.423 -43.859  1.00  0.00     0.217 C 
HETATM    9  O2  UNL     1      -2.467  12.222 -44.013  1.00  0.00    -0.274 OA
HETATM   10  N1  UNL     1      -2.159  14.071 -42.597  1.00  0.00    -0.356 N 
ATOM     11  H1  UNL     1      -1.897  15.054 -42.510  1.00  0.00     0.162 HD
BRANCH  10  12
HETATM   12  C6  UNL     1      -2.545  13.299 -41.435  1.00  0.00     0.084 C 
HETATM   13  C7  UNL     1      -1.283  12.818 -40.734  1.00  0.00     0.025 C 
HETATM   14  C8  UNL     1      -1.630  12.198 -39.383  1.00  0.00     0.002 C 
HETATM   15  C9  UNL     1      -2.111  13.295 -38.473  1.00  0.00     0.000 C 
HETATM   16  C10 UNL     1      -2.532  14.525 -39.239  1.00  0.00     0.002 C 
HETATM   17  C11 UNL     1      -3.334  14.108 -40.458  1.00  0.00     0.025 C 
ENDBRANCH  10  12
ENDBRANCH   7   8
ENDBRANCH   6   7
ENDBRANCH   5   6
ENDBRANCH   2   5
BRANCH   3  18
HETATM   18  C12 UNL     1       2.150  15.063 -41.092  1.00  0.00     0.152 C 
BRANCH  18  19
HETATM   19  C13 UNL     1       3.516  15.647 -41.039  1.00  0.00     0.292 C 
BRANCH  19  20
HETATM   20  N3  UNL     1       4.509  14.813 -40.406  1.00  0.00     0.090 N 
HETATM   21  C14 UNL     1       5.756  15.097 -41.162  1.00  0.00     0.272 C 
HETATM   22  C15 UNL     1       6.781  14.102 -40.649  1.00  0.00     0.033 C 
HETATM   23  C16 UNL     1       7.409  14.715 -39.411  1.00  0.00     0.039 C 
HETATM   24  C17 UNL     1       6.795  14.202 -38.152  1.00  0.00     0.171 C 
HETATM   25  F1  UNL     1       7.325  12.962 -37.856  1.00  0.00    -0.249 F 
HETATM   26  C18 UNL     1       5.291  14.151 -38.173  1.00  0.00     0.067 C 
HETATM   27  C19 UNL     1       4.681  15.232 -39.037  1.00  0.00     0.275 C 
ENDBRANCH  19  20
ENDBRANCH  18  19
ENDBRANCH   3  18
TORSDOF 8
ENDMDL
MODEL 5
REMARK VINA RESULT: -7.362223432      3.579      8.450
REMARK  8 active torsions:
REMARK  status: ('A' for Active; 'I' for Inactive)
REMARK    1  A    between atoms: C1_2  and  C2_3 
REMARK       I    between atoms: C1_2  and  N2_16 
REMARK    2  A    between atoms: C2_3  and  C3_4 
REMARK    3  A    between atoms: C3_4  and  C4_5 
REMARK    4  A    between atoms: C4_5  and  C5_6 
REMARK       I    between atoms: C5_6  and  N1_8 
REMARK    5  A    between atoms: N1_8  and  C6_10 
REMARK    6  A    between atoms: N2_16  and  C12_18 
REMARK    7  A    between atoms: C12_18  and  C13_19 
REMARK    8  A    between atoms: C13_19  and  N3_20 
ROOT
HETATM    1  O1  UNL     1       0.752  14.121 -44.323  1.00  0.00    -0.274 OA
HETATM    2  C1  UNL     1       0.991  14.228 -43.108  1.00  0.00     0.217 C 
HETATM    3  N2  UNL     1       1.194  13.067 -42.325  1.00  0.00    -0.359 N 
ATOM      4  H2  UNL     1       1.390  13.140 -41.327  1.00  0.00     0.162 HD
ENDROOT
BRANCH   2   5
HETATM    5  C2  UNL     1       1.069  15.539 -42.452  1.00  0.00     0.103 C 
BRANCH   5   6
HETATM    6  C3  UNL     1       1.725  15.520 -41.106  1.00  0.00     0.018 C 
BRANCH   6   7
HETATM    7  C4  UNL     1       3.158  15.945 -41.130  1.00  0.00     0.103 C 
BRANCH   7   8
HETATM    8  C5  UNL     1       4.048  14.800 -40.720  1.00  0.00     0.217 C 
HETATM    9  O2  UNL     1       3.939  13.701 -41.306  1.00  0.00    -0.274 OA
HETATM   10  N1  UNL     1       4.976  15.034 -39.673  1.00  0.00    -0.356 N 
ATOM     11  H1  UNL     1       5.036  15.946 -39.218  1.00  0.00     0.162 HD
BRANCH  10  12
HETATM   12  C6  UNL     1       5.837  13.943 -39.269  1.00  0.00     0.084 C 
HETATM   13  C7  UNL     1       7.204  14.146 -39.905  1.00  0.00     0.025 C 
HETATM   14  C8  UNL     1       8.210  13.153 -39.329  1.00  0.00     0.002 C 
HETATM   15  C9  UNL     1       8.462  13.520 -37.892  1.00  0.00     0.000 C 
HETATM   16  C10 UNL     1       7.376  14.408 -37.334  1.00  0.00     0.002 C 
HETATM   17  C11 UNL     1       6.022  13.891 -37.788  1.00  0.00     0.025 C 
ENDBRANCH  10  12
ENDBRANCH   7   8
ENDBRANCH   6   7
ENDBRANCH   5   6
ENDBRANCH   2   5
BRANCH   3  18
HETATM   18  C12 UNL     1       1.115  11.762 -42.979  1.00  0.00     0.152 C 
BRANCH  18  19
HETATM   19  C13 UNL     1       0.203  10.891 -42.190  1.00  0.00     0.292 C 
BRANCH  19  20
HETATM   20  N3  UNL     1      -1.193  11.245 -42.268  1.00  0.00     0.090 N 
HETATM   21  C14 UNL     1      -1.782  10.200 -43.146  1.00  0.00     0.272 C 
HETATM   22  C15 UNL     1      -3.211  10.642 -43.405  1.00  0.00     0.033 C 
HETATM   23  C16 UNL     1      -4.049  10.124 -42.251  1.00  0.00     0.039 C 
HETATM   24  C17 UNL     1      -4.284  11.167 -41.211  1.00  0.00     0.171 C 
HETATM   25  F1  UNL     1      -5.300  12.006 -41.623  1.00  0.00    -0.249 F 
HETATM   26  C18 UNL     1      -3.057  11.954 -40.834  1.00  0.00     0.067 C 
HETATM   27  C19 UNL     1      -1.784  11.147 -40.956  1.00  0.00     0.275 C 
ENDBRANCH  19  20
ENDBRANCH  18  19
ENDBRANCH   3  18
TORSDOF 8
ENDMDL
