MODEL 1
REMARK VINA RESULT: -5.619345527      0.000      0.000
REMARK  3 active torsions:
REMARK  status: ('A' for Active; 'I' for Inactive)
REMARK    1  A    between atoms: C6_8  and  C7_9 
REMARK    2  A    between atoms: C7_9  and  N1_10 
REMARK    3  A    between atoms: N1_10  and  C8_13 
ROOT
HETATM    1 CL1  UNL     1      -2.179  13.480 -38.260  1.00  0.00    -0.101 Cl
HETATM    2  C1  UNL     1      -2.144  13.349 -40.024  1.00  0.00     0.118 C 
HETATM    3 CL2  UNL     1      -3.226  14.553 -40.738  1.00  0.00    -0.101 Cl
HETATM    4  C2  UNL     1      -2.472  11.978 -40.569  1.00  0.00     0.047 C 
HETATM    5  C3  UNL     1      -1.251  12.110 -41.452  1.00  0.00    -0.004 C 
HETATM    6  C4  UNL     1      -1.562  12.622 -42.833  1.00  0.00     0.005 C 
HETATM    7  C5  UNL     1      -0.651  13.808 -42.951  1.00  0.00     0.007 C 
HETATM    8  C6  UNL     1      -0.520  14.418 -41.570  1.00  0.00     0.018 C 
HETATM    9  C11 UNL     1      -0.762  13.277 -40.638  1.00  0.00     0.034 C 
ENDROOT
BRANCH   8  10
HETATM   10  C7  UNL     1       0.854  15.021 -41.470  1.00  0.00     0.237 C 
BRANCH  10  11
HETATM   11  N1  UNL     1       1.806  14.177 -40.796  1.00  0.00    -0.070 N 
ATOM     12  H12 UNL     1       1.548  13.986 -39.828  1.00  0.00     0.277 HD
ATOM     13  H11 UNL     1       1.788  13.216 -41.134  1.00  0.00     0.277 HD
BRANCH  11  14
HETATM   14  C8  UNL     1       3.116  14.795 -40.919  1.00  0.00     0.186 A 
HETATM   15  C9  UNL     1       4.324  13.908 -41.155  1.00  0.00     0.035 A 
HETATM   16  C10 UNL     1       4.147  14.622 -39.876  1.00  0.00     0.035 A 
ENDBRANCH  11  14
ENDBRANCH  10  11
ENDBRANCH   8  10
TORSDOF 3
ENDMDL
MODEL 2
REMARK VINA RESULT: -5.436916780      1.425      1.799
REMARK  3 active torsions:
REMARK  status: ('A' for Active; 'I' for Inactive)
REMARK    1  A    between atoms: C6_8  and  C7_9 
REMARK    2  A    between atoms: C7_9  and  N1_10 
REMARK    3  A    between atoms: N1_10  and  C8_13 
ROOT
HETATM    1 CL1  UNL     1      -1.507  12.708 -38.826  1.00  0.00    -0.101 Cl
HETATM    2  C1  UNL     1      -1.957  12.763 -40.537  1.00  0.00     0.118 C 
HETATM    3 CL2  UNL     1      -2.405  14.414 -40.987  1.00  0.00    -0.101 Cl
HETATM    4  C2  UNL     1      -3.055  11.805 -40.938  1.00  0.00     0.047 C 
HETATM    5  C3  UNL     1      -2.184  11.400 -42.107  1.00  0.00    -0.004 C 
HETATM    6  C4  UNL     1      -2.503  12.141 -43.377  1.00  0.00     0.005 C 
HETATM    7  C5  UNL     1      -1.172  12.717 -43.760  1.00  0.00     0.007 C 
HETATM    8  C6  UNL     1      -0.429  13.031 -42.476  1.00  0.00     0.018 C 
HETATM    9  C11 UNL     1      -0.993  12.074 -41.479  1.00  0.00     0.034 C 
ENDROOT
BRANCH   8  10
HETATM   10  C7  UNL     1       1.040  12.852 -42.747  1.00  0.00     0.237 C 
BRANCH  10  11
HETATM   11  N1  UNL     1       1.885  13.611 -41.864  1.00  0.00    -0.070 N 
ATOM     12  H12 UNL     1       1.604  13.536 -40.887  1.00  0.00     0.277 HD
ATOM     13  H11 UNL     1       2.817  13.210 -41.769  1.00  0.00     0.277 HD
BRANCH  11  14
HETATM   14  C8  UNL     1       1.908  14.985 -42.340  1.00  0.00     0.186 A 
HETATM   15  C9  UNL     1       2.740  16.007 -41.588  1.00  0.00     0.035 A 
HETATM   16  C10 UNL     1       1.266  16.073 -41.575  1.00  0.00     0.035 A 
ENDBRANCH  11  14
ENDBRANCH  10  11
ENDBRANCH   8  10
TORSDOF 3
ENDMDL
MODEL 3
REMARK VINA RESULT: -5.365330667      1.502      2.292
REMARK  3 active torsions:
REMARK  status: ('A' for Active; 'I' for Inactive)
REMARK    1  A    between atoms: C6_8  and  C7_9 
REMARK    2  A    between atoms: C7_9  and  N1_10 
REMARK    3  A    between atoms: N1_10  and  C8_13 
ROOT
HETATM    1 CL1  UNL     1      -1.636  12.762 -39.417  1.00  0.00    -0.101 Cl
HETATM    2  C1  UNL     1      -2.179  12.313 -41.041  1.00  0.00     0.118 C 
HETATM    3 CL2  UNL     1      -2.916  13.711 -41.836  1.00  0.00    -0.101 Cl
HETATM    4  C2  UNL     1      -3.124  11.136 -41.093  1.00  0.00     0.047 C 
HETATM    5  C3  UNL     1      -2.262  10.578 -42.204  1.00  0.00    -0.004 C 
HETATM    6  C4  UNL     1      -2.765  10.916 -43.582  1.00  0.00     0.005 C 
HETATM    7  C5  UNL     1      -1.570  11.563 -44.214  1.00  0.00     0.007 C 
HETATM    8  C6  UNL     1      -0.822  12.299 -43.120  1.00  0.00     0.018 C 
HETATM    9  C11 UNL     1      -1.167  11.555 -41.872  1.00  0.00     0.034 C 
ENDROOT
BRANCH   8  10
HETATM   10  C7  UNL     1       0.640  12.272 -43.474  1.00  0.00     0.237 C 
BRANCH  10  11
HETATM   11  N1  UNL     1       1.507  12.557 -42.361  1.00  0.00    -0.070 N 
ATOM     12  H12 UNL     1       1.189  12.128 -41.492  1.00  0.00     0.277 HD
ATOM     13  H11 UNL     1       2.405  12.079 -42.428  1.00  0.00     0.277 HD
BRANCH  11  14
HETATM   14  C8  UNL     1       1.644  14.001 -42.259  1.00  0.00     0.186 A 
HETATM   15  C9  UNL     1       2.378  14.585 -41.067  1.00  0.00     0.035 A 
HETATM   16  C10 UNL     1       0.922  14.769 -41.225  1.00  0.00     0.035 A 
ENDBRANCH  11  14
ENDBRANCH  10  11
ENDBRANCH   8  10
TORSDOF 3
ENDMDL
MODEL 4
REMARK VINA RESULT: -5.336408673      1.584      2.231
REMARK  3 active torsions:
REMARK  status: ('A' for Active; 'I' for Inactive)
REMARK    1  A    between atoms: C6_8  and  C7_9 
REMARK    2  A    between atoms: C7_9  and  N1_10 
REMARK    3  A    between atoms: N1_10  and  C8_13 
ROOT
HETATM    1 CL1  UNL     1      -2.387  14.655 -40.461  1.00  0.00    -0.101 Cl
HETATM    2  C1  UNL     1      -2.350  13.196 -41.461  1.00  0.00     0.118 C 
HETATM    3 CL2  UNL     1      -3.118  13.518 -43.022  1.00  0.00    -0.101 Cl
HETATM    4  C2  UNL     1      -2.971  11.973 -40.827  1.00  0.00     0.047 C 
HETATM    5  C3  UNL     1      -1.736  11.208 -41.251  1.00  0.00    -0.004 C 
HETATM    6  C4  UNL     1      -1.898  10.487 -42.562  1.00  0.00     0.005 C 
HETATM    7  C5  UNL     1      -0.740  11.005 -43.362  1.00  0.00     0.007 C 
HETATM    8  C6  UNL     1      -0.499  12.439 -42.934  1.00  0.00     0.018 C 
HETATM    9  C11 UNL     1      -1.010  12.496 -41.532  1.00  0.00     0.034 C 
ENDROOT
BRANCH   8  10
HETATM   10  C7  UNL     1       0.974  12.711 -43.069  1.00  0.00     0.237 C 
BRANCH  10  11
HETATM   11  N1  UNL     1       1.531  13.434 -41.956  1.00  0.00    -0.070 N 
ATOM     12  H12 UNL     1       0.971  13.347 -41.108  1.00  0.00     0.277 HD
ATOM     13  H11 UNL     1       2.387  13.011 -41.599  1.00  0.00     0.277 HD
BRANCH  11  14
HETATM   14  C8  UNL     1       1.715  14.816 -42.369  1.00  0.00     0.186 A 
HETATM   15  C9  UNL     1       2.638  15.706 -41.559  1.00  0.00     0.035 A 
HETATM   16  C10 UNL     1       1.180  15.935 -41.567  1.00  0.00     0.035 A 
ENDBRANCH  11  14
ENDBRANCH  10  11
ENDBRANCH   8  10
TORSDOF 3
ENDMDL
MODEL 5
REMARK VINA RESULT: -5.261023492      6.444      8.973
REMARK  3 active torsions:
REMARK  status: ('A' for Active; 'I' for Inactive)
REMARK    1  A    between atoms: C6_8  and  C7_9 
REMARK    2  A    between atoms: C7_9  and  N1_10 
REMARK    3  A    between atoms: N1_10  and  C8_13 
ROOT
HETATM    1 CL1  UNL     1       8.748  14.296 -35.069  1.00  0.00    -0.101 Cl
HETATM    2  C1  UNL     1       8.857  13.923 -36.796  1.00  0.00     0.118 C 
HETATM    3 CL2  UNL     1       8.895  12.170 -37.031  1.00  0.00    -0.101 Cl
HETATM    4  C2  UNL     1      10.022  14.562 -37.514  1.00  0.00     0.047 C 
HETATM    5  C3  UNL     1       9.043  14.988 -38.585  1.00  0.00    -0.004 C 
HETATM    6  C4  UNL     1       8.977  14.036 -39.750  1.00  0.00     0.005 C 
HETATM    7  C5  UNL     1       7.515  13.714 -39.822  1.00  0.00     0.007 C 
HETATM    8  C6  UNL     1       6.975  13.736 -38.406  1.00  0.00     0.018 C 
HETATM    9  C11 UNL     1       7.883  14.673 -37.680  1.00  0.00     0.034 C 
ENDROOT
BRANCH   8  10
HETATM   10  C7  UNL     1       5.542  14.189 -38.474  1.00  0.00     0.237 C 
BRANCH  10  11
HETATM   11  N1  UNL     1       4.963  14.072 -39.786  1.00  0.00    -0.070 N 
ATOM     12  H12 UNL     1       5.642  13.793 -40.494  1.00  0.00     0.277 HD
ATOM     13  H11 UNL     1       4.339  13.270 -39.872  1.00  0.00     0.277 HD
BRANCH  11  14
HETATM   14  C8  UNL     1       4.308  15.332 -40.099  1.00  0.00     0.186 A 
HETATM   15  C9  UNL     1       4.002  15.658 -41.548  1.00  0.00     0.035 A 
HETATM   16  C10 UNL     1       5.024  16.416 -40.800  1.00  0.00     0.035 A 
ENDBRANCH  11  14
ENDBRANCH  10  11
ENDBRANCH   8  10
TORSDOF 3
ENDMDL
