MODEL 1
REMARK VINA RESULT: -6.921927738      0.000      0.000
REMARK  7 active torsions:
REMARK  status: ('A' for Active; 'I' for Inactive)
REMARK    1  A    between atoms: N1_1  and  C1_5 
REMARK    2  A    between atoms: C1_5  and  C2_6 
REMARK    3  A    between atoms: C3_7  and  C4_8 
REMARK    4  A    between atoms: N3_14  and  C7_15 
REMARK    5  A    between atoms: C7_15  and  C8_16 
REMARK    6  A    between atoms: C8_16  and  N4_17 
REMARK    7  A    between atoms: N4_17  and  C9_19 
ROOT
HETATM    1  C4  UNL     1      31.557 -11.203  14.766  1.00  0.00     0.127 C 
HETATM    2  C5  UNL     1      31.906 -11.955  15.988  1.00  0.00     0.151 C 
HETATM    3  N2  UNL     1      30.690 -11.971  16.801  1.00  0.00    -0.365 N 
ATOM      4  H2  UNL     1      30.424 -12.658  17.507  1.00  0.00     0.161 HD
HETATM    5  C6  UNL     1      29.955 -10.812  16.392  1.00  0.00     0.170 C 
HETATM    6  S1  UNL     1      29.028  -9.871  17.329  1.00  0.00    -0.041 SA
HETATM    7  N3  UNL     1      30.194 -10.663  15.009  1.00  0.00    -0.347 N 
ENDROOT
BRANCH   7   8
HETATM    8  C7  UNL     1      29.429 -10.197  13.906  1.00  0.00     0.145 C 
BRANCH   8   9
HETATM    9  C8  UNL     1      29.543  -8.806  13.441  1.00  0.00     0.141 C 
BRANCH   9  10
HETATM   10  N4  UNL     1      28.541  -7.976  14.042  1.00  0.00    -0.375 N 
ATOM     11  H4  UNL     1      28.833  -7.049  14.352  1.00  0.00     0.161 HD
BRANCH  10  12
HETATM   12  C9  UNL     1      27.302  -8.292  14.227  1.00  0.00     0.100 A 
HETATM   13  C10 UNL     1      26.544  -8.690  13.175  1.00  0.00     0.048 A 
HETATM   14  C11 UNL     1      25.200  -9.037  13.339  1.00  0.00     0.005 A 
HETATM   15  C12 UNL     1      24.636  -8.974  14.589  1.00  0.00     0.017 A 
HETATM   16  C13 UNL     1      25.449  -8.564  15.623  1.00  0.00     0.089 A 
HETATM   17  N5  UNL     1      26.728  -8.239  15.435  1.00  0.00    -0.353 N 
ATOM     18  H5  UNL     1      27.286  -7.943  16.237  1.00  0.00     0.166 HD
ENDBRANCH  10  12
ENDBRANCH   9  10
ENDBRANCH   8   9
ENDBRANCH   7   8
BRANCH   1  19
HETATM   19  C3  UNL     1      32.468 -10.124  14.343  1.00  0.00    -0.003 C 
HETATM   20  C2  UNL     1      33.098  -9.157  15.209  1.00  0.00    -0.002 C 
BRANCH  20  21
HETATM   21  C1  UNL     1      32.457  -8.221  16.124  1.00  0.00     0.256 C 
BRANCH  21  22
HETATM   22  N1  UNL     1      31.641  -7.217  15.528  1.00  0.00    -0.076 N 
ATOM     23  H13 UNL     1      32.224  -6.572  14.994  1.00  0.00     0.274 HD
ATOM     24  H12 UNL     1      31.083  -7.626  14.778  1.00  0.00     0.274 HD
ATOM     25  H11 UNL     1      31.037  -6.693  16.160  1.00  0.00     0.274 HD
ENDBRANCH  21  22
ENDBRANCH  20  21
ENDBRANCH   1  19
TORSDOF 7
ENDMDL
MODEL 2
REMARK VINA RESULT: -6.891696231      1.691      2.555
REMARK  7 active torsions:
REMARK  status: ('A' for Active; 'I' for Inactive)
REMARK    1  A    between atoms: N1_1  and  C1_5 
REMARK    2  A    between atoms: C1_5  and  C2_6 
REMARK    3  A    between atoms: C3_7  and  C4_8 
REMARK    4  A    between atoms: N3_14  and  C7_15 
REMARK    5  A    between atoms: C7_15  and  C8_16 
REMARK    6  A    between atoms: C8_16  and  N4_17 
REMARK    7  A    between atoms: N4_17  and  C9_19 
ROOT
HETATM    1  C4  UNL     1      29.198 -10.513  15.864  1.00  0.00     0.127 C 
HETATM    2  C5  UNL     1      29.285 -10.070  17.270  1.00  0.00     0.151 C 
HETATM    3  N2  UNL     1      30.030  -8.811  17.241  1.00  0.00    -0.365 N 
ATOM      4  H2  UNL     1      29.989  -8.050  17.919  1.00  0.00     0.161 HD
HETATM    5  C6  UNL     1      30.831  -8.881  16.056  1.00  0.00     0.170 C 
HETATM    6  S1  UNL     1      32.320  -8.278  15.855  1.00  0.00    -0.041 SA
HETATM    7  N3  UNL     1      30.056  -9.571  15.099  1.00  0.00    -0.347 N 
ENDROOT
BRANCH   7   8
HETATM    8  C7  UNL     1      29.912  -9.498  13.686  1.00  0.00     0.145 C 
BRANCH   8   9
HETATM    9  C8  UNL     1      29.428  -8.270  13.039  1.00  0.00     0.141 C 
BRANCH   9  10
HETATM   10  N4  UNL     1      28.405  -7.641  13.821  1.00  0.00    -0.375 N 
ATOM     11  H4  UNL     1      28.623  -6.728  14.220  1.00  0.00     0.161 HD
BRANCH  10  12
HETATM   12  C9  UNL     1      27.232  -8.123  14.067  1.00  0.00     0.100 A 
HETATM   13  C10 UNL     1      26.472  -8.599  13.050  1.00  0.00     0.048 A 
HETATM   14  C11 UNL     1      25.198  -9.125  13.280  1.00  0.00     0.005 A 
HETATM   15  C12 UNL     1      24.705  -9.162  14.561  1.00  0.00     0.017 A 
HETATM   16  C13 UNL     1      25.517  -8.667  15.557  1.00  0.00     0.089 A 
HETATM   17  N5  UNL     1      26.729  -8.171  15.307  1.00  0.00    -0.353 N 
ATOM     18  H5  UNL     1      27.289  -7.818  16.083  1.00  0.00     0.166 HD
ENDBRANCH  10  12
ENDBRANCH   9  10
ENDBRANCH   8   9
ENDBRANCH   7   8
BRANCH   1  19
HETATM   19  C3  UNL     1      29.570 -11.907  15.562  1.00  0.00    -0.003 C 
HETATM   20  C2  UNL     1      30.661 -12.642  16.154  1.00  0.00    -0.002 C 
BRANCH  20  21
HETATM   21  C1  UNL     1      32.077 -12.293  16.162  1.00  0.00     0.256 C 
BRANCH  21  22
HETATM   22  N1  UNL     1      32.614 -11.814  14.933  1.00  0.00    -0.076 N 
ATOM     23  H13 UNL     1      32.962 -12.597  14.380  1.00  0.00     0.274 HD
ATOM     24  H12 UNL     1      31.859 -11.484  14.332  1.00  0.00     0.274 HD
ATOM     25  H11 UNL     1      33.335 -11.096  15.005  1.00  0.00     0.274 HD
ENDBRANCH  21  22
ENDBRANCH  20  21
ENDBRANCH   1  19
TORSDOF 7
ENDMDL
MODEL 3
REMARK VINA RESULT: -6.694368435      0.620      1.083
REMARK  7 active torsions:
REMARK  status: ('A' for Active; 'I' for Inactive)
REMARK    1  A    between atoms: N1_1  and  C1_5 
REMARK    2  A    between atoms: C1_5  and  C2_6 
REMARK    3  A    between atoms: C3_7  and  C4_8 
REMARK    4  A    between atoms: N3_14  and  C7_15 
REMARK    5  A    between atoms: C7_15  and  C8_16 
REMARK    6  A    between atoms: C8_16  and  N4_17 
REMARK    7  A    between atoms: N4_17  and  C9_19 
ROOT
HETATM    1  C4  UNL     1      31.620 -11.173  14.723  1.00  0.00     0.127 C 
HETATM    2  C5  UNL     1      31.930 -11.982  15.919  1.00  0.00     0.151 C 
HETATM    3  N2  UNL     1      30.697 -12.012  16.705  1.00  0.00    -0.365 N 
ATOM      4  H2  UNL     1      30.405 -12.724  17.375  1.00  0.00     0.161 HD
HETATM    5  C6  UNL     1      29.989 -10.825  16.330  1.00  0.00     0.170 C 
HETATM    6  S1  UNL     1      29.056  -9.909  17.287  1.00  0.00    -0.041 SA
HETATM    7  N3  UNL     1      30.261 -10.622  14.960  1.00  0.00    -0.347 N 
ENDROOT
BRANCH   7   8
HETATM    8  C7  UNL     1      29.527 -10.097  13.862  1.00  0.00     0.145 C 
BRANCH   8   9
HETATM    9  C8  UNL     1      29.537  -8.656  13.566  1.00  0.00     0.141 C 
BRANCH   9  10
HETATM   10  N4  UNL     1      28.445  -7.988  14.208  1.00  0.00    -0.375 N 
ATOM     11  H4  UNL     1      28.666  -7.151  14.746  1.00  0.00     0.161 HD
BRANCH  10  12
HETATM   12  C9  UNL     1      27.204  -8.348  14.170  1.00  0.00     0.100 A 
HETATM   13  C10 UNL     1      26.484  -8.406  15.318  1.00  0.00     0.048 A 
HETATM   14  C11 UNL     1      25.141  -8.793  15.314  1.00  0.00     0.005 A 
HETATM   15  C12 UNL     1      24.539  -9.122  14.125  1.00  0.00     0.017 A 
HETATM   16  C13 UNL     1      25.314  -9.047  12.989  1.00  0.00     0.089 A 
HETATM   17  N5  UNL     1      26.593  -8.673  13.024  1.00  0.00    -0.353 N 
ATOM     18  H5  UNL     1      27.122  -8.634  12.152  1.00  0.00     0.166 HD
ENDBRANCH  10  12
ENDBRANCH   9  10
ENDBRANCH   8   9
ENDBRANCH   7   8
BRANCH   1  19
HETATM   19  C3  UNL     1      32.556 -10.093  14.366  1.00  0.00    -0.003 C 
HETATM   20  C2  UNL     1      33.155  -9.152  15.281  1.00  0.00    -0.002 C 
BRANCH  20  21
HETATM   21  C1  UNL     1      32.481  -8.231  16.190  1.00  0.00     0.256 C 
BRANCH  21  22
HETATM   22  N1  UNL     1      31.681  -7.221  15.582  1.00  0.00    -0.076 N 
ATOM     23  H13 UNL     1      32.164  -6.843  14.767  1.00  0.00     0.274 HD
ATOM     24  H12 UNL     1      30.868  -7.646  15.136  1.00  0.00     0.274 HD
ATOM     25  H11 UNL     1      31.382  -6.458  16.189  1.00  0.00     0.274 HD
ENDBRANCH  21  22
ENDBRANCH  20  21
ENDBRANCH   1  19
TORSDOF 7
ENDMDL
MODEL 4
REMARK VINA RESULT: -6.689481379      2.063      4.637
REMARK  7 active torsions:
REMARK  status: ('A' for Active; 'I' for Inactive)
REMARK    1  A    between atoms: N1_1  and  C1_5 
REMARK    2  A    between atoms: C1_5  and  C2_6 
REMARK    3  A    between atoms: C3_7  and  C4_8 
REMARK    4  A    between atoms: N3_14  and  C7_15 
REMARK    5  A    between atoms: C7_15  and  C8_16 
REMARK    6  A    between atoms: C8_16  and  N4_17 
REMARK    7  A    between atoms: N4_17  and  C9_19 
ROOT
HETATM    1  C4  UNL     1      28.432 -11.478  13.964  1.00  0.00     0.127 C 
HETATM    2  C5  UNL     1      27.338 -12.249  14.587  1.00  0.00     0.151 C 
HETATM    3  N2  UNL     1      26.140 -11.421  14.444  1.00  0.00    -0.365 N 
ATOM      4  H2  UNL     1      25.169 -11.733  14.417  1.00  0.00     0.161 HD
HETATM    5  C6  UNL     1      26.627 -10.077  14.351  1.00  0.00     0.170 C 
HETATM    6  S1  UNL     1      25.915  -8.745  14.933  1.00  0.00    -0.041 SA
HETATM    7  N3  UNL     1      27.846 -10.151  13.643  1.00  0.00    -0.347 N 
ENDROOT
BRANCH   7   8
HETATM    8  C7  UNL     1      28.522  -9.302  12.723  1.00  0.00     0.145 C 
BRANCH   8   9
HETATM    9  C8  UNL     1      28.933  -7.944  13.110  1.00  0.00     0.141 C 
BRANCH   9  10
HETATM   10  N4  UNL     1      30.359  -7.809  13.088  1.00  0.00    -0.375 N 
ATOM     11  H4  UNL     1      30.781  -7.498  12.214  1.00  0.00     0.161 HD
BRANCH  10  12
HETATM   12  C9  UNL     1      31.160  -8.045  14.074  1.00  0.00     0.100 A 
HETATM   13  C10 UNL     1      32.097  -9.019  13.961  1.00  0.00     0.048 A 
HETATM   14  C11 UNL     1      32.979  -9.303  15.008  1.00  0.00     0.005 A 
HETATM   15  C12 UNL     1      32.895  -8.582  16.173  1.00  0.00     0.017 A 
HETATM   16  C13 UNL     1      31.927  -7.605  16.235  1.00  0.00     0.089 A 
HETATM   17  N5  UNL     1      31.100  -7.356  15.220  1.00  0.00    -0.353 N 
ATOM     18  H5  UNL     1      30.401  -6.620  15.319  1.00  0.00     0.166 HD
ENDBRANCH  10  12
ENDBRANCH   9  10
ENDBRANCH   8   9
ENDBRANCH   7   8
BRANCH   1  19
HETATM   19  C3  UNL     1      29.678 -11.316  14.734  1.00  0.00    -0.003 C 
HETATM   20  C2  UNL     1      29.774 -11.041  16.147  1.00  0.00    -0.002 C 
BRANCH  20  21
HETATM   21  C1  UNL     1      29.205  -9.917  16.882  1.00  0.00     0.256 C 
BRANCH  21  22
HETATM   22  N1  UNL     1      29.705  -9.711  18.200  1.00  0.00    -0.076 N 
ATOM     23  H13 UNL     1      30.358 -10.456  18.442  1.00  0.00     0.274 HD
ATOM     24  H12 UNL     1      30.330  -8.906  18.210  1.00  0.00     0.274 HD
ATOM     25  H11 UNL     1      29.006  -9.614  18.937  1.00  0.00     0.274 HD
ENDBRANCH  21  22
ENDBRANCH  20  21
ENDBRANCH   1  19
TORSDOF 7
ENDMDL
MODEL 5
REMARK VINA RESULT: -6.650632267      1.803      2.775
REMARK  7 active torsions:
REMARK  status: ('A' for Active; 'I' for Inactive)
REMARK    1  A    between atoms: N1_1  and  C1_5 
REMARK    2  A    between atoms: C1_5  and  C2_6 
REMARK    3  A    between atoms: C3_7  and  C4_8 
REMARK    4  A    between atoms: N3_14  and  C7_15 
REMARK    5  A    between atoms: C7_15  and  C8_16 
REMARK    6  A    between atoms: C8_16  and  N4_17 
REMARK    7  A    between atoms: N4_17  and  C9_19 
ROOT
HETATM    1  C4  UNL     1      29.211 -10.464  15.849  1.00  0.00     0.127 C 
HETATM    2  C5  UNL     1      29.298 -10.064  17.268  1.00  0.00     0.151 C 
HETATM    3  N2  UNL     1      30.056  -8.812  17.278  1.00  0.00    -0.365 N 
ATOM      4  H2  UNL     1      30.021  -8.070  17.977  1.00  0.00     0.161 HD
HETATM    5  C6  UNL     1      30.860  -8.855  16.093  1.00  0.00     0.170 C 
HETATM    6  S1  UNL     1      32.356  -8.262  15.914  1.00  0.00    -0.041 SA
HETATM    7  N3  UNL     1      30.080  -9.509  15.114  1.00  0.00    -0.347 N 
ENDROOT
BRANCH   7   8
HETATM    8  C7  UNL     1      29.942  -9.393  13.704  1.00  0.00     0.145 C 
BRANCH   8   9
HETATM    9  C8  UNL     1      29.410  -8.165  13.096  1.00  0.00     0.141 C 
BRANCH   9  10
HETATM   10  N4  UNL     1      28.307  -7.649  13.851  1.00  0.00    -0.375 N 
ATOM     11  H4  UNL     1      28.459  -6.775  14.354  1.00  0.00     0.161 HD
BRANCH  10  12
HETATM   12  C9  UNL     1      27.138  -8.188  13.955  1.00  0.00     0.100 A 
HETATM   13  C10 UNL     1      26.572  -8.339  15.178  1.00  0.00     0.048 A 
HETATM   14  C11 UNL     1      25.309  -8.921  15.327  1.00  0.00     0.005 A 
HETATM   15  C12 UNL     1      24.628  -9.346  14.214  1.00  0.00     0.017 A 
HETATM   16  C13 UNL     1      25.247  -9.169  12.996  1.00  0.00     0.089 A 
HETATM   17  N5  UNL     1      26.452  -8.611  12.885  1.00  0.00    -0.353 N 
ATOM     18  H5  UNL     1      26.865  -8.503  11.958  1.00  0.00     0.166 HD
ENDBRANCH  10  12
ENDBRANCH   9  10
ENDBRANCH   8   9
ENDBRANCH   7   8
BRANCH   1  19
HETATM   19  C3  UNL     1      29.569 -11.852  15.507  1.00  0.00    -0.003 C 
HETATM   20  C2  UNL     1      30.643 -12.620  16.090  1.00  0.00    -0.002 C 
BRANCH  20  21
HETATM   21  C1  UNL     1      32.063 -12.290  16.129  1.00  0.00     0.256 C 
BRANCH  21  22
HETATM   22  N1  UNL     1      32.624 -11.785  14.921  1.00  0.00    -0.076 N 
ATOM     23  H13 UNL     1      32.754 -12.547  14.256  1.00  0.00     0.274 HD
ATOM     24  H12 UNL     1      31.931 -11.224  14.426  1.00  0.00     0.274 HD
ATOM     25  H11 UNL     1      33.492 -11.257  15.014  1.00  0.00     0.274 HD
ENDBRANCH  21  22
ENDBRANCH  20  21
ENDBRANCH   1  19
TORSDOF 7
ENDMDL
