MODEL 1
REMARK VINA RESULT: -7.113170931      0.000      0.000
REMARK  7 active torsions:
REMARK  status: ('A' for Active; 'I' for Inactive)
REMARK    1  A    between atoms: C1_4  and  C2_6 
REMARK    2  A    between atoms: N3_10  and  C6_11 
REMARK    3  A    between atoms: C6_11  and  C7_12 
REMARK    4  A    between atoms: C7_12  and  C8_13 
REMARK    5  A    between atoms: C8_13  and  N4_14 
REMARK    6  A    between atoms: C11_17  and  C12_18 
REMARK    7  A    between atoms: N5_19  and  O1_21 
ROOT
HETATM    1  C7  UNL     1      27.802  -9.471  16.881  1.00  0.00     0.040 C 
ENDROOT
BRANCH   1   2
HETATM    2  C6  UNL     1      29.083  -9.835  17.480  1.00  0.00     0.129 C 
BRANCH   2   3
HETATM    3  N3  UNL     1      30.092 -10.417  16.646  1.00  0.00    -0.365 N 
HETATM    4  C5  UNL     1      30.331 -11.716  16.561  1.00  0.00     0.090 A 
HETATM    5  C4  UNL     1      31.314 -12.237  15.714  1.00  0.00     0.018 A 
HETATM    6  C3  UNL     1      32.071 -11.391  14.932  1.00  0.00     0.017 A 
HETATM    7  C2  UNL     1      31.839 -10.037  15.006  1.00  0.00     0.020 A 
HETATM    8  C15 UNL     1      30.851  -9.601  15.867  1.00  0.00     0.105 A 
BRANCH   7   9
HETATM    9  C1  UNL     1      32.591  -9.065  14.217  1.00  0.00     0.121 C 
HETATM   10  N1  UNL     1      32.077  -7.973  13.845  1.00  0.00    -0.387 N 
ATOM     11  H12 UNL     1      32.602  -7.295  13.294  1.00  0.00     0.157 HD
ATOM     12  H11 UNL     1      31.111  -7.771  14.103  1.00  0.00     0.157 HD
HETATM   13  N2  UNL     1      33.939  -9.347  13.857  1.00  0.00    -0.082 NA
ENDBRANCH   7   9
ENDBRANCH   2   3
ENDBRANCH   1   2
BRANCH   1  14
HETATM   14  C8  UNL     1      27.218 -10.116  15.709  1.00  0.00     0.129 C 
BRANCH  14  15
HETATM   15  N4  UNL     1      27.706  -9.604  14.456  1.00  0.00    -0.366 N 
HETATM   16  C9  UNL     1      28.270 -10.271  13.458  1.00  0.00     0.091 A 
HETATM   17  C10 UNL     1      28.674  -9.688  12.281  1.00  0.00     0.030 A 
HETATM   18  C11 UNL     1      28.514  -8.314  12.048  1.00  0.00    -0.016 A 
HETATM   19  C13 UNL     1      27.933  -7.624  13.078  1.00  0.00     0.030 A 
HETATM   20  C14 UNL     1      27.548  -8.260  14.233  1.00  0.00     0.091 A 
BRANCH  18  21
HETATM   21  C12 UNL     1      28.958  -7.754  10.791  1.00  0.00     0.125 C 
HETATM   22  N5  UNL     1      29.963  -7.061  10.577  1.00  0.00    -0.280 N 
ATOM     23  H5  UNL     1      30.079  -6.772   9.606  1.00  0.00     0.193 HD
BRANCH  22  24
HETATM   24  O1  UNL     1      30.910  -6.634  11.396  1.00  0.00    -0.290 OA
ATOM     25  H1  UNL     1      30.882  -5.997  12.099  1.00  0.00     0.244 HD
ENDBRANCH  22  24
ENDBRANCH  18  21
ENDBRANCH  14  15
ENDBRANCH   1  14
TORSDOF 7
ENDMDL
MODEL 2
REMARK VINA RESULT: -6.952536205      2.380      2.549
REMARK  7 active torsions:
REMARK  status: ('A' for Active; 'I' for Inactive)
REMARK    1  A    between atoms: C1_4  and  C2_6 
REMARK    2  A    between atoms: N3_10  and  C6_11 
REMARK    3  A    between atoms: C6_11  and  C7_12 
REMARK    4  A    between atoms: C7_12  and  C8_13 
REMARK    5  A    between atoms: C8_13  and  N4_14 
REMARK    6  A    between atoms: C11_17  and  C12_18 
REMARK    7  A    between atoms: N5_19  and  O1_21 
ROOT
HETATM    1  C7  UNL     1      27.734  -9.953  16.850  1.00  0.00     0.040 C 
ENDROOT
BRANCH   1   2
HETATM    2  C6  UNL     1      29.125  -9.725  17.235  1.00  0.00     0.129 C 
BRANCH   2   3
HETATM    3  N3  UNL     1      30.162 -10.360  16.477  1.00  0.00    -0.365 N 
HETATM    4  C5  UNL     1      30.359 -11.668  16.433  1.00  0.00     0.090 A 
HETATM    5  C4  UNL     1      31.372 -12.241  15.657  1.00  0.00     0.018 A 
HETATM    6  C3  UNL     1      32.205 -11.439  14.906  1.00  0.00     0.017 A 
HETATM    7  C2  UNL     1      32.016 -10.076  14.939  1.00  0.00     0.020 A 
HETATM    8  C15 UNL     1      30.995  -9.587  15.729  1.00  0.00     0.105 A 
BRANCH   7   9
HETATM    9  C1  UNL     1      32.849  -9.148  14.178  1.00  0.00     0.121 C 
HETATM   10  N1  UNL     1      32.383  -8.072  13.710  1.00  0.00    -0.387 N 
ATOM     11  H12 UNL     1      32.965  -7.424  13.178  1.00  0.00     0.157 HD
ATOM     12  H11 UNL     1      31.401  -7.850  13.869  1.00  0.00     0.157 HD
HETATM   13  N2  UNL     1      34.221  -9.457  13.956  1.00  0.00    -0.082 NA
ENDBRANCH   7   9
ENDBRANCH   2   3
ENDBRANCH   1   2
BRANCH   1  14
HETATM   14  C8  UNL     1      26.784  -8.900  16.503  1.00  0.00     0.129 C 
BRANCH  14  15
HETATM   15  N4  UNL     1      26.526  -8.788  15.091  1.00  0.00    -0.366 N 
HETATM   16  C9  UNL     1      27.336  -8.344  14.140  1.00  0.00     0.091 A 
HETATM   17  C10 UNL     1      27.002  -8.309  12.807  1.00  0.00     0.030 A 
HETATM   18  C11 UNL     1      25.751  -8.750  12.351  1.00  0.00    -0.016 A 
HETATM   19  C13 UNL     1      24.914  -9.208  13.333  1.00  0.00     0.030 A 
HETATM   20  C14 UNL     1      25.302  -9.221  14.650  1.00  0.00     0.091 A 
BRANCH  18  21
HETATM   21  C12 UNL     1      25.453  -8.690  10.937  1.00  0.00     0.125 C 
HETATM   22  N5  UNL     1      24.597  -7.999  10.367  1.00  0.00    -0.280 N 
ATOM     23  H5  UNL     1      24.561  -8.119   9.355  1.00  0.00     0.193 HD
BRANCH  22  24
HETATM   24  O1  UNL     1      23.722  -7.133  10.850  1.00  0.00    -0.290 OA
ATOM     25  H1  UNL     1      23.119  -6.547  10.409  1.00  0.00     0.244 HD
ENDBRANCH  22  24
ENDBRANCH  18  21
ENDBRANCH  14  15
ENDBRANCH   1  14
TORSDOF 7
ENDMDL
MODEL 3
REMARK VINA RESULT: -6.943530144      2.402      2.560
REMARK  7 active torsions:
REMARK  status: ('A' for Active; 'I' for Inactive)
REMARK    1  A    between atoms: C1_4  and  C2_6 
REMARK    2  A    between atoms: N3_10  and  C6_11 
REMARK    3  A    between atoms: C6_11  and  C7_12 
REMARK    4  A    between atoms: C7_12  and  C8_13 
REMARK    5  A    between atoms: C8_13  and  N4_14 
REMARK    6  A    between atoms: C11_17  and  C12_18 
REMARK    7  A    between atoms: N5_19  and  O1_21 
ROOT
HETATM    1  C7  UNL     1      27.702  -9.933  16.790  1.00  0.00     0.040 C 
ENDROOT
BRANCH   1   2
HETATM    2  C6  UNL     1      29.088  -9.724  17.200  1.00  0.00     0.129 C 
BRANCH   2   3
HETATM    3  N3  UNL     1      30.130 -10.364  16.453  1.00  0.00    -0.365 N 
HETATM    4  C5  UNL     1      30.316 -11.674  16.405  1.00  0.00     0.090 A 
HETATM    5  C4  UNL     1      31.335 -12.252  15.641  1.00  0.00     0.018 A 
HETATM    6  C3  UNL     1      32.186 -11.454  14.906  1.00  0.00     0.017 A 
HETATM    7  C2  UNL     1      32.009 -10.090  14.943  1.00  0.00     0.020 A 
HETATM    8  C15 UNL     1      30.981  -9.596  15.721  1.00  0.00     0.105 A 
BRANCH   7   9
HETATM    9  C1  UNL     1      32.861  -9.165  14.199  1.00  0.00     0.121 C 
HETATM   10  N1  UNL     1      32.408  -8.091  13.714  1.00  0.00    -0.387 N 
ATOM     11  H12 UNL     1      33.002  -7.446  13.194  1.00  0.00     0.157 HD
ATOM     12  H11 UNL     1      31.421  -7.869  13.847  1.00  0.00     0.157 HD
HETATM   13  N2  UNL     1      34.238  -9.476  14.013  1.00  0.00    -0.082 NA
ENDBRANCH   7   9
ENDBRANCH   2   3
ENDBRANCH   1   2
BRANCH   1  14
HETATM   14  C8  UNL     1      26.770  -8.867  16.435  1.00  0.00     0.129 C 
BRANCH  14  15
HETATM   15  N4  UNL     1      26.358  -8.887  15.057  1.00  0.00    -0.366 N 
HETATM   16  C9  UNL     1      25.213  -9.318  14.547  1.00  0.00     0.091 A 
HETATM   17  C10 UNL     1      24.902  -9.261  13.209  1.00  0.00     0.030 A 
HETATM   18  C11 UNL     1      25.798  -8.731  12.268  1.00  0.00    -0.016 A 
HETATM   19  C13 UNL     1      26.982  -8.287  12.794  1.00  0.00     0.030 A 
HETATM   20  C14 UNL     1      27.238  -8.368  14.141  1.00  0.00     0.091 A 
BRANCH  18  21
HETATM   21  C12 UNL     1      25.420  -8.697  10.873  1.00  0.00     0.125 C 
HETATM   22  N5  UNL     1      24.545  -8.002  10.337  1.00  0.00    -0.280 N 
ATOM     23  H5  UNL     1      24.448  -8.143   9.332  1.00  0.00     0.193 HD
BRANCH  22  24
HETATM   24  O1  UNL     1      23.715  -7.108  10.850  1.00  0.00    -0.290 OA
ATOM     25  H1  UNL     1      23.511  -6.222  10.577  1.00  0.00     0.244 HD
ENDBRANCH  22  24
ENDBRANCH  18  21
ENDBRANCH  14  15
ENDBRANCH   1  14
TORSDOF 7
ENDMDL
MODEL 4
REMARK VINA RESULT: -6.875876874      1.685      4.671
REMARK  7 active torsions:
REMARK  status: ('A' for Active; 'I' for Inactive)
REMARK    1  A    between atoms: C1_4  and  C2_6 
REMARK    2  A    between atoms: N3_10  and  C6_11 
REMARK    3  A    between atoms: C6_11  and  C7_12 
REMARK    4  A    between atoms: C7_12  and  C8_13 
REMARK    5  A    between atoms: C8_13  and  N4_14 
REMARK    6  A    between atoms: C11_17  and  C12_18 
REMARK    7  A    between atoms: N5_19  and  O1_21 
ROOT
HETATM    1  C7  UNL     1      28.415 -13.307  15.267  1.00  0.00     0.040 C 
ENDROOT
BRANCH   1   2
HETATM    2  C6  UNL     1      27.793 -12.671  14.109  1.00  0.00     0.129 C 
BRANCH   2   3
HETATM    3  N3  UNL     1      27.329 -11.321  14.231  1.00  0.00    -0.365 N 
HETATM    4  C5  UNL     1      26.337 -10.943  15.023  1.00  0.00     0.090 A 
HETATM    5  C4  UNL     1      25.936  -9.608  15.125  1.00  0.00     0.018 A 
HETATM    6  C3  UNL     1      26.578  -8.635  14.389  1.00  0.00     0.017 A 
HETATM    7  C2  UNL     1      27.611  -9.007  13.559  1.00  0.00     0.020 A 
HETATM    8  C15 UNL     1      27.947 -10.346  13.514  1.00  0.00     0.105 A 
BRANCH   7   9
HETATM    9  C1  UNL     1      28.348  -8.048  12.741  1.00  0.00     0.121 C 
HETATM   10  N1  UNL     1      29.368  -8.388  12.079  1.00  0.00    -0.387 N 
ATOM     11  H12 UNL     1      29.883  -7.718  11.508  1.00  0.00     0.157 HD
ATOM     12  H11 UNL     1      29.681  -9.358  12.120  1.00  0.00     0.157 HD
HETATM   13  N2  UNL     1      27.911  -6.694  12.683  1.00  0.00    -0.082 NA
ENDBRANCH   7   9
ENDBRANCH   2   3
ENDBRANCH   1   2
BRANCH   1  14
HETATM   14  C8  UNL     1      29.814 -13.147  15.653  1.00  0.00     0.129 C 
BRANCH  14  15
HETATM   15  N4  UNL     1      30.228 -11.776  15.790  1.00  0.00    -0.366 N 
HETATM   16  C9  UNL     1      29.801 -10.871  16.660  1.00  0.00     0.091 A 
HETATM   17  C10 UNL     1      30.290  -9.588  16.730  1.00  0.00     0.030 A 
HETATM   18  C11 UNL     1      31.298  -9.137  15.865  1.00  0.00    -0.016 A 
HETATM   19  C13 UNL     1      31.738 -10.071  14.965  1.00  0.00     0.030 A 
HETATM   20  C14 UNL     1      31.213 -11.340  14.941  1.00  0.00     0.091 A 
BRANCH  18  21
HETATM   21  C12 UNL     1      31.774  -7.777  15.983  1.00  0.00     0.125 C 
HETATM   22  N5  UNL     1      31.831  -6.910  15.100  1.00  0.00    -0.280 N 
ATOM     23  H5  UNL     1      32.206  -6.014  15.410  1.00  0.00     0.193 HD
BRANCH  22  24
HETATM   24  O1  UNL     1      31.486  -6.950  13.824  1.00  0.00    -0.290 OA
ATOM     25  H1  UNL     1      30.648  -6.808  13.401  1.00  0.00     0.244 HD
ENDBRANCH  22  24
ENDBRANCH  18  21
ENDBRANCH  14  15
ENDBRANCH   1  14
TORSDOF 7
ENDMDL
MODEL 5
REMARK VINA RESULT: -6.861000383      1.577      4.764
REMARK  7 active torsions:
REMARK  status: ('A' for Active; 'I' for Inactive)
REMARK    1  A    between atoms: C1_4  and  C2_6 
REMARK    2  A    between atoms: N3_10  and  C6_11 
REMARK    3  A    between atoms: C6_11  and  C7_12 
REMARK    4  A    between atoms: C7_12  and  C8_13 
REMARK    5  A    between atoms: C8_13  and  N4_14 
REMARK    6  A    between atoms: C11_17  and  C12_18 
REMARK    7  A    between atoms: N5_19  and  O1_21 
ROOT
HETATM    1  C7  UNL     1      27.541  -9.463  16.468  1.00  0.00     0.040 C 
ENDROOT
BRANCH   1   2
HETATM    2  C6  UNL     1      26.835 -10.200  15.424  1.00  0.00     0.129 C 
BRANCH   2   3
HETATM    3  N3  UNL     1      26.671  -9.586  14.139  1.00  0.00    -0.365 N 
HETATM    4  C5  UNL     1      25.735  -9.924  13.266  1.00  0.00     0.090 A 
HETATM    5  C4  UNL     1      25.602  -9.278  12.033  1.00  0.00     0.018 A 
HETATM    6  C3  UNL     1      26.459  -8.254  11.693  1.00  0.00     0.017 A 
HETATM    7  C2  UNL     1      27.440  -7.888  12.587  1.00  0.00     0.020 A 
HETATM    8  C15 UNL     1      27.507  -8.574  13.783  1.00  0.00     0.105 A 
BRANCH   7   9
HETATM    9  C1  UNL     1      28.393  -6.816  12.314  1.00  0.00     0.121 C 
HETATM   10  N1  UNL     1      29.640  -7.016  12.336  1.00  0.00    -0.387 N 
ATOM     11  H12 UNL     1      30.305  -6.268  12.145  1.00  0.00     0.157 HD
ATOM     12  H11 UNL     1      29.984  -7.952  12.550  1.00  0.00     0.157 HD
HETATM   13  N2  UNL     1      27.913  -5.510  12.013  1.00  0.00    -0.082 NA
ENDBRANCH   7   9
ENDBRANCH   2   3
ENDBRANCH   1   2
BRANCH   1  14
HETATM   14  C8  UNL     1      28.713  -9.954  17.187  1.00  0.00     0.129 C 
BRANCH  14  15
HETATM   15  N4  UNL     1      29.925  -9.929  16.413  1.00  0.00    -0.366 N 
HETATM   16  C9  UNL     1      30.422 -10.878  15.631  1.00  0.00     0.091 A 
HETATM   17  C10 UNL     1      31.580 -10.740  14.904  1.00  0.00     0.030 A 
HETATM   18  C11 UNL     1      32.335  -9.559  14.940  1.00  0.00    -0.016 A 
HETATM   19  C13 UNL     1      31.824  -8.579  15.748  1.00  0.00     0.030 A 
HETATM   20  C14 UNL     1      30.661  -8.771  16.453  1.00  0.00     0.091 A 
BRANCH  18  21
HETATM   21  C12 UNL     1      33.545  -9.469  14.154  1.00  0.00     0.125 C 
HETATM   22  N5  UNL     1      33.833  -8.630  13.289  1.00  0.00    -0.280 N 
ATOM     23  H5  UNL     1      34.748  -8.761  12.858  1.00  0.00     0.193 HD
BRANCH  22  24
HETATM   24  O1  UNL     1      33.153  -7.592  12.831  1.00  0.00    -0.290 OA
ATOM     25  H1  UNL     1      33.439  -6.823  12.354  1.00  0.00     0.244 HD
ENDBRANCH  22  24
ENDBRANCH  18  21
ENDBRANCH  14  15
ENDBRANCH   1  14
TORSDOF 7
ENDMDL
