MODEL 1
REMARK VINA RESULT: -6.664434540      0.000      0.000
REMARK  9 active torsions:
REMARK  status: ('A' for Active; 'I' for Inactive)
REMARK    1  A    between atoms: C4_4  and  N1_5 
REMARK    2  A    between atoms: N1_5  and  C5_7 
REMARK    3  A    between atoms: C5_7  and  C6_8 
REMARK    4  A    between atoms: C6_8  and  C7_9 
REMARK    5  A    between atoms: C7_9  and  N2_10 
REMARK    6  A    between atoms: C8_16  and  N4_17 
REMARK    7  A    between atoms: N4_17  and  C9_19 
REMARK    8  A    between atoms: C9_19  and  C10_20 
REMARK    9  A    between atoms: C10_20  and  C11_21 
ROOT
HETATM    1  C1  UNL     1      26.869  23.832 -44.157  1.00  0.00     0.069 C 
HETATM    2  C2  UNL     1      26.056  23.347 -42.991  1.00  0.00     0.026 A 
HETATM    3  C3  UNL     1      26.282  22.102 -42.439  1.00  0.00     0.073 A 
HETATM    4  C4  UNL     1      25.530  21.661 -41.366  1.00  0.00     0.118 A 
HETATM    5  N3  UNL     1      24.587  22.490 -40.895  1.00  0.00    -0.177 N 
ATOM      6  H3  UNL     1      24.026  22.176 -40.103  1.00  0.00     0.185 HD
HETATM    7  C8  UNL     1      24.336  23.709 -41.404  1.00  0.00     0.679 A 
HETATM    8  N5  UNL     1      25.084  24.106 -42.446  1.00  0.00    -0.196 N 
ATOM      9  H5  UNL     1      24.908  25.029 -42.845  1.00  0.00     0.184 HD
ENDROOT
BRANCH   7  10
HETATM   10  N4  UNL     1      23.396  24.467 -40.893  1.00  0.00    -0.226 N 
ATOM     11  H4  UNL     1      23.632  25.083 -40.115  1.00  0.00     0.177 HD
BRANCH  10  12
HETATM   12  C9  UNL     1      22.054  24.461 -41.383  1.00  0.00     0.142 C 
BRANCH  12  13
HETATM   13  C10 UNL     1      21.124  23.575 -40.576  1.00  0.00     0.058 C 
BRANCH  13  14
HETATM   14  C11 UNL     1      20.590  22.547 -41.508  1.00  0.00    -0.057 A 
HETATM   15  C12 UNL     1      19.519  21.750 -41.193  1.00  0.00     0.007 A 
HETATM   16  C13 UNL     1      19.032  20.791 -42.085  1.00  0.00     0.001 A 
HETATM   17  C14 UNL     1      19.663  20.664 -43.300  1.00  0.00     0.000 A 
HETATM   18  C15 UNL     1      20.740  21.451 -43.643  1.00  0.00     0.001 A 
HETATM   19  C16 UNL     1      21.204  22.393 -42.745  1.00  0.00     0.007 A 
ENDBRANCH  13  14
ENDBRANCH  12  13
ENDBRANCH  10  12
ENDBRANCH   7  10
BRANCH   4  20
HETATM   20  N1  UNL     1      25.787  20.503 -40.903  1.00  0.00    -0.376 N 
ATOM     21  H1  UNL     1      26.759  20.296 -40.670  1.00  0.00     0.161 HD
BRANCH  20  22
HETATM   22  C5  UNL     1      24.814  19.459 -40.681  1.00  0.00     0.123 C 
BRANCH  22  23
HETATM   23  C6  UNL     1      23.508  19.744 -41.375  1.00  0.00     0.047 C 
BRANCH  23  24
HETATM   24  C7  UNL     1      22.323  19.471 -40.471  1.00  0.00     0.231 C 
BRANCH  24  25
HETATM   25  N2  UNL     1      22.579  19.859 -39.112  1.00  0.00    -0.079 N 
ATOM     26  H23 UNL     1      22.796  19.049 -38.531  1.00  0.00     0.274 HD
ATOM     27  H22 UNL     1      23.465  20.358 -39.031  1.00  0.00     0.274 HD
ATOM     28  H21 UNL     1      21.811  20.402 -38.717  1.00  0.00     0.274 HD
ENDBRANCH  24  25
ENDBRANCH  23  24
ENDBRANCH  22  23
ENDBRANCH  20  22
ENDBRANCH   4  20
TORSDOF 9
ENDMDL
MODEL 2
REMARK VINA RESULT: -6.583259475      1.560      3.626
REMARK  9 active torsions:
REMARK  status: ('A' for Active; 'I' for Inactive)
REMARK    1  A    between atoms: C4_4  and  N1_5 
REMARK    2  A    between atoms: N1_5  and  C5_7 
REMARK    3  A    between atoms: C5_7  and  C6_8 
REMARK    4  A    between atoms: C6_8  and  C7_9 
REMARK    5  A    between atoms: C7_9  and  N2_10 
REMARK    6  A    between atoms: C8_16  and  N4_17 
REMARK    7  A    between atoms: N4_17  and  C9_19 
REMARK    8  A    between atoms: C9_19  and  C10_20 
REMARK    9  A    between atoms: C10_20  and  C11_21 
ROOT
HETATM    1  C1  UNL     1      26.999  18.627 -42.111  1.00  0.00     0.069 C 
HETATM    2  C2  UNL     1      25.944  19.564 -41.596  1.00  0.00     0.026 A 
HETATM    3  C3  UNL     1      25.910  20.883 -42.000  1.00  0.00     0.073 A 
HETATM    4  C4  UNL     1      24.936  21.740 -41.522  1.00  0.00     0.118 A 
HETATM    5  N3  UNL     1      24.041  21.235 -40.660  1.00  0.00    -0.177 N 
ATOM      6  H3  UNL     1      23.318  21.858 -40.301  1.00  0.00     0.185 HD
HETATM    7  C8  UNL     1      24.041  19.956 -40.242  1.00  0.00     0.679 A 
HETATM    8  N5  UNL     1      25.000  19.151 -40.725  1.00  0.00    -0.196 N 
ATOM      9  H5  UNL     1      25.015  18.178 -40.418  1.00  0.00     0.184 HD
ENDROOT
BRANCH   7  10
HETATM   10  N4  UNL     1      23.135  19.531 -39.396  1.00  0.00    -0.226 N 
ATOM     11  H4  UNL     1      23.441  19.149 -38.500  1.00  0.00     0.177 HD
BRANCH  10  12
HETATM   12  C9  UNL     1      21.735  19.581 -39.680  1.00  0.00     0.142 C 
BRANCH  12  13
HETATM   13  C10 UNL     1      21.360  18.874 -40.969  1.00  0.00     0.058 C 
BRANCH  13  14
HETATM   14  C11 UNL     1      20.694  19.882 -41.835  1.00  0.00    -0.057 A 
HETATM   15  C12 UNL     1      19.382  20.247 -41.669  1.00  0.00     0.007 A 
HETATM   16  C13 UNL     1      18.776  21.198 -42.495  1.00  0.00     0.001 A 
HETATM   17  C14 UNL     1      19.537  21.763 -43.490  1.00  0.00     0.000 A 
HETATM   18  C15 UNL     1      20.857  21.416 -43.680  1.00  0.00     0.001 A 
HETATM   19  C16 UNL     1      21.435  20.474 -42.851  1.00  0.00     0.007 A 
ENDBRANCH  13  14
ENDBRANCH  12  13
ENDBRANCH  10  12
ENDBRANCH   7  10
BRANCH   4  20
HETATM   20  N1  UNL     1      24.959  22.945 -41.934  1.00  0.00    -0.376 N 
ATOM     21  H1  UNL     1      25.552  23.155 -42.737  1.00  0.00     0.161 HD
BRANCH  20  22
HETATM   22  C5  UNL     1      24.212  24.038 -41.356  1.00  0.00     0.123 C 
BRANCH  22  23
HETATM   23  C6  UNL     1      22.845  24.179 -41.971  1.00  0.00     0.047 C 
BRANCH  23  24
HETATM   24  C7  UNL     1      21.782  24.436 -40.922  1.00  0.00     0.231 C 
BRANCH  24  25
HETATM   25  N2  UNL     1      21.131  23.225 -40.504  1.00  0.00    -0.079 N 
ATOM     26  H23 UNL     1      20.130  23.258 -40.699  1.00  0.00     0.274 HD
ATOM     27  H22 UNL     1      21.387  22.442 -41.106  1.00  0.00     0.274 HD
ATOM     28  H21 UNL     1      21.310  23.012 -39.523  1.00  0.00     0.274 HD
ENDBRANCH  24  25
ENDBRANCH  23  24
ENDBRANCH  22  23
ENDBRANCH  20  22
ENDBRANCH   4  20
TORSDOF 9
ENDMDL
MODEL 3
REMARK VINA RESULT: -6.550123449      1.553      2.839
REMARK  9 active torsions:
REMARK  status: ('A' for Active; 'I' for Inactive)
REMARK    1  A    between atoms: C4_4  and  N1_5 
REMARK    2  A    between atoms: N1_5  and  C5_7 
REMARK    3  A    between atoms: C5_7  and  C6_8 
REMARK    4  A    between atoms: C6_8  and  C7_9 
REMARK    5  A    between atoms: C7_9  and  N2_10 
REMARK    6  A    between atoms: C8_16  and  N4_17 
REMARK    7  A    between atoms: N4_17  and  C9_19 
REMARK    8  A    between atoms: C9_19  and  C10_20 
REMARK    9  A    between atoms: C10_20  and  C11_21 
ROOT
HETATM    1  C1  UNL     1      27.273  18.803 -42.029  1.00  0.00     0.069 C 
HETATM    2  C2  UNL     1      26.140  19.664 -41.550  1.00  0.00     0.026 A 
HETATM    3  C3  UNL     1      25.110  19.127 -40.804  1.00  0.00     0.073 A 
HETATM    4  C4  UNL     1      24.069  19.925 -40.366  1.00  0.00     0.118 A 
HETATM    5  N3  UNL     1      24.109  21.224 -40.697  1.00  0.00    -0.177 N 
ATOM      6  H3  UNL     1      23.346  21.823 -40.379  1.00  0.00     0.185 HD
HETATM    7  C8  UNL     1      25.094  21.784 -41.422  1.00  0.00     0.679 A 
HETATM    8  N5  UNL     1      26.089  20.982 -41.831  1.00  0.00    -0.196 N 
ATOM      9  H5  UNL     1      26.844  21.390 -42.382  1.00  0.00     0.184 HD
ENDROOT
BRANCH   7  10
HETATM   10  N4  UNL     1      25.067  23.063 -41.708  1.00  0.00    -0.226 N 
ATOM     11  H4  UNL     1      25.867  23.475 -42.190  1.00  0.00     0.177 HD
BRANCH  10  12
HETATM   12  C9  UNL     1      23.961  23.903 -41.372  1.00  0.00     0.142 C 
BRANCH  12  13
HETATM   13  C10 UNL     1      23.015  24.142 -42.533  1.00  0.00     0.058 C 
BRANCH  13  14
HETATM   14  C11 UNL     1      21.807  23.312 -42.283  1.00  0.00    -0.057 A 
HETATM   15  C12 UNL     1      21.159  23.296 -41.073  1.00  0.00     0.007 A 
HETATM   16  C13 UNL     1      20.025  22.509 -40.860  1.00  0.00     0.001 A 
HETATM   17  C14 UNL     1      19.568  21.742 -41.905  1.00  0.00     0.000 A 
HETATM   18  C15 UNL     1      20.198  21.739 -43.131  1.00  0.00     0.001 A 
HETATM   19  C16 UNL     1      21.318  22.525 -43.319  1.00  0.00     0.007 A 
ENDBRANCH  13  14
ENDBRANCH  12  13
ENDBRANCH  10  12
ENDBRANCH   7  10
BRANCH   4  20
HETATM   20  N1  UNL     1      23.149  19.370 -39.682  1.00  0.00    -0.376 N 
ATOM     21  H1  UNL     1      23.376  18.491 -39.217  1.00  0.00     0.161 HD
BRANCH  20  22
HETATM   22  C5  UNL     1      21.810  19.885 -39.512  1.00  0.00     0.123 C 
BRANCH  22  23
HETATM   23  C6  UNL     1      20.763  18.910 -39.982  1.00  0.00     0.047 C 
BRANCH  23  24
HETATM   24  C7  UNL     1      21.040  18.427 -41.391  1.00  0.00     0.231 C 
BRANCH  24  25
HETATM   25  N2  UNL     1      20.275  17.257 -41.720  1.00  0.00    -0.079 N 
ATOM     26  H23 UNL     1      19.542  17.087 -41.031  1.00  0.00     0.274 HD
ATOM     27  H22 UNL     1      19.691  17.416 -42.541  1.00  0.00     0.274 HD
ATOM     28  H21 UNL     1      20.865  16.434 -41.842  1.00  0.00     0.274 HD
ENDBRANCH  24  25
ENDBRANCH  23  24
ENDBRANCH  22  23
ENDBRANCH  20  22
ENDBRANCH   4  20
TORSDOF 9
ENDMDL
MODEL 4
REMARK VINA RESULT: -6.441445794      1.283      1.708
REMARK  9 active torsions:
REMARK  status: ('A' for Active; 'I' for Inactive)
REMARK    1  A    between atoms: C4_4  and  N1_5 
REMARK    2  A    between atoms: N1_5  and  C5_7 
REMARK    3  A    between atoms: C5_7  and  C6_8 
REMARK    4  A    between atoms: C6_8  and  C7_9 
REMARK    5  A    between atoms: C7_9  and  N2_10 
REMARK    6  A    between atoms: C8_16  and  N4_17 
REMARK    7  A    between atoms: N4_17  and  C9_19 
REMARK    8  A    between atoms: C9_19  and  C10_20 
REMARK    9  A    between atoms: C10_20  and  C11_21 
ROOT
HETATM    1  C1  UNL     1      27.253  22.554 -43.669  1.00  0.00     0.069 C 
HETATM    2  C2  UNL     1      26.120  22.301 -42.716  1.00  0.00     0.026 A 
HETATM    3  C3  UNL     1      25.786  21.017 -42.338  1.00  0.00     0.073 A 
HETATM    4  C4  UNL     1      24.741  20.791 -41.460  1.00  0.00     0.118 A 
HETATM    5  N3  UNL     1      24.080  21.864 -41.003  1.00  0.00    -0.177 N 
ATOM      6  H3  UNL     1      23.308  21.711 -40.354  1.00  0.00     0.185 HD
HETATM    7  C8  UNL     1      24.374  23.131 -41.348  1.00  0.00     0.679 A 
HETATM    8  N5  UNL     1      25.393  23.315 -42.201  1.00  0.00    -0.196 N 
ATOM      9  H5  UNL     1      25.631  24.269 -42.474  1.00  0.00     0.184 HD
ENDROOT
BRANCH   7  10
HETATM   10  N4  UNL     1      23.684  24.133 -40.861  1.00  0.00    -0.226 N 
ATOM     11  H4  UNL     1      24.070  24.660 -40.078  1.00  0.00     0.177 HD
BRANCH  10  12
HETATM   12  C9  UNL     1      22.410  24.515 -41.386  1.00  0.00     0.142 C 
BRANCH  12  13
HETATM   13  C10 UNL     1      21.245  23.875 -40.655  1.00  0.00     0.058 C 
BRANCH  13  14
HETATM   14  C11 UNL     1      20.669  22.856 -41.571  1.00  0.00    -0.057 A 
HETATM   15  C12 UNL     1      21.148  22.647 -42.840  1.00  0.00     0.007 A 
HETATM   16  C13 UNL     1      20.591  21.682 -43.684  1.00  0.00     0.001 A 
HETATM   17  C14 UNL     1      19.540  20.939 -43.204  1.00  0.00     0.000 A 
HETATM   18  C15 UNL     1      19.039  21.126 -41.935  1.00  0.00     0.001 A 
HETATM   19  C16 UNL     1      19.604  22.086 -41.118  1.00  0.00     0.007 A 
ENDBRANCH  13  14
ENDBRANCH  12  13
ENDBRANCH  10  12
ENDBRANCH   7  10
BRANCH   4  20
HETATM   20  N1  UNL     1      24.484  19.583 -41.150  1.00  0.00    -0.376 N 
ATOM     21  H1  UNL     1      25.164  18.873 -41.423  1.00  0.00     0.161 HD
BRANCH  20  22
HETATM   22  C5  UNL     1      23.305  19.138 -40.443  1.00  0.00     0.123 C 
BRANCH  22  23
HETATM   23  C6  UNL     1      22.086  19.121 -41.326  1.00  0.00     0.047 C 
BRANCH  23  24
HETATM   24  C7  UNL     1      21.098  18.056 -40.896  1.00  0.00     0.231 C 
BRANCH  24  25
HETATM   25  N2  UNL     1      20.218  17.673 -41.965  1.00  0.00    -0.079 N 
ATOM     26  H23 UNL     1      20.713  17.139 -42.680  1.00  0.00     0.274 HD
ATOM     27  H22 UNL     1      19.556  16.960 -41.661  1.00  0.00     0.274 HD
ATOM     28  H21 UNL     1      19.736  18.475 -42.371  1.00  0.00     0.274 HD
ENDBRANCH  24  25
ENDBRANCH  23  24
ENDBRANCH  22  23
ENDBRANCH  20  22
ENDBRANCH   4  20
TORSDOF 9
ENDMDL
MODEL 5
REMARK VINA RESULT: -6.363755436      1.753      5.548
REMARK  9 active torsions:
REMARK  status: ('A' for Active; 'I' for Inactive)
REMARK    1  A    between atoms: C4_4  and  N1_5 
REMARK    2  A    between atoms: N1_5  and  C5_7 
REMARK    3  A    between atoms: C5_7  and  C6_8 
REMARK    4  A    between atoms: C6_8  and  C7_9 
REMARK    5  A    between atoms: C7_9  and  N2_10 
REMARK    6  A    between atoms: C8_16  and  N4_17 
REMARK    7  A    between atoms: N4_17  and  C9_19 
REMARK    8  A    between atoms: C9_19  and  C10_20 
REMARK    9  A    between atoms: C10_20  and  C11_21 
ROOT
HETATM    1  C1  UNL     1      20.674  17.278 -41.321  1.00  0.00     0.069 C 
HETATM    2  C2  UNL     1      21.436  18.498 -40.890  1.00  0.00     0.026 A 
HETATM    3  C3  UNL     1      20.776  19.660 -40.545  1.00  0.00     0.073 A 
HETATM    4  C4  UNL     1      21.483  20.780 -40.149  1.00  0.00     0.118 A 
HETATM    5  N3  UNL     1      22.820  20.683 -40.118  1.00  0.00    -0.177 N 
ATOM      6  H3  UNL     1      23.354  21.502 -39.827  1.00  0.00     0.185 HD
HETATM    7  C8  UNL     1      23.500  19.570 -40.447  1.00  0.00     0.679 A 
HETATM    8  N5  UNL     1      22.783  18.501 -40.827  1.00  0.00    -0.196 N 
ATOM      9  H5  UNL     1      23.282  17.648 -41.080  1.00  0.00     0.184 HD
ENDROOT
BRANCH   7  10
HETATM   10  N4  UNL     1      24.810  19.547 -40.393  1.00  0.00    -0.226 N 
ATOM     11  H4  UNL     1      25.260  19.236 -39.532  1.00  0.00     0.177 HD
BRANCH  10  12
HETATM   12  C9  UNL     1      25.631  19.940 -41.496  1.00  0.00     0.142 C 
BRANCH  12  13
HETATM   13  C10 UNL     1      26.024  21.405 -41.457  1.00  0.00     0.058 C 
BRANCH  13  14
HETATM   14  C11 UNL     1      25.445  22.039 -42.670  1.00  0.00    -0.057 A 
HETATM   15  C12 UNL     1      24.538  21.399 -43.477  1.00  0.00     0.007 A 
HETATM   16  C13 UNL     1      24.006  22.014 -44.613  1.00  0.00     0.001 A 
HETATM   17  C14 UNL     1      24.419  23.292 -44.905  1.00  0.00     0.000 A 
HETATM   18  C15 UNL     1      25.327  23.959 -44.112  1.00  0.00     0.001 A 
HETATM   19  C16 UNL     1      25.840  23.331 -42.994  1.00  0.00     0.007 A 
ENDBRANCH  13  14
ENDBRANCH  12  13
ENDBRANCH  10  12
ENDBRANCH   7  10
BRANCH   4  20
HETATM   20  N1  UNL     1      20.816  21.820 -39.843  1.00  0.00    -0.376 N 
ATOM     21  H1  UNL     1      20.480  21.897 -38.883  1.00  0.00     0.161 HD
BRANCH  20  22
HETATM   22  C5  UNL     1      20.496  22.901 -40.747  1.00  0.00     0.123 C 
BRANCH  22  23
HETATM   23  C6  UNL     1      21.447  22.966 -41.913  1.00  0.00     0.047 C 
BRANCH  23  24
HETATM   24  C7  UNL     1      22.374  24.160 -41.814  1.00  0.00     0.231 C 
BRANCH  24  25
HETATM   25  N2  UNL     1      22.177  24.897 -40.597  1.00  0.00    -0.079 N 
ATOM     26  H23 UNL     1      22.253  24.290 -39.780  1.00  0.00     0.274 HD
ATOM     27  H22 UNL     1      22.964  25.518 -40.410  1.00  0.00     0.274 HD
ATOM     28  H21 UNL     1      21.294  25.408 -40.597  1.00  0.00     0.274 HD
ENDBRANCH  24  25
ENDBRANCH  23  24
ENDBRANCH  22  23
ENDBRANCH  20  22
ENDBRANCH   4  20
TORSDOF 9
ENDMDL
