MODEL 1
REMARK VINA RESULT: -8.630103061      0.000      0.000
REMARK  13 active torsions:
REMARK  status: ('A' for Active; 'I' for Inactive)
REMARK    1  A    between atoms: C7_8  and  C8_9 
REMARK    2  A    between atoms: C8_9  and  C9_10 
REMARK    3  A    between atoms: C9_10  and  N2_11 
REMARK    4  A    between atoms: N2_11  and  C10_12 
REMARK    5  A    between atoms: C10_12  and  C11_13 
REMARK    6  A    between atoms: C11_13  and  C12_14 
REMARK    7  A    between atoms: C12_14  and  N3_15 
REMARK    8  A    between atoms: N3_15  and  C13_16 
REMARK    9  A    between atoms: C13_16  and  C14_17 
REMARK   10  A    between atoms: C14_17  and  O1_18 
REMARK   11  A    between atoms: N4_24  and  N5_26 
REMARK   12  A    between atoms: C21_38  and  C22_39 
REMARK   13  A    between atoms: C22_39  and  O3_40 
ROOT
HETATM    1  N2  UNL     1      15.279 -16.032  20.991  1.00  0.00     0.032 N 
HETATM    2  C19 UNL     1      14.806 -17.228  20.370  1.00  0.00     0.391 C 
HETATM    3  N7  UNL     1      14.547 -18.196  21.459  1.00  0.00    -0.316 N 
ATOM      4  H7  UNL     1      14.193 -19.147  21.367  1.00  0.00     0.166 HD
HETATM    5  C20 UNL     1      14.893 -17.527  22.650  1.00  0.00     0.341 C 
HETATM    6  O2  UNL     1      15.116 -18.084  23.739  1.00  0.00    -0.246 OA
HETATM    7  N8  UNL     1      14.926 -16.148  22.345  1.00  0.00    -0.165 N 
ATOM      8  H8  UNL     1      14.731 -15.381  22.988  1.00  0.00     0.199 HD
ENDROOT
BRANCH   1   9
HETATM    9  C9  UNL     1      16.758 -16.053  21.023  1.00  0.00     0.272 C 
BRANCH   9  10
HETATM   10  C8  UNL     1      17.296 -14.678  21.038  1.00  0.00     0.069 C 
BRANCH  10  11
HETATM   11  C7  UNL     1      18.296 -14.447  22.118  1.00  0.00    -0.047 A 
HETATM   12  C6  UNL     1      18.033 -14.972  23.391  1.00  0.00     0.021 A 
HETATM   13  C5  UNL     1      18.935 -14.723  24.401  1.00  0.00    -0.009 A 
HETATM   14  C4  UNL     1      18.684 -15.239  25.672  1.00  0.00     0.015 A 
HETATM   15  C24 UNL     1      20.059 -13.989  24.187  1.00  0.00     0.044 A 
HETATM   16  C3  UNL     1      19.596 -14.973  26.655  1.00  0.00     0.018 A 
HETATM   17  C2  UNL     1      20.719 -14.221  26.378  1.00  0.00     0.090 A 
HETATM   18  N1  UNL     1      20.954 -13.732  25.162  1.00  0.00    -0.360 N 
HETATM   19  C1  UNL     1      22.125 -12.944  24.852  1.00  0.00     0.155 C 
HETATM   20  C23 UNL     1      20.293 -13.489  22.933  1.00  0.00     0.040 A 
HETATM   21  C21 UNL     1      19.413 -13.705  21.860  1.00  0.00    -0.026 A 
BRANCH  21  22
HETATM   22  C22 UNL     1      19.789 -13.139  20.541  1.00  0.00     0.203 C 
BRANCH  22  23
HETATM   23  O3  UNL     1      19.328 -11.827  20.407  1.00  0.00    -0.396 OA
ATOM     24  H3  UNL     1      19.421 -11.521  19.512  1.00  0.00     0.209 HD
ENDBRANCH  22  23
ENDBRANCH  21  22
ENDBRANCH  10  11
ENDBRANCH   9  10
ENDBRANCH   1   9
BRANCH   1  25
HETATM   25  C10 UNL     1      14.857 -14.852  20.371  1.00  0.00     0.269 C 
BRANCH  25  26
HETATM   26  C11 UNL     1      13.590 -14.179  20.852  1.00  0.00     0.059 C 
BRANCH  26  27
HETATM   27  C12 UNL     1      13.383 -12.855  20.304  1.00  0.00     0.247 C 
BRANCH  27  28
HETATM   28  N3  UNL     1      13.579 -11.670  21.060  1.00  0.00    -0.023 N 
HETATM   29  C15 UNL     1      13.310 -10.562  20.071  1.00  0.00     0.246 C 
HETATM   30  C16 UNL     1      13.234  -9.327  20.936  1.00  0.00     0.036 C 
HETATM   31  C17 UNL     1      12.969  -9.863  22.341  1.00  0.00     0.088 C 
HETATM   32  C18 UNL     1      12.667 -11.277  22.014  1.00  0.00     0.200 C 
HETATM   33  N4  UNL     1      11.731 -11.930  22.547  1.00  0.00    -0.269 N 
ATOM     34  H4  UNL     1      11.638 -12.892  22.222  1.00  0.00     0.189 HD
BRANCH  28  35
HETATM   35  C13 UNL     1      14.956 -11.428  21.376  1.00  0.00     0.271 C 
BRANCH  35  36
HETATM   36  C14 UNL     1      15.953 -11.417  20.306  1.00  0.00     0.192 C 
BRANCH  36  37
HETATM   37  O1  UNL     1      16.869 -10.391  20.312  1.00  0.00    -0.399 OA
ATOM     38  H1  UNL     1      16.597  -9.563  19.936  1.00  0.00     0.209 HD
ENDBRANCH  36  37
ENDBRANCH  35  36
ENDBRANCH  28  35
BRANCH  33  39
HETATM   39  N5  UNL     1      10.817 -11.554  23.496  1.00  0.00    -0.248 N 
HETATM   40  N6  UNL     1      10.879 -11.934  24.697  1.00  0.00    -0.331 N 
ATOM     41  H62 UNL     1      11.651 -12.550  24.957  1.00  0.00     0.178 HD
ATOM     42  H61 UNL     1      10.199 -11.654  25.403  1.00  0.00     0.178 HD
ATOM     43  H5  UNL     1      10.052 -10.938  23.219  1.00  0.00     0.207 HD
ENDBRANCH  33  39
ENDBRANCH  27  28
ENDBRANCH  26  27
ENDBRANCH  25  26
ENDBRANCH   1  25
TORSDOF 13
ENDMDL
MODEL 2
REMARK VINA RESULT: -8.130644820      1.313      1.891
REMARK  13 active torsions:
REMARK  status: ('A' for Active; 'I' for Inactive)
REMARK    1  A    between atoms: C7_8  and  C8_9 
REMARK    2  A    between atoms: C8_9  and  C9_10 
REMARK    3  A    between atoms: C9_10  and  N2_11 
REMARK    4  A    between atoms: N2_11  and  C10_12 
REMARK    5  A    between atoms: C10_12  and  C11_13 
REMARK    6  A    between atoms: C11_13  and  C12_14 
REMARK    7  A    between atoms: C12_14  and  N3_15 
REMARK    8  A    between atoms: N3_15  and  C13_16 
REMARK    9  A    between atoms: C13_16  and  C14_17 
REMARK   10  A    between atoms: C14_17  and  O1_18 
REMARK   11  A    between atoms: N4_24  and  N5_26 
REMARK   12  A    between atoms: C21_38  and  C22_39 
REMARK   13  A    between atoms: C22_39  and  O3_40 
ROOT
HETATM    1  N2  UNL     1      15.227 -15.745  21.108  1.00  0.00     0.032 N 
HETATM    2  C19 UNL     1      15.844 -16.880  20.497  1.00  0.00     0.391 C 
HETATM    3  N7  UNL     1      15.757 -17.985  21.476  1.00  0.00    -0.316 N 
ATOM      4  H7  UNL     1      16.093 -18.941  21.359  1.00  0.00     0.166 HD
HETATM    5  C20 UNL     1      15.111 -17.443  22.605  1.00  0.00     0.341 C 
HETATM    6  O2  UNL     1      15.126 -17.945  23.742  1.00  0.00    -0.246 OA
HETATM    7  N8  UNL     1      14.473 -16.258  22.176  1.00  0.00    -0.165 N 
ATOM      8  H8  UNL     1      13.624 -15.852  22.568  1.00  0.00     0.199 HD
ENDROOT
BRANCH   1   9
HETATM    9  C9  UNL     1      16.263 -14.933  21.784  1.00  0.00     0.272 C 
BRANCH   9  10
HETATM   10  C8  UNL     1      17.558 -15.058  21.086  1.00  0.00     0.069 C 
BRANCH  10  11
HETATM   11  C7  UNL     1      18.730 -15.010  22.004  1.00  0.00    -0.047 A 
HETATM   12  C6  UNL     1      18.920 -13.859  22.782  1.00  0.00     0.021 A 
HETATM   13  C5  UNL     1      20.026 -13.797  23.599  1.00  0.00    -0.009 A 
HETATM   14  C4  UNL     1      20.226 -12.656  24.376  1.00  0.00     0.015 A 
HETATM   15  C24 UNL     1      20.923 -14.816  23.663  1.00  0.00     0.044 A 
HETATM   16  C3  UNL     1      21.335 -12.621  25.176  1.00  0.00     0.018 A 
HETATM   17  C2  UNL     1      22.211 -13.687  25.199  1.00  0.00     0.090 A 
HETATM   18  N1  UNL     1      22.014 -14.773  24.455  1.00  0.00    -0.360 N 
HETATM   19  C1  UNL     1      22.918 -15.899  24.466  1.00  0.00     0.155 C 
HETATM   20  C23 UNL     1      20.714 -15.929  22.894  1.00  0.00     0.040 A 
HETATM   21  C21 UNL     1      19.607 -16.057  22.039  1.00  0.00    -0.026 A 
BRANCH  21  22
HETATM   22  C22 UNL     1      19.471 -17.324  21.278  1.00  0.00     0.203 C 
BRANCH  22  23
HETATM   23  O3  UNL     1      18.771 -18.282  22.017  1.00  0.00    -0.396 OA
ATOM     24  H3  UNL     1      19.350 -18.744  22.613  1.00  0.00     0.209 HD
ENDBRANCH  22  23
ENDBRANCH  21  22
ENDBRANCH  10  11
ENDBRANCH   9  10
ENDBRANCH   1   9
BRANCH   1  25
HETATM   25  C10 UNL     1      14.517 -14.927  20.224  1.00  0.00     0.269 C 
BRANCH  25  26
HETATM   26  C11 UNL     1      13.335 -14.135  20.741  1.00  0.00     0.059 C 
BRANCH  26  27
HETATM   27  C12 UNL     1      13.279 -12.774  20.251  1.00  0.00     0.247 C 
BRANCH  27  28
HETATM   28  N3  UNL     1      13.517 -11.647  21.081  1.00  0.00    -0.023 N 
HETATM   29  C15 UNL     1      13.306 -10.470  20.159  1.00  0.00     0.246 C 
HETATM   30  C16 UNL     1      13.272  -9.288  21.098  1.00  0.00     0.036 C 
HETATM   31  C17 UNL     1      12.969  -9.898  22.465  1.00  0.00     0.088 C 
HETATM   32  C18 UNL     1      12.611 -11.275  22.049  1.00  0.00     0.200 C 
HETATM   33  N4  UNL     1      11.642 -11.918  22.532  1.00  0.00    -0.269 N 
ATOM     34  H4  UNL     1      11.512 -12.854  22.147  1.00  0.00     0.189 HD
BRANCH  28  35
HETATM   35  C13 UNL     1      14.899 -11.484  21.424  1.00  0.00     0.271 C 
BRANCH  35  36
HETATM   36  C14 UNL     1      15.913 -11.511  20.371  1.00  0.00     0.192 C 
BRANCH  36  37
HETATM   37  O1  UNL     1      16.692 -10.387  20.220  1.00  0.00    -0.399 OA
ATOM     38  H1  UNL     1      17.073 -10.235  19.364  1.00  0.00     0.209 HD
ENDBRANCH  36  37
ENDBRANCH  35  36
ENDBRANCH  28  35
BRANCH  33  39
HETATM   39  N5  UNL     1      10.733 -11.562  23.494  1.00  0.00    -0.248 N 
HETATM   40  N6  UNL     1      10.841 -11.911  24.702  1.00  0.00    -0.331 N 
ATOM     41  H62 UNL     1      11.646 -12.485  24.956  1.00  0.00     0.178 HD
ATOM     42  H61 UNL     1      10.165 -11.646  25.417  1.00  0.00     0.178 HD
ATOM     43  H5  UNL     1       9.935 -10.989  23.221  1.00  0.00     0.207 HD
ENDBRANCH  33  39
ENDBRANCH  27  28
ENDBRANCH  26  27
ENDBRANCH  25  26
ENDBRANCH   1  25
TORSDOF 13
ENDMDL
MODEL 3
REMARK VINA RESULT: -7.774739762      2.952      8.431
REMARK  13 active torsions:
REMARK  status: ('A' for Active; 'I' for Inactive)
REMARK    1  A    between atoms: C7_8  and  C8_9 
REMARK    2  A    between atoms: C8_9  and  C9_10 
REMARK    3  A    between atoms: C9_10  and  N2_11 
REMARK    4  A    between atoms: N2_11  and  C10_12 
REMARK    5  A    between atoms: C10_12  and  C11_13 
REMARK    6  A    between atoms: C11_13  and  C12_14 
REMARK    7  A    between atoms: C12_14  and  N3_15 
REMARK    8  A    between atoms: N3_15  and  C13_16 
REMARK    9  A    between atoms: C13_16  and  C14_17 
REMARK   10  A    between atoms: C14_17  and  O1_18 
REMARK   11  A    between atoms: N4_24  and  N5_26 
REMARK   12  A    between atoms: C21_38  and  C22_39 
REMARK   13  A    between atoms: C22_39  and  O3_40 
ROOT
HETATM    1  N2  UNL     1      17.287 -13.066  21.472  1.00  0.00     0.032 N 
HETATM    2  C19 UNL     1      17.848 -11.870  20.929  1.00  0.00     0.391 C 
HETATM    3  N7  UNL     1      16.727 -10.921  20.751  1.00  0.00    -0.316 N 
ATOM      4  H7  UNL     1      16.778  -9.968  20.391  1.00  0.00     0.166 HD
HETATM    5  C20 UNL     1      15.576 -11.608  21.181  1.00  0.00     0.341 C 
HETATM    6  O2  UNL     1      14.408 -11.282  20.904  1.00  0.00    -0.246 OA
HETATM    7  N8  UNL     1      16.022 -12.698  21.961  1.00  0.00    -0.165 N 
ATOM      8  H8  UNL     1      15.521 -13.136  22.733  1.00  0.00     0.199 HD
ENDROOT
BRANCH   1   9
HETATM    9  C9  UNL     1      16.965 -13.997  20.368  1.00  0.00     0.272 C 
BRANCH   9  10
HETATM   10  C8  UNL     1      16.338 -15.227  20.893  1.00  0.00     0.069 C 
BRANCH  10  11
HETATM   11  C7  UNL     1      15.150 -15.665  20.108  1.00  0.00    -0.047 A 
HETATM   12  C6  UNL     1      15.359 -16.215  18.835  1.00  0.00     0.021 A 
HETATM   13  C5  UNL     1      14.260 -16.580  18.092  1.00  0.00    -0.009 A 
HETATM   14  C4  UNL     1      14.456 -17.127  16.823  1.00  0.00     0.015 A 
HETATM   15  C24 UNL     1      12.996 -16.419  18.563  1.00  0.00     0.044 A 
HETATM   16  C3  UNL     1      13.346 -17.478  16.107  1.00  0.00     0.018 A 
HETATM   17  C2  UNL     1      12.086 -17.290  16.638  1.00  0.00     0.090 A 
HETATM   18  N1  UNL     1      11.906 -16.769  17.849  1.00  0.00    -0.360 N 
HETATM   19  C1  UNL     1      10.595 -16.567  18.423  1.00  0.00     0.155 C 
HETATM   20  C23 UNL     1      12.819 -15.881  19.810  1.00  0.00     0.040 A 
HETATM   21  C21 UNL     1      13.896 -15.487  20.619  1.00  0.00    -0.026 A 
BRANCH  21  22
HETATM   22  C22 UNL     1      13.581 -14.945  21.964  1.00  0.00     0.203 C 
BRANCH  22  23
HETATM   23  O3  UNL     1      12.905 -13.725  21.869  1.00  0.00    -0.396 OA
ATOM     24  H3  UNL     1      12.940 -13.250  22.692  1.00  0.00     0.209 HD
ENDBRANCH  22  23
ENDBRANCH  21  22
ENDBRANCH  10  11
ENDBRANCH   9  10
ENDBRANCH   1   9
BRANCH   1  25
HETATM   25  C10 UNL     1      18.106 -13.724  22.394  1.00  0.00     0.269 C 
BRANCH  25  26
HETATM   26  C11 UNL     1      19.501 -13.195  22.650  1.00  0.00     0.059 C 
BRANCH  26  27
HETATM   27  C12 UNL     1      20.412 -14.178  23.196  1.00  0.00     0.247 C 
BRANCH  27  28
HETATM   28  N3  UNL     1      21.008 -14.046  24.478  1.00  0.00    -0.023 N 
HETATM   29  C15 UNL     1      20.631 -12.650  24.910  1.00  0.00     0.246 C 
HETATM   30  C16 UNL     1      21.011 -12.617  26.371  1.00  0.00     0.036 C 
HETATM   31  C17 UNL     1      21.098 -14.088  26.773  1.00  0.00     0.088 C 
HETATM   32  C18 UNL     1      20.496 -14.711  25.570  1.00  0.00     0.200 C 
HETATM   33  N4  UNL     1      19.672 -15.663  25.618  1.00  0.00    -0.269 N 
ATOM     34  H4  UNL     1      19.338 -15.987  24.711  1.00  0.00     0.189 HD
BRANCH  28  35
HETATM   35  C13 UNL     1      22.437 -13.942  24.425  1.00  0.00     0.271 C 
BRANCH  35  36
HETATM   36  C14 UNL     1      23.239 -15.131  24.141  1.00  0.00     0.192 C 
BRANCH  36  37
HETATM   37  O1  UNL     1      24.564 -15.097  24.507  1.00  0.00    -0.399 OA
ATOM     38  H1  UNL     1      25.208 -15.209  23.818  1.00  0.00     0.209 HD
ENDBRANCH  36  37
ENDBRANCH  35  36
ENDBRANCH  28  35
BRANCH  33  39
HETATM   39  N5  UNL     1      19.154 -16.333  26.695  1.00  0.00    -0.248 N 
HETATM   40  N6  UNL     1      19.166 -17.591  26.790  1.00  0.00    -0.331 N 
ATOM     41  H62 UNL     1      19.583 -18.118  26.021  1.00  0.00     0.178 HD
ATOM     42  H61 UNL     1      18.780 -18.090  27.591  1.00  0.00     0.178 HD
ATOM     43  H5  UNL     1      18.741 -15.791  27.453  1.00  0.00     0.207 HD
ENDBRANCH  33  39
ENDBRANCH  27  28
ENDBRANCH  26  27
ENDBRANCH  25  26
ENDBRANCH   1  25
TORSDOF 13
ENDMDL
MODEL 4
REMARK VINA RESULT: -7.682031524      2.446      5.604
REMARK  13 active torsions:
REMARK  status: ('A' for Active; 'I' for Inactive)
REMARK    1  A    between atoms: C7_8  and  C8_9 
REMARK    2  A    between atoms: C8_9  and  C9_10 
REMARK    3  A    between atoms: C9_10  and  N2_11 
REMARK    4  A    between atoms: N2_11  and  C10_12 
REMARK    5  A    between atoms: C10_12  and  C11_13 
REMARK    6  A    between atoms: C11_13  and  C12_14 
REMARK    7  A    between atoms: C12_14  and  N3_15 
REMARK    8  A    between atoms: N3_15  and  C13_16 
REMARK    9  A    between atoms: C13_16  and  C14_17 
REMARK   10  A    between atoms: C14_17  and  O1_18 
REMARK   11  A    between atoms: N4_24  and  N5_26 
REMARK   12  A    between atoms: C21_38  and  C22_39 
REMARK   13  A    between atoms: C22_39  and  O3_40 
ROOT
HETATM    1  N2  UNL     1      15.636 -12.728  20.532  1.00  0.00     0.032 N 
HETATM    2  C19 UNL     1      14.724 -12.848  21.625  1.00  0.00     0.391 C 
HETATM    3  N7  UNL     1      14.041 -11.542  21.750  1.00  0.00    -0.316 N 
ATOM      4  H7  UNL     1      13.321 -11.285  22.425  1.00  0.00     0.166 HD
HETATM    5  C20 UNL     1      14.592 -10.727  20.742  1.00  0.00     0.341 C 
HETATM    6  O2  UNL     1      14.519  -9.486  20.712  1.00  0.00    -0.246 OA
HETATM    7  N8  UNL     1      15.218 -11.593  19.818  1.00  0.00    -0.165 N 
ATOM      8  H8  UNL     1      15.342 -11.426  18.820  1.00  0.00     0.199 HD
ENDROOT
BRANCH   1   9
HETATM    9  C9  UNL     1      16.965 -12.332  21.048  1.00  0.00     0.272 C 
BRANCH   9  10
HETATM   10  C8  UNL     1      17.898 -13.477  21.012  1.00  0.00     0.069 C 
BRANCH  10  11
HETATM   11  C7  UNL     1      18.385 -13.884  22.359  1.00  0.00    -0.047 A 
HETATM   12  C6  UNL     1      19.258 -13.023  23.039  1.00  0.00     0.021 A 
HETATM   13  C5  UNL     1      19.743 -13.417  24.266  1.00  0.00    -0.009 A 
HETATM   14  C4  UNL     1      20.613 -12.570  24.951  1.00  0.00     0.015 A 
HETATM   15  C24 UNL     1      19.395 -14.609  24.819  1.00  0.00     0.044 A 
HETATM   16  C3  UNL     1      21.080 -12.989  26.165  1.00  0.00     0.018 A 
HETATM   17  C2  UNL     1      20.693 -14.211  26.677  1.00  0.00     0.090 A 
HETATM   18  N1  UNL     1      19.861 -15.015  26.018  1.00  0.00    -0.360 N 
HETATM   19  C1  UNL     1      19.442 -16.296  26.538  1.00  0.00     0.155 C 
HETATM   20  C23 UNL     1      18.540 -15.431  24.134  1.00  0.00     0.040 A 
HETATM   21  C21 UNL     1      18.010 -15.089  22.880  1.00  0.00    -0.026 A 
BRANCH  21  22
HETATM   22  C22 UNL     1      17.069 -16.048  22.249  1.00  0.00     0.203 C 
BRANCH  22  23
HETATM   23  O3  UNL     1      15.804 -15.971  22.835  1.00  0.00    -0.396 OA
ATOM     24  H3  UNL     1      15.169 -16.486  22.350  1.00  0.00     0.209 HD
ENDBRANCH  22  23
ENDBRANCH  21  22
ENDBRANCH  10  11
ENDBRANCH   9  10
ENDBRANCH   1   9
BRANCH   1  25
HETATM   25  C10 UNL     1      15.777 -13.888  19.765  1.00  0.00     0.269 C 
BRANCH  25  26
HETATM   26  C11 UNL     1      14.541 -14.546  19.189  1.00  0.00     0.059 C 
BRANCH  26  27
HETATM   27  C12 UNL     1      14.369 -15.926  19.590  1.00  0.00     0.247 C 
BRANCH  27  28
HETATM   28  N3  UNL     1      13.165 -16.647  19.374  1.00  0.00    -0.023 N 
HETATM   29  C15 UNL     1      12.108 -15.572  19.313  1.00  0.00     0.246 C 
HETATM   30  C16 UNL     1      10.890 -16.302  18.798  1.00  0.00     0.036 C 
HETATM   31  C17 UNL     1      11.452 -17.566  18.150  1.00  0.00     0.088 C 
HETATM   32  C18 UNL     1      12.896 -17.226  18.154  1.00  0.00     0.200 C 
HETATM   33  N4  UNL     1      13.666 -17.452  17.183  1.00  0.00    -0.269 N 
ATOM     34  H4  UNL     1      14.633 -17.161  17.326  1.00  0.00     0.189 HD
BRANCH  28  35
HETATM   35  C13 UNL     1      12.739 -17.387  20.525  1.00  0.00     0.271 C 
BRANCH  35  36
HETATM   36  C14 UNL     1      13.667 -18.312  21.174  1.00  0.00     0.192 C 
BRANCH  36  37
HETATM   37  O1  UNL     1      13.912 -18.119  22.513  1.00  0.00    -0.399 OA
ATOM     38  H1  UNL     1      14.806 -17.923  22.767  1.00  0.00     0.209 HD
ENDBRANCH  36  37
ENDBRANCH  35  36
ENDBRANCH  28  35
BRANCH  33  39
HETATM   39  N5  UNL     1      13.413 -18.027  15.966  1.00  0.00    -0.248 N 
HETATM   40  N6  UNL     1      13.187 -17.352  14.923  1.00  0.00    -0.331 N 
ATOM     41  H62 UNL     1      13.197 -16.336  15.008  1.00  0.00     0.178 HD
ATOM     42  H61 UNL     1      12.998 -17.781  14.017  1.00  0.00     0.178 HD
ATOM     43  H5  UNL     1      13.406 -19.044  15.899  1.00  0.00     0.207 HD
ENDBRANCH  33  39
ENDBRANCH  27  28
ENDBRANCH  26  27
ENDBRANCH  25  26
ENDBRANCH   1  25
TORSDOF 13
ENDMDL
MODEL 5
REMARK VINA RESULT: -7.664888732      1.496      2.952
REMARK  13 active torsions:
REMARK  status: ('A' for Active; 'I' for Inactive)
REMARK    1  A    between atoms: C7_8  and  C8_9 
REMARK    2  A    between atoms: C8_9  and  C9_10 
REMARK    3  A    between atoms: C9_10  and  N2_11 
REMARK    4  A    between atoms: N2_11  and  C10_12 
REMARK    5  A    between atoms: C10_12  and  C11_13 
REMARK    6  A    between atoms: C11_13  and  C12_14 
REMARK    7  A    between atoms: C12_14  and  N3_15 
REMARK    8  A    between atoms: N3_15  and  C13_16 
REMARK    9  A    between atoms: C13_16  and  C14_17 
REMARK   10  A    between atoms: C14_17  and  O1_18 
REMARK   11  A    between atoms: N4_24  and  N5_26 
REMARK   12  A    between atoms: C21_38  and  C22_39 
REMARK   13  A    between atoms: C22_39  and  O3_40 
ROOT
HETATM    1  N2  UNL     1      13.876 -16.447  19.885  1.00  0.00     0.032 N 
HETATM    2  C19 UNL     1      13.481 -17.103  18.679  1.00  0.00     0.391 C 
HETATM    3  N7  UNL     1      12.598 -18.221  19.077  1.00  0.00    -0.316 N 
ATOM      4  H7  UNL     1      12.133 -18.888  18.462  1.00  0.00     0.166 HD
HETATM    5  C20 UNL     1      12.533 -18.172  20.483  1.00  0.00     0.341 C 
HETATM    6  O2  UNL     1      12.158 -19.108  21.211  1.00  0.00    -0.246 OA
HETATM    7  N8  UNL     1      12.968 -16.883  20.864  1.00  0.00    -0.165 N 
ATOM      8  H8  UNL     1      12.677 -16.366  21.693  1.00  0.00     0.199 HD
ENDROOT
BRANCH   1   9
HETATM    9  C9  UNL     1      15.165 -17.009  20.345  1.00  0.00     0.272 C 
BRANCH   9  10
HETATM   10  C8  UNL     1      15.291 -16.888  21.811  1.00  0.00     0.069 C 
BRANCH  10  11
HETATM   11  C7  UNL     1      16.547 -16.213  22.242  1.00  0.00    -0.047 A 
HETATM   12  C6  UNL     1      17.064 -15.190  21.435  1.00  0.00     0.021 A 
HETATM   13  C5  UNL     1      18.247 -14.595  21.810  1.00  0.00    -0.009 A 
HETATM   14  C4  UNL     1      18.772 -13.577  21.014  1.00  0.00     0.015 A 
HETATM   15  C24 UNL     1      18.911 -14.977  22.932  1.00  0.00     0.044 A 
HETATM   16  C3  UNL     1      19.949 -13.007  21.410  1.00  0.00     0.018 A 
HETATM   17  C2  UNL     1      20.580 -13.436  22.560  1.00  0.00     0.090 A 
HETATM   18  N1  UNL     1      20.073 -14.408  23.316  1.00  0.00    -0.360 N 
HETATM   19  C1  UNL     1      20.716 -14.870  24.524  1.00  0.00     0.155 C 
HETATM   20  C23 UNL     1      18.384 -15.977  23.705  1.00  0.00     0.040 A 
HETATM   21  C21 UNL     1      17.183 -16.626  23.379  1.00  0.00    -0.026 A 
BRANCH  21  22
HETATM   22  C22 UNL     1      16.696 -17.675  24.309  1.00  0.00     0.203 C 
BRANCH  22  23
HETATM   23  O3  UNL     1      17.718 -18.109  25.157  1.00  0.00    -0.396 OA
ATOM     24  H3  UNL     1      17.383 -18.304  26.025  1.00  0.00     0.209 HD
ENDBRANCH  22  23
ENDBRANCH  21  22
ENDBRANCH  10  11
ENDBRANCH   9  10
ENDBRANCH   1   9
BRANCH   1  25
HETATM   25  C10 UNL     1      14.002 -15.059  19.775  1.00  0.00     0.269 C 
BRANCH  25  26
HETATM   26  C11 UNL     1      13.228 -14.170  20.724  1.00  0.00     0.059 C 
BRANCH  26  27
HETATM   27  C12 UNL     1      13.113 -12.797  20.283  1.00  0.00     0.247 C 
BRANCH  27  28
HETATM   28  N3  UNL     1      13.403 -11.690  21.124  1.00  0.00    -0.023 N 
HETATM   29  C15 UNL     1      13.213 -10.494  20.224  1.00  0.00     0.246 C 
HETATM   30  C16 UNL     1      13.235  -9.325  21.180  1.00  0.00     0.036 C 
HETATM   31  C17 UNL     1      12.939  -9.946  22.544  1.00  0.00     0.088 C 
HETATM   32  C18 UNL     1      12.529 -11.305  22.115  1.00  0.00     0.200 C 
HETATM   33  N4  UNL     1      11.548 -11.923  22.608  1.00  0.00    -0.269 N 
ATOM     34  H4  UNL     1      11.382 -12.848  22.212  1.00  0.00     0.189 HD
BRANCH  28  35
HETATM   35  C13 UNL     1      14.796 -11.577  21.441  1.00  0.00     0.271 C 
BRANCH  35  36
HETATM   36  C14 UNL     1      15.788 -11.606  20.367  1.00  0.00     0.192 C 
BRANCH  36  37
HETATM   37  O1  UNL     1      16.633 -10.527  20.264  1.00  0.00    -0.399 OA
ATOM     38  H1  UNL     1      17.302 -10.434  20.932  1.00  0.00     0.209 HD
ENDBRANCH  36  37
ENDBRANCH  35  36
ENDBRANCH  28  35
BRANCH  33  39
HETATM   39  N5  UNL     1      10.671 -11.553  23.592  1.00  0.00    -0.248 N 
HETATM   40  N6  UNL     1      10.857 -11.820  24.812  1.00  0.00    -0.331 N 
ATOM     41  H62 UNL     1      11.702 -12.335  25.058  1.00  0.00     0.178 HD
ATOM     42  H61 UNL     1      10.203 -11.544  25.545  1.00  0.00     0.178 HD
ATOM     43  H5  UNL     1       9.831 -11.038  23.328  1.00  0.00     0.207 HD
ENDBRANCH  33  39
ENDBRANCH  27  28
ENDBRANCH  26  27
ENDBRANCH  25  26
ENDBRANCH   1  25
TORSDOF 13
ENDMDL
