MODEL 1
REMARK VINA RESULT: -9.571221838      0.000      0.000
REMARK  12 active torsions:
REMARK  status: ('A' for Active; 'I' for Inactive)
REMARK    1  A    between atoms: C1_4  and  C2_6 
REMARK    2  A    between atoms: N3_9  and  C5_10 
REMARK    3  A    between atoms: C5_10  and  C6_11 
REMARK    4  A    between atoms: C6_11  and  C7_12 
REMARK    5  A    between atoms: C7_12  and  C8_13 
REMARK    6  A    between atoms: N4_17  and  C12_18 
REMARK    7  A    between atoms: C12_18  and  C13_19 
REMARK    8  A    between atoms: C13_19  and  C14_20 
REMARK    9  A    between atoms: C14_20  and  C15_21 
REMARK   10  A    between atoms: C15_21  and  N5_22 
REMARK   11  A    between atoms: C18_25  and  N6_26 
REMARK   12  A    between atoms: N6_26  and  C19_28 
ROOT
HETATM    1  C13 UNL     1      20.180 -13.718  21.830  1.00  0.00     0.022 C 
ENDROOT
BRANCH   1   2
HETATM    2  C12 UNL     1      20.336 -12.586  22.812  1.00  0.00     0.128 C 
BRANCH   2   3
HETATM    3  N4  UNL     1      20.394 -13.181  24.146  1.00  0.00    -0.366 N 
HETATM    4  C11 UNL     1      21.018 -12.482  25.113  1.00  0.00     0.090 A 
HETATM    5  C10 UNL     1      21.106 -12.998  26.411  1.00  0.00     0.018 A 
HETATM    6  C9  UNL     1      20.528 -14.240  26.633  1.00  0.00     0.010 A 
HETATM    7  C8  UNL     1      19.895 -14.939  25.627  1.00  0.00    -0.043 A 
HETATM    8  C24 UNL     1      19.834 -14.393  24.374  1.00  0.00     0.097 A 
BRANCH   7   9
HETATM    9  C7  UNL     1      19.306 -16.268  25.970  1.00  0.00     0.041 C 
BRANCH   9  10
HETATM   10  C6  UNL     1      19.755 -17.258  24.915  1.00  0.00     0.025 C 
BRANCH  10  11
HETATM   11  C5  UNL     1      18.699 -18.221  24.508  1.00  0.00     0.128 C 
BRANCH  11  12
HETATM   12  N3  UNL     1      17.648 -17.690  23.710  1.00  0.00    -0.366 N 
HETATM   13  C4  UNL     1      16.353 -17.946  23.926  1.00  0.00     0.091 A 
HETATM   14  C3  UNL     1      15.350 -17.415  23.135  1.00  0.00     0.032 A 
HETATM   15  C2  UNL     1      15.637 -16.586  22.068  1.00  0.00     0.007 A 
HETATM   16  C26 UNL     1      16.976 -16.329  21.853  1.00  0.00     0.032 A 
HETATM   17  C25 UNL     1      17.956 -16.887  22.678  1.00  0.00     0.091 A 
BRANCH  15  18
HETATM   18  C1  UNL     1      14.566 -16.047  21.259  1.00  0.00     0.120 C 
HETATM   19  N1  UNL     1      14.547 -16.020  19.972  1.00  0.00    -0.387 N 
ATOM     20  H12 UNL     1      13.792 -15.640  19.402  1.00  0.00     0.157 HD
ATOM     21  H11 UNL     1      15.363 -16.415  19.505  1.00  0.00     0.157 HD
HETATM   22  N2  UNL     1      13.430 -15.498  21.910  1.00  0.00    -0.082 NA
ENDBRANCH  15  18
ENDBRANCH  11  12
ENDBRANCH  10  11
ENDBRANCH   9  10
ENDBRANCH   7   9
ENDBRANCH   2   3
ENDBRANCH   1   2
BRANCH   1  23
HETATM   23  C14 UNL     1      19.635 -13.312  20.506  1.00  0.00     0.022 C 
BRANCH  23  24
HETATM   24  C15 UNL     1      18.993 -11.965  20.445  1.00  0.00     0.129 C 
BRANCH  24  25
HETATM   25  N5  UNL     1      17.553 -11.990  20.506  1.00  0.00    -0.353 N 
HETATM   26  C16 UNL     1      16.805 -12.552  21.441  1.00  0.00     0.095 A 
HETATM   27  C17 UNL     1      15.420 -12.526  21.404  1.00  0.00     0.066 A 
HETATM   28  C18 UNL     1      14.778 -11.895  20.366  1.00  0.00     0.108 A 
HETATM   29  N10 UNL     1      15.552 -11.318  19.408  1.00  0.00    -0.338 N 
HETATM   30  C23 UNL     1      16.884 -11.373  19.491  1.00  0.00     0.184 A 
ATOM     31  H10 UNL     1      15.112 -10.840  18.621  1.00  0.00     0.168 HD
BRANCH  28  32
HETATM   32  N6  UNL     1      13.488 -11.838  20.279  1.00  0.00    -0.327 N 
ATOM     33  H6  UNL     1      13.015 -11.912  19.378  1.00  0.00     0.169 HD
BRANCH  32  34
HETATM   34  C19 UNL     1      12.756 -11.668  21.483  1.00  0.00     0.139 A 
HETATM   35  C20 UNL     1      12.405 -10.668  22.268  1.00  0.00     0.122 A 
HETATM   36  N7  UNL     1      12.300  -9.410  22.726  1.00  0.00    -0.346 N 
HETATM   37  C22 UNL     1      11.734 -11.489  23.146  1.00  0.00     0.139 A 
HETATM   38  C21 UNL     1      11.579  -9.468  23.857  1.00  0.00     0.182 A 
ATOM     39  H7  UNL     1      12.692  -8.572  22.296  1.00  0.00     0.167 HD
HETATM   40  N8  UNL     1      11.220 -10.732  24.137  1.00  0.00    -0.337 N 
ATOM     41  H8  UNL     1      10.672 -11.053  24.935  1.00  0.00     0.168 HD
HETATM   42  N9  UNL     1      12.054 -12.491  22.409  1.00  0.00    -0.325 N 
ATOM     43  H9  UNL     1      11.873 -13.494  22.466  1.00  0.00     0.169 HD
ENDBRANCH  32  34
ENDBRANCH  28  32
ENDBRANCH  24  25
ENDBRANCH  23  24
ENDBRANCH   1  23
TORSDOF 12
ENDMDL
MODEL 2
REMARK VINA RESULT: -9.224644136      0.867      1.266
REMARK  12 active torsions:
REMARK  status: ('A' for Active; 'I' for Inactive)
REMARK    1  A    between atoms: C1_4  and  C2_6 
REMARK    2  A    between atoms: N3_9  and  C5_10 
REMARK    3  A    between atoms: C5_10  and  C6_11 
REMARK    4  A    between atoms: C6_11  and  C7_12 
REMARK    5  A    between atoms: C7_12  and  C8_13 
REMARK    6  A    between atoms: N4_17  and  C12_18 
REMARK    7  A    between atoms: C12_18  and  C13_19 
REMARK    8  A    between atoms: C13_19  and  C14_20 
REMARK    9  A    between atoms: C14_20  and  C15_21 
REMARK   10  A    between atoms: C15_21  and  N5_22 
REMARK   11  A    between atoms: C18_25  and  N6_26 
REMARK   12  A    between atoms: N6_26  and  C19_28 
ROOT
HETATM    1  C13 UNL     1      20.011 -14.041  21.967  1.00  0.00     0.022 C 
ENDROOT
BRANCH   1   2
HETATM    2  C12 UNL     1      20.383 -12.815  22.760  1.00  0.00     0.128 C 
BRANCH   2   3
HETATM    3  N4  UNL     1      20.428 -13.211  24.166  1.00  0.00    -0.366 N 
HETATM    4  C11 UNL     1      21.156 -12.450  25.005  1.00  0.00     0.090 A 
HETATM    5  C10 UNL     1      21.238 -12.777  26.362  1.00  0.00     0.018 A 
HETATM    6  C9  UNL     1      20.543 -13.903  26.780  1.00  0.00     0.010 A 
HETATM    7  C8  UNL     1      19.805 -14.669  25.903  1.00  0.00    -0.043 A 
HETATM    8  C24 UNL     1      19.755 -14.309  24.584  1.00  0.00     0.097 A 
BRANCH   7   9
HETATM    9  C7  UNL     1      19.095 -15.863  26.453  1.00  0.00     0.041 C 
BRANCH   9  10
HETATM   10  C6  UNL     1      19.716 -17.096  25.832  1.00  0.00     0.025 C 
BRANCH  10  11
HETATM   11  C5  UNL     1      18.723 -18.060  25.291  1.00  0.00     0.128 C 
BRANCH  11  12
HETATM   12  N3  UNL     1      18.172 -17.735  24.020  1.00  0.00    -0.366 N 
HETATM   13  C4  UNL     1      18.895 -17.669  22.896  1.00  0.00     0.091 A 
HETATM   14  C3  UNL     1      18.334 -17.351  21.672  1.00  0.00     0.032 A 
HETATM   15  C2  UNL     1      16.986 -17.083  21.546  1.00  0.00     0.007 A 
HETATM   16  C26 UNL     1      16.250 -17.153  22.710  1.00  0.00     0.032 A 
HETATM   17  C25 UNL     1      16.857 -17.478  23.925  1.00  0.00     0.091 A 
BRANCH  15  18
HETATM   18  C1  UNL     1      16.430 -16.753  20.252  1.00  0.00     0.120 C 
HETATM   19  N1  UNL     1      16.050 -15.580  19.882  1.00  0.00    -0.387 N 
ATOM     20  H12 UNL     1      15.657 -15.348  18.969  1.00  0.00     0.157 HD
ATOM     21  H11 UNL     1      16.157 -14.837  20.573  1.00  0.00     0.157 HD
HETATM   22  N2  UNL     1      16.280 -17.787  19.290  1.00  0.00    -0.082 NA
ENDBRANCH  15  18
ENDBRANCH  11  12
ENDBRANCH  10  11
ENDBRANCH   9  10
ENDBRANCH   7   9
ENDBRANCH   2   3
ENDBRANCH   1   2
BRANCH   1  23
HETATM   23  C14 UNL     1      19.372 -13.754  20.655  1.00  0.00     0.022 C 
BRANCH  23  24
HETATM   24  C15 UNL     1      18.889 -12.357  20.451  1.00  0.00     0.129 C 
BRANCH  24  25
HETATM   25  N5  UNL     1      17.457 -12.206  20.525  1.00  0.00    -0.353 N 
HETATM   26  C16 UNL     1      16.658 -12.643  21.484  1.00  0.00     0.095 A 
HETATM   27  C17 UNL     1      15.286 -12.452  21.458  1.00  0.00     0.066 A 
HETATM   28  C18 UNL     1      14.712 -11.784  20.404  1.00  0.00     0.108 A 
HETATM   29  N10 UNL     1      15.537 -11.337  19.420  1.00  0.00    -0.338 N 
HETATM   30  C23 UNL     1      16.854 -11.549  19.494  1.00  0.00     0.184 A 
ATOM     31  H10 UNL     1      15.148 -10.836  18.621  1.00  0.00     0.168 HD
BRANCH  28  32
HETATM   32  N6  UNL     1      13.436 -11.576  20.326  1.00  0.00    -0.327 N 
ATOM     33  H6  UNL     1      12.966 -11.506  19.423  1.00  0.00     0.169 HD
BRANCH  32  34
HETATM   34  C19 UNL     1      12.716 -11.447  21.542  1.00  0.00     0.139 A 
HETATM   35  C20 UNL     1      12.387 -10.476  22.372  1.00  0.00     0.122 A 
HETATM   36  N7  UNL     1      12.304  -9.237  22.884  1.00  0.00    -0.346 N 
HETATM   37  C22 UNL     1      11.711 -11.324  23.220  1.00  0.00     0.139 A 
HETATM   38  C21 UNL     1      11.591  -9.334  24.018  1.00  0.00     0.182 A 
ATOM     39  H7  UNL     1      12.705  -8.388  22.488  1.00  0.00     0.167 HD
HETATM   40  N8  UNL     1      11.216 -10.603  24.247  1.00  0.00    -0.337 N 
ATOM     41  H8  UNL     1      10.669 -10.950  25.035  1.00  0.00     0.168 HD
HETATM   42  N9  UNL     1      12.010 -12.298  22.439  1.00  0.00    -0.325 N 
ATOM     43  H9  UNL     1      11.815 -13.300  22.454  1.00  0.00     0.169 HD
ENDBRANCH  32  34
ENDBRANCH  28  32
ENDBRANCH  24  25
ENDBRANCH  23  24
ENDBRANCH   1  23
TORSDOF 12
ENDMDL
MODEL 3
REMARK VINA RESULT: -9.091285811      2.412      4.329
REMARK  12 active torsions:
REMARK  status: ('A' for Active; 'I' for Inactive)
REMARK    1  A    between atoms: C1_4  and  C2_6 
REMARK    2  A    between atoms: N3_9  and  C5_10 
REMARK    3  A    between atoms: C5_10  and  C6_11 
REMARK    4  A    between atoms: C6_11  and  C7_12 
REMARK    5  A    between atoms: C7_12  and  C8_13 
REMARK    6  A    between atoms: N4_17  and  C12_18 
REMARK    7  A    between atoms: C12_18  and  C13_19 
REMARK    8  A    between atoms: C13_19  and  C14_20 
REMARK    9  A    between atoms: C14_20  and  C15_21 
REMARK   10  A    between atoms: C15_21  and  N5_22 
REMARK   11  A    between atoms: C18_25  and  N6_26 
REMARK   12  A    between atoms: N6_26  and  C19_28 
ROOT
HETATM    1  C13 UNL     1      20.112 -14.137  21.975  1.00  0.00     0.022 C 
ENDROOT
BRANCH   1   2
HETATM    2  C12 UNL     1      20.544 -12.922  22.756  1.00  0.00     0.128 C 
BRANCH   2   3
HETATM    3  N4  UNL     1      20.530 -13.294  24.169  1.00  0.00    -0.366 N 
HETATM    4  C11 UNL     1      21.232 -12.525  25.022  1.00  0.00     0.090 A 
HETATM    5  C10 UNL     1      21.257 -12.828  26.388  1.00  0.00     0.018 A 
HETATM    6  C9  UNL     1      20.535 -13.939  26.797  1.00  0.00     0.010 A 
HETATM    7  C8  UNL     1      19.823 -14.714  25.906  1.00  0.00    -0.043 A 
HETATM    8  C24 UNL     1      19.829 -14.377  24.580  1.00  0.00     0.097 A 
BRANCH   7   9
HETATM    9  C7  UNL     1      19.079 -15.890  26.448  1.00  0.00     0.041 C 
BRANCH   9  10
HETATM   10  C6  UNL     1      19.333 -17.063  25.525  1.00  0.00     0.025 C 
BRANCH  10  11
HETATM   11  C5  UNL     1      20.572 -17.819  25.843  1.00  0.00     0.128 C 
BRANCH  11  12
HETATM   12  N3  UNL     1      21.723 -17.473  25.082  1.00  0.00    -0.366 N 
HETATM   13  C4  UNL     1      22.854 -17.006  25.622  1.00  0.00     0.091 A 
HETATM   14  C3  UNL     1      23.960 -16.677  24.859  1.00  0.00     0.032 A 
HETATM   15  C2  UNL     1      23.953 -16.815  23.485  1.00  0.00     0.007 A 
HETATM   16  C26 UNL     1      22.782 -17.297  22.938  1.00  0.00     0.032 A 
HETATM   17  C25 UNL     1      21.690 -17.616  23.747  1.00  0.00     0.091 A 
BRANCH  15  18
HETATM   18  C1  UNL     1      25.126 -16.462  22.715  1.00  0.00     0.120 C 
HETATM   19  N1  UNL     1      25.648 -15.287  22.650  1.00  0.00    -0.387 N 
ATOM     20  H12 UNL     1      26.474 -15.039  22.106  1.00  0.00     0.157 HD
ATOM     21  H11 UNL     1      25.182 -14.560  23.193  1.00  0.00     0.157 HD
HETATM   22  N2  UNL     1      25.775 -17.474  21.959  1.00  0.00    -0.082 NA
ENDBRANCH  15  18
ENDBRANCH  11  12
ENDBRANCH  10  11
ENDBRANCH   9  10
ENDBRANCH   7   9
ENDBRANCH   2   3
ENDBRANCH   1   2
BRANCH   1  23
HETATM   23  C14 UNL     1      19.349 -13.831  20.735  1.00  0.00     0.022 C 
BRANCH  23  24
HETATM   24  C15 UNL     1      18.880 -12.422  20.583  1.00  0.00     0.129 C 
BRANCH  24  25
HETATM   25  N5  UNL     1      17.447 -12.265  20.629  1.00  0.00    -0.353 N 
HETATM   26  C16 UNL     1      16.612 -12.824  21.488  1.00  0.00     0.095 A 
HETATM   27  C17 UNL     1      15.243 -12.613  21.442  1.00  0.00     0.066 A 
HETATM   28  C18 UNL     1      14.712 -11.795  20.476  1.00  0.00     0.108 A 
HETATM   29  N10 UNL     1      15.575 -11.222  19.595  1.00  0.00    -0.338 N 
HETATM   30  C23 UNL     1      16.887 -11.459  19.683  1.00  0.00     0.184 A 
ATOM     31  H10 UNL     1      15.219 -10.607  18.863  1.00  0.00     0.168 HD
BRANCH  28  32
HETATM   32  N6  UNL     1      13.442 -11.560  20.384  1.00  0.00    -0.327 N 
ATOM     33  H6  UNL     1      12.983 -11.479  19.477  1.00  0.00     0.169 HD
BRANCH  32  34
HETATM   34  C19 UNL     1      12.711 -11.421  21.593  1.00  0.00     0.139 A 
HETATM   35  C20 UNL     1      12.384 -10.445  22.418  1.00  0.00     0.122 A 
HETATM   36  N7  UNL     1      12.309  -9.204  22.926  1.00  0.00    -0.346 N 
HETATM   37  C22 UNL     1      11.691 -11.284  23.262  1.00  0.00     0.139 A 
HETATM   38  C21 UNL     1      11.584  -9.290  24.053  1.00  0.00     0.182 A 
ATOM     39  H7  UNL     1      12.722  -8.359  22.531  1.00  0.00     0.167 HD
HETATM   40  N8  UNL     1      11.194 -10.555  24.282  1.00  0.00    -0.337 N 
ATOM     41  H8  UNL     1      10.636 -10.894  25.065  1.00  0.00     0.168 HD
HETATM   42  N9  UNL     1      11.987 -12.263  22.485  1.00  0.00    -0.325 N 
ATOM     43  H9  UNL     1      11.782 -13.263  22.501  1.00  0.00     0.169 HD
ENDBRANCH  32  34
ENDBRANCH  28  32
ENDBRANCH  24  25
ENDBRANCH  23  24
ENDBRANCH   1  23
TORSDOF 12
ENDMDL
MODEL 4
REMARK VINA RESULT: -8.783711478      2.203      3.435
REMARK  12 active torsions:
REMARK  status: ('A' for Active; 'I' for Inactive)
REMARK    1  A    between atoms: C1_4  and  C2_6 
REMARK    2  A    between atoms: N3_9  and  C5_10 
REMARK    3  A    between atoms: C5_10  and  C6_11 
REMARK    4  A    between atoms: C6_11  and  C7_12 
REMARK    5  A    between atoms: C7_12  and  C8_13 
REMARK    6  A    between atoms: N4_17  and  C12_18 
REMARK    7  A    between atoms: C12_18  and  C13_19 
REMARK    8  A    between atoms: C13_19  and  C14_20 
REMARK    9  A    between atoms: C14_20  and  C15_21 
REMARK   10  A    between atoms: C15_21  and  N5_22 
REMARK   11  A    between atoms: C18_25  and  N6_26 
REMARK   12  A    between atoms: N6_26  and  C19_28 
ROOT
HETATM    1  C13 UNL     1      19.938 -14.136  22.007  1.00  0.00     0.022 C 
ENDROOT
BRANCH   1   2
HETATM    2  C12 UNL     1      20.320 -12.878  22.745  1.00  0.00     0.128 C 
BRANCH   2   3
HETATM    3  N4  UNL     1      20.410 -13.224  24.162  1.00  0.00    -0.366 N 
HETATM    4  C11 UNL     1      21.102 -12.392  24.963  1.00  0.00     0.090 A 
HETATM    5  C10 UNL     1      21.224 -12.668  26.329  1.00  0.00     0.018 A 
HETATM    6  C9  UNL     1      20.607 -13.819  26.794  1.00  0.00     0.010 A 
HETATM    7  C8  UNL     1      19.904 -14.659  25.956  1.00  0.00    -0.043 A 
HETATM    8  C24 UNL     1      19.812 -14.346  24.627  1.00  0.00     0.097 A 
BRANCH   7   9
HETATM    9  C7  UNL     1      19.277 -15.874  26.556  1.00  0.00     0.041 C 
BRANCH   9  10
HETATM   10  C6  UNL     1      18.624 -16.657  25.436  1.00  0.00     0.025 C 
BRANCH  10  11
HETATM   11  C5  UNL     1      19.281 -17.960  25.153  1.00  0.00     0.128 C 
BRANCH  11  12
HETATM   12  N3  UNL     1      20.236 -17.957  24.098  1.00  0.00    -0.366 N 
HETATM   13  C4  UNL     1      21.557 -17.895  24.297  1.00  0.00     0.091 A 
HETATM   14  C3  UNL     1      22.465 -17.894  23.253  1.00  0.00     0.032 A 
HETATM   15  C2  UNL     1      22.049 -17.956  21.938  1.00  0.00     0.007 A 
HETATM   16  C26 UNL     1      20.685 -18.019  21.744  1.00  0.00     0.032 A 
HETATM   17  C25 UNL     1      19.804 -18.017  22.828  1.00  0.00     0.091 A 
BRANCH  15  18
HETATM   18  C1  UNL     1      23.023 -17.953  20.869  1.00  0.00     0.120 C 
HETATM   19  N1  UNL     1      24.220 -18.419  20.950  1.00  0.00    -0.387 N 
ATOM     20  H12 UNL     1      24.907 -18.416  20.197  1.00  0.00     0.157 HD
ATOM     21  H11 UNL     1      24.484 -18.818  21.852  1.00  0.00     0.157 HD
HETATM   22  N2  UNL     1      22.657 -17.398  19.614  1.00  0.00    -0.082 NA
ENDBRANCH  15  18
ENDBRANCH  11  12
ENDBRANCH  10  11
ENDBRANCH   9  10
ENDBRANCH   7   9
ENDBRANCH   2   3
ENDBRANCH   1   2
BRANCH   1  23
HETATM   23  C14 UNL     1      19.309 -13.902  20.679  1.00  0.00     0.022 C 
BRANCH  23  24
HETATM   24  C15 UNL     1      18.862 -12.505  20.400  1.00  0.00     0.129 C 
BRANCH  24  25
HETATM   25  N5  UNL     1      17.435 -12.313  20.468  1.00  0.00    -0.353 N 
HETATM   26  C16 UNL     1      16.604 -12.828  21.358  1.00  0.00     0.095 A 
HETATM   27  C17 UNL     1      15.239 -12.586  21.332  1.00  0.00     0.066 A 
HETATM   28  C18 UNL     1      14.709 -11.783  20.352  1.00  0.00     0.108 A 
HETATM   29  N10 UNL     1      15.568 -11.256  19.439  1.00  0.00    -0.338 N 
HETATM   30  C23 UNL     1      16.875 -11.522  19.510  1.00  0.00     0.184 A 
ATOM     31  H10 UNL     1      15.212 -10.654  18.697  1.00  0.00     0.168 HD
BRANCH  28  32
HETATM   32  N6  UNL     1      13.443 -11.521  20.278  1.00  0.00    -0.327 N 
ATOM     33  H6  UNL     1      12.982 -11.392  19.377  1.00  0.00     0.169 HD
BRANCH  32  34
HETATM   34  C19 UNL     1      12.721 -11.420  21.495  1.00  0.00     0.139 A 
HETATM   35  C20 UNL     1      12.397 -10.470  22.351  1.00  0.00     0.122 A 
HETATM   36  N7  UNL     1      12.323  -9.246  22.897  1.00  0.00    -0.346 N 
HETATM   37  C22 UNL     1      11.712 -11.336  23.174  1.00  0.00     0.139 A 
HETATM   38  C21 UNL     1      11.606  -9.368  24.027  1.00  0.00     0.182 A 
ATOM     39  H7  UNL     1      12.732  -8.389  22.526  1.00  0.00     0.167 HD
HETATM   40  N8  UNL     1      11.220 -10.640  24.219  1.00  0.00    -0.337 N 
ATOM     41  H8  UNL     1      10.669 -11.004  24.996  1.00  0.00     0.168 HD
HETATM   42  N9  UNL     1      12.005 -12.291  22.367  1.00  0.00    -0.325 N 
ATOM     43  H9  UNL     1      11.802 -13.291  22.353  1.00  0.00     0.169 HD
ENDBRANCH  32  34
ENDBRANCH  28  32
ENDBRANCH  24  25
ENDBRANCH  23  24
ENDBRANCH   1  23
TORSDOF 12
ENDMDL
MODEL 5
REMARK VINA RESULT: -8.703875892      1.158      1.265
REMARK  12 active torsions:
REMARK  status: ('A' for Active; 'I' for Inactive)
REMARK    1  A    between atoms: C1_4  and  C2_6 
REMARK    2  A    between atoms: N3_9  and  C5_10 
REMARK    3  A    between atoms: C5_10  and  C6_11 
REMARK    4  A    between atoms: C6_11  and  C7_12 
REMARK    5  A    between atoms: C7_12  and  C8_13 
REMARK    6  A    between atoms: N4_17  and  C12_18 
REMARK    7  A    between atoms: C12_18  and  C13_19 
REMARK    8  A    between atoms: C13_19  and  C14_20 
REMARK    9  A    between atoms: C14_20  and  C15_21 
REMARK   10  A    between atoms: C15_21  and  N5_22 
REMARK   11  A    between atoms: C18_25  and  N6_26 
REMARK   12  A    between atoms: N6_26  and  C19_28 
ROOT
HETATM    1  C13 UNL     1      20.302 -13.806  21.964  1.00  0.00     0.022 C 
ENDROOT
BRANCH   1   2
HETATM    2  C12 UNL     1      20.192 -12.626  22.895  1.00  0.00     0.128 C 
BRANCH   2   3
HETATM    3  N4  UNL     1      20.332 -13.140  24.256  1.00  0.00    -0.366 N 
HETATM    4  C11 UNL     1      21.082 -12.426  25.117  1.00  0.00     0.090 A 
HETATM    5  C10 UNL     1      21.253 -12.865  26.434  1.00  0.00     0.018 A 
HETATM    6  C9  UNL     1      20.621 -14.048  26.789  1.00  0.00     0.010 A 
HETATM    7  C8  UNL     1      19.859 -14.764  25.890  1.00  0.00    -0.043 A 
HETATM    8  C24 UNL     1      19.720 -14.294  24.613  1.00  0.00     0.097 A 
BRANCH   7   9
HETATM    9  C7  UNL     1      19.221 -16.025  26.372  1.00  0.00     0.041 C 
BRANCH   9  10
HETATM   10  C6  UNL     1      19.518 -17.109  25.357  1.00  0.00     0.025 C 
BRANCH  10  11
HETATM   11  C5  UNL     1      18.730 -18.353  25.559  1.00  0.00     0.128 C 
BRANCH  11  12
HETATM   12  N3  UNL     1      17.599 -18.516  24.710  1.00  0.00    -0.366 N 
HETATM   13  C4  UNL     1      16.454 -19.082  25.106  1.00  0.00     0.091 A 
HETATM   14  C3  UNL     1      15.368 -19.228  24.261  1.00  0.00     0.032 A 
HETATM   15  C2  UNL     1      15.412 -18.793  22.952  1.00  0.00     0.007 A 
HETATM   16  C26 UNL     1      16.598 -18.211  22.553  1.00  0.00     0.032 A 
HETATM   17  C25 UNL     1      17.669 -18.084  23.441  1.00  0.00     0.091 A 
BRANCH  15  18
HETATM   18  C1  UNL     1      14.260 -18.960  22.093  1.00  0.00     0.120 C 
HETATM   19  N1  UNL     1      14.230 -18.711  20.830  1.00  0.00    -0.387 N 
ATOM     20  H12 UNL     1      13.418 -18.828  20.225  1.00  0.00     0.157 HD
ATOM     21  H11 UNL     1      15.101 -18.368  20.422  1.00  0.00     0.157 HD
HETATM   22  N2  UNL     1      13.049 -19.438  22.660  1.00  0.00    -0.082 NA
ENDBRANCH  15  18
ENDBRANCH  11  12
ENDBRANCH  10  11
ENDBRANCH   9  10
ENDBRANCH   7   9
ENDBRANCH   2   3
ENDBRANCH   1   2
BRANCH   1  23
HETATM   23  C14 UNL     1      19.367 -13.766  20.808  1.00  0.00     0.022 C 
BRANCH  23  24
HETATM   24  C15 UNL     1      18.870 -12.415  20.412  1.00  0.00     0.129 C 
BRANCH  24  25
HETATM   25  N5  UNL     1      17.439 -12.260  20.493  1.00  0.00    -0.353 N 
HETATM   26  C16 UNL     1      16.640 -12.729  21.437  1.00  0.00     0.095 A 
HETATM   27  C17 UNL     1      15.269 -12.530  21.420  1.00  0.00     0.066 A 
HETATM   28  C18 UNL     1      14.696 -11.821  20.393  1.00  0.00     0.108 A 
HETATM   29  N10 UNL     1      15.522 -11.340  19.425  1.00  0.00    -0.338 N 
HETATM   30  C23 UNL     1      16.838 -11.561  19.489  1.00  0.00     0.184 A 
ATOM     31  H10 UNL     1      15.134 -10.808  18.646  1.00  0.00     0.168 HD
BRANCH  28  32
HETATM   32  N6  UNL     1      13.422 -11.603  20.325  1.00  0.00    -0.327 N 
ATOM     33  H6  UNL     1      12.945 -11.531  19.426  1.00  0.00     0.169 HD
BRANCH  32  34
HETATM   34  C19 UNL     1      12.712 -11.466  21.546  1.00  0.00     0.139 A 
HETATM   35  C20 UNL     1      12.385 -10.490  22.371  1.00  0.00     0.122 A 
HETATM   36  N7  UNL     1      12.300  -9.247  22.872  1.00  0.00    -0.346 N 
HETATM   37  C22 UNL     1      11.722 -11.334  23.233  1.00  0.00     0.139 A 
HETATM   38  C21 UNL     1      11.598  -9.337  24.014  1.00  0.00     0.182 A 
ATOM     39  H7  UNL     1      12.692  -8.399  22.464  1.00  0.00     0.167 HD
HETATM   40  N8  UNL     1      11.233 -10.607  24.258  1.00  0.00    -0.337 N 
ATOM     41  H8  UNL     1      10.696 -10.949  25.054  1.00  0.00     0.168 HD
HETATM   42  N9  UNL     1      12.019 -12.314  22.458  1.00  0.00    -0.325 N 
ATOM     43  H9  UNL     1      11.831 -13.317  22.484  1.00  0.00     0.169 HD
ENDBRANCH  32  34
ENDBRANCH  28  32
ENDBRANCH  24  25
ENDBRANCH  23  24
ENDBRANCH   1  23
TORSDOF 12
ENDMDL
