MODEL 1
REMARK VINA RESULT: -7.740191363      0.000      0.000
REMARK  7 active torsions:
REMARK  status: ('A' for Active; 'I' for Inactive)
REMARK    1  A    between atoms: N1_1  and  C1_4 
REMARK    2  A    between atoms: C3_9  and  C4_10 
REMARK       I    between atoms: C4_10  and  N4_12 
REMARK    3  A    between atoms: N4_12  and  N5_14 
REMARK    4  A    between atoms: C5_19  and  C6_20 
REMARK    5  A    between atoms: C6_20  and  O3_22 
REMARK    6  A    between atoms: O3_22  and  C7_23 
REMARK       I    between atoms: C7_23  and  N7_25 
REMARK    7  A    between atoms: N7_25  and  N8_27 
ROOT
HETATM    1  C1  UNL     1      49.007  31.629  15.051  1.00  0.00     0.133 A 
HETATM    2  N2  UNL     1      48.056  30.889  14.379  1.00  0.00    -0.327 N 
ATOM      3  H2  UNL     1      48.133  30.801  13.366  1.00  0.00     0.168 HD
HETATM    4  C2  UNL     1      47.037  30.283  14.998  1.00  0.00     0.150 A 
HETATM    5  N3  UNL     1      46.069  29.523  14.266  1.00  0.00    -0.080 NA
HETATM    6  C3  UNL     1      46.906  30.386  16.365  1.00  0.00     0.144 A 
HETATM    7  N6  UNL     1      47.812  31.093  17.037  1.00  0.00    -0.341 N 
ATOM      8  H6  UNL     1      47.727  31.175  18.050  1.00  0.00     0.166 HD
HETATM    9  C5  UNL     1      48.859  31.717  16.400  1.00  0.00     0.153 A 
ENDROOT
BRANCH   9  10
HETATM   10  C6  UNL     1      49.803  32.473  17.233  1.00  0.00     0.322 C 
HETATM   11  O2  UNL     1      49.752  33.701  17.313  1.00  0.00    -0.257 OA
BRANCH  10  12
HETATM   12  O3  UNL     1      50.794  31.767  17.961  1.00  0.00    -0.221 OA
BRANCH  12  13
HETATM   13  C7  UNL     1      52.064  31.603  17.417  1.00  0.00     0.386 C 
HETATM   14  O4  UNL     1      52.685  30.560  17.763  1.00  0.00    -0.236 OA
HETATM   15  N7  UNL     1      52.632  32.552  16.525  1.00  0.00    -0.252 N 
ATOM     16  H7  UNL     1      52.107  33.386  16.262  1.00  0.00     0.191 HD
BRANCH  15  17
HETATM   17  N8  UNL     1      53.910  32.338  16.008  1.00  0.00    -0.341 N 
ATOM     18  H82 UNL     1      54.678  32.930  16.324  1.00  0.00     0.177 HD
ATOM     19  H81 UNL     1      54.062  31.598  15.323  1.00  0.00     0.177 HD
ENDBRANCH  15  17
ENDBRANCH  12  13
ENDBRANCH  10  12
ENDBRANCH   9  10
BRANCH   1  20
HETATM   20  N1  UNL     1      49.918  32.154  14.379  1.00  0.00    -0.383 N 
ATOM     21  H12 UNL     1      50.114  31.975  13.394  1.00  0.00     0.157 HD
ATOM     22  H11 UNL     1      50.528  32.824  14.846  1.00  0.00     0.157 HD
ENDBRANCH   1  20
BRANCH   6  23
HETATM   23  C4  UNL     1      45.787  29.723  17.070  1.00  0.00     0.289 C 
HETATM   24  O1  UNL     1      45.694  28.485  16.926  1.00  0.00    -0.264 OA
HETATM   25  N4  UNL     1      44.878  30.469  17.860  1.00  0.00    -0.271 N 
ATOM     26  H4  UNL     1      44.996  31.478  17.946  1.00  0.00     0.189 HD
BRANCH  25  27
HETATM   27  N5  UNL     1      43.828  29.843  18.519  1.00  0.00    -0.342 N 
ATOM     28  H52 UNL     1      43.018  29.547  17.975  1.00  0.00     0.176 HD
ATOM     29  H51 UNL     1      43.865  29.681  19.525  1.00  0.00     0.176 HD
ENDBRANCH  25  27
ENDBRANCH   6  23
TORSDOF 7
ENDMDL
MODEL 2
REMARK VINA RESULT: -7.705857865      1.157      1.240
REMARK  7 active torsions:
REMARK  status: ('A' for Active; 'I' for Inactive)
REMARK    1  A    between atoms: N1_1  and  C1_4 
REMARK    2  A    between atoms: C3_9  and  C4_10 
REMARK       I    between atoms: C4_10  and  N4_12 
REMARK    3  A    between atoms: N4_12  and  N5_14 
REMARK    4  A    between atoms: C5_19  and  C6_20 
REMARK    5  A    between atoms: C6_20  and  O3_22 
REMARK    6  A    between atoms: O3_22  and  C7_23 
REMARK       I    between atoms: C7_23  and  N7_25 
REMARK    7  A    between atoms: N7_25  and  N8_27 
ROOT
HETATM    1  C1  UNL     1      49.171  31.655  15.116  1.00  0.00     0.133 A 
HETATM    2  N2  UNL     1      48.233  30.866  14.482  1.00  0.00    -0.327 N 
ATOM      3  H2  UNL     1      48.380  30.627  13.501  1.00  0.00     0.168 HD
HETATM    4  C2  UNL     1      47.140  30.403  15.096  1.00  0.00     0.150 A 
HETATM    5  N3  UNL     1      46.188  29.586  14.405  1.00  0.00    -0.080 NA
HETATM    6  C3  UNL     1      46.914  30.711  16.420  1.00  0.00     0.144 A 
HETATM    7  N6  UNL     1      47.805  31.470  17.054  1.00  0.00    -0.341 N 
ATOM      8  H6  UNL     1      47.650  31.704  18.034  1.00  0.00     0.166 HD
HETATM    9  C5  UNL     1      48.929  31.947  16.422  1.00  0.00     0.153 A 
ENDROOT
BRANCH   9  10
HETATM   10  C6  UNL     1      49.848  32.776  17.212  1.00  0.00     0.322 C 
HETATM   11  O2  UNL     1      49.476  33.821  17.748  1.00  0.00    -0.257 OA
BRANCH  10  12
HETATM   12  O3  UNL     1      51.196  32.360  17.357  1.00  0.00    -0.221 OA
BRANCH  12  13
HETATM   13  C7  UNL     1      51.476  31.052  17.743  1.00  0.00     0.386 C 
HETATM   14  O4  UNL     1      50.794  30.600  18.705  1.00  0.00    -0.236 OA
HETATM   15  N7  UNL     1      52.469  30.270  17.096  1.00  0.00    -0.252 N 
ATOM     16  H7  UNL     1      53.005  30.662  16.321  1.00  0.00     0.191 HD
BRANCH  15  17
HETATM   17  N8  UNL     1      52.710  28.964  17.523  1.00  0.00    -0.341 N 
ATOM     18  H82 UNL     1      52.423  28.688  18.462  1.00  0.00     0.177 HD
ATOM     19  H81 UNL     1      53.169  28.303  16.896  1.00  0.00     0.177 HD
ENDBRANCH  15  17
ENDBRANCH  12  13
ENDBRANCH  10  12
ENDBRANCH   9  10
BRANCH   1  20
HETATM   20  N1  UNL     1      50.157  32.036  14.452  1.00  0.00    -0.383 N 
ATOM     21  H12 UNL     1      50.946  31.456  14.167  1.00  0.00     0.157 HD
ATOM     22  H11 UNL     1      50.187  33.013  14.161  1.00  0.00     0.157 HD
ENDBRANCH   1  20
BRANCH   6  23
HETATM   23  C4  UNL     1      45.711  30.208  17.118  1.00  0.00     0.289 C 
HETATM   24  O1  UNL     1      45.492  28.981  17.036  1.00  0.00    -0.264 OA
HETATM   25  N4  UNL     1      44.864  31.087  17.837  1.00  0.00    -0.271 N 
ATOM     26  H4  UNL     1      45.086  32.082  17.874  1.00  0.00     0.189 HD
BRANCH  25  27
HETATM   27  N5  UNL     1      43.735  30.611  18.491  1.00  0.00    -0.342 N 
ATOM     28  H52 UNL     1      43.009  30.154  17.941  1.00  0.00     0.176 HD
ATOM     29  H51 UNL     1      43.634  30.715  19.500  1.00  0.00     0.176 HD
ENDBRANCH  25  27
ENDBRANCH   6  23
TORSDOF 7
ENDMDL
MODEL 3
REMARK VINA RESULT: -7.497580952      2.295      5.903
REMARK  7 active torsions:
REMARK  status: ('A' for Active; 'I' for Inactive)
REMARK    1  A    between atoms: N1_1  and  C1_4 
REMARK    2  A    between atoms: C3_9  and  C4_10 
REMARK       I    between atoms: C4_10  and  N4_12 
REMARK    3  A    between atoms: N4_12  and  N5_14 
REMARK    4  A    between atoms: C5_19  and  C6_20 
REMARK    5  A    between atoms: C6_20  and  O3_22 
REMARK    6  A    between atoms: O3_22  and  C7_23 
REMARK       I    between atoms: C7_23  and  N7_25 
REMARK    7  A    between atoms: N7_25  and  N8_27 
ROOT
HETATM    1  C1  UNL     1      48.096  32.784  17.077  1.00  0.00     0.133 A 
HETATM    2  N2  UNL     1      49.200  32.718  17.902  1.00  0.00    -0.327 N 
ATOM      3  H2  UNL     1      49.135  33.123  18.836  1.00  0.00     0.168 HD
HETATM    4  C2  UNL     1      50.351  32.148  17.531  1.00  0.00     0.150 A 
HETATM    5  N3  UNL     1      51.476  32.099  18.416  1.00  0.00    -0.080 NA
HETATM    6  C3  UNL     1      50.468  31.594  16.275  1.00  0.00     0.144 A 
HETATM    7  N6  UNL     1      49.417  31.644  15.460  1.00  0.00    -0.341 N 
ATOM      8  H6  UNL     1      49.491  31.236  14.529  1.00  0.00     0.166 HD
HETATM    9  C5  UNL     1      48.233  32.230  15.842  1.00  0.00     0.153 A 
ENDROOT
BRANCH   9  10
HETATM   10  C6  UNL     1      47.135  32.233  14.868  1.00  0.00     0.322 C 
HETATM   11  O2  UNL     1      47.141  32.982  13.890  1.00  0.00    -0.257 OA
BRANCH  10  12
HETATM   12  O3  UNL     1      46.043  31.349  15.062  1.00  0.00    -0.221 OA
BRANCH  12  13
HETATM   13  C7  UNL     1      46.205  30.216  15.853  1.00  0.00     0.386 C 
HETATM   14  O4  UNL     1      46.767  29.230  15.301  1.00  0.00    -0.236 OA
HETATM   15  N7  UNL     1      45.763  30.168  17.203  1.00  0.00    -0.252 N 
ATOM     16  H7  UNL     1      45.311  30.981  17.623  1.00  0.00     0.191 HD
BRANCH  15  17
HETATM   17  N8  UNL     1      45.950  29.006  17.952  1.00  0.00    -0.341 N 
ATOM     18  H82 UNL     1      45.895  28.101  17.486  1.00  0.00     0.177 HD
ATOM     19  H81 UNL     1      46.138  29.073  18.952  1.00  0.00     0.177 HD
ENDBRANCH  15  17
ENDBRANCH  12  13
ENDBRANCH  10  12
ENDBRANCH   9  10
BRANCH   1  20
HETATM   20  N1  UNL     1      47.070  33.338  17.520  1.00  0.00    -0.383 N 
ATOM     21  H12 UNL     1      46.871  33.531  18.502  1.00  0.00     0.157 HD
ATOM     22  H11 UNL     1      46.358  33.629  16.850  1.00  0.00     0.157 HD
ENDBRANCH   1  20
BRANCH   6  23
HETATM   23  C4  UNL     1      51.732  30.957  15.845  1.00  0.00     0.289 C 
HETATM   24  O1  UNL     1      52.569  31.701  15.290  1.00  0.00    -0.264 OA
HETATM   25  N4  UNL     1      51.963  29.576  16.058  1.00  0.00    -0.271 N 
ATOM     26  H4  UNL     1      51.248  29.011  16.516  1.00  0.00     0.189 HD
BRANCH  25  27
HETATM   27  N5  UNL     1      53.150  28.982  15.652  1.00  0.00    -0.342 N 
ATOM     28  H52 UNL     1      53.312  28.846  14.654  1.00  0.00     0.176 HD
ATOM     29  H51 UNL     1      53.847  28.687  16.335  1.00  0.00     0.176 HD
ENDBRANCH  25  27
ENDBRANCH   6  23
TORSDOF 7
ENDMDL
MODEL 4
REMARK VINA RESULT: -7.122952807      1.908      2.368
REMARK  7 active torsions:
REMARK  status: ('A' for Active; 'I' for Inactive)
REMARK    1  A    between atoms: N1_1  and  C1_4 
REMARK    2  A    between atoms: C3_9  and  C4_10 
REMARK       I    between atoms: C4_10  and  N4_12 
REMARK    3  A    between atoms: N4_12  and  N5_14 
REMARK    4  A    between atoms: C5_19  and  C6_20 
REMARK    5  A    between atoms: C6_20  and  O3_22 
REMARK    6  A    between atoms: O3_22  and  C7_23 
REMARK       I    between atoms: C7_23  and  N7_25 
REMARK    7  A    between atoms: N7_25  and  N8_27 
ROOT
HETATM    1  C1  UNL     1      50.734  31.961  15.530  1.00  0.00     0.133 A 
HETATM    2  N2  UNL     1      49.713  32.014  14.604  1.00  0.00    -0.327 N 
ATOM      3  H2  UNL     1      49.947  32.211  13.631  1.00  0.00     0.168 HD
HETATM    4  C2  UNL     1      48.430  31.819  14.925  1.00  0.00     0.150 A 
HETATM    5  N3  UNL     1      47.397  31.883  13.935  1.00  0.00    -0.080 NA
HETATM    6  C3  UNL     1      48.083  31.553  16.232  1.00  0.00     0.144 A 
HETATM    7  N6  UNL     1      49.050  31.495  17.144  1.00  0.00    -0.341 N 
ATOM      8  H6  UNL     1      48.807  31.297  18.115  1.00  0.00     0.166 HD
HETATM    9  C5  UNL     1      50.370  31.695  16.813  1.00  0.00     0.153 A 
ENDROOT
BRANCH   9  10
HETATM   10  C6  UNL     1      51.359  31.611  17.895  1.00  0.00     0.322 C 
HETATM   11  O2  UNL     1      51.240  32.267  18.931  1.00  0.00    -0.257 OA
BRANCH  10  12
HETATM   12  O3  UNL     1      52.475  30.750  17.739  1.00  0.00    -0.221 OA
BRANCH  12  13
HETATM   13  C7  UNL     1      52.299  29.484  17.190  1.00  0.00     0.386 C 
HETATM   14  O4  UNL     1      51.977  28.569  17.999  1.00  0.00    -0.236 OA
HETATM   15  N7  UNL     1      52.469  29.231  15.803  1.00  0.00    -0.252 N 
ATOM     16  H7  UNL     1      52.729  29.991  15.172  1.00  0.00     0.191 HD
BRANCH  15  17
HETATM   17  N8  UNL     1      52.280  27.942  15.304  1.00  0.00    -0.341 N 
ATOM     18  H82 UNL     1      53.041  27.267  15.373  1.00  0.00     0.177 HD
ATOM     19  H81 UNL     1      51.388  27.689  14.880  1.00  0.00     0.177 HD
ENDBRANCH  15  17
ENDBRANCH  12  13
ENDBRANCH  10  12
ENDBRANCH   9  10
BRANCH   1  20
HETATM   20  N1  UNL     1      51.898  32.157  15.126  1.00  0.00    -0.383 N 
ATOM     21  H12 UNL     1      52.243  31.974  14.183  1.00  0.00     0.157 HD
ATOM     22  H11 UNL     1      52.575  32.535  15.788  1.00  0.00     0.157 HD
ENDBRANCH   1  20
BRANCH   6  23
HETATM   23  C4  UNL     1      46.670  31.334  16.609  1.00  0.00     0.289 C 
HETATM   24  O1  UNL     1      46.137  30.287  16.185  1.00  0.00    -0.264 OA
HETATM   25  N4  UNL     1      45.974  32.274  17.409  1.00  0.00    -0.271 N 
ATOM     26  H4  UNL     1      46.454  33.114  17.731  1.00  0.00     0.189 HD
BRANCH  25  27
HETATM   27  N5  UNL     1      44.648  32.065  17.761  1.00  0.00    -0.342 N 
ATOM     28  H52 UNL     1      44.231  31.153  17.573  1.00  0.00     0.176 HD
ATOM     29  H51 UNL     1      44.100  32.806  18.197  1.00  0.00     0.176 HD
ENDBRANCH  25  27
ENDBRANCH   6  23
TORSDOF 7
ENDMDL
MODEL 5
REMARK VINA RESULT: -7.075520858      2.256      6.139
REMARK  7 active torsions:
REMARK  status: ('A' for Active; 'I' for Inactive)
REMARK    1  A    between atoms: N1_1  and  C1_4 
REMARK    2  A    between atoms: C3_9  and  C4_10 
REMARK       I    between atoms: C4_10  and  N4_12 
REMARK    3  A    between atoms: N4_12  and  N5_14 
REMARK    4  A    between atoms: C5_19  and  C6_20 
REMARK    5  A    between atoms: C6_20  and  O3_22 
REMARK    6  A    between atoms: O3_22  and  C7_23 
REMARK       I    between atoms: C7_23  and  N7_25 
REMARK    7  A    between atoms: N7_25  and  N8_27 
ROOT
HETATM    1  C1  UNL     1      48.249  32.353  16.653  1.00  0.00     0.133 A 
HETATM    2  N2  UNL     1      49.184  32.416  17.665  1.00  0.00    -0.327 N 
ATOM      3  H2  UNL     1      48.869  32.647  18.608  1.00  0.00     0.168 HD
HETATM    4  C2  UNL     1      50.486  32.188  17.466  1.00  0.00     0.150 A 
HETATM    5  N3  UNL     1      51.428  32.262  18.542  1.00  0.00    -0.080 NA
HETATM    6  C3  UNL     1      50.942  31.876  16.203  1.00  0.00     0.144 A 
HETATM    7  N6  UNL     1      50.059  31.809  15.210  1.00  0.00    -0.341 N 
ATOM      8  H6  UNL     1      50.384  31.577  14.271  1.00  0.00     0.166 HD
HETATM    9  C5  UNL     1      48.720  32.043  15.415  1.00  0.00     0.153 A 
ENDROOT
BRANCH   9  10
HETATM   10  C6  UNL     1      47.830  31.944  14.252  1.00  0.00     0.322 C 
HETATM   11  O2  UNL     1      47.255  32.932  13.793  1.00  0.00    -0.257 OA
BRANCH  10  12
HETATM   12  O3  UNL     1      47.630  30.678  13.646  1.00  0.00    -0.221 OA
BRANCH  12  13
HETATM   13  C7  UNL     1      47.305  29.579  14.435  1.00  0.00     0.386 C 
HETATM   14  O4  UNL     1      47.983  28.533  14.234  1.00  0.00    -0.236 OA
HETATM   15  N7  UNL     1      46.273  29.627  15.410  1.00  0.00    -0.252 N 
ATOM     16  H7  UNL     1      45.741  30.487  15.550  1.00  0.00     0.191 HD
BRANCH  15  17
HETATM   17  N8  UNL     1      45.987  28.496  16.174  1.00  0.00    -0.341 N 
ATOM     18  H82 UNL     1      46.570  28.284  16.984  1.00  0.00     0.177 HD
ATOM     19  H81 UNL     1      45.204  27.895  15.917  1.00  0.00     0.177 HD
ENDBRANCH  15  17
ENDBRANCH  12  13
ENDBRANCH  10  12
ENDBRANCH   9  10
BRANCH   1  20
HETATM   20  N1  UNL     1      47.058  32.583  16.946  1.00  0.00    -0.383 N 
ATOM     21  H12 UNL     1      46.609  32.369  17.837  1.00  0.00     0.157 HD
ATOM     22  H11 UNL     1      46.470  33.025  16.239  1.00  0.00     0.157 HD
ENDBRANCH   1  20
BRANCH   6  23
HETATM   23  C4  UNL     1      52.379  31.619  15.961  1.00  0.00     0.289 C 
HETATM   24  O1  UNL     1      52.701  30.435  15.727  1.00  0.00    -0.264 OA
HETATM   25  N4  UNL     1      53.324  32.674  15.996  1.00  0.00    -0.271 N 
ATOM     26  H4  UNL     1      53.011  33.624  16.192  1.00  0.00     0.189 HD
BRANCH  25  27
HETATM   27  N5  UNL     1      54.672  32.429  15.769  1.00  0.00    -0.342 N 
ATOM     28  H52 UNL     1      55.351  32.766  16.450  1.00  0.00     0.176 HD
ATOM     29  H51 UNL     1      54.978  31.923  14.938  1.00  0.00     0.176 HD
ENDBRANCH  25  27
ENDBRANCH   6  23
TORSDOF 7
ENDMDL
