MODEL 1
REMARK VINA RESULT: -7.378045122      0.000      0.000
REMARK  11 active torsions:
REMARK  status: ('A' for Active; 'I' for Inactive)
REMARK    1  A    between atoms: C2_2  and  C3_3 
REMARK    2  A    between atoms: C3_3  and  C4_4 
REMARK    3  A    between atoms: C4_4  and  C5_5 
REMARK    4  A    between atoms: C5_5  and  O2_7 
REMARK    5  A    between atoms: O2_7  and  C6_8 
REMARK    6  A    between atoms: C12_14  and  O3_15 
REMARK    7  A    between atoms: C14_19  and  O5_21 
REMARK    8  A    between atoms: O5_21  and  C16_22 
REMARK    9  A    between atoms: C20_27  and  O7_28 
REMARK   10  A    between atoms: C23_33  and  O9_34 
REMARK   11  A    between atoms: O9_34  and  C24_35 
ROOT
HETATM    1  C6  UNL     1       2.270  22.604  22.510  1.00  0.00     0.205 C 
HETATM    2  C7  UNL     1       3.736  22.457  22.752  1.00  0.00     0.017 A 
HETATM    3  C8  UNL     1       4.545  23.381  23.350  1.00  0.00    -0.017 A 
HETATM    4  C9  UNL     1       5.881  23.077  23.491  1.00  0.00     0.023 A 
HETATM    5  C10 UNL     1       6.367  21.869  23.038  1.00  0.00    -0.019 A 
HETATM    6  C11 UNL     1       5.566  20.911  22.428  1.00  0.00     0.057 A 
HETATM    7  C12 UNL     1       4.219  21.216  22.283  1.00  0.00     0.090 A 
HETATM    8  C13 UNL     1       6.133  19.657  21.968  1.00  0.00     0.201 A 
HETATM    9  O4  UNL     1       5.427  18.790  21.415  1.00  0.00    -0.288 OA
HETATM   10  C14 UNL     1       7.565  19.350  22.132  1.00  0.00     0.150 A 
HETATM   11  C15 UNL     1       7.639  18.151  23.087  1.00  0.00     0.060 C 
HETATM   12  C18 UNL     1       8.319  20.440  22.794  1.00  0.00     0.020 A 
HETATM   13  C19 UNL     1       7.780  21.560  23.194  1.00  0.00     0.012 A 
HETATM   14  C20 UNL     1       4.236  24.737  23.910  1.00  0.00     0.159 C 
HETATM   15  C21 UNL     1       3.565  25.643  22.916  1.00  0.00     0.117 C 
HETATM   16  C22 UNL     1       3.133  24.808  21.766  1.00  0.00     0.161 C 
HETATM   17  O8  UNL     1       3.806  24.978  20.770  1.00  0.00    -0.295 OA
HETATM   18  C23 UNL     1       2.024  23.825  21.669  1.00  0.00     0.235 C 
ENDROOT
BRANCH   1  19
HETATM   19  O2  UNL     1       1.566  22.718  23.711  1.00  0.00    -0.308 OA
BRANCH  19  20
HETATM   20  C5  UNL     1       0.382  23.427  23.839  1.00  0.00     0.259 C 
HETATM   21  O1  UNL     1       0.412  24.545  24.407  1.00  0.00    -0.265 OA
BRANCH  20  22
HETATM   22  C4  UNL     1      -0.910  22.941  23.346  1.00  0.00     0.111 C 
BRANCH  22  23
HETATM   23  C3  UNL     1      -1.879  24.039  22.986  1.00  0.00     0.009 C 
BRANCH  23  24
HETATM   24  C2  UNL     1      -1.819  24.176  21.460  1.00  0.00    -0.004 C 
HETATM   25  C1  UNL     1      -1.287  25.541  21.088  1.00  0.00     0.005 C 
ENDBRANCH  23  24
ENDBRANCH  22  23
ENDBRANCH  20  22
ENDBRANCH  19  20
ENDBRANCH   1  19
BRANCH  18  26
HETATM   26  O9  UNL     1       1.720  23.505  20.326  1.00  0.00    -0.306 OA
BRANCH  26  27
HETATM   27  C24 UNL     1       1.451  22.220  19.882  1.00  0.00     0.255 C 
HETATM   28  C25 UNL     1       0.124  21.569  20.053  1.00  0.00     0.126 C 
HETATM   29  O10 UNL     1       2.417  21.629  19.315  1.00  0.00    -0.266 OA
ENDBRANCH  26  27
ENDBRANCH  18  26
BRANCH   7  30
HETATM   30  O3  UNL     1       3.329  20.368  21.705  1.00  0.00    -0.359 OA
ATOM     31  H3  UNL     1       3.155  19.543  22.142  1.00  0.00     0.217 HD
ENDBRANCH   7  30
BRANCH  14  32
HETATM   32  O7  UNL     1       3.402  24.538  25.036  1.00  0.00    -0.390 OA
ATOM     33  H7  UNL     1       2.788  25.263  25.057  1.00  0.00     0.210 HD
ENDBRANCH  14  32
BRANCH  10  34
HETATM   34  O5  UNL     1       8.171  18.919  20.931  1.00  0.00    -0.298 OA
BRANCH  34  35
HETATM   35  C16 UNL     1       8.507  19.759  19.890  1.00  0.00     0.256 C 
HETATM   36  C17 UNL     1       9.864  20.350  19.734  1.00  0.00     0.126 C 
HETATM   37  O6  UNL     1       7.612  20.026  19.045  1.00  0.00    -0.266 OA
ENDBRANCH  34  35
ENDBRANCH  10  34
TORSDOF 11
ENDMDL
MODEL 2
REMARK VINA RESULT: -7.307520703      0.745      1.106
REMARK  11 active torsions:
REMARK  status: ('A' for Active; 'I' for Inactive)
REMARK    1  A    between atoms: C2_2  and  C3_3 
REMARK    2  A    between atoms: C3_3  and  C4_4 
REMARK    3  A    between atoms: C4_4  and  C5_5 
REMARK    4  A    between atoms: C5_5  and  O2_7 
REMARK    5  A    between atoms: O2_7  and  C6_8 
REMARK    6  A    between atoms: C12_14  and  O3_15 
REMARK    7  A    between atoms: C14_19  and  O5_21 
REMARK    8  A    between atoms: O5_21  and  C16_22 
REMARK    9  A    between atoms: C20_27  and  O7_28 
REMARK   10  A    between atoms: C23_33  and  O9_34 
REMARK   11  A    between atoms: O9_34  and  C24_35 
ROOT
HETATM    1  C6  UNL     1       2.274  22.586  22.519  1.00  0.00     0.205 C 
HETATM    2  C7  UNL     1       3.743  22.441  22.745  1.00  0.00     0.017 A 
HETATM    3  C8  UNL     1       4.561  23.374  23.315  1.00  0.00    -0.017 A 
HETATM    4  C9  UNL     1       5.898  23.069  23.444  1.00  0.00     0.023 A 
HETATM    5  C10 UNL     1       6.376  21.854  23.004  1.00  0.00    -0.019 A 
HETATM    6  C11 UNL     1       5.566  20.887  22.421  1.00  0.00     0.057 A 
HETATM    7  C12 UNL     1       4.217  21.191  22.290  1.00  0.00     0.090 A 
HETATM    8  C13 UNL     1       6.125  19.624  21.976  1.00  0.00     0.201 A 
HETATM    9  O4  UNL     1       5.410  18.749  21.446  1.00  0.00    -0.288 OA
HETATM   10  C14 UNL     1       7.559  19.318  22.126  1.00  0.00     0.150 A 
HETATM   11  C15 UNL     1       7.644  18.134  23.100  1.00  0.00     0.060 C 
HETATM   12  C18 UNL     1       8.323  20.417  22.758  1.00  0.00     0.020 A 
HETATM   13  C19 UNL     1       7.791  21.544  23.147  1.00  0.00     0.012 A 
HETATM   14  C20 UNL     1       4.262  24.739  23.857  1.00  0.00     0.159 C 
HETATM   15  C21 UNL     1       3.578  25.629  22.857  1.00  0.00     0.117 C 
HETATM   16  C22 UNL     1       3.130  24.776  21.727  1.00  0.00     0.161 C 
HETATM   17  O8  UNL     1       3.790  24.928  20.719  1.00  0.00    -0.295 OA
HETATM   18  C23 UNL     1       2.018  23.794  21.661  1.00  0.00     0.235 C 
ENDROOT
BRANCH   1  19
HETATM   19  O2  UNL     1       1.586  22.722  23.727  1.00  0.00    -0.308 OA
BRANCH  19  20
HETATM   20  C5  UNL     1       0.371  23.378  23.847  1.00  0.00     0.259 C 
HETATM   21  O1  UNL     1       0.361  24.537  24.325  1.00  0.00    -0.265 OA
BRANCH  20  22
HETATM   22  C4  UNL     1      -0.909  22.789  23.444  1.00  0.00     0.111 C 
BRANCH  22  23
HETATM   23  C3  UNL     1      -1.855  23.768  22.796  1.00  0.00     0.009 C 
BRANCH  23  24
HETATM   24  C2  UNL     1      -2.666  22.964  21.773  1.00  0.00    -0.004 C 
HETATM   25  C1  UNL     1      -2.281  21.504  21.847  1.00  0.00     0.005 C 
ENDBRANCH  23  24
ENDBRANCH  22  23
ENDBRANCH  20  22
ENDBRANCH  19  20
ENDBRANCH   1  19
BRANCH  18  26
HETATM   26  O9  UNL     1       1.695  23.452  20.329  1.00  0.00    -0.306 OA
BRANCH  26  27
HETATM   27  C24 UNL     1       0.454  23.676  19.754  1.00  0.00     0.255 C 
HETATM   28  C25 UNL     1      -0.240  22.662  18.914  1.00  0.00     0.126 C 
HETATM   29  O10 UNL     1      -0.056  24.810  19.990  1.00  0.00    -0.266 OA
ENDBRANCH  26  27
ENDBRANCH  18  26
BRANCH   7  30
HETATM   30  O3  UNL     1       3.319  20.335  21.738  1.00  0.00    -0.359 OA
ATOM     31  H3  UNL     1       3.518  19.407  21.762  1.00  0.00     0.217 HD
ENDBRANCH   7  30
BRANCH  14  32
HETATM   32  O7  UNL     1       3.443  24.561  24.997  1.00  0.00    -0.390 OA
ATOM     33  H7  UNL     1       2.920  23.782  24.843  1.00  0.00     0.210 HD
ENDBRANCH  14  32
BRANCH  10  34
HETATM   34  O5  UNL     1       8.147  18.865  20.924  1.00  0.00    -0.298 OA
BRANCH  34  35
HETATM   35  C16 UNL     1       8.478  19.688  19.867  1.00  0.00     0.256 C 
HETATM   36  C17 UNL     1       9.821  20.312  19.719  1.00  0.00     0.126 C 
HETATM   37  O6  UNL     1       7.590  19.910  19.001  1.00  0.00    -0.266 OA
ENDBRANCH  34  35
ENDBRANCH  10  34
TORSDOF 11
ENDMDL
MODEL 3
REMARK VINA RESULT: -7.227454547      2.203      8.077
REMARK  11 active torsions:
REMARK  status: ('A' for Active; 'I' for Inactive)
REMARK    1  A    between atoms: C2_2  and  C3_3 
REMARK    2  A    between atoms: C3_3  and  C4_4 
REMARK    3  A    between atoms: C4_4  and  C5_5 
REMARK    4  A    between atoms: C5_5  and  O2_7 
REMARK    5  A    between atoms: O2_7  and  C6_8 
REMARK    6  A    between atoms: C12_14  and  O3_15 
REMARK    7  A    between atoms: C14_19  and  O5_21 
REMARK    8  A    between atoms: O5_21  and  C16_22 
REMARK    9  A    between atoms: C20_27  and  O7_28 
REMARK   10  A    between atoms: C23_33  and  O9_34 
REMARK   11  A    between atoms: O9_34  and  C24_35 
ROOT
HETATM    1  C6  UNL     1       3.841  20.570  21.385  1.00  0.00     0.205 C 
HETATM    2  C7  UNL     1       2.736  21.343  20.743  1.00  0.00     0.017 A 
HETATM    3  C8  UNL     1       2.847  22.119  19.625  1.00  0.00    -0.017 A 
HETATM    4  C9  UNL     1       1.719  22.766  19.172  1.00  0.00     0.023 A 
HETATM    5  C10 UNL     1       0.522  22.620  19.840  1.00  0.00    -0.019 A 
HETATM    6  C11 UNL     1       0.382  21.836  20.979  1.00  0.00     0.057 A 
HETATM    7  C12 UNL     1       1.518  21.183  21.439  1.00  0.00     0.090 A 
HETATM    8  C13 UNL     1      -0.904  21.720  21.642  1.00  0.00     0.201 A 
HETATM    9  O4  UNL     1      -1.044  21.024  22.668  1.00  0.00    -0.288 OA
HETATM   10  C14 UNL     1      -2.100  22.418  21.138  1.00  0.00     0.150 A 
HETATM   11  C15 UNL     1      -3.085  21.322  20.708  1.00  0.00     0.060 C 
HETATM   12  C18 UNL     1      -1.833  23.220  19.923  1.00  0.00     0.020 A 
HETATM   13  C19 UNL     1      -0.663  23.307  19.349  1.00  0.00     0.012 A 
HETATM   14  C20 UNL     1       4.029  22.416  18.752  1.00  0.00     0.159 C 
HETATM   15  C21 UNL     1       5.200  22.966  19.518  1.00  0.00     0.117 C 
HETATM   16  C22 UNL     1       4.930  22.759  20.963  1.00  0.00     0.161 C 
HETATM   17  O8  UNL     1       4.654  23.784  21.553  1.00  0.00    -0.295 OA
HETATM   18  C23 UNL     1       4.952  21.508  21.764  1.00  0.00     0.235 C 
ENDROOT
BRANCH   1  19
HETATM   19  O2  UNL     1       4.337  19.587  20.526  1.00  0.00    -0.308 OA
BRANCH  19  20
HETATM   20  C5  UNL     1       5.625  19.082  20.604  1.00  0.00     0.259 C 
HETATM   21  O1  UNL     1       5.958  18.444  21.630  1.00  0.00    -0.265 OA
BRANCH  20  22
HETATM   22  C4  UNL     1       6.626  19.253  19.547  1.00  0.00     0.111 C 
BRANCH  22  23
HETATM   23  C3  UNL     1       7.989  18.715  19.903  1.00  0.00     0.009 C 
BRANCH  23  24
HETATM   24  C2  UNL     1       8.986  19.838  19.591  1.00  0.00    -0.004 C 
HETATM   25  C1  UNL     1       9.428  20.502  20.875  1.00  0.00     0.005 C 
ENDBRANCH  23  24
ENDBRANCH  22  23
ENDBRANCH  20  22
ENDBRANCH  19  20
ENDBRANCH   1  19
BRANCH  18  26
HETATM   26  O9  UNL     1       4.987  21.772  23.152  1.00  0.00    -0.306 OA
BRANCH  26  27
HETATM   27  C24 UNL     1       6.157  21.936  23.877  1.00  0.00     0.255 C 
HETATM   28  C25 UNL     1       6.393  23.100  24.773  1.00  0.00     0.126 C 
HETATM   29  O10 UNL     1       7.021  21.023  23.726  1.00  0.00    -0.266 OA
ENDBRANCH  26  27
ENDBRANCH  18  26
BRANCH   7  30
HETATM   30  O3  UNL     1       1.516  20.388  22.540  1.00  0.00    -0.359 OA
ATOM     31  H3  UNL     1       0.709  20.319  23.036  1.00  0.00     0.217 HD
ENDBRANCH   7  30
BRANCH  14  32
HETATM   32  O7  UNL     1       4.385  21.205  18.113  1.00  0.00    -0.390 OA
ATOM     33  H7  UNL     1       4.571  21.415  17.205  1.00  0.00     0.210 HD
ENDBRANCH  14  32
BRANCH  10  34
HETATM   34  O5  UNL     1      -2.765  23.154  22.144  1.00  0.00    -0.298 OA
BRANCH  34  35
HETATM   35  C16 UNL     1      -2.525  24.486  22.412  1.00  0.00     0.256 C 
HETATM   36  C17 UNL     1      -3.523  25.557  22.142  1.00  0.00     0.126 C 
HETATM   37  O6  UNL     1      -1.407  24.788  22.907  1.00  0.00    -0.266 OA
ENDBRANCH  34  35
ENDBRANCH  10  34
TORSDOF 11
ENDMDL
MODEL 4
REMARK VINA RESULT: -7.181809968      1.104      1.286
REMARK  11 active torsions:
REMARK  status: ('A' for Active; 'I' for Inactive)
REMARK    1  A    between atoms: C2_2  and  C3_3 
REMARK    2  A    between atoms: C3_3  and  C4_4 
REMARK    3  A    between atoms: C4_4  and  C5_5 
REMARK    4  A    between atoms: C5_5  and  O2_7 
REMARK    5  A    between atoms: O2_7  and  C6_8 
REMARK    6  A    between atoms: C12_14  and  O3_15 
REMARK    7  A    between atoms: C14_19  and  O5_21 
REMARK    8  A    between atoms: O5_21  and  C16_22 
REMARK    9  A    between atoms: C20_27  and  O7_28 
REMARK   10  A    between atoms: C23_33  and  O9_34 
REMARK   11  A    between atoms: O9_34  and  C24_35 
ROOT
HETATM    1  C6  UNL     1       1.687  21.721  21.735  1.00  0.00     0.205 C 
HETATM    2  C7  UNL     1       3.107  21.777  22.196  1.00  0.00     0.017 A 
HETATM    3  C8  UNL     1       3.671  22.783  22.928  1.00  0.00    -0.017 A 
HETATM    4  C9  UNL     1       5.001  22.670  23.265  1.00  0.00     0.023 A 
HETATM    5  C10 UNL     1       5.725  21.566  22.866  1.00  0.00    -0.019 A 
HETATM    6  C11 UNL     1       5.175  20.529  22.122  1.00  0.00     0.057 A 
HETATM    7  C12 UNL     1       3.834  20.641  21.780  1.00  0.00     0.090 A 
HETATM    8  C13 UNL     1       5.986  19.392  21.729  1.00  0.00     0.201 A 
HETATM    9  O4  UNL     1       5.507  18.456  21.056  1.00  0.00    -0.288 OA
HETATM   10  C14 UNL     1       7.407  19.289  22.103  1.00  0.00     0.150 A 
HETATM   11  C15 UNL     1       7.519  18.073  23.033  1.00  0.00     0.060 C 
HETATM   12  C18 UNL     1       7.883  20.447  22.894  1.00  0.00     0.020 A 
HETATM   13  C19 UNL     1       7.129  21.458  23.230  1.00  0.00     0.012 A 
HETATM   14  C20 UNL     1       3.083  24.054  23.463  1.00  0.00     0.159 C 
HETATM   15  C21 UNL     1       2.438  24.895  22.396  1.00  0.00     0.117 C 
HETATM   16  C22 UNL     1       2.311  24.057  21.177  1.00  0.00     0.161 C 
HETATM   17  O8  UNL     1       3.091  24.364  20.299  1.00  0.00    -0.295 OA
HETATM   18  C23 UNL     1       1.388  22.928  20.892  1.00  0.00     0.235 C 
ENDROOT
BRANCH   1  19
HETATM   19  O2  UNL     1       0.804  21.679  22.817  1.00  0.00    -0.308 OA
BRANCH  19  20
HETATM   20  C5  UNL     1      -0.538  22.008  22.721  1.00  0.00     0.259 C 
HETATM   21  O1  UNL     1      -1.347  21.126  22.347  1.00  0.00    -0.265 OA
BRANCH  20  22
HETATM   22  C4  UNL     1      -1.069  23.338  23.035  1.00  0.00     0.111 C 
BRANCH  22  23
HETATM   23  C3  UNL     1      -2.094  23.835  22.046  1.00  0.00     0.009 C 
BRANCH  23  24
HETATM   24  C2  UNL     1      -1.488  25.083  21.394  1.00  0.00    -0.004 C 
HETATM   25  C1  UNL     1      -1.487  24.927  19.890  1.00  0.00     0.005 C 
ENDBRANCH  23  24
ENDBRANCH  22  23
ENDBRANCH  20  22
ENDBRANCH  19  20
ENDBRANCH   1  19
BRANCH  18  26
HETATM   26  O9  UNL     1       1.337  22.625  19.513  1.00  0.00    -0.306 OA
BRANCH  26  27
HETATM   27  C24 UNL     1       0.773  21.468  18.997  1.00  0.00     0.255 C 
HETATM   28  C25 UNL     1      -0.698  21.261  18.904  1.00  0.00     0.126 C 
HETATM   29  O10 UNL     1       1.597  20.590  18.608  1.00  0.00    -0.266 OA
ENDBRANCH  26  27
ENDBRANCH  18  26
BRANCH   7  30
HETATM   30  O3  UNL     1       3.177  19.699  21.056  1.00  0.00    -0.359 OA
ATOM     31  H3  UNL     1       2.454  19.984  20.510  1.00  0.00     0.217 HD
ENDBRANCH   7  30
BRANCH  14  32
HETATM   32  O7  UNL     1       2.131  23.688  24.443  1.00  0.00    -0.390 OA
ATOM     33  H7  UNL     1       2.321  24.204  25.219  1.00  0.00     0.210 HD
ENDBRANCH  14  32
BRANCH  10  34
HETATM   34  O5  UNL     1       8.241  19.002  20.999  1.00  0.00    -0.298 OA
BRANCH  34  35
HETATM   35  C16 UNL     1       8.621  19.932  20.055  1.00  0.00     0.256 C 
HETATM   36  C17 UNL     1       9.926  20.646  20.102  1.00  0.00     0.126 C 
HETATM   37  O6  UNL     1       7.813  20.175  19.119  1.00  0.00    -0.266 OA
ENDBRANCH  34  35
ENDBRANCH  10  34
TORSDOF 11
ENDMDL
MODEL 5
REMARK VINA RESULT: -7.060716149      1.685      2.172
REMARK  11 active torsions:
REMARK  status: ('A' for Active; 'I' for Inactive)
REMARK    1  A    between atoms: C2_2  and  C3_3 
REMARK    2  A    between atoms: C3_3  and  C4_4 
REMARK    3  A    between atoms: C4_4  and  C5_5 
REMARK    4  A    between atoms: C5_5  and  O2_7 
REMARK    5  A    between atoms: O2_7  and  C6_8 
REMARK    6  A    between atoms: C12_14  and  O3_15 
REMARK    7  A    between atoms: C14_19  and  O5_21 
REMARK    8  A    between atoms: O5_21  and  C16_22 
REMARK    9  A    between atoms: C20_27  and  O7_28 
REMARK   10  A    between atoms: C23_33  and  O9_34 
REMARK   11  A    between atoms: O9_34  and  C24_35 
ROOT
HETATM    1  C6  UNL     1       1.314  21.390  21.498  1.00  0.00     0.205 C 
HETATM    2  C7  UNL     1       2.708  21.510  22.019  1.00  0.00     0.017 A 
HETATM    3  C8  UNL     1       3.177  22.507  22.827  1.00  0.00    -0.017 A 
HETATM    4  C9  UNL     1       4.498  22.459  23.212  1.00  0.00     0.023 A 
HETATM    5  C10 UNL     1       5.307  21.427  22.785  1.00  0.00    -0.019 A 
HETATM    6  C11 UNL     1       4.855  20.401  21.964  1.00  0.00     0.057 A 
HETATM    7  C12 UNL     1       3.523  20.447  21.573  1.00  0.00     0.090 A 
HETATM    8  C13 UNL     1       5.752  19.341  21.544  1.00  0.00     0.201 A 
HETATM    9  O4  UNL     1       5.362  18.416  20.803  1.00  0.00    -0.288 OA
HETATM   10  C14 UNL     1       7.163  19.308  21.971  1.00  0.00     0.150 A 
HETATM   11  C15 UNL     1       7.318  18.051  22.838  1.00  0.00     0.060 C 
HETATM   12  C18 UNL     1       7.532  20.447  22.841  1.00  0.00     0.020 A 
HETATM   13  C19 UNL     1       6.701  21.388  23.200  1.00  0.00     0.012 A 
HETATM   14  C20 UNL     1       2.487  23.706  23.404  1.00  0.00     0.159 C 
HETATM   15  C21 UNL     1       1.829  24.563  22.359  1.00  0.00     0.117 C 
HETATM   16  C22 UNL     1       1.804  23.788  21.092  1.00  0.00     0.161 C 
HETATM   17  O8  UNL     1       2.594  24.194  20.264  1.00  0.00    -0.295 OA
HETATM   18  C23 UNL     1       0.968  22.621  20.708  1.00  0.00     0.235 C 
ENDROOT
BRANCH   1  19
HETATM   19  O2  UNL     1       0.395  21.232  22.538  1.00  0.00    -0.308 OA
BRANCH  19  20
HETATM   20  C5  UNL     1      -0.875  21.786  22.527  1.00  0.00     0.259 C 
HETATM   21  O1  UNL     1      -1.082  22.824  23.199  1.00  0.00    -0.265 OA
BRANCH  20  22
HETATM   22  C4  UNL     1      -1.997  21.222  21.771  1.00  0.00     0.111 C 
BRANCH  22  23
HETATM   23  C3  UNL     1      -3.332  21.370  22.456  1.00  0.00     0.009 C 
BRANCH  23  24
HETATM   24  C2  UNL     1      -3.804  19.948  22.780  1.00  0.00    -0.004 C 
HETATM   25  C1  UNL     1      -3.963  19.789  24.275  1.00  0.00     0.005 C 
ENDBRANCH  23  24
ENDBRANCH  22  23
ENDBRANCH  20  22
ENDBRANCH  19  20
ENDBRANCH   1  19
BRANCH  18  26
HETATM   26  O9  UNL     1       0.989  22.394  19.314  1.00  0.00    -0.306 OA
BRANCH  26  27
HETATM   27  C24 UNL     1       0.638  21.190  18.723  1.00  0.00     0.255 C 
HETATM   28  C25 UNL     1      -0.776  20.797  18.473  1.00  0.00     0.126 C 
HETATM   29  O10 UNL     1       1.606  20.438  18.407  1.00  0.00    -0.266 OA
ENDBRANCH  26  27
ENDBRANCH  18  26
BRANCH   7  30
HETATM   30  O3  UNL     1       2.957  19.507  20.773  1.00  0.00    -0.359 OA
ATOM     31  H3  UNL     1       3.454  18.717  20.596  1.00  0.00     0.217 HD
ENDBRANCH   7  30
BRANCH  14  32
HETATM   32  O7  UNL     1       1.525  23.226  24.323  1.00  0.00    -0.390 OA
ATOM     33  H7  UNL     1       1.782  23.541  25.183  1.00  0.00     0.210 HD
ENDBRANCH  14  32
BRANCH  10  34
HETATM   34  O5  UNL     1       8.055  19.136  20.889  1.00  0.00    -0.298 OA
BRANCH  34  35
HETATM   35  C16 UNL     1       8.508  20.166  20.090  1.00  0.00     0.256 C 
HETATM   36  C17 UNL     1       9.836  20.811  20.280  1.00  0.00     0.126 C 
HETATM   37  O6  UNL     1       7.750  20.564  19.166  1.00  0.00    -0.266 OA
ENDBRANCH  34  35
ENDBRANCH  10  34
TORSDOF 11
ENDMDL
