MODEL 1
REMARK VINA RESULT: -7.530238835      0.000      0.000
REMARK  6 active torsions:
REMARK  status: ('A' for Active; 'I' for Inactive)
REMARK    1  A    between atoms: C7_9  and  O3_10 
REMARK    2  A    between atoms: N1_12  and  C8_13 
REMARK    3  A    between atoms: C11_17  and  O5_18 
REMARK    4  A    between atoms: C12_20  and  S1_21 
REMARK    5  A    between atoms: S1_21  and  C13_22 
REMARK    6  A    between atoms: C15_24  and  O6_25 
ROOT
HETATM    1  C1  UNL     1      34.042 -11.872  36.693  1.00  0.00     0.028 C 
HETATM    2  C2  UNL     1      34.869 -12.758  36.231  1.00  0.00     0.020 C 
HETATM    3  C3  UNL     1      35.708 -13.539  37.172  1.00  0.00     0.183 C 
HETATM    4  O1  UNL     1      36.019 -13.066  38.291  1.00  0.00    -0.290 OA
HETATM    5  C4  UNL     1      36.133 -14.894  36.680  1.00  0.00     0.259 C 
HETATM    6  O2  UNL     1      36.705 -14.727  35.375  1.00  0.00    -0.338 OA
HETATM    7  C5  UNL     1      35.937 -14.036  34.428  1.00  0.00     0.136 A 
HETATM    8  C6  UNL     1      35.035 -13.068  34.823  1.00  0.00     0.066 A 
HETATM    9  C7  UNL     1      34.395 -12.541  33.702  1.00  0.00     0.163 A 
HETATM   10  N1  UNL     1      34.888 -13.167  32.643  1.00  0.00    -0.265 N 
HETATM   11  C15 UNL     1      35.829 -14.078  33.063  1.00  0.00     0.184 A 
ENDROOT
BRANCH  10  12
HETATM   12  C8  UNL     1      34.582 -13.095  31.247  1.00  0.00     0.095 A 
HETATM   13  C9  UNL     1      34.986 -12.040  30.397  1.00  0.00     0.081 A 
HETATM   14  C10 UNL     1      35.822 -10.914  30.901  1.00  0.00     0.079 C 
HETATM   15  O4  UNL     1      34.506 -12.259  29.191  1.00  0.00    -0.289 OA
HETATM   16  C11 UNL     1      33.822 -13.354  29.154  1.00  0.00     0.203 A 
HETATM   17  C12 UNL     1      33.851 -13.904  30.427  1.00  0.00     0.088 A 
BRANCH  16  18
HETATM   18  O5  UNL     1      33.142 -13.932  28.057  1.00  0.00    -0.340 OA
ATOM     19  H5  UNL     1      32.923 -14.845  27.910  1.00  0.00     0.220 HD
ENDBRANCH  16  18
BRANCH  17  20
HETATM   20  S1  UNL     1      33.106 -15.473  30.876  1.00  0.00    -0.123 SA
BRANCH  20  21
HETATM   21  C13 UNL     1      34.226 -16.833  30.377  1.00  0.00     0.075 C 
HETATM   22  C14 UNL     1      33.442 -18.024  29.881  1.00  0.00     0.016 C 
ENDBRANCH  20  21
ENDBRANCH  17  20
ENDBRANCH  10  12
BRANCH   9  23
HETATM   23  O3  UNL     1      33.421 -11.557  33.642  1.00  0.00    -0.345 OA
ATOM     24  H3  UNL     1      32.954 -11.229  32.882  1.00  0.00     0.219 HD
ENDBRANCH   9  23
BRANCH  11  25
HETATM   25  O6  UNL     1      36.584 -14.929  32.270  1.00  0.00    -0.344 OA
ATOM     26  H6  UNL     1      36.244 -15.345  31.487  1.00  0.00     0.219 HD
ENDBRANCH  11  25
TORSDOF 6
ENDMDL
MODEL 2
REMARK VINA RESULT: -7.485089498      0.790      2.186
REMARK  6 active torsions:
REMARK  status: ('A' for Active; 'I' for Inactive)
REMARK    1  A    between atoms: C7_9  and  O3_10 
REMARK    2  A    between atoms: N1_12  and  C8_13 
REMARK    3  A    between atoms: C11_17  and  O5_18 
REMARK    4  A    between atoms: C12_20  and  S1_21 
REMARK    5  A    between atoms: S1_21  and  C13_22 
REMARK    6  A    between atoms: C15_24  and  O6_25 
ROOT
HETATM    1  C1  UNL     1      36.903 -14.648  35.908  1.00  0.00     0.028 C 
HETATM    2  C2  UNL     1      35.958 -13.763  35.821  1.00  0.00     0.020 C 
HETATM    3  C3  UNL     1      35.504 -13.052  37.040  1.00  0.00     0.183 C 
HETATM    4  O1  UNL     1      35.618 -13.587  38.168  1.00  0.00    -0.290 OA
HETATM    5  C4  UNL     1      34.921 -11.687  36.807  1.00  0.00     0.259 C 
HETATM    6  O2  UNL     1      33.922 -11.806  35.784  1.00  0.00    -0.338 OA
HETATM    7  C5  UNL     1      34.305 -12.429  34.590  1.00  0.00     0.136 A 
HETATM    8  C6  UNL     1      35.297 -13.390  34.583  1.00  0.00     0.066 A 
HETATM    9  C7  UNL     1      35.498 -13.844  33.280  1.00  0.00     0.163 A 
HETATM   10  N1  UNL     1      34.654 -13.181  32.503  1.00  0.00    -0.265 N 
HETATM   11  C15 UNL     1      33.918 -12.318  33.280  1.00  0.00     0.184 A 
ENDROOT
BRANCH  10  12
HETATM   12  C8  UNL     1      34.441 -13.178  31.088  1.00  0.00     0.095 A 
HETATM   13  C9  UNL     1      34.891 -12.159  30.217  1.00  0.00     0.081 A 
HETATM   14  C10 UNL     1      35.681 -11.001  30.721  1.00  0.00     0.079 C 
HETATM   15  O4  UNL     1      34.494 -12.440  28.994  1.00  0.00    -0.289 OA
HETATM   16  C11 UNL     1      33.823 -13.545  28.964  1.00  0.00     0.203 A 
HETATM   17  C12 UNL     1      33.773 -14.034  30.262  1.00  0.00     0.088 A 
BRANCH  16  18
HETATM   18  O5  UNL     1      33.222 -14.181  27.854  1.00  0.00    -0.340 OA
ATOM     19  H5  UNL     1      33.563 -14.891  27.323  1.00  0.00     0.220 HD
ENDBRANCH  16  18
BRANCH  17  20
HETATM   20  S1  UNL     1      33.014 -15.588  30.736  1.00  0.00    -0.123 SA
BRANCH  20  21
HETATM   21  C13 UNL     1      34.281 -16.910  30.693  1.00  0.00     0.075 C 
HETATM   22  C14 UNL     1      33.760 -18.134  29.977  1.00  0.00     0.016 C 
ENDBRANCH  20  21
ENDBRANCH  17  20
ENDBRANCH  10  12
BRANCH   9  23
HETATM   23  O3  UNL     1      36.394 -14.798  32.824  1.00  0.00    -0.345 OA
ATOM     24  H3  UNL     1      37.032 -14.726  32.122  1.00  0.00     0.219 HD
ENDBRANCH   9  23
BRANCH  11  25
HETATM   25  O6  UNL     1      32.923 -11.451  32.857  1.00  0.00    -0.344 OA
ATOM     26  H6  UNL     1      32.813 -11.192  31.949  1.00  0.00     0.219 HD
ENDBRANCH  11  25
TORSDOF 6
ENDMDL
MODEL 3
REMARK VINA RESULT: -6.989647905      2.590      6.132
REMARK  6 active torsions:
REMARK  status: ('A' for Active; 'I' for Inactive)
REMARK    1  A    between atoms: C7_9  and  O3_10 
REMARK    2  A    between atoms: N1_12  and  C8_13 
REMARK    3  A    between atoms: C11_17  and  O5_18 
REMARK    4  A    between atoms: C12_20  and  S1_21 
REMARK    5  A    between atoms: S1_21  and  C13_22 
REMARK    6  A    between atoms: C15_24  and  O6_25 
ROOT
HETATM    1  C1  UNL     1      32.940 -17.184  29.491  1.00  0.00     0.028 C 
HETATM    2  C2  UNL     1      33.748 -17.687  30.373  1.00  0.00     0.020 C 
HETATM    3  C3  UNL     1      34.253 -19.070  30.199  1.00  0.00     0.183 C 
HETATM    4  O1  UNL     1      33.586 -19.916  29.558  1.00  0.00    -0.290 OA
HETATM    5  C4  UNL     1      35.584 -19.352  30.837  1.00  0.00     0.259 C 
HETATM    6  O2  UNL     1      35.519 -18.912  32.201  1.00  0.00    -0.338 OA
HETATM    7  C5  UNL     1      35.092 -17.597  32.425  1.00  0.00     0.136 A 
HETATM    8  C6  UNL     1      34.224 -16.978  31.546  1.00  0.00     0.066 A 
HETATM    9  C7  UNL     1      33.963 -15.680  31.984  1.00  0.00     0.163 A 
HETATM   10  N1  UNL     1      34.651 -15.501  33.103  1.00  0.00    -0.265 N 
HETATM   11  C15 UNL     1      35.341 -16.656  33.390  1.00  0.00     0.184 A 
ENDROOT
BRANCH  10  12
HETATM   12  C8  UNL     1      34.822 -14.371  33.963  1.00  0.00     0.095 A 
HETATM   13  C9  UNL     1      34.394 -14.322  35.309  1.00  0.00     0.081 A 
HETATM   14  C10 UNL     1      33.750 -15.498  35.962  1.00  0.00     0.079 C 
HETATM   15  O4  UNL     1      34.664 -13.131  35.798  1.00  0.00    -0.289 OA
HETATM   16  C11 UNL     1      35.230 -12.381  34.911  1.00  0.00     0.203 A 
HETATM   17  C12 UNL     1      35.345 -13.129  33.749  1.00  0.00     0.088 A 
BRANCH  16  18
HETATM   18  O5  UNL     1      35.664 -11.041  35.036  1.00  0.00    -0.340 OA
ATOM     19  H5  UNL     1      35.247 -10.251  34.714  1.00  0.00     0.220 HD
ENDBRANCH  16  18
BRANCH  17  20
HETATM   20  S1  UNL     1      36.135 -12.558  32.243  1.00  0.00    -0.123 SA
BRANCH  20  21
HETATM   21  C13 UNL     1      34.931 -11.579  31.271  1.00  0.00     0.075 C 
HETATM   22  C14 UNL     1      35.050 -11.886  29.796  1.00  0.00     0.016 C 
ENDBRANCH  20  21
ENDBRANCH  17  20
ENDBRANCH  10  12
BRANCH   9  23
HETATM   23  O3  UNL     1      33.155 -14.716  31.404  1.00  0.00    -0.345 OA
ATOM     24  H3  UNL     1      32.988 -13.827  31.695  1.00  0.00     0.219 HD
ENDBRANCH   9  23
BRANCH  11  25
HETATM   25  O6  UNL     1      36.172 -16.888  34.475  1.00  0.00    -0.344 OA
ATOM     26  H6  UNL     1      36.682 -16.204  34.893  1.00  0.00     0.219 HD
ENDBRANCH  11  25
TORSDOF 6
ENDMDL
MODEL 4
REMARK VINA RESULT: -6.935995980      2.805      5.133
REMARK  6 active torsions:
REMARK  status: ('A' for Active; 'I' for Inactive)
REMARK    1  A    between atoms: C7_9  and  O3_10 
REMARK    2  A    between atoms: N1_12  and  C8_13 
REMARK    3  A    between atoms: C11_17  and  O5_18 
REMARK    4  A    between atoms: C12_20  and  S1_21 
REMARK    5  A    between atoms: S1_21  and  C13_22 
REMARK    6  A    between atoms: C15_24  and  O6_25 
ROOT
HETATM    1  C1  UNL     1      38.140 -17.602  37.240  1.00  0.00     0.028 C 
HETATM    2  C2  UNL     1      37.077 -17.689  36.501  1.00  0.00     0.020 C 
HETATM    3  C3  UNL     1      36.466 -19.017  36.248  1.00  0.00     0.183 C 
HETATM    4  O1  UNL     1      37.166 -20.056  36.283  1.00  0.00    -0.290 OA
HETATM    5  C4  UNL     1      34.992 -19.000  35.959  1.00  0.00     0.259 C 
HETATM    6  O2  UNL     1      34.759 -18.034  34.924  1.00  0.00    -0.338 OA
HETATM    7  C5  UNL     1      35.274 -16.747  35.128  1.00  0.00     0.136 A 
HETATM    8  C6  UNL     1      36.407 -16.554  35.894  1.00  0.00     0.066 A 
HETATM    9  C7  UNL     1      36.705 -15.193  35.951  1.00  0.00     0.163 A 
HETATM   10  N1  UNL     1      35.781 -14.562  35.242  1.00  0.00    -0.265 N 
HETATM   11  C15 UNL     1      34.903 -15.489  34.730  1.00  0.00     0.184 A 
ENDROOT
BRANCH  10  12
HETATM   12  C8  UNL     1      35.536 -13.176  34.988  1.00  0.00     0.095 A 
HETATM   13  C9  UNL     1      35.017 -12.270  35.942  1.00  0.00     0.081 A 
HETATM   14  C10 UNL     1      34.720 -12.700  37.338  1.00  0.00     0.079 C 
HETATM   15  O4  UNL     1      34.874 -11.091  35.375  1.00  0.00    -0.289 OA
HETATM   16  C11 UNL     1      35.244 -11.121  34.138  1.00  0.00     0.203 A 
HETATM   17  C12 UNL     1      35.667 -12.414  33.863  1.00  0.00     0.088 A 
BRANCH  16  18
HETATM   18  O5  UNL     1      35.237 -10.073  33.189  1.00  0.00    -0.340 OA
ATOM     19  H5  UNL     1      34.510  -9.748  32.671  1.00  0.00     0.220 HD
ENDBRANCH  16  18
BRANCH  17  20
HETATM   20  S1  UNL     1      36.348 -12.952  32.294  1.00  0.00    -0.123 SA
BRANCH  20  21
HETATM   21  C13 UNL     1      35.035 -12.895  31.020  1.00  0.00     0.075 C 
HETATM   22  C14 UNL     1      35.242 -11.730  30.081  1.00  0.00     0.016 C 
ENDBRANCH  20  21
ENDBRANCH  17  20
ENDBRANCH  10  12
BRANCH   9  23
HETATM   23  O3  UNL     1      37.748 -14.562  36.610  1.00  0.00    -0.345 OA
ATOM     24  H3  UNL     1      38.038 -13.660  36.537  1.00  0.00     0.219 HD
ENDBRANCH   9  23
BRANCH  11  25
HETATM   25  O6  UNL     1      33.800 -15.245  33.927  1.00  0.00    -0.344 OA
ATOM     26  H6  UNL     1      33.733 -14.490  33.355  1.00  0.00     0.219 HD
ENDBRANCH  11  25
TORSDOF 6
ENDMDL
MODEL 5
REMARK VINA RESULT: -6.888900219      2.938      5.256
REMARK  6 active torsions:
REMARK  status: ('A' for Active; 'I' for Inactive)
REMARK    1  A    between atoms: C7_9  and  O3_10 
REMARK    2  A    between atoms: N1_12  and  C8_13 
REMARK    3  A    between atoms: C11_17  and  O5_18 
REMARK    4  A    between atoms: C12_20  and  S1_21 
REMARK    5  A    between atoms: S1_21  and  C13_22 
REMARK    6  A    between atoms: C15_24  and  O6_25 
ROOT
HETATM    1  C1  UNL     1      34.634 -18.943  34.671  1.00  0.00     0.028 C 
HETATM    2  C2  UNL     1      35.635 -18.435  35.321  1.00  0.00     0.020 C 
HETATM    3  C3  UNL     1      36.637 -19.334  35.944  1.00  0.00     0.183 C 
HETATM    4  O1  UNL     1      36.318 -20.494  36.298  1.00  0.00    -0.290 OA
HETATM    5  C4  UNL     1      38.011 -18.749  36.107  1.00  0.00     0.259 C 
HETATM    6  O2  UNL     1      37.872 -17.476  36.755  1.00  0.00    -0.338 OA
HETATM    7  C5  UNL     1      36.973 -16.566  36.183  1.00  0.00     0.136 A 
HETATM    8  C6  UNL     1      35.871 -17.012  35.479  1.00  0.00     0.066 A 
HETATM    9  C7  UNL     1      35.146 -15.919  35.006  1.00  0.00     0.163 A 
HETATM   10  N1  UNL     1      35.783 -14.828  35.406  1.00  0.00    -0.265 N 
HETATM   11  C15 UNL     1      36.894 -15.200  36.125  1.00  0.00     0.184 A 
ENDROOT
BRANCH  10  12
HETATM   12  C8  UNL     1      35.550 -13.434  35.180  1.00  0.00     0.095 A 
HETATM   13  C9  UNL     1      34.995 -12.553  36.137  1.00  0.00     0.081 A 
HETATM   14  C10 UNL     1      34.643 -13.020  37.508  1.00  0.00     0.079 C 
HETATM   15  O4  UNL     1      34.877 -11.359  35.597  1.00  0.00    -0.289 OA
HETATM   16  C11 UNL     1      35.295 -11.357  34.374  1.00  0.00     0.203 A 
HETATM   17  C12 UNL     1      35.726 -12.643  34.082  1.00  0.00     0.088 A 
BRANCH  16  18
HETATM   18  O5  UNL     1      35.327 -10.283  33.455  1.00  0.00    -0.340 OA
ATOM     19  H5  UNL     1      35.909  -9.533  33.441  1.00  0.00     0.220 HD
ENDBRANCH  16  18
BRANCH  17  20
HETATM   20  S1  UNL     1      36.468 -13.140  32.527  1.00  0.00    -0.123 SA
BRANCH  20  21
HETATM   21  C13 UNL     1      35.191 -13.102  31.215  1.00  0.00     0.075 C 
HETATM   22  C14 UNL     1      35.308 -11.846  30.384  1.00  0.00     0.016 C 
ENDBRANCH  20  21
ENDBRANCH  17  20
ENDBRANCH  10  12
BRANCH   9  23
HETATM   23  O3  UNL     1      33.982 -15.911  34.254  1.00  0.00    -0.345 OA
ATOM     24  H3  UNL     1      33.781 -15.406  33.475  1.00  0.00     0.219 HD
ENDBRANCH   9  23
BRANCH  11  25
HETATM   25  O6  UNL     1      37.823 -14.363  36.725  1.00  0.00    -0.344 OA
ATOM     26  H6  UNL     1      38.383 -14.640  37.441  1.00  0.00     0.219 HD
ENDBRANCH  11  25
TORSDOF 6
ENDMDL
