MODEL 1
REMARK VINA RESULT: -9.199392490      0.000      0.000
REMARK  8 active torsions:
REMARK  status: ('A' for Active; 'I' for Inactive)
REMARK    1  A    between atoms: C3_3  and  C4_4 
REMARK    2  A    between atoms: C5_5  and  O1_6 
REMARK    3  A    between atoms: C7_9  and  O2_10 
REMARK    4  A    between atoms: C11_16  and  O4_17 
REMARK    5  A    between atoms: C18_25  and  C19_26 
REMARK    6  A    between atoms: C19_26  and  C20_27 
REMARK    7  A    between atoms: C20_27  and  O6_28 
REMARK    8  A    between atoms: O6_28  and  C21_29 
ROOT
HETATM    1  C4  UNL     1      -3.254  21.508 -20.030  1.00  0.00     0.032 A 
HETATM    2  C5  UNL     1      -1.975  21.883 -19.747  1.00  0.00     0.081 A 
HETATM    3  C6  UNL     1      -1.284  22.862 -20.456  1.00  0.00     0.075 A 
HETATM    4  C7  UNL     1      -1.867  23.506 -21.487  1.00  0.00     0.085 A 
HETATM    5  C8  UNL     1      -3.158  23.182 -21.831  1.00  0.00     0.083 A 
HETATM    6  C9  UNL     1      -3.771  23.841 -22.894  1.00  0.00     0.203 A 
HETATM    7  O3  UNL     1      -3.166  24.724 -23.544  1.00  0.00    -0.286 OA
HETATM    8  C10 UNL     1      -5.066  23.460 -23.177  1.00  0.00     0.083 A 
HETATM    9  C11 UNL     1      -5.722  24.082 -24.220  1.00  0.00     0.086 A 
HETATM   10  C13 UNL     1      -7.015  23.692 -24.490  1.00  0.00     0.054 A 
HETATM   11  C14 UNL     1      -7.667  22.707 -23.752  1.00  0.00     0.030 A 
HETATM   12  C15 UNL     1      -7.018  22.076 -22.705  1.00  0.00    -0.004 A 
HETATM   13  C16 UNL     1      -5.706  22.478 -22.438  1.00  0.00     0.101 A 
HETATM   14  O5  UNL     1      -5.070  21.907 -21.459  1.00  0.00    -0.307 OA
HETATM   15  C17 UNL     1      -3.828  22.220 -21.130  1.00  0.00     0.106 A 
HETATM   16  C18 UNL     1      -7.676  21.002 -21.916  1.00  0.00     0.032 C 
HETATM   17  C23 UNL     1      -9.174  21.305 -21.772  1.00  0.00     0.097 C 
HETATM   18  C24 UNL     1      -9.681  21.311 -23.188  1.00  0.00     0.200 C 
HETATM   19  O8  UNL     1     -10.538  20.560 -23.648  1.00  0.00    -0.289 OA
HETATM   20  C25 UNL     1      -9.049  22.335 -24.036  1.00  0.00     0.228 C 
HETATM   21  O9  UNL     1      -9.665  22.883 -24.979  1.00  0.00    -0.284 OA
ENDROOT
BRANCH  16  22
HETATM   22  C19 UNL     1      -7.615  19.664 -22.626  1.00  0.00     0.036 C 
BRANCH  22  23
HETATM   23  C20 UNL     1      -8.189  18.530 -21.854  1.00  0.00     0.179 C 
BRANCH  23  24
HETATM   24  O6  UNL     1      -7.589  18.397 -20.605  1.00  0.00    -0.322 OA
BRANCH  24  25
HETATM   25  C21 UNL     1      -8.238  18.228 -19.426  1.00  0.00     0.254 C 
HETATM   26  C22 UNL     1      -9.550  18.866 -19.102  1.00  0.00     0.126 C 
HETATM   27  O7  UNL     1      -7.750  17.508 -18.530  1.00  0.00    -0.266 OA
ENDBRANCH  24  25
ENDBRANCH  23  24
ENDBRANCH  22  23
ENDBRANCH  16  22
BRANCH   9  28
HETATM   28  O4  UNL     1      -5.051  25.061 -24.941  1.00  0.00    -0.355 OA
HETATM   29  C12 UNL     1      -5.516  25.409 -26.241  1.00  0.00     0.210 C 
ENDBRANCH   9  28
BRANCH   1  30
HETATM   30  C3  UNL     1      -4.037  20.489 -19.393  1.00  0.00     0.013 C 
HETATM   31  C2  UNL     1      -5.162  20.378 -18.855  1.00  0.00    -0.030 C 
HETATM   32  C1  UNL     1      -6.319  21.219 -18.568  1.00  0.00     0.036 C 
ENDBRANCH   1  30
BRANCH   4  33
HETATM   33  O2  UNL     1      -1.189  24.480 -22.198  1.00  0.00    -0.360 OA
ATOM     34  H2  UNL     1      -1.565  24.872 -22.978  1.00  0.00     0.217 HD
ENDBRANCH   4  33
BRANCH   2  35
HETATM   35  O1  UNL     1      -1.298  21.288 -18.711  1.00  0.00    -0.360 OA
ATOM     36  H1  UNL     1      -1.599  20.457 -18.364  1.00  0.00     0.217 HD
ENDBRANCH   2  35
TORSDOF 8
ENDMDL
MODEL 2
REMARK VINA RESULT: -8.852174978      1.741      7.932
REMARK  8 active torsions:
REMARK  status: ('A' for Active; 'I' for Inactive)
REMARK    1  A    between atoms: C3_3  and  C4_4 
REMARK    2  A    between atoms: C5_5  and  O1_6 
REMARK    3  A    between atoms: C7_9  and  O2_10 
REMARK    4  A    between atoms: C11_16  and  O4_17 
REMARK    5  A    between atoms: C18_25  and  C19_26 
REMARK    6  A    between atoms: C19_26  and  C20_27 
REMARK    7  A    between atoms: C20_27  and  O6_28 
REMARK    8  A    between atoms: O6_28  and  C21_29 
ROOT
HETATM    1  C4  UNL     1      -5.493  24.350 -24.197  1.00  0.00     0.032 A 
HETATM    2  C5  UNL     1      -6.598  24.397 -24.993  1.00  0.00     0.081 A 
HETATM    3  C6  UNL     1      -7.685  23.540 -24.854  1.00  0.00     0.075 A 
HETATM    4  C7  UNL     1      -7.698  22.593 -23.894  1.00  0.00     0.085 A 
HETATM    5  C8  UNL     1      -6.617  22.485 -23.050  1.00  0.00     0.083 A 
HETATM    6  C9  UNL     1      -6.619  21.511 -22.055  1.00  0.00     0.203 A 
HETATM    7  O3  UNL     1      -7.588  20.731 -21.914  1.00  0.00    -0.286 OA
HETATM    8  C10 UNL     1      -5.499  21.466 -21.250  1.00  0.00     0.083 A 
HETATM    9  C11 UNL     1      -5.448  20.521 -20.246  1.00  0.00     0.086 A 
HETATM   10  C13 UNL     1      -4.325  20.489 -19.450  1.00  0.00     0.054 A 
HETATM   11  C14 UNL     1      -3.260  21.369 -19.627  1.00  0.00     0.030 A 
HETATM   12  C15 UNL     1      -3.300  22.320 -20.631  1.00  0.00    -0.004 A 
HETATM   13  C16 UNL     1      -4.444  22.345 -21.434  1.00  0.00     0.101 A 
HETATM   14  O5  UNL     1      -4.513  23.229 -22.385  1.00  0.00    -0.307 OA
HETATM   15  C17 UNL     1      -5.554  23.331 -23.195  1.00  0.00     0.106 A 
HETATM   16  C18 UNL     1      -2.169  23.255 -20.863  1.00  0.00     0.032 C 
HETATM   17  C23 UNL     1      -1.523  23.634 -19.522  1.00  0.00     0.097 C 
HETATM   18  C24 UNL     1      -1.026  22.323 -18.975  1.00  0.00     0.200 C 
HETATM   19  O8  UNL     1       0.144  22.048 -18.723  1.00  0.00    -0.289 OA
HETATM   20  C25 UNL     1      -2.095  21.337 -18.748  1.00  0.00     0.228 C 
HETATM   21  O9  UNL     1      -2.024  20.487 -17.831  1.00  0.00    -0.284 OA
ENDROOT
BRANCH  16  22
HETATM   22  C19 UNL     1      -1.056  22.605 -21.662  1.00  0.00     0.036 C 
BRANCH  22  23
HETATM   23  C20 UNL     1      -0.738  23.287 -22.944  1.00  0.00     0.179 C 
BRANCH  23  24
HETATM   24  O6  UNL     1       0.566  23.774 -22.964  1.00  0.00    -0.322 OA
BRANCH  24  25
HETATM   25  C21 UNL     1       1.225  24.320 -21.911  1.00  0.00     0.254 C 
HETATM   26  C22 UNL     1       2.347  23.642 -21.192  1.00  0.00     0.126 C 
HETATM   27  O7  UNL     1       0.912  25.450 -21.483  1.00  0.00    -0.266 OA
ENDBRANCH  24  25
ENDBRANCH  23  24
ENDBRANCH  22  23
ENDBRANCH  16  22
BRANCH   9  28
HETATM   28  O4  UNL     1      -6.523  19.655 -20.090  1.00  0.00    -0.355 OA
HETATM   29  C12 UNL     1      -6.280  18.310 -19.692  1.00  0.00     0.210 C 
ENDBRANCH   9  28
BRANCH   1  30
HETATM   30  C3  UNL     1      -4.308  25.154 -24.282  1.00  0.00     0.013 C 
HETATM   31  C2  UNL     1      -3.553  25.610 -25.170  1.00  0.00    -0.030 C 
HETATM   32  C1  UNL     1      -3.443  25.585 -26.624  1.00  0.00     0.036 C 
ENDBRANCH   1  30
BRANCH   4  33
HETATM   33  O2  UNL     1      -8.774  21.736 -23.747  1.00  0.00    -0.360 OA
ATOM     34  H2  UNL     1      -9.156  21.567 -22.894  1.00  0.00     0.217 HD
ENDBRANCH   4  33
BRANCH   2  35
HETATM   35  O1  UNL     1      -6.681  25.331 -25.996  1.00  0.00    -0.360 OA
ATOM     36  H1  UNL     1      -6.571  25.066 -26.902  1.00  0.00     0.217 HD
ENDBRANCH   2  35
TORSDOF 8
ENDMDL
MODEL 3
REMARK VINA RESULT: -8.636327323      1.520      6.249
REMARK  8 active torsions:
REMARK  status: ('A' for Active; 'I' for Inactive)
REMARK    1  A    between atoms: C3_3  and  C4_4 
REMARK    2  A    between atoms: C5_5  and  O1_6 
REMARK    3  A    between atoms: C7_9  and  O2_10 
REMARK    4  A    between atoms: C11_16  and  O4_17 
REMARK    5  A    between atoms: C18_25  and  C19_26 
REMARK    6  A    between atoms: C19_26  and  C20_27 
REMARK    7  A    between atoms: C20_27  and  O6_28 
REMARK    8  A    between atoms: O6_28  and  C21_29 
ROOT
HETATM    1  C4  UNL     1      -7.621  20.333 -21.999  1.00  0.00     0.032 A 
HETATM    2  C5  UNL     1      -8.884  20.313 -22.509  1.00  0.00     0.081 A 
HETATM    3  C6  UNL     1      -9.390  21.297 -23.353  1.00  0.00     0.075 A 
HETATM    4  C7  UNL     1      -8.630  22.349 -23.719  1.00  0.00     0.085 A 
HETATM    5  C8  UNL     1      -7.343  22.437 -23.246  1.00  0.00     0.083 A 
HETATM    6  C9  UNL     1      -6.548  23.519 -23.617  1.00  0.00     0.203 A 
HETATM    7  O3  UNL     1      -6.985  24.414 -24.376  1.00  0.00    -0.286 OA
HETATM    8  C10 UNL     1      -5.269  23.536 -23.100  1.00  0.00     0.083 A 
HETATM    9  C11 UNL     1      -4.437  24.585 -23.437  1.00  0.00     0.086 A 
HETATM   10  C13 UNL     1      -3.163  24.588 -22.916  1.00  0.00     0.054 A 
HETATM   11  C14 UNL     1      -2.699  23.579 -22.073  1.00  0.00     0.030 A 
HETATM   12  C15 UNL     1      -3.525  22.524 -21.728  1.00  0.00    -0.004 A 
HETATM   13  C16 UNL     1      -4.816  22.529 -22.263  1.00  0.00     0.101 A 
HETATM   14  O5  UNL     1      -5.616  21.550 -21.960  1.00  0.00    -0.307 OA
HETATM   15  C17 UNL     1      -6.855  21.467 -22.416  1.00  0.00     0.106 A 
HETATM   16  C18 UNL     1      -3.070  21.448 -20.810  1.00  0.00     0.032 C 
HETATM   17  C23 UNL     1      -1.578  21.164 -21.040  1.00  0.00     0.097 C 
HETATM   18  C24 UNL     1      -0.905  22.468 -20.705  1.00  0.00     0.200 C 
HETATM   19  O8  UNL     1      -0.073  22.640 -19.818  1.00  0.00    -0.289 OA
HETATM   20  C25 UNL     1      -1.333  23.587 -21.560  1.00  0.00     0.228 C 
HETATM   21  O9  UNL     1      -0.560  24.529 -21.849  1.00  0.00    -0.284 OA
ENDROOT
BRANCH  16  22
HETATM   22  C19 UNL     1      -3.168  21.867 -19.357  1.00  0.00     0.036 C 
BRANCH  22  23
HETATM   23  C20 UNL     1      -2.903  20.777 -18.381  1.00  0.00     0.179 C 
BRANCH  23  24
HETATM   24  O6  UNL     1      -1.932  21.138 -17.451  1.00  0.00    -0.322 OA
BRANCH  24  25
HETATM   25  C21 UNL     1      -1.086  20.289 -16.816  1.00  0.00     0.254 C 
HETATM   26  C22 UNL     1       0.322  20.039 -17.252  1.00  0.00     0.126 C 
HETATM   27  O7  UNL     1      -1.461  19.656 -15.807  1.00  0.00    -0.266 OA
ENDBRANCH  24  25
ENDBRANCH  23  24
ENDBRANCH  22  23
ENDBRANCH  16  22
BRANCH   9  28
HETATM   28  O4  UNL     1      -4.923  25.577 -24.278  1.00  0.00    -0.355 OA
HETATM   29  C12 UNL     1      -4.115  26.029 -25.360  1.00  0.00     0.210 C 
ENDBRANCH   9  28
BRANCH   1  30
HETATM   30  C3  UNL     1      -7.018  19.398 -21.094  1.00  0.00     0.013 C 
HETATM   31  C2  UNL     1      -7.346  18.735 -20.084  1.00  0.00    -0.030 C 
HETATM   32  C1  UNL     1      -8.526  18.534 -19.250  1.00  0.00     0.036 C 
ENDBRANCH   1  30
BRANCH   4  33
HETATM   33  O2  UNL     1      -9.125  23.332 -24.558  1.00  0.00    -0.360 OA
ATOM     34  H2  UNL     1      -9.501  24.132 -24.210  1.00  0.00     0.217 HD
ENDBRANCH   4  33
BRANCH   2  35
HETATM   35  O1  UNL     1      -9.733  19.280 -22.197  1.00  0.00    -0.360 OA
ATOM     36  H1  UNL     1      -9.566  18.409 -22.538  1.00  0.00     0.217 HD
ENDBRANCH   2  35
TORSDOF 8
ENDMDL
MODEL 4
REMARK VINA RESULT: -8.560151994      1.977      7.886
REMARK  8 active torsions:
REMARK  status: ('A' for Active; 'I' for Inactive)
REMARK    1  A    between atoms: C3_3  and  C4_4 
REMARK    2  A    between atoms: C5_5  and  O1_6 
REMARK    3  A    between atoms: C7_9  and  O2_10 
REMARK    4  A    between atoms: C11_16  and  O4_17 
REMARK    5  A    between atoms: C18_25  and  C19_26 
REMARK    6  A    between atoms: C19_26  and  C20_27 
REMARK    7  A    between atoms: C20_27  and  O6_28 
REMARK    8  A    between atoms: O6_28  and  C21_29 
ROOT
HETATM    1  C4  UNL     1      -5.502  24.356 -24.172  1.00  0.00     0.032 A 
HETATM    2  C5  UNL     1      -6.606  24.415 -24.969  1.00  0.00     0.081 A 
HETATM    3  C6  UNL     1      -7.701  23.567 -24.831  1.00  0.00     0.075 A 
HETATM    4  C7  UNL     1      -7.723  22.619 -23.873  1.00  0.00     0.085 A 
HETATM    5  C8  UNL     1      -6.643  22.500 -23.029  1.00  0.00     0.083 A 
HETATM    6  C9  UNL     1      -6.655  21.525 -22.035  1.00  0.00     0.203 A 
HETATM    7  O3  UNL     1      -7.630  20.753 -21.895  1.00  0.00    -0.286 OA
HETATM    8  C10 UNL     1      -5.536  21.469 -21.229  1.00  0.00     0.083 A 
HETATM    9  C11 UNL     1      -5.494  20.522 -20.226  1.00  0.00     0.086 A 
HETATM   10  C13 UNL     1      -4.372  20.478 -19.429  1.00  0.00     0.054 A 
HETATM   11  C14 UNL     1      -3.298  21.349 -19.604  1.00  0.00     0.030 A 
HETATM   12  C15 UNL     1      -3.330  22.302 -20.608  1.00  0.00    -0.004 A 
HETATM   13  C16 UNL     1      -4.472  22.339 -21.411  1.00  0.00     0.101 A 
HETATM   14  O5  UNL     1      -4.533  23.224 -22.361  1.00  0.00    -0.307 OA
HETATM   15  C17 UNL     1      -5.572  23.336 -23.172  1.00  0.00     0.106 A 
HETATM   16  C18 UNL     1      -2.189  23.226 -20.838  1.00  0.00     0.032 C 
HETATM   17  C23 UNL     1      -1.541  23.598 -19.496  1.00  0.00     0.097 C 
HETATM   18  C24 UNL     1      -1.057  22.282 -18.950  1.00  0.00     0.200 C 
HETATM   19  O8  UNL     1       0.111  21.996 -18.697  1.00  0.00    -0.289 OA
HETATM   20  C25 UNL     1      -2.134  21.306 -18.725  1.00  0.00     0.228 C 
HETATM   21  O9  UNL     1      -2.072  20.454 -17.809  1.00  0.00    -0.284 OA
ENDROOT
BRANCH  16  22
HETATM   22  C19 UNL     1      -1.082  22.568 -21.637  1.00  0.00     0.036 C 
BRANCH  22  23
HETATM   23  C20 UNL     1       0.032  23.478 -22.013  1.00  0.00     0.179 C 
BRANCH  23  24
HETATM   24  O6  UNL     1       1.274  22.870 -21.855  1.00  0.00    -0.322 OA
BRANCH  24  25
HETATM   25  C21 UNL     1       1.776  21.877 -22.631  1.00  0.00     0.254 C 
HETATM   26  C22 UNL     1       2.335  22.093 -24.000  1.00  0.00     0.126 C 
HETATM   27  O7  UNL     1       1.792  20.697 -22.219  1.00  0.00    -0.266 OA
ENDBRANCH  24  25
ENDBRANCH  23  24
ENDBRANCH  22  23
ENDBRANCH  16  22
BRANCH   9  28
HETATM   28  O4  UNL     1      -6.576  19.665 -20.072  1.00  0.00    -0.355 OA
HETATM   29  C12 UNL     1      -6.346  18.316 -19.683  1.00  0.00     0.210 C 
ENDBRANCH   9  28
BRANCH   1  30
HETATM   30  C3  UNL     1      -4.309  25.150 -24.255  1.00  0.00     0.013 C 
HETATM   31  C2  UNL     1      -3.555  25.608 -25.142  1.00  0.00    -0.030 C 
HETATM   32  C1  UNL     1      -3.454  25.598 -26.597  1.00  0.00     0.036 C 
ENDBRANCH   1  30
BRANCH   4  33
HETATM   33  O2  UNL     1      -8.807  21.771 -23.728  1.00  0.00    -0.360 OA
ATOM     34  H2  UNL     1      -9.671  22.021 -24.033  1.00  0.00     0.217 HD
ENDBRANCH   4  33
BRANCH   2  35
HETATM   35  O1  UNL     1      -6.680  25.351 -25.971  1.00  0.00    -0.360 OA
ATOM     36  H1  UNL     1      -5.927  25.894 -26.169  1.00  0.00     0.217 HD
ENDBRANCH   2  35
TORSDOF 8
ENDMDL
MODEL 5
REMARK VINA RESULT: -8.553585411      1.456      5.725
REMARK  8 active torsions:
REMARK  status: ('A' for Active; 'I' for Inactive)
REMARK    1  A    between atoms: C3_3  and  C4_4 
REMARK    2  A    between atoms: C5_5  and  O1_6 
REMARK    3  A    between atoms: C7_9  and  O2_10 
REMARK    4  A    between atoms: C11_16  and  O4_17 
REMARK    5  A    between atoms: C18_25  and  C19_26 
REMARK    6  A    between atoms: C19_26  and  C20_27 
REMARK    7  A    between atoms: C20_27  and  O6_28 
REMARK    8  A    between atoms: O6_28  and  C21_29 
ROOT
HETATM    1  C4  UNL     1      -2.277  22.785 -21.080  1.00  0.00     0.032 A 
HETATM    2  C5  UNL     1      -1.324  22.603 -20.124  1.00  0.00     0.081 A 
HETATM    3  C6  UNL     1      -1.531  21.872 -18.958  1.00  0.00     0.075 A 
HETATM    4  C7  UNL     1      -2.723  21.292 -18.711  1.00  0.00     0.085 A 
HETATM    5  C8  UNL     1      -3.735  21.432 -19.632  1.00  0.00     0.083 A 
HETATM    6  C9  UNL     1      -4.970  20.836 -19.388  1.00  0.00     0.203 A 
HETATM    7  O3  UNL     1      -5.177  20.176 -18.344  1.00  0.00    -0.286 OA
HETATM    8  C10 UNL     1      -5.934  21.022 -20.358  1.00  0.00     0.083 A 
HETATM    9  C11 UNL     1      -7.177  20.453 -20.168  1.00  0.00     0.086 A 
HETATM   10  C13 UNL     1      -8.128  20.645 -21.145  1.00  0.00     0.054 A 
HETATM   11  C14 UNL     1      -7.874  21.385 -22.298  1.00  0.00     0.030 A 
HETATM   12  C15 UNL     1      -6.632  21.961 -22.497  1.00  0.00    -0.004 A 
HETATM   13  C16 UNL     1      -5.673  21.760 -21.501  1.00  0.00     0.101 A 
HETATM   14  O5  UNL     1      -4.494  22.287 -21.660  1.00  0.00    -0.307 OA
HETATM   15  C17 UNL     1      -3.522  22.151 -20.773  1.00  0.00     0.106 A 
HETATM   16  C18 UNL     1      -6.338  22.779 -23.703  1.00  0.00     0.032 C 
HETATM   17  C23 UNL     1      -7.080  22.201 -24.917  1.00  0.00     0.097 C 
HETATM   18  C24 UNL     1      -8.533  22.311 -24.541  1.00  0.00     0.200 C 
HETATM   19  O8  UNL     1      -9.384  22.960 -25.145  1.00  0.00    -0.289 OA
HETATM   20  C25 UNL     1      -8.888  21.547 -23.335  1.00  0.00     0.228 C 
HETATM   21  O9  UNL     1     -10.024  21.041 -23.185  1.00  0.00    -0.284 OA
ENDROOT
BRANCH  16  22
HETATM   22  C19 UNL     1      -6.860  24.195 -23.565  1.00  0.00     0.036 C 
BRANCH  22  23
HETATM   23  C20 UNL     1      -5.824  25.251 -23.710  1.00  0.00     0.179 C 
BRANCH  23  24
HETATM   24  O6  UNL     1      -5.984  25.976 -24.888  1.00  0.00    -0.322 OA
BRANCH  24  25
HETATM   25  C21 UNL     1      -5.202  25.879 -25.992  1.00  0.00     0.254 C 
HETATM   26  C22 UNL     1      -5.526  25.014 -27.166  1.00  0.00     0.126 C 
HETATM   27  O7  UNL     1      -4.140  26.531 -26.076  1.00  0.00    -0.266 OA
ENDBRANCH  24  25
ENDBRANCH  23  24
ENDBRANCH  22  23
ENDBRANCH  16  22
BRANCH   9  28
HETATM   28  O4  UNL     1      -7.405  19.720 -19.010  1.00  0.00    -0.355 OA
HETATM   29  C12 UNL     1      -8.092  18.477 -19.099  1.00  0.00     0.210 C 
ENDBRANCH   9  28
BRANCH   1  30
HETATM   30  C3  UNL     1      -2.181  23.550 -22.291  1.00  0.00     0.013 C 
HETATM   31  C2  UNL     1      -1.421  23.632 -23.282  1.00  0.00    -0.030 C 
HETATM   32  C1  UNL     1      -0.201  23.003 -23.774  1.00  0.00     0.036 C 
ENDBRANCH   1  30
BRANCH   4  33
HETATM   33  O2  UNL     1      -2.940  20.564 -17.554  1.00  0.00    -0.360 OA
ATOM     34  H2  UNL     1      -3.510  20.889 -16.868  1.00  0.00     0.217 HD
ENDBRANCH   4  33
BRANCH   2  35
HETATM   35  O1  UNL     1      -0.075  23.151 -20.287  1.00  0.00    -0.360 OA
ATOM     36  H1  UNL     1       0.637  22.887 -19.717  1.00  0.00     0.217 HD
ENDBRANCH   2  35
TORSDOF 8
ENDMDL
