MODEL 1
REMARK VINA RESULT: -8.384077115      0.000      0.000
REMARK  9 active torsions:
REMARK  status: ('A' for Active; 'I' for Inactive)
REMARK    1  A    between atoms: C2_2  and  S1_4 
REMARK    2  A    between atoms: S1_4  and  C4_5 
REMARK    3  A    between atoms: C4_5  and  C7_8 
REMARK    4  A    between atoms: C9_10  and  O1_11 
REMARK    5  A    between atoms: C15_19  and  O3_20 
REMARK    6  A    between atoms: O3_20  and  C16_21 
REMARK    7  A    between atoms: C18_25  and  C19_26 
REMARK    8  A    between atoms: C19_26  and  O6_27 
REMARK    9  A    between atoms: C20_29  and  O7_30 
ROOT
HETATM    1  C7  UNL     1       2.476  22.534  21.061  1.00  0.00    -0.036 A 
HETATM    2  C8  UNL     1       2.703  22.134  19.780  1.00  0.00     0.046 A 
HETATM    3  C9  UNL     1       3.940  21.532  19.469  1.00  0.00     0.081 A 
HETATM    4  C10 UNL     1       4.912  21.343  20.427  1.00  0.00     0.060 A 
HETATM    5  C11 UNL     1       4.663  21.753  21.720  1.00  0.00     0.028 A 
HETATM    6  C12 UNL     1       3.460  22.339  22.028  1.00  0.00     0.025 A 
HETATM    7  C13 UNL     1       5.683  21.537  22.699  1.00  0.00     0.171 C 
HETATM    8  O2  UNL     1       5.637  22.170  23.797  1.00  0.00    -0.292 OA
HETATM    9  C14 UNL     1       6.835  20.608  22.551  1.00  0.00     0.141 C 
HETATM   10  C15 UNL     1       8.103  21.462  22.445  1.00  0.00     0.182 C 
HETATM   11  C17 UNL     1       8.495  20.652  21.271  1.00  0.00    -0.009 C 
HETATM   12  C18 UNL     1       9.670  20.483  20.683  1.00  0.00     0.008 C 
HETATM   13  C20 UNL     1       7.110  20.162  21.162  1.00  0.00     0.162 C 
HETATM   14  C21 UNL     1       6.233  20.776  20.142  1.00  0.00     0.202 C 
HETATM   15  O8  UNL     1       6.625  20.828  18.947  1.00  0.00    -0.288 OA
ENDROOT
BRANCH   1  16
HETATM   16  C4  UNL     1       1.238  23.229  21.467  1.00  0.00     0.032 C 
HETATM   17  C5  UNL     1       0.316  22.309  22.187  1.00  0.00     0.032 C 
HETATM   18  C6  UNL     1       1.779  24.179  22.621  1.00  0.00     0.032 C 
BRANCH  16  19
HETATM   19  S1  UNL     1       0.528  24.357  20.316  1.00  0.00    -0.121 SA
BRANCH  19  20
HETATM   20  C2  UNL     1      -0.767  23.838  19.281  1.00  0.00    -0.034 C 
HETATM   21  C1  UNL     1      -0.691  22.870  18.425  1.00  0.00     0.026 C 
HETATM   22  C3  UNL     1      -2.103  24.536  19.421  1.00  0.00     0.055 C 
ENDBRANCH  19  20
ENDBRANCH  16  19
ENDBRANCH   1  16
BRANCH   3  23
HETATM   23  O1  UNL     1       4.106  21.149  18.170  1.00  0.00    -0.360 OA
ATOM     24  H1  UNL     1       4.889  21.471  17.739  1.00  0.00     0.217 HD
ENDBRANCH   3  23
BRANCH  13  25
HETATM   25  O7  UNL     1       7.073  18.744  21.095  1.00  0.00    -0.376 OA
ATOM     26  H7  UNL     1       6.482  18.469  20.403  1.00  0.00     0.211 HD
ENDBRANCH  13  25
BRANCH  10  27
HETATM   27  O3  UNL     1       8.891  21.383  23.592  1.00  0.00    -0.285 OA
BRANCH  27  28
HETATM   28  C16 UNL     1       9.186  22.532  24.343  1.00  0.00     0.333 C 
HETATM   29  O4  UNL     1      10.208  23.171  24.007  1.00  0.00    -0.624 OA
HETATM   30  O5  UNL     1       8.394  22.921  25.383  1.00  0.00    -0.624 OA
ENDBRANCH  27  28
ENDBRANCH  10  27
BRANCH  12  31
HETATM   31  C19 UNL     1       9.879  19.615  19.496  1.00  0.00     0.192 C 
BRANCH  31  32
HETATM   32  O6  UNL     1       9.216  18.387  19.688  1.00  0.00    -0.397 OA
ATOM     33  H6  UNL     1       9.607  17.724  19.131  1.00  0.00     0.209 HD
ENDBRANCH  31  32
ENDBRANCH  12  31
TORSDOF 9
ENDMDL
MODEL 2
REMARK VINA RESULT: -8.253637934      2.996      7.159
REMARK  9 active torsions:
REMARK  status: ('A' for Active; 'I' for Inactive)
REMARK    1  A    between atoms: C2_2  and  S1_4 
REMARK    2  A    between atoms: S1_4  and  C4_5 
REMARK    3  A    between atoms: C4_5  and  C7_8 
REMARK    4  A    between atoms: C9_10  and  O1_11 
REMARK    5  A    between atoms: C15_19  and  O3_20 
REMARK    6  A    between atoms: O3_20  and  C16_21 
REMARK    7  A    between atoms: C18_25  and  C19_26 
REMARK    8  A    between atoms: C19_26  and  O6_27 
REMARK    9  A    between atoms: C20_29  and  O7_30 
ROOT
HETATM    1  C7  UNL     1       6.558  20.077  20.970  1.00  0.00    -0.036 A 
HETATM    2  C8  UNL     1       5.619  19.777  20.032  1.00  0.00     0.046 A 
HETATM    3  C9  UNL     1       4.448  20.560  19.971  1.00  0.00     0.081 A 
HETATM    4  C10 UNL     1       4.239  21.614  20.834  1.00  0.00     0.060 A 
HETATM    5  C11 UNL     1       5.202  21.904  21.777  1.00  0.00     0.028 A 
HETATM    6  C12 UNL     1       6.344  21.145  21.840  1.00  0.00     0.025 A 
HETATM    7  C13 UNL     1       4.967  23.009  22.656  1.00  0.00     0.171 C 
HETATM    8  O2  UNL     1       5.648  23.113  23.721  1.00  0.00    -0.292 OA
HETATM    9  C14 UNL     1       3.967  24.086  22.435  1.00  0.00     0.141 C 
HETATM   10  C15 UNL     1       2.873  23.920  23.495  1.00  0.00     0.182 C 
HETATM   11  C17 UNL     1       1.871  24.047  22.414  1.00  0.00    -0.009 C 
HETATM   12  C18 UNL     1       0.578  24.338  22.455  1.00  0.00     0.008 C 
HETATM   13  C20 UNL     1       2.926  23.781  21.422  1.00  0.00     0.162 C 
HETATM   14  C21 UNL     1       3.016  22.420  20.849  1.00  0.00     0.202 C 
HETATM   15  O8  UNL     1       1.989  21.900  20.339  1.00  0.00    -0.288 OA
ENDROOT
BRANCH   1  16
HETATM   16  C4  UNL     1       7.785  19.276  21.150  1.00  0.00     0.032 C 
HETATM   17  C5  UNL     1       7.578  17.868  20.714  1.00  0.00     0.032 C 
HETATM   18  C6  UNL     1       8.717  19.877  20.011  1.00  0.00     0.032 C 
BRANCH  16  19
HETATM   19  S1  UNL     1       8.719  19.544  22.619  1.00  0.00    -0.121 SA
BRANCH  19  20
HETATM   20  C2  UNL     1       9.636  21.006  22.807  1.00  0.00    -0.034 C 
HETATM   21  C1  UNL     1      10.743  21.273  22.191  1.00  0.00     0.026 C 
HETATM   22  C3  UNL     1       9.079  22.073  23.725  1.00  0.00     0.055 C 
ENDBRANCH  19  20
ENDBRANCH  16  19
ENDBRANCH   1  16
BRANCH   3  23
HETATM   23  O1  UNL     1       3.548  20.212  19.007  1.00  0.00    -0.360 OA
ATOM     24  H1  UNL     1       2.635  20.378  19.212  1.00  0.00     0.217 HD
ENDBRANCH   3  23
BRANCH  13  25
HETATM   25  O7  UNL     1       2.935  24.774  20.406  1.00  0.00    -0.376 OA
ATOM     26  H7  UNL     1       2.286  25.440  20.601  1.00  0.00     0.211 HD
ENDBRANCH  13  25
BRANCH  10  27
HETATM   27  O3  UNL     1       2.922  24.919  24.466  1.00  0.00    -0.285 OA
BRANCH  27  28
HETATM   28  C16 UNL     1       4.009  25.805  24.532  1.00  0.00     0.333 C 
HETATM   29  O4  UNL     1       3.940  26.827  23.812  1.00  0.00    -0.624 OA
HETATM   30  O5  UNL     1       5.079  25.555  25.340  1.00  0.00    -0.624 OA
ENDBRANCH  27  28
ENDBRANCH  10  27
BRANCH  12  31
HETATM   31  C19 UNL     1      -0.283  24.424  21.248  1.00  0.00     0.192 C 
BRANCH  31  32
HETATM   32  O6  UNL     1       0.139  25.502  20.444  1.00  0.00    -0.397 OA
ATOM     33  H6  UNL     1       0.894  25.238  19.930  1.00  0.00     0.209 HD
ENDBRANCH  31  32
ENDBRANCH  12  31
TORSDOF 9
ENDMDL
MODEL 3
REMARK VINA RESULT: -8.132624744      1.158      1.782
REMARK  9 active torsions:
REMARK  status: ('A' for Active; 'I' for Inactive)
REMARK    1  A    between atoms: C2_2  and  S1_4 
REMARK    2  A    between atoms: S1_4  and  C4_5 
REMARK    3  A    between atoms: C4_5  and  C7_8 
REMARK    4  A    between atoms: C9_10  and  O1_11 
REMARK    5  A    between atoms: C15_19  and  O3_20 
REMARK    6  A    between atoms: O3_20  and  C16_21 
REMARK    7  A    between atoms: C18_25  and  C19_26 
REMARK    8  A    between atoms: C19_26  and  O6_27 
REMARK    9  A    between atoms: C20_29  and  O7_30 
ROOT
HETATM    1  C7  UNL     1       2.300  22.678  20.727  1.00  0.00    -0.036 A 
HETATM    2  C8  UNL     1       2.604  22.264  19.466  1.00  0.00     0.046 A 
HETATM    3  C9  UNL     1       3.850  21.644  19.239  1.00  0.00     0.081 A 
HETATM    4  C10 UNL     1       4.756  21.450  20.259  1.00  0.00     0.060 A 
HETATM    5  C11 UNL     1       4.430  21.874  21.531  1.00  0.00     0.028 A 
HETATM    6  C12 UNL     1       3.218  22.478  21.756  1.00  0.00     0.025 A 
HETATM    7  C13 UNL     1       5.382  21.653  22.575  1.00  0.00     0.171 C 
HETATM    8  O2  UNL     1       5.274  22.296  23.663  1.00  0.00    -0.292 OA
HETATM    9  C14 UNL     1       6.529  20.708  22.509  1.00  0.00     0.141 C 
HETATM   10  C15 UNL     1       7.811  21.545  22.478  1.00  0.00     0.182 C 
HETATM   11  C17 UNL     1       8.268  20.720  21.338  1.00  0.00    -0.009 C 
HETATM   12  C18 UNL     1       9.476  20.533  20.828  1.00  0.00     0.008 C 
HETATM   13  C20 UNL     1       6.887  20.247  21.143  1.00  0.00     0.162 C 
HETATM   14  C21 UNL     1       6.085  20.864  20.065  1.00  0.00     0.202 C 
HETATM   15  O8  UNL     1       6.554  20.902  18.897  1.00  0.00    -0.288 OA
ENDROOT
BRANCH   1  16
HETATM   16  C4  UNL     1       1.048  23.391  21.047  1.00  0.00     0.032 C 
HETATM   17  C5  UNL     1       0.754  24.444  20.038  1.00  0.00     0.032 C 
HETATM   18  C6  UNL     1      -0.036  22.272  20.732  1.00  0.00     0.032 C 
BRANCH  16  19
HETATM   19  S1  UNL     1       0.748  23.779  22.739  1.00  0.00    -0.121 SA
BRANCH  19  20
HETATM   20  C2  UNL     1      -0.845  24.246  23.251  1.00  0.00    -0.034 C 
HETATM   21  C1  UNL     1      -1.396  25.392  23.008  1.00  0.00     0.026 C 
HETATM   22  C3  UNL     1      -1.672  23.223  23.998  1.00  0.00     0.055 C 
ENDBRANCH  19  20
ENDBRANCH  16  19
ENDBRANCH   1  16
BRANCH   3  23
HETATM   23  O1  UNL     1       4.094  21.249  17.956  1.00  0.00    -0.360 OA
ATOM     24  H1  UNL     1       4.441  20.371  17.851  1.00  0.00     0.217 HD
ENDBRANCH   3  23
BRANCH  13  25
HETATM   25  O7  UNL     1       6.835  18.830  21.084  1.00  0.00    -0.376 OA
ATOM     26  H7  UNL     1       7.373  18.517  20.365  1.00  0.00     0.211 HD
ENDBRANCH  13  25
BRANCH  10  27
HETATM   27  O3  UNL     1       8.523  21.465  23.674  1.00  0.00    -0.285 OA
BRANCH  27  28
HETATM   28  C16 UNL     1       8.840  22.623  24.402  1.00  0.00     0.333 C 
HETATM   29  O4  UNL     1       9.960  23.135  24.176  1.00  0.00    -0.624 OA
HETATM   30  O5  UNL     1       7.966  23.154  25.304  1.00  0.00    -0.624 OA
ENDBRANCH  27  28
ENDBRANCH  10  27
BRANCH  12  31
HETATM   31  C19 UNL     1       9.750  19.652  19.663  1.00  0.00     0.192 C 
BRANCH  31  32
HETATM   32  O6  UNL     1       9.203  18.375  19.900  1.00  0.00    -0.397 OA
ATOM     33  H6  UNL     1       8.518  18.200  19.265  1.00  0.00     0.209 HD
ENDBRANCH  31  32
ENDBRANCH  12  31
TORSDOF 9
ENDMDL
MODEL 4
REMARK VINA RESULT: -8.122818583      0.945      1.477
REMARK  9 active torsions:
REMARK  status: ('A' for Active; 'I' for Inactive)
REMARK    1  A    between atoms: C2_2  and  S1_4 
REMARK    2  A    between atoms: S1_4  and  C4_5 
REMARK    3  A    between atoms: C4_5  and  C7_8 
REMARK    4  A    between atoms: C9_10  and  O1_11 
REMARK    5  A    between atoms: C15_19  and  O3_20 
REMARK    6  A    between atoms: O3_20  and  C16_21 
REMARK    7  A    between atoms: C18_25  and  C19_26 
REMARK    8  A    between atoms: C19_26  and  O6_27 
REMARK    9  A    between atoms: C20_29  and  O7_30 
ROOT
HETATM    1  C7  UNL     1       2.486  22.543  21.137  1.00  0.00    -0.036 A 
HETATM    2  C8  UNL     1       2.695  22.152  19.850  1.00  0.00     0.046 A 
HETATM    3  C9  UNL     1       3.926  21.550  19.517  1.00  0.00     0.081 A 
HETATM    4  C10 UNL     1       4.912  21.353  20.460  1.00  0.00     0.060 A 
HETATM    5  C11 UNL     1       4.682  21.754  21.759  1.00  0.00     0.028 A 
HETATM    6  C12 UNL     1       3.484  22.339  22.089  1.00  0.00     0.025 A 
HETATM    7  C13 UNL     1       5.715  21.528  22.722  1.00  0.00     0.171 C 
HETATM    8  O2  UNL     1       5.685  22.154  23.825  1.00  0.00    -0.292 OA
HETATM    9  C14 UNL     1       6.863  20.599  22.551  1.00  0.00     0.141 C 
HETATM   10  C15 UNL     1       8.130  21.453  22.434  1.00  0.00     0.182 C 
HETATM   11  C17 UNL     1       8.505  20.651  21.248  1.00  0.00    -0.009 C 
HETATM   12  C18 UNL     1       9.672  20.485  20.643  1.00  0.00     0.008 C 
HETATM   13  C20 UNL     1       7.118  20.163  21.155  1.00  0.00     0.162 C 
HETATM   14  C21 UNL     1       6.227  20.787  20.152  1.00  0.00     0.202 C 
HETATM   15  O8  UNL     1       6.603  20.848  18.952  1.00  0.00    -0.288 OA
ENDROOT
BRANCH   1  16
HETATM   16  C4  UNL     1       1.255  23.236  21.566  1.00  0.00     0.032 C 
HETATM   17  C5  UNL     1       1.542  24.235  22.631  1.00  0.00     0.032 C 
HETATM   18  C6  UNL     1       0.947  24.138  20.294  1.00  0.00     0.032 C 
BRANCH  16  19
HETATM   19  S1  UNL     1      -0.204  22.263  21.734  1.00  0.00    -0.121 SA
BRANCH  19  20
HETATM   20  C2  UNL     1      -1.621  22.949  22.468  1.00  0.00    -0.034 C 
HETATM   21  C1  UNL     1      -1.887  22.925  23.735  1.00  0.00     0.026 C 
HETATM   22  C3  UNL     1      -2.601  23.670  21.568  1.00  0.00     0.055 C 
ENDBRANCH  19  20
ENDBRANCH  16  19
ENDBRANCH   1  16
BRANCH   3  23
HETATM   23  O1  UNL     1       4.073  21.178  18.213  1.00  0.00    -0.360 OA
ATOM     24  H1  UNL     1       4.963  21.002  17.929  1.00  0.00     0.217 HD
ENDBRANCH   3  23
BRANCH  13  25
HETATM   25  O7  UNL     1       7.078  18.746  21.077  1.00  0.00    -0.376 OA
ATOM     26  H7  UNL     1       7.907  18.417  20.749  1.00  0.00     0.211 HD
ENDBRANCH  13  25
BRANCH  10  27
HETATM   27  O3  UNL     1       8.934  21.363  23.569  1.00  0.00    -0.285 OA
BRANCH  27  28
HETATM   28  C16 UNL     1       9.234  22.505  24.330  1.00  0.00     0.333 C 
HETATM   29  O4  UNL     1      10.253  23.149  23.991  1.00  0.00    -0.624 OA
HETATM   30  O5  UNL     1       8.451  22.882  25.380  1.00  0.00    -0.624 OA
ENDBRANCH  27  28
ENDBRANCH  10  27
BRANCH  12  31
HETATM   31  C19 UNL     1       9.863  19.626  19.446  1.00  0.00     0.192 C 
BRANCH  31  32
HETATM   32  O6  UNL     1       9.221  18.387  19.649  1.00  0.00    -0.397 OA
ATOM     33  H6  UNL     1       9.690  17.707  19.178  1.00  0.00     0.209 HD
ENDBRANCH  31  32
ENDBRANCH  12  31
TORSDOF 9
ENDMDL
MODEL 5
REMARK VINA RESULT: -8.096448505      3.291      7.306
REMARK  9 active torsions:
REMARK  status: ('A' for Active; 'I' for Inactive)
REMARK    1  A    between atoms: C2_2  and  S1_4 
REMARK    2  A    between atoms: S1_4  and  C4_5 
REMARK    3  A    between atoms: C4_5  and  C7_8 
REMARK    4  A    between atoms: C9_10  and  O1_11 
REMARK    5  A    between atoms: C15_19  and  O3_20 
REMARK    6  A    between atoms: O3_20  and  C16_21 
REMARK    7  A    between atoms: C18_25  and  C19_26 
REMARK    8  A    between atoms: C19_26  and  O6_27 
REMARK    9  A    between atoms: C20_29  and  O7_30 
ROOT
HETATM    1  C7  UNL     1       7.414  20.709  21.906  1.00  0.00    -0.036 A 
HETATM    2  C8  UNL     1       6.414  20.047  21.261  1.00  0.00     0.046 A 
HETATM    3  C9  UNL     1       5.137  20.642  21.204  1.00  0.00     0.081 A 
HETATM    4  C10 UNL     1       4.884  21.866  21.784  1.00  0.00     0.060 A 
HETATM    5  C11 UNL     1       5.910  22.522  22.432  1.00  0.00     0.028 A 
HETATM    6  C12 UNL     1       7.156  21.948  22.489  1.00  0.00     0.025 A 
HETATM    7  C13 UNL     1       5.626  23.796  23.016  1.00  0.00     0.171 C 
HETATM    8  O2  UNL     1       6.422  24.277  23.878  1.00  0.00    -0.292 OA
HETATM    9  C14 UNL     1       4.445  24.644  22.701  1.00  0.00     0.141 C 
HETATM   10  C15 UNL     1       3.549  24.662  23.944  1.00  0.00     0.182 C 
HETATM   11  C17 UNL     1       2.400  24.360  23.062  1.00  0.00    -0.009 C 
HETATM   12  C18 UNL     1       1.096  24.500  23.254  1.00  0.00     0.008 C 
HETATM   13  C20 UNL     1       3.336  23.945  22.004  1.00  0.00     0.162 C 
HETATM   14  C21 UNL     1       3.562  22.497  21.803  1.00  0.00     0.202 C 
HETATM   15  O8  UNL     1       2.571  21.739  21.637  1.00  0.00    -0.288 OA
ENDROOT
BRANCH   1  16
HETATM   16  C4  UNL     1       8.766  20.138  22.069  1.00  0.00     0.032 C 
HETATM   17  C5  UNL     1       9.381  20.569  23.354  1.00  0.00     0.032 C 
HETATM   18  C6  UNL     1       8.428  18.606  22.324  1.00  0.00     0.032 C 
BRANCH  16  19
HETATM   19  S1  UNL     1       9.803  20.091  20.646  1.00  0.00    -0.121 SA
BRANCH  19  20
HETATM   20  C2  UNL     1       9.453  18.982  19.356  1.00  0.00    -0.034 C 
HETATM   21  C1  UNL     1       8.400  18.232  19.287  1.00  0.00     0.026 C 
HETATM   22  C3  UNL     1      10.427  18.918  18.200  1.00  0.00     0.055 C 
ENDBRANCH  19  20
ENDBRANCH  16  19
ENDBRANCH   1  16
BRANCH   3  23
HETATM   23  O1  UNL     1       4.179  19.932  20.541  1.00  0.00    -0.360 OA
ATOM     24  H1  UNL     1       3.368  19.787  21.014  1.00  0.00     0.217 HD
ENDBRANCH   3  23
BRANCH  13  25
HETATM   25  O7  UNL     1       3.047  24.602  20.779  1.00  0.00    -0.376 OA
ATOM     26  H7  UNL     1       2.145  24.438  20.530  1.00  0.00     0.211 HD
ENDBRANCH  13  25
BRANCH  10  27
HETATM   27  O3  UNL     1       3.573  25.895  24.594  1.00  0.00    -0.285 OA
BRANCH  27  28
HETATM   28  C16 UNL     1       3.952  25.990  25.942  1.00  0.00     0.333 C 
HETATM   29  O4  UNL     1       3.023  26.066  26.778  1.00  0.00    -0.624 OA
HETATM   30  O5  UNL     1       5.264  25.998  26.310  1.00  0.00    -0.624 OA
ENDBRANCH  27  28
ENDBRANCH  10  27
BRANCH  12  31
HETATM   31  C19 UNL     1       0.073  24.140  22.239  1.00  0.00     0.192 C 
BRANCH  31  32
HETATM   32  O6  UNL     1       0.133  25.051  21.165  1.00  0.00    -0.397 OA
ATOM     33  H6  UNL     1       0.979  25.485  21.164  1.00  0.00     0.209 HD
ENDBRANCH  31  32
ENDBRANCH  12  31
TORSDOF 9
ENDMDL
