MODEL 1
REMARK VINA RESULT: -8.112958931      0.000      0.000
REMARK  6 active torsions:
REMARK  status: ('A' for Active; 'I' for Inactive)
REMARK    1  A    between atoms: C2_2  and  C3_4 
REMARK    2  A    between atoms: C3_4  and  O1_5 
REMARK    3  A    between atoms: O1_5  and  C4_6 
REMARK    4  A    between atoms: C7_9  and  C8_10 
REMARK    5  A    between atoms: N2_11  and  N3_13 
REMARK    6  A    between atoms: N3_13  and  C9_15 
ROOT
HETATM    1  C4  UNL     1      69.005  -8.398  33.220  1.00  0.00     0.069 A 
HETATM    2  C5  UNL     1      69.111  -8.146  31.867  1.00  0.00     0.037 A 
HETATM    3  C6  UNL     1      69.081  -6.850  31.403  1.00  0.00     0.015 A 
HETATM    4  C7  UNL     1      68.945  -5.752  32.248  1.00  0.00    -0.019 A 
HETATM    5  C10 UNL     1      68.840  -6.016  33.597  1.00  0.00     0.015 A 
HETATM    6  C11 UNL     1      68.870  -7.313  34.060  1.00  0.00     0.037 A 
ENDROOT
BRANCH   4   7
HETATM    7  C8  UNL     1      68.916  -4.394  31.743  1.00  0.00     0.118 C 
HETATM    8  N2  UNL     1      68.004  -3.599  32.160  1.00  0.00    -0.309 N 
ATOM      9  H2  UNL     1      67.336  -3.970  32.837  1.00  0.00     0.186 HD
BRANCH   8  10
HETATM   10  N3  UNL     1      67.847  -2.281  31.773  1.00  0.00    -0.279 N 
ATOM     11  H3  UNL     1      67.177  -2.060  31.036  1.00  0.00     0.189 HD
BRANCH  10  12
HETATM   12  C9  UNL     1      68.586  -1.222  32.367  1.00  0.00     0.199 C 
HETATM   13  N4  UNL     1      67.972  -0.366  33.331  1.00  0.00    -0.068 NA
HETATM   14  S1  UNL     1      70.144  -0.977  31.952  1.00  0.00    -0.043 SA
ENDBRANCH  10  12
ENDBRANCH   8  10
ENDBRANCH   4   7
BRANCH   1  15
HETATM   15  O1  UNL     1      69.030  -9.691  33.735  1.00  0.00    -0.346 OA
BRANCH  15  16
HETATM   16  C3  UNL     1      69.091 -10.766  32.817  1.00  0.00     0.228 C 
BRANCH  16  17
HETATM   17  C2  UNL     1      67.862 -11.565  32.978  1.00  0.00     0.039 C 
HETATM   18  C1  UNL     1      67.920 -12.870  32.870  1.00  0.00     0.037 C 
HETATM   19  N1  UNL     1      66.623 -10.938  33.248  1.00  0.00    -0.106 NA
ENDBRANCH  16  17
ENDBRANCH  15  16
ENDBRANCH   1  15
TORSDOF 6
ENDMDL
MODEL 2
REMARK VINA RESULT: -8.101431343      0.128      1.149
REMARK  6 active torsions:
REMARK  status: ('A' for Active; 'I' for Inactive)
REMARK    1  A    between atoms: C2_2  and  C3_4 
REMARK    2  A    between atoms: C3_4  and  O1_5 
REMARK    3  A    between atoms: O1_5  and  C4_6 
REMARK    4  A    between atoms: C7_9  and  C8_10 
REMARK    5  A    between atoms: N2_11  and  N3_13 
REMARK    6  A    between atoms: N3_13  and  C9_15 
ROOT
HETATM    1  C4  UNL     1      68.977  -8.290  33.294  1.00  0.00     0.069 A 
HETATM    2  C5  UNL     1      68.725  -7.215  34.122  1.00  0.00     0.037 A 
HETATM    3  C6  UNL     1      68.687  -5.940  33.603  1.00  0.00     0.015 A 
HETATM    4  C7  UNL     1      68.895  -5.672  32.253  1.00  0.00    -0.019 A 
HETATM    5  C10 UNL     1      69.146  -6.754  31.436  1.00  0.00     0.015 A 
HETATM    6  C11 UNL     1      69.183  -8.029  31.956  1.00  0.00     0.037 A 
ENDROOT
BRANCH   4   7
HETATM    7  C8  UNL     1      68.851  -4.323  31.722  1.00  0.00     0.118 C 
HETATM    8  N2  UNL     1      67.969  -3.512  32.169  1.00  0.00    -0.309 N 
ATOM      9  H2  UNL     1      67.333  -3.862  32.886  1.00  0.00     0.186 HD
BRANCH   8  10
HETATM   10  N3  UNL     1      67.803  -2.200  31.764  1.00  0.00    -0.279 N 
ATOM     11  H3  UNL     1      67.106  -1.989  31.051  1.00  0.00     0.189 HD
BRANCH  10  12
HETATM   12  C9  UNL     1      68.572  -1.135  32.307  1.00  0.00     0.199 C 
HETATM   13  N4  UNL     1      68.022  -0.293  33.322  1.00  0.00    -0.068 NA
HETATM   14  S1  UNL     1      70.090  -0.866  31.776  1.00  0.00    -0.043 SA
ENDBRANCH  10  12
ENDBRANCH   8  10
ENDBRANCH   4   7
BRANCH   1  15
HETATM   15  O1  UNL     1      69.025  -9.596  33.774  1.00  0.00    -0.346 OA
BRANCH  15  16
HETATM   16  C3  UNL     1      69.095 -10.644  32.826  1.00  0.00     0.228 C 
BRANCH  16  17
HETATM   17  C2  UNL     1      67.883 -11.471  32.979  1.00  0.00     0.039 C 
HETATM   18  C1  UNL     1      67.973 -12.775  32.887  1.00  0.00     0.037 C 
HETATM   19  N1  UNL     1      66.625 -10.871  33.222  1.00  0.00    -0.106 NA
ENDBRANCH  16  17
ENDBRANCH  15  16
ENDBRANCH   1  15
TORSDOF 6
ENDMDL
MODEL 3
REMARK VINA RESULT: -7.948264987      1.546      1.976
REMARK  6 active torsions:
REMARK  status: ('A' for Active; 'I' for Inactive)
REMARK    1  A    between atoms: C2_2  and  C3_4 
REMARK    2  A    between atoms: C3_4  and  O1_5 
REMARK    3  A    between atoms: O1_5  and  C4_6 
REMARK    4  A    between atoms: C7_9  and  C8_10 
REMARK    5  A    between atoms: N2_11  and  N3_13 
REMARK    6  A    between atoms: N3_13  and  C9_15 
ROOT
HETATM    1  C4  UNL     1      69.686  -9.126  32.885  1.00  0.00     0.069 A 
HETATM    2  C5  UNL     1      69.484  -8.497  34.096  1.00  0.00     0.037 A 
HETATM    3  C6  UNL     1      69.151  -7.161  34.133  1.00  0.00     0.015 A 
HETATM    4  C7  UNL     1      69.003  -6.392  32.982  1.00  0.00    -0.019 A 
HETATM    5  C10 UNL     1      69.208  -7.031  31.777  1.00  0.00     0.015 A 
HETATM    6  C11 UNL     1      69.541  -8.367  31.742  1.00  0.00     0.037 A 
ENDROOT
BRANCH   4   7
HETATM    7  C8  UNL     1      68.652  -4.987  33.037  1.00  0.00     0.118 C 
HETATM    8  N2  UNL     1      68.238  -4.411  31.972  1.00  0.00    -0.309 N 
ATOM      9  H2  UNL     1      68.177  -4.979  31.128  1.00  0.00     0.186 HD
BRANCH   8  10
HETATM   10  N3  UNL     1      67.867  -3.082  31.869  1.00  0.00    -0.279 N 
ATOM     11  H3  UNL     1      66.920  -2.858  31.564  1.00  0.00     0.189 HD
BRANCH  10  12
HETATM   12  C9  UNL     1      68.759  -2.019  32.172  1.00  0.00     0.199 C 
HETATM   13  N4  UNL     1      68.645  -1.312  33.408  1.00  0.00    -0.068 NA
HETATM   14  S1  UNL     1      69.922  -1.597  31.110  1.00  0.00    -0.043 SA
ENDBRANCH  10  12
ENDBRANCH   8  10
ENDBRANCH   4   7
BRANCH   1  15
HETATM   15  O1  UNL     1      70.024 -10.473  32.799  1.00  0.00    -0.346 OA
BRANCH  15  16
HETATM   16  C3  UNL     1      68.972 -11.410  32.662  1.00  0.00     0.228 C 
BRANCH  16  17
HETATM   17  C2  UNL     1      69.571 -12.710  32.305  1.00  0.00     0.039 C 
HETATM   18  C1  UNL     1      68.799 -13.759  32.161  1.00  0.00     0.037 C 
HETATM   19  N1  UNL     1      70.967 -12.835  32.118  1.00  0.00    -0.106 NA
ENDBRANCH  16  17
ENDBRANCH  15  16
ENDBRANCH   1  15
TORSDOF 6
ENDMDL
MODEL 4
REMARK VINA RESULT: -7.884157660      3.902      7.960
REMARK  6 active torsions:
REMARK  status: ('A' for Active; 'I' for Inactive)
REMARK    1  A    between atoms: C2_2  and  C3_4 
REMARK    2  A    between atoms: C3_4  and  O1_5 
REMARK    3  A    between atoms: O1_5  and  C4_6 
REMARK    4  A    between atoms: C7_9  and  C8_10 
REMARK    5  A    between atoms: N2_11  and  N3_13 
REMARK    6  A    between atoms: N3_13  and  C9_15 
ROOT
HETATM    1  C4  UNL     1      68.654  -5.616  32.381  1.00  0.00     0.069 A 
HETATM    2  C5  UNL     1      68.703  -6.054  33.689  1.00  0.00     0.037 A 
HETATM    3  C6  UNL     1      69.029  -7.363  33.965  1.00  0.00     0.015 A 
HETATM    4  C7  UNL     1      69.319  -8.291  32.969  1.00  0.00    -0.019 A 
HETATM    5  C10 UNL     1      69.267  -7.842  31.667  1.00  0.00     0.015 A 
HETATM    6  C11 UNL     1      68.940  -6.532  31.392  1.00  0.00     0.037 A 
ENDROOT
BRANCH   4   7
HETATM    7  C8  UNL     1      69.662  -9.666  33.278  1.00  0.00     0.118 C 
HETATM    8  N2  UNL     1      69.956 -10.459  32.318  1.00  0.00    -0.309 N 
ATOM      9  H2  UNL     1      69.935 -10.077  31.373  1.00  0.00     0.186 HD
BRANCH   8  10
HETATM   10  N3  UNL     1      70.303 -11.792  32.453  1.00  0.00    -0.279 N 
ATOM     11  H3  UNL     1      71.245 -12.027  32.764  1.00  0.00     0.189 HD
BRANCH  10  12
HETATM   12  C9  UNL     1      69.391 -12.845  32.173  1.00  0.00     0.199 C 
HETATM   13  N4  UNL     1      68.073 -12.823  32.723  1.00  0.00    -0.068 NA
HETATM   14  S1  UNL     1      69.841 -14.088  31.219  1.00  0.00    -0.043 SA
ENDBRANCH  10  12
ENDBRANCH   8  10
ENDBRANCH   4   7
BRANCH   1  15
HETATM   15  O1  UNL     1      68.329  -4.303  32.053  1.00  0.00    -0.346 OA
BRANCH  15  16
HETATM   16  C3  UNL     1      69.171  -3.274  32.538  1.00  0.00     0.228 C 
BRANCH  16  17
HETATM   17  C2  UNL     1      69.705  -2.544  31.373  1.00  0.00     0.039 C 
HETATM   18  C1  UNL     1      70.913  -2.811  30.941  1.00  0.00     0.037 C 
HETATM   19  N1  UNL     1      68.928  -1.560  30.719  1.00  0.00    -0.106 NA
ENDBRANCH  16  17
ENDBRANCH  15  16
ENDBRANCH   1  15
TORSDOF 6
ENDMDL
MODEL 5
REMARK VINA RESULT: -7.877493612      3.855      7.766
REMARK  6 active torsions:
REMARK  status: ('A' for Active; 'I' for Inactive)
REMARK    1  A    between atoms: C2_2  and  C3_4 
REMARK    2  A    between atoms: C3_4  and  O1_5 
REMARK    3  A    between atoms: O1_5  and  C4_6 
REMARK    4  A    between atoms: C7_9  and  C8_10 
REMARK    5  A    between atoms: N2_11  and  N3_13 
REMARK    6  A    between atoms: N3_13  and  C9_15 
ROOT
HETATM    1  C4  UNL     1      68.515  -5.155  32.503  1.00  0.00     0.069 A 
HETATM    2  C5  UNL     1      68.817  -6.039  31.488  1.00  0.00     0.037 A 
HETATM    3  C6  UNL     1      69.097  -7.355  31.779  1.00  0.00     0.015 A 
HETATM    4  C7  UNL     1      69.092  -7.854  33.079  1.00  0.00    -0.019 A 
HETATM    5  C10 UNL     1      68.790  -6.961  34.086  1.00  0.00     0.015 A 
HETATM    6  C11 UNL     1      68.509  -5.645  33.792  1.00  0.00     0.037 A 
ENDROOT
BRANCH   4   7
HETATM    7  C8  UNL     1      69.390  -9.243  33.370  1.00  0.00     0.118 C 
HETATM    8  N2  UNL     1      69.647 -10.035  32.399  1.00  0.00    -0.309 N 
ATOM      9  H2  UNL     1      69.628  -9.642  31.458  1.00  0.00     0.186 HD
BRANCH   8  10
HETATM   10  N3  UNL     1      69.948 -11.380  32.517  1.00  0.00    -0.279 N 
ATOM     11  H3  UNL     1      70.919 -11.657  32.660  1.00  0.00     0.189 HD
BRANCH  10  12
HETATM   12  C9  UNL     1      68.951 -12.390  32.445  1.00  0.00     0.199 C 
HETATM   13  N4  UNL     1      67.602 -12.100  32.815  1.00  0.00    -0.068 NA
HETATM   14  S1  UNL     1      69.339 -13.890  31.937  1.00  0.00    -0.043 SA
ENDBRANCH  10  12
ENDBRANCH   8  10
ENDBRANCH   4   7
BRANCH   1  15
HETATM   15  O1  UNL     1      68.225  -3.817  32.256  1.00  0.00    -0.346 OA
BRANCH  15  16
HETATM   16  C3  UNL     1      69.209  -2.856  32.589  1.00  0.00     0.228 C 
BRANCH  16  17
HETATM   17  C2  UNL     1      69.776  -2.339  31.328  1.00  0.00     0.039 C 
HETATM   18  C1  UNL     1      70.953  -2.755  30.930  1.00  0.00     0.037 C 
HETATM   19  N1  UNL     1      69.062  -1.399  30.548  1.00  0.00    -0.106 NA
ENDBRANCH  16  17
ENDBRANCH  15  16
ENDBRANCH   1  15
TORSDOF 6
ENDMDL
