MODEL 1
REMARK VINA RESULT: -6.672502748      0.000      0.000
REMARK  5 active torsions:
REMARK  status: ('A' for Active; 'I' for Inactive)
REMARK    1  A    between atoms: C2_2  and  O1_3 
REMARK    2  A    between atoms: O1_3  and  C3_4 
REMARK    3  A    between atoms: C3_4  and  C4_6 
REMARK    4  A    between atoms: C7_10  and  C8_11 
REMARK    5  A    between atoms: C8_11  and  O5_13 
ROOT
HETATM    1  C4  UNL     1      -4.276   1.514  14.044  1.00  0.00     0.055 C 
HETATM    2  C5  UNL     1      -3.699   2.692  14.119  1.00  0.00     0.057 C 
HETATM    3  C6  UNL     1      -3.434   3.120  15.497  1.00  0.00     0.077 C 
HETATM    4  O3  UNL     1      -3.299   3.589  13.152  1.00  0.00    -0.330 OA
HETATM    5  C7  UNL     1      -2.589   3.748  11.961  1.00  0.00     0.200 C 
HETATM    6  C10 UNL     1      -3.267   4.712  11.014  1.00  0.00     0.082 C 
HETATM    7  C11 UNL     1      -4.456   3.907  10.588  1.00  0.00    -0.018 C 
HETATM    8  C12 UNL     1      -4.023   2.646  10.573  1.00  0.00     0.013 C 
HETATM    9  C13 UNL     1      -2.581   2.603  10.990  1.00  0.00     0.193 C 
HETATM   10  C14 UNL     1      -2.095   1.337  11.501  1.00  0.00     0.121 C 
HETATM   11  S1  UNL     1      -3.458   0.194  11.744  1.00  0.00    -0.161 SA
HETATM   12  C15 UNL     1      -4.733   0.805  12.795  1.00  0.00     0.121 C 
HETATM   13  N1  UNL     1      -1.848   3.208   9.883  1.00  0.00    -0.058 N 
ATOM     14  H11 UNL     1      -1.933   2.695   9.006  1.00  0.00     0.278 HD
ATOM     15  H12 UNL     1      -0.835   3.130   9.971  1.00  0.00     0.278 HD
HETATM   16  C16 UNL     1      -2.324   4.577   9.807  1.00  0.00     0.246 C 
ENDROOT
BRANCH   1  17
HETATM   17  C3  UNL     1      -4.566   0.802  15.260  1.00  0.00     0.292 C 
HETATM   18  O2  UNL     1      -3.532   0.283  15.835  1.00  0.00    -0.259 OA
BRANCH  17  19
HETATM   19  O1  UNL     1      -5.732   0.569  15.926  1.00  0.00    -0.318 OA
BRANCH  19  20
HETATM   20  C2  UNL     1      -5.950   0.492  17.296  1.00  0.00     0.174 C 
HETATM   21  C1  UNL     1      -6.194   1.813  17.979  1.00  0.00     0.034 C 
ENDBRANCH  19  20
ENDBRANCH  17  19
ENDBRANCH   1  17
BRANCH   5  22
HETATM   22  C8  UNL     1      -1.200   4.185  12.189  1.00  0.00     0.297 C 
HETATM   23  O4  UNL     1      -0.176   3.516  12.099  1.00  0.00    -0.262 OA
BRANCH  22  24
HETATM   24  O5  UNL     1      -1.021   5.535  12.552  1.00  0.00    -0.324 OA
HETATM   25  C9  UNL     1       0.114   6.233  12.129  1.00  0.00     0.213 C 
ENDBRANCH  22  24
ENDBRANCH   5  22
TORSDOF 5
ENDMDL
MODEL 2
REMARK VINA RESULT: -6.668035809      2.154      3.378
REMARK  5 active torsions:
REMARK  status: ('A' for Active; 'I' for Inactive)
REMARK    1  A    between atoms: C2_2  and  O1_3 
REMARK    2  A    between atoms: O1_3  and  C3_4 
REMARK    3  A    between atoms: C3_4  and  C4_6 
REMARK    4  A    between atoms: C7_10  and  C8_11 
REMARK    5  A    between atoms: C8_11  and  O5_13 
ROOT
HETATM    1  C4  UNL     1      -4.485   1.806  15.188  1.00  0.00     0.055 C 
HETATM    2  C5  UNL     1      -3.979   1.283  14.093  1.00  0.00     0.057 C 
HETATM    3  C6  UNL     1      -4.185  -0.165  13.996  1.00  0.00     0.077 C 
HETATM    4  O3  UNL     1      -3.299   1.840  13.031  1.00  0.00    -0.330 OA
HETATM    5  C7  UNL     1      -3.302   2.860  12.079  1.00  0.00     0.200 C 
HETATM    6  C10 UNL     1      -1.919   3.420  11.835  1.00  0.00     0.082 C 
HETATM    7  C11 UNL     1      -1.679   4.160  13.115  1.00  0.00    -0.018 C 
HETATM    8  C12 UNL     1      -2.882   4.614  13.474  1.00  0.00     0.013 C 
HETATM    9  C13 UNL     1      -3.905   4.179  12.464  1.00  0.00     0.193 C 
HETATM   10  C14 UNL     1      -5.281   4.144  12.916  1.00  0.00     0.121 C 
HETATM   11  S1  UNL     1      -5.364   4.391  14.693  1.00  0.00    -0.161 SA
HETATM   12  C15 UNL     1      -4.405   3.246  15.627  1.00  0.00     0.121 C 
HETATM   13  N1  UNL     1      -3.611   4.958  11.267  1.00  0.00    -0.058 N 
ATOM     14  H11 UNL     1      -3.711   5.965  11.397  1.00  0.00     0.278 HD
ATOM     15  H12 UNL     1      -4.312   4.862  10.531  1.00  0.00     0.278 HD
HETATM   16  C16 UNL     1      -2.278   4.551  10.859  1.00  0.00     0.246 C 
ENDROOT
BRANCH   1  17
HETATM   17  C3  UNL     1      -5.159   0.946  16.123  1.00  0.00     0.292 C 
HETATM   18  O2  UNL     1      -4.380   0.379  16.983  1.00  0.00    -0.259 OA
BRANCH  17  19
HETATM   19  O1  UNL     1      -6.471   0.615  16.277  1.00  0.00    -0.318 OA
BRANCH  19  20
HETATM   20  C2  UNL     1      -7.423   1.194  17.108  1.00  0.00     0.174 C 
HETATM   21  C1  UNL     1      -6.885   2.206  18.086  1.00  0.00     0.034 C 
ENDBRANCH  19  20
ENDBRANCH  17  19
ENDBRANCH   1  17
BRANCH   5  22
HETATM   22  C8  UNL     1      -3.885   2.429  10.796  1.00  0.00     0.297 C 
HETATM   23  O4  UNL     1      -4.882   2.874  10.235  1.00  0.00    -0.262 OA
BRANCH  22  24
HETATM   24  O5  UNL     1      -3.221   1.382  10.126  1.00  0.00    -0.324 OA
HETATM   25  C9  UNL     1      -3.674   0.066  10.254  1.00  0.00     0.213 C 
ENDBRANCH  22  24
ENDBRANCH   5  22
TORSDOF 5
ENDMDL
MODEL 3
REMARK VINA RESULT: -6.564388213      2.107      3.444
REMARK  5 active torsions:
REMARK  status: ('A' for Active; 'I' for Inactive)
REMARK    1  A    between atoms: C2_2  and  O1_3 
REMARK    2  A    between atoms: O1_3  and  C3_4 
REMARK    3  A    between atoms: C3_4  and  C4_6 
REMARK    4  A    between atoms: C7_10  and  C8_11 
REMARK    5  A    between atoms: C8_11  and  O5_13 
ROOT
HETATM    1  C4  UNL     1      -4.499   3.435  14.449  1.00  0.00     0.055 C 
HETATM    2  C5  UNL     1      -3.879   2.425  13.882  1.00  0.00     0.057 C 
HETATM    3  C6  UNL     1      -4.308   1.120  14.396  1.00  0.00     0.077 C 
HETATM    4  O3  UNL     1      -2.909   2.367  12.904  1.00  0.00    -0.330 OA
HETATM    5  C7  UNL     1      -2.540   2.805  11.631  1.00  0.00     0.200 C 
HETATM    6  C10 UNL     1      -1.060   3.101  11.535  1.00  0.00     0.082 C 
HETATM    7  C11 UNL     1      -0.963   4.349  12.358  1.00  0.00    -0.018 C 
HETATM    8  C12 UNL     1      -2.116   4.985  12.144  1.00  0.00     0.013 C 
HETATM    9  C13 UNL     1      -2.971   4.179  11.209  1.00  0.00     0.193 C 
HETATM   10  C14 UNL     1      -4.395   4.441  11.249  1.00  0.00     0.121 C 
HETATM   11  S1  UNL     1      -4.796   5.513  12.633  1.00  0.00    -0.161 SA
HETATM   12  C15 UNL     1      -4.263   4.903  14.197  1.00  0.00     0.121 C 
HETATM   13  N1  UNL     1      -2.307   4.272   9.914  1.00  0.00    -0.058 N 
ATOM     14  H11 UNL     1      -2.255   5.222   9.546  1.00  0.00     0.278 HD
ATOM     15  H12 UNL     1      -2.848   3.875   9.145  1.00  0.00     0.278 HD
HETATM   16  C16 UNL     1      -1.010   3.646  10.098  1.00  0.00     0.246 C 
ENDROOT
BRANCH   1  17
HETATM   17  C3  UNL     1      -5.489   3.167  15.457  1.00  0.00     0.292 C 
HETATM   18  O2  UNL     1      -6.655   3.665  15.207  1.00  0.00    -0.259 OA
BRANCH  17  19
HETATM   19  O1  UNL     1      -5.432   2.482  16.634  1.00  0.00    -0.318 OA
BRANCH  19  20
HETATM   20  C2  UNL     1      -6.468   2.153  17.500  1.00  0.00     0.174 C 
HETATM   21  C1  UNL     1      -7.226   0.902  17.141  1.00  0.00     0.034 C 
ENDBRANCH  19  20
ENDBRANCH  17  19
ENDBRANCH   1  17
BRANCH   5  22
HETATM   22  C8  UNL     1      -2.913   1.846  10.576  1.00  0.00     0.297 C 
HETATM   23  O4  UNL     1      -2.167   1.150   9.894  1.00  0.00    -0.262 OA
BRANCH  22  24
HETATM   24  O5  UNL     1      -4.291   1.704  10.317  1.00  0.00    -0.324 OA
HETATM   25  C9  UNL     1      -4.978   0.571  10.760  1.00  0.00     0.213 C 
ENDBRANCH  22  24
ENDBRANCH   5  22
TORSDOF 5
ENDMDL
MODEL 4
REMARK VINA RESULT: -6.511970278      2.234      5.478
REMARK  5 active torsions:
REMARK  status: ('A' for Active; 'I' for Inactive)
REMARK    1  A    between atoms: C2_2  and  O1_3 
REMARK    2  A    between atoms: O1_3  and  C3_4 
REMARK    3  A    between atoms: C3_4  and  C4_6 
REMARK    4  A    between atoms: C7_10  and  C8_11 
REMARK    5  A    between atoms: C8_11  and  O5_13 
ROOT
HETATM    1  C4  UNL     1      -1.564   5.314  12.272  1.00  0.00     0.055 C 
HETATM    2  C5  UNL     1      -1.984   4.475  13.191  1.00  0.00     0.057 C 
HETATM    3  C6  UNL     1      -1.753   4.950  14.559  1.00  0.00     0.077 C 
HETATM    4  O3  UNL     1      -2.598   3.243  13.107  1.00  0.00    -0.330 OA
HETATM    5  C7  UNL     1      -3.640   2.521  12.522  1.00  0.00     0.200 C 
HETATM    6  C10 UNL     1      -3.226   1.113  12.158  1.00  0.00     0.082 C 
HETATM    7  C11 UNL     1      -2.310   1.373  11.001  1.00  0.00    -0.018 C 
HETATM    8  C12 UNL     1      -2.829   2.441  10.393  1.00  0.00     0.013 C 
HETATM    9  C13 UNL     1      -4.058   2.893  11.130  1.00  0.00     0.193 C 
HETATM   10  C14 UNL     1      -4.457   4.272  10.931  1.00  0.00     0.121 C 
HETATM   11  S1  UNL     1      -3.189   5.168  10.028  1.00  0.00    -0.161 SA
HETATM   12  C15 UNL     1      -1.596   5.117  10.778  1.00  0.00     0.121 C 
HETATM   13  N1  UNL     1      -5.055   1.860  10.874  1.00  0.00    -0.058 N 
ATOM     14  H11 UNL     1      -5.302   1.763   9.889  1.00  0.00     0.278 HD
ATOM     15  H12 UNL     1      -5.988   2.099  11.209  1.00  0.00     0.278 HD
HETATM   16  C16 UNL     1      -4.516   0.648  11.463  1.00  0.00     0.246 C 
ENDROOT
BRANCH   1  17
HETATM   17  C3  UNL     1      -0.957   6.552  12.685  1.00  0.00     0.292 C 
HETATM   18  O2  UNL     1       0.323   6.602  12.515  1.00  0.00    -0.259 OA
BRANCH  17  19
HETATM   19  O1  UNL     1      -1.479   7.689  13.224  1.00  0.00    -0.318 OA
BRANCH  19  20
HETATM   20  C2  UNL     1      -0.895   8.572  14.124  1.00  0.00     0.174 C 
HETATM   21  C1  UNL     1      -1.602   8.692  15.450  1.00  0.00     0.034 C 
ENDBRANCH  19  20
ENDBRANCH  17  19
ENDBRANCH   1  17
BRANCH   5  22
HETATM   22  C8  UNL     1      -4.837   2.469  13.379  1.00  0.00     0.297 C 
HETATM   23  O4  UNL     1      -5.868   3.128  13.272  1.00  0.00    -0.262 OA
BRANCH  22  24
HETATM   24  O5  UNL     1      -4.803   1.554  14.450  1.00  0.00    -0.324 OA
HETATM   25  C9  UNL     1      -4.480   1.989  15.738  1.00  0.00     0.213 C 
ENDBRANCH  22  24
ENDBRANCH   5  22
TORSDOF 5
ENDMDL
MODEL 5
REMARK VINA RESULT: -6.343248839      2.299      3.505
REMARK  5 active torsions:
REMARK  status: ('A' for Active; 'I' for Inactive)
REMARK    1  A    between atoms: C2_2  and  O1_3 
REMARK    2  A    between atoms: O1_3  and  C3_4 
REMARK    3  A    between atoms: C3_4  and  C4_6 
REMARK    4  A    between atoms: C7_10  and  C8_11 
REMARK    5  A    between atoms: C8_11  and  O5_13 
ROOT
HETATM    1  C4  UNL     1      -3.535   3.174  14.457  1.00  0.00     0.055 C 
HETATM    2  C5  UNL     1      -3.655   2.778  13.210  1.00  0.00     0.057 C 
HETATM    3  C6  UNL     1      -4.466   1.566  13.062  1.00  0.00     0.077 C 
HETATM    4  O3  UNL     1      -3.164   3.289  12.027  1.00  0.00    -0.330 OA
HETATM    5  C7  UNL     1      -3.029   4.436  11.243  1.00  0.00     0.200 C 
HETATM    6  C10 UNL     1      -1.686   4.504  10.553  1.00  0.00     0.082 C 
HETATM    7  C11 UNL     1      -0.781   4.785  11.713  1.00  0.00    -0.018 C 
HETATM    8  C12 UNL     1      -1.511   5.541  12.535  1.00  0.00     0.013 C 
HETATM    9  C13 UNL     1      -2.876   5.753  11.946  1.00  0.00     0.193 C 
HETATM   10  C14 UNL     1      -3.931   6.107  12.875  1.00  0.00     0.121 C 
HETATM   11  S1  UNL     1      -3.356   5.941  14.568  1.00  0.00    -0.161 SA
HETATM   12  C15 UNL     1      -2.730   4.343  14.966  1.00  0.00     0.121 C 
HETATM   13  N1  UNL     1      -2.664   6.633  10.804  1.00  0.00    -0.058 N 
ATOM     14  H11 UNL     1      -2.289   7.548  11.055  1.00  0.00     0.278 HD
ATOM     15  H12 UNL     1      -3.528   6.971  10.379  1.00  0.00     0.278 HD
HETATM   16  C16 UNL     1      -1.818   5.885   9.891  1.00  0.00     0.246 C 
ENDROOT
BRANCH   1  17
HETATM   17  C3  UNL     1      -4.186   2.417  15.493  1.00  0.00     0.292 C 
HETATM   18  O2  UNL     1      -3.405   1.618  16.141  1.00  0.00    -0.259 OA
BRANCH  17  19
HETATM   19  O1  UNL     1      -5.477   2.384  15.924  1.00  0.00    -0.318 OA
BRANCH  19  20
HETATM   20  C2  UNL     1      -5.977   1.930  17.139  1.00  0.00     0.174 C 
HETATM   21  C1  UNL     1      -7.240   1.113  17.044  1.00  0.00     0.034 C 
ENDBRANCH  19  20
ENDBRANCH  17  19
ENDBRANCH   1  17
BRANCH   5  22
HETATM   22  C8  UNL     1      -4.100   4.558  10.238  1.00  0.00     0.297 C 
HETATM   23  O4  UNL     1      -4.084   4.175   9.072  1.00  0.00    -0.262 OA
BRANCH  22  24
HETATM   24  O5  UNL     1      -5.289   5.186  10.660  1.00  0.00    -0.324 OA
HETATM   25  C9  UNL     1      -5.900   6.151   9.855  1.00  0.00     0.213 C 
ENDBRANCH  22  24
ENDBRANCH   5  22
TORSDOF 5
ENDMDL
