MODEL 1
REMARK VINA RESULT: -7.976456975      0.000      0.000
REMARK  5 active torsions:
REMARK  status: ('A' for Active; 'I' for Inactive)
REMARK    1  A    between atoms: C1_4  and  C2_6 
REMARK    2  A    between atoms: C6_10  and  C7_11 
REMARK    3  A    between atoms: C7_11  and  O1_12 
REMARK    4  A    between atoms: O1_12  and  C8_13 
REMARK    5  A    between atoms: N3_17  and  N4_18 
ROOT
HETATM    1  C2  UNL     1     215.765   7.676  12.664  1.00  0.00     0.005 A 
HETATM    2  C3  UNL     1     214.406   7.784  12.507  1.00  0.00     0.015 A 
HETATM    3  C4  UNL     1     213.870   7.603  11.234  1.00  0.00     0.002 A 
HETATM    4  C5  UNL     1     214.686   7.325  10.179  1.00  0.00     0.009 A 
HETATM    5  C6  UNL     1     216.049   7.215  10.335  1.00  0.00    -0.033 A 
HETATM    6  C13 UNL     1     216.597   7.388  11.572  1.00  0.00     0.024 A 
ENDROOT
BRANCH   5   7
HETATM    7  C7  UNL     1     216.911   6.906   9.134  1.00  0.00     0.214 C 
BRANCH   7   8
HETATM    8  O1  UNL     1     218.216   7.319   9.397  1.00  0.00    -0.345 OA
BRANCH   8   9
HETATM    9  C8  UNL     1     218.985   8.088   8.542  1.00  0.00     0.086 A 
HETATM   10  C9  UNL     1     219.512   9.279   8.999  1.00  0.00     0.039 A 
HETATM   11  C10 UNL     1     220.295  10.083   8.164  1.00  0.00     0.022 A 
HETATM   12  C11 UNL     1     220.554   9.697   6.865  1.00  0.00     0.115 A 
HETATM   13  N3  UNL     1     220.025   8.532   6.451  1.00  0.00    -0.283 N 
HETATM   14  C12 UNL     1     219.268   7.740   7.238  1.00  0.00     0.151 A 
BRANCH  13  15
HETATM   15  N4  UNL     1     220.274   8.126   5.148  1.00  0.00    -0.339 N 
ATOM     16  H42 UNL     1     220.749   8.773   4.519  1.00  0.00     0.177 HD
ATOM     17  H41 UNL     1     219.971   7.194   4.867  1.00  0.00     0.177 HD
ENDBRANCH  13  15
ENDBRANCH   8   9
ENDBRANCH   7   8
ENDBRANCH   5   7
BRANCH   1  18
HETATM   18  C1  UNL     1     216.358   7.856  13.960  1.00  0.00     0.120 C 
HETATM   19  N1  UNL     1     217.619   7.765  14.132  1.00  0.00    -0.387 N 
ATOM     20  H12 UNL     1     218.040   7.893  15.052  1.00  0.00     0.157 HD
ATOM     21  H11 UNL     1     218.242   7.560  13.350  1.00  0.00     0.157 HD
HETATM   22  N2  UNL     1     215.481   8.145  15.061  1.00  0.00    -0.082 NA
ENDBRANCH   1  18
TORSDOF 5
ENDMDL
MODEL 2
REMARK VINA RESULT: -7.495345130      1.467      6.992
REMARK  5 active torsions:
REMARK  status: ('A' for Active; 'I' for Inactive)
REMARK    1  A    between atoms: C1_4  and  C2_6 
REMARK    2  A    between atoms: C6_10  and  C7_11 
REMARK    3  A    between atoms: C7_11  and  O1_12 
REMARK    4  A    between atoms: O1_12  and  C8_13 
REMARK    5  A    between atoms: N3_17  and  N4_18 
ROOT
HETATM    1  C2  UNL     1     219.510   9.042   7.505  1.00  0.00     0.005 A 
HETATM    2  C3  UNL     1     220.198   9.379   8.645  1.00  0.00     0.015 A 
HETATM    3  C4  UNL     1     219.540   9.277   9.869  1.00  0.00     0.002 A 
HETATM    4  C5  UNL     1     218.248   8.851   9.920  1.00  0.00     0.009 A 
HETATM    5  C6  UNL     1     217.558   8.511   8.780  1.00  0.00    -0.033 A 
HETATM    6  C13 UNL     1     218.180   8.603   7.569  1.00  0.00     0.024 A 
ENDROOT
BRANCH   5   7
HETATM    7  C7  UNL     1     216.125   8.044   8.889  1.00  0.00     0.214 C 
BRANCH   7   8
HETATM    8  O1  UNL     1     215.562   8.586  10.043  1.00  0.00    -0.345 OA
BRANCH   8   9
HETATM    9  C8  UNL     1     215.497   7.939  11.264  1.00  0.00     0.086 A 
HETATM   10  C9  UNL     1     215.134   6.608  11.302  1.00  0.00     0.039 A 
HETATM   11  C10 UNL     1     215.058   5.920  12.517  1.00  0.00     0.022 A 
HETATM   12  C11 UNL     1     215.347   6.564  13.703  1.00  0.00     0.115 A 
HETATM   13  N3  UNL     1     215.697   7.860  13.632  1.00  0.00    -0.283 N 
HETATM   14  C12 UNL     1     215.777   8.544  12.472  1.00  0.00     0.151 A 
BRANCH  13  15
HETATM   15  N4  UNL     1     215.991   8.525  14.814  1.00  0.00    -0.339 N 
ATOM     16  H42 UNL     1     216.755   8.175  15.392  1.00  0.00     0.177 HD
ATOM     17  H41 UNL     1     215.429   9.340  15.061  1.00  0.00     0.177 HD
ENDBRANCH  13  15
ENDBRANCH   8   9
ENDBRANCH   7   8
ENDBRANCH   5   7
BRANCH   1  18
HETATM   18  C1  UNL     1     220.151   9.133   6.223  1.00  0.00     0.120 C 
HETATM   19  N1  UNL     1     220.718  10.210   5.840  1.00  0.00    -0.387 N 
ATOM     20  H12 UNL     1     221.174  10.275   4.929  1.00  0.00     0.157 HD
ATOM     21  H11 UNL     1     220.731  11.038   6.436  1.00  0.00     0.157 HD
HETATM   22  N2  UNL     1     220.134   7.968   5.383  1.00  0.00    -0.082 NA
ENDBRANCH   1  18
TORSDOF 5
ENDMDL
MODEL 3
REMARK VINA RESULT: -7.443320278      1.261      7.329
REMARK  5 active torsions:
REMARK  status: ('A' for Active; 'I' for Inactive)
REMARK    1  A    between atoms: C1_4  and  C2_6 
REMARK    2  A    between atoms: C6_10  and  C7_11 
REMARK    3  A    between atoms: C7_11  and  O1_12 
REMARK    4  A    between atoms: O1_12  and  C8_13 
REMARK    5  A    between atoms: N3_17  and  N4_18 
ROOT
HETATM    1  C2  UNL     1     220.059   8.339   6.252  1.00  0.00     0.005 A 
HETATM    2  C3  UNL     1     220.422   9.653   6.408  1.00  0.00     0.015 A 
HETATM    3  C4  UNL     1     220.353  10.212   7.683  1.00  0.00     0.002 A 
HETATM    4  C5  UNL     1     219.935   9.461   8.739  1.00  0.00     0.009 A 
HETATM    5  C6  UNL     1     219.571   8.144   8.584  1.00  0.00    -0.033 A 
HETATM    6  C13 UNL     1     219.630   7.574   7.346  1.00  0.00     0.024 A 
ENDROOT
BRANCH   5   7
HETATM    7  C7  UNL     1     219.113   7.353   9.788  1.00  0.00     0.214 C 
BRANCH   7   8
HETATM    8  O1  UNL     1     218.353   8.183  10.610  1.00  0.00    -0.345 OA
BRANCH   8   9
HETATM    9  C8  UNL     1     217.076   7.893  11.054  1.00  0.00     0.086 A 
HETATM   10  C9  UNL     1     216.153   7.382  10.164  1.00  0.00     0.039 A 
HETATM   11  C10 UNL     1     214.852   7.076  10.576  1.00  0.00     0.022 A 
HETATM   12  C11 UNL     1     214.468   7.279  11.886  1.00  0.00     0.115 A 
HETATM   13  N3  UNL     1     215.391   7.778  12.728  1.00  0.00    -0.283 N 
HETATM   14  C12 UNL     1     216.651   8.080  12.353  1.00  0.00     0.151 A 
BRANCH  13  15
HETATM   15  N4  UNL     1     215.025   7.989  14.049  1.00  0.00    -0.339 N 
ATOM     16  H42 UNL     1     214.386   7.328  14.489  1.00  0.00     0.177 HD
ATOM     17  H41 UNL     1     215.409   8.802  14.532  1.00  0.00     0.177 HD
ENDBRANCH  13  15
ENDBRANCH   8   9
ENDBRANCH   7   8
ENDBRANCH   5   7
BRANCH   1  18
HETATM   18  C1  UNL     1     220.116   7.725   4.954  1.00  0.00     0.120 C 
HETATM   19  N1  UNL     1     219.229   6.889   4.577  1.00  0.00    -0.387 N 
ATOM     20  H12 UNL     1     219.269   6.453   3.655  1.00  0.00     0.157 HD
ATOM     21  H11 UNL     1     218.454   6.633   5.189  1.00  0.00     0.157 HD
HETATM   22  N2  UNL     1     221.207   8.086   4.092  1.00  0.00    -0.082 NA
ENDBRANCH   1  18
TORSDOF 5
ENDMDL
MODEL 4
REMARK VINA RESULT: -7.402004205      1.130      1.205
REMARK  5 active torsions:
REMARK  status: ('A' for Active; 'I' for Inactive)
REMARK    1  A    between atoms: C1_4  and  C2_6 
REMARK    2  A    between atoms: C6_10  and  C7_11 
REMARK    3  A    between atoms: C7_11  and  O1_12 
REMARK    4  A    between atoms: O1_12  and  C8_13 
REMARK    5  A    between atoms: N3_17  and  N4_18 
ROOT
HETATM    1  C2  UNL     1     216.176   7.474  12.846  1.00  0.00     0.005 A 
HETATM    2  C3  UNL     1     215.564   6.273  12.588  1.00  0.00     0.015 A 
HETATM    3  C4  UNL     1     215.131   6.016  11.289  1.00  0.00     0.002 A 
HETATM    4  C5  UNL     1     215.317   6.942  10.308  1.00  0.00     0.009 A 
HETATM    5  C6  UNL     1     215.932   8.146  10.564  1.00  0.00    -0.033 A 
HETATM    6  C13 UNL     1     216.364   8.421  11.828  1.00  0.00     0.024 A 
ENDROOT
BRANCH   5   7
HETATM    7  C7  UNL     1     216.115   9.140   9.442  1.00  0.00     0.214 C 
BRANCH   7   8
HETATM    8  O1  UNL     1     216.826   8.530   8.410  1.00  0.00    -0.345 OA
BRANCH   8   9
HETATM    9  C8  UNL     1     218.164   8.752   8.139  1.00  0.00     0.086 A 
HETATM   10  C9  UNL     1     218.985   9.221   9.145  1.00  0.00     0.039 A 
HETATM   11  C10 UNL     1     220.344   9.457   8.910  1.00  0.00     0.022 A 
HETATM   12  C11 UNL     1     220.888   9.223   7.663  1.00  0.00     0.115 A 
HETATM   13  N3  UNL     1     220.061   8.767   6.705  1.00  0.00    -0.283 N 
HETATM   14  C12 UNL     1     218.748   8.532   6.909  1.00  0.00     0.151 A 
BRANCH  13  15
HETATM   15  N4  UNL     1     220.589   8.526   5.445  1.00  0.00    -0.339 N 
ATOM     16  H42 UNL     1     221.457   8.992   5.184  1.00  0.00     0.177 HD
ATOM     17  H41 UNL     1     220.086   7.891   4.826  1.00  0.00     0.177 HD
ENDBRANCH  13  15
ENDBRANCH   8   9
ENDBRANCH   7   8
ENDBRANCH   5   7
BRANCH   1  18
HETATM   18  C1  UNL     1     216.637   7.779  14.172  1.00  0.00     0.120 C 
HETATM   19  N1  UNL     1     217.863   7.636  14.497  1.00  0.00    -0.387 N 
ATOM     20  H12 UNL     1     218.190   7.853  15.439  1.00  0.00     0.157 HD
ATOM     21  H11 UNL     1     218.550   7.300  13.823  1.00  0.00     0.157 HD
HETATM   22  N2  UNL     1     215.670   8.252  15.122  1.00  0.00    -0.082 NA
ENDBRANCH   1  18
TORSDOF 5
ENDMDL
MODEL 5
REMARK VINA RESULT: -7.354334419      1.161      1.669
REMARK  5 active torsions:
REMARK  status: ('A' for Active; 'I' for Inactive)
REMARK    1  A    between atoms: C1_4  and  C2_6 
REMARK    2  A    between atoms: C6_10  and  C7_11 
REMARK    3  A    between atoms: C7_11  and  O1_12 
REMARK    4  A    between atoms: O1_12  and  C8_13 
REMARK    5  A    between atoms: N3_17  and  N4_18 
ROOT
HETATM    1  C2  UNL     1     215.705   7.217  12.004  1.00  0.00     0.005 A 
HETATM    2  C3  UNL     1     214.914   7.035  10.898  1.00  0.00     0.015 A 
HETATM    3  C4  UNL     1     215.487   7.203   9.639  1.00  0.00     0.002 A 
HETATM    4  C5  UNL     1     216.802   7.538   9.523  1.00  0.00     0.009 A 
HETATM    5  C6  UNL     1     217.597   7.719  10.631  1.00  0.00    -0.033 A 
HETATM    6  C13 UNL     1     217.059   7.561  11.874  1.00  0.00     0.024 A 
ENDROOT
BRANCH   5   7
HETATM    7  C7  UNL     1     219.050   8.091  10.449  1.00  0.00     0.214 C 
BRANCH   7   8
HETATM    8  O1  UNL     1     219.534   7.471   9.299  1.00  0.00    -0.345 OA
BRANCH   8   9
HETATM    9  C8  UNL     1     219.809   8.124   8.110  1.00  0.00     0.086 A 
HETATM   10  C9  UNL     1     220.181   9.452   8.144  1.00  0.00     0.039 A 
HETATM   11  C10 UNL     1     220.467  10.146   6.963  1.00  0.00     0.022 A 
HETATM   12  C11 UNL     1     220.383   9.510   5.741  1.00  0.00     0.115 A 
HETATM   13  N3  UNL     1     220.017   8.216   5.744  1.00  0.00    -0.283 N 
HETATM   14  C12 UNL     1     219.737   7.527   6.869  1.00  0.00     0.151 A 
BRANCH  13  15
HETATM   15  N4  UNL     1     219.926   7.559   4.525  1.00  0.00    -0.339 N 
ATOM     16  H42 UNL     1     220.511   6.738   4.370  1.00  0.00     0.177 HD
ATOM     17  H41 UNL     1     219.277   7.924   3.829  1.00  0.00     0.177 HD
ENDBRANCH  13  15
ENDBRANCH   8   9
ENDBRANCH   7   8
ENDBRANCH   5   7
BRANCH   1  18
HETATM   18  C1  UNL     1     215.153   7.054  13.321  1.00  0.00     0.120 C 
HETATM   19  N1  UNL     1     214.417   6.054  13.612  1.00  0.00    -0.387 N 
ATOM     20  H12 UNL     1     214.025   5.939  14.547  1.00  0.00     0.157 HD
ATOM     21  H11 UNL     1     214.200   5.341  12.916  1.00  0.00     0.157 HD
HETATM   22  N2  UNL     1     215.460   8.058  14.302  1.00  0.00    -0.082 NA
ENDBRANCH   1  18
TORSDOF 5
ENDMDL
