MODEL 1
REMARK VINA RESULT: -5.382067180      0.000      0.000
REMARK  3 active torsions:
REMARK  status: ('A' for Active; 'I' for Inactive)
REMARK    1  A    between atoms: N3_12  and  C6_13 
REMARK    2  A    between atoms: C6_13  and  C7_14 
REMARK    3  A    between atoms: C7_14  and  N4_15 
ROOT
HETATM    1  O1  UNL     1      -9.407  35.624  -7.303  1.00  0.00    -0.271 OA
HETATM    2  C1  UNL     1      -9.568  36.680  -6.636  1.00  0.00     0.255 C 
HETATM    3  N1  UNL     1      -9.655  38.021  -7.105  1.00  0.00    -0.336 N 
ATOM      4  H1  UNL     1      -9.469  38.317  -8.063  1.00  0.00     0.164 HD
HETATM    5  C2  UNL     1     -10.046  38.902  -6.027  1.00  0.00     0.358 C 
HETATM    6  N2  UNL     1     -10.577  37.969  -5.055  1.00  0.00    -0.042 N 
ATOM      7  H21 UNL     1     -11.568  37.762  -5.181  1.00  0.00     0.280 HD
ATOM      8  H22 UNL     1     -10.655  38.355  -4.114  1.00  0.00     0.280 HD
HETATM    9  C3  UNL     1      -9.712  36.791  -5.141  1.00  0.00     0.210 C 
HETATM   10  C4  UNL     1     -10.453  35.629  -4.611  1.00  0.00     0.079 C 
HETATM   11  C5  UNL     1      -9.625  34.545  -4.018  1.00  0.00     0.275 C 
HETATM   12  N3  UNL     1      -8.480  34.964  -3.292  1.00  0.00     0.090 N 
HETATM   13  C12 UNL     1      -7.701  35.999  -3.844  1.00  0.00     0.275 C 
HETATM   14  C13 UNL     1      -8.410  37.097  -4.522  1.00  0.00     0.079 C 
ENDROOT
BRANCH  12  15
HETATM   15  C6  UNL     1      -7.704  33.800  -2.940  1.00  0.00     0.302 C 
BRANCH  15  16
HETATM   16  C7  UNL     1      -8.283  32.944  -1.890  1.00  0.00     0.302 C 
BRANCH  16  17
HETATM   17  N4  UNL     1      -7.346  32.534  -0.868  1.00  0.00     0.094 N 
HETATM   18  C8  UNL     1      -6.535  33.644  -0.422  1.00  0.00     0.298 C 
HETATM   19  C9  UNL     1      -7.120  34.373   0.750  1.00  0.00     0.198 C 
HETATM   20  O2  UNL     1      -7.689  33.594   1.717  1.00  0.00    -0.388 OA
HETATM   21  C10 UNL     1      -8.667  32.753   1.163  1.00  0.00     0.198 C 
HETATM   22  C11 UNL     1      -7.932  31.821   0.237  1.00  0.00     0.298 C 
ENDBRANCH  16  17
ENDBRANCH  15  16
ENDBRANCH  12  15
TORSDOF 3
ENDMDL
MODEL 2
REMARK VINA RESULT: -5.304586711      0.905      1.450
REMARK  3 active torsions:
REMARK  status: ('A' for Active; 'I' for Inactive)
REMARK    1  A    between atoms: N3_12  and  C6_13 
REMARK    2  A    between atoms: C6_13  and  C7_14 
REMARK    3  A    between atoms: C7_14  and  N4_15 
ROOT
HETATM    1  O1  UNL     1      -8.975  34.985  -6.959  1.00  0.00    -0.271 OA
HETATM    2  C1  UNL     1      -9.252  36.021  -6.299  1.00  0.00     0.255 C 
HETATM    3  N1  UNL     1      -9.488  37.341  -6.777  1.00  0.00    -0.336 N 
ATOM      4  H1  UNL     1      -9.336  37.650  -7.738  1.00  0.00     0.164 HD
HETATM    5  C2  UNL     1      -9.973  38.181  -5.705  1.00  0.00     0.358 C 
HETATM    6  N2  UNL     1     -10.396  37.202  -4.725  1.00  0.00    -0.042 N 
ATOM      7  H21 UNL     1     -11.358  36.886  -4.847  1.00  0.00     0.280 HD
ATOM      8  H22 UNL     1     -10.516  37.584  -3.786  1.00  0.00     0.280 HD
HETATM    9  C3  UNL     1      -9.405  36.127  -4.804  1.00  0.00     0.210 C 
HETATM   10  C4  UNL     1     -10.012  34.894  -4.264  1.00  0.00     0.079 C 
HETATM   11  C5  UNL     1      -9.068  33.913  -3.665  1.00  0.00     0.275 C 
HETATM   12  N3  UNL     1      -7.976  34.461  -2.944  1.00  0.00     0.090 N 
HETATM   13  C12 UNL     1      -7.318  35.572  -3.506  1.00  0.00     0.275 C 
HETATM   14  C13 UNL     1      -8.145  36.580  -4.190  1.00  0.00     0.079 C 
ENDROOT
BRANCH  12  15
HETATM   15  C6  UNL     1      -7.076  33.394  -2.586  1.00  0.00     0.302 C 
BRANCH  15  16
HETATM   16  C7  UNL     1      -6.743  33.297  -1.154  1.00  0.00     0.302 C 
BRANCH  16  17
HETATM   17  N4  UNL     1      -7.868  33.475  -0.264  1.00  0.00     0.094 N 
HETATM   18  C8  UNL     1      -8.463  32.207   0.092  1.00  0.00     0.298 C 
HETATM   19  C9  UNL     1      -7.883  31.609   1.339  1.00  0.00     0.198 C 
HETATM   20  O2  UNL     1      -7.626  32.481   2.358  1.00  0.00    -0.388 OA
HETATM   21  C10 UNL     1      -6.796  33.524   1.920  1.00  0.00     0.198 C 
HETATM   22  C11 UNL     1      -7.598  34.285   0.896  1.00  0.00     0.298 C 
ENDBRANCH  16  17
ENDBRANCH  15  16
ENDBRANCH  12  15
TORSDOF 3
ENDMDL
MODEL 3
REMARK VINA RESULT: -5.064375325      5.361     10.144
REMARK  3 active torsions:
REMARK  status: ('A' for Active; 'I' for Inactive)
REMARK    1  A    between atoms: N3_12  and  C6_13 
REMARK    2  A    between atoms: C6_13  and  C7_14 
REMARK    3  A    between atoms: C7_14  and  N4_15 
ROOT
HETATM    1  O1  UNL     1      -6.264  36.221   7.455  1.00  0.00    -0.271 OA
HETATM    2  C1  UNL     1      -5.237  35.497   7.541  1.00  0.00     0.255 C 
HETATM    3  N1  UNL     1      -4.231  35.500   8.547  1.00  0.00    -0.336 N 
ATOM      4  H1  UNL     1      -4.148  36.197   9.288  1.00  0.00     0.164 HD
HETATM    5  C2  UNL     1      -3.344  34.372   8.370  1.00  0.00     0.358 C 
HETATM    6  N2  UNL     1      -4.121  33.514   7.498  1.00  0.00    -0.042 N 
ATOM      7  H21 UNL     1      -4.747  32.881   7.995  1.00  0.00     0.280 HD
ATOM      8  H22 UNL     1      -3.569  32.793   7.032  1.00  0.00     0.280 HD
HETATM    9  C3  UNL     1      -4.806  34.422   6.577  1.00  0.00     0.210 C 
HETATM   10  C4  UNL     1      -5.986  33.725   6.028  1.00  0.00     0.079 C 
HETATM   11  C5  UNL     1      -6.426  34.160   4.675  1.00  0.00     0.275 C 
HETATM   12  N3  UNL     1      -5.393  34.493   3.762  1.00  0.00     0.090 N 
HETATM   13  C12 UNL     1      -4.313  35.254   4.250  1.00  0.00     0.275 C 
HETATM   14  C13 UNL     1      -3.833  34.961   5.610  1.00  0.00     0.079 C 
ENDROOT
BRANCH  12  15
HETATM   15  C6  UNL     1      -5.988  35.053   2.574  1.00  0.00     0.302 C 
BRANCH  15  16
HETATM   16  C7  UNL     1      -6.174  34.117   1.453  1.00  0.00     0.302 C 
BRANCH  16  17
HETATM   17  N4  UNL     1      -7.506  34.112   0.890  1.00  0.00     0.094 N 
HETATM   18  C8  UNL     1      -7.487  33.718  -0.500  1.00  0.00     0.298 C 
HETATM   19  C9  UNL     1      -7.662  32.242  -0.699  1.00  0.00     0.198 C 
HETATM   20  O2  UNL     1      -8.582  31.633   0.106  1.00  0.00    -0.388 OA
HETATM   21  C10 UNL     1      -8.299  31.884   1.458  1.00  0.00     0.198 C 
HETATM   22  C11 UNL     1      -8.478  33.368   1.647  1.00  0.00     0.298 C 
ENDBRANCH  16  17
ENDBRANCH  15  16
ENDBRANCH  12  15
TORSDOF 3
ENDMDL
MODEL 4
REMARK VINA RESULT: -5.057960437      1.931      6.542
REMARK  3 active torsions:
REMARK  status: ('A' for Active; 'I' for Inactive)
REMARK    1  A    between atoms: N3_12  and  C6_13 
REMARK    2  A    between atoms: C6_13  and  C7_14 
REMARK    3  A    between atoms: C7_14  and  N4_15 
ROOT
HETATM    1  O1  UNL     1      -8.589  32.521  -0.584  1.00  0.00    -0.271 OA
HETATM    2  C1  UNL     1      -7.798  33.260   0.059  1.00  0.00     0.255 C 
HETATM    3  N1  UNL     1      -7.889  33.694   1.411  1.00  0.00    -0.336 N 
ATOM      4  H1  UNL     1      -8.700  33.555   2.015  1.00  0.00     0.164 HD
HETATM    5  C2  UNL     1      -6.668  34.360   1.806  1.00  0.00     0.358 C 
HETATM    6  N2  UNL     1      -5.743  33.921   0.781  1.00  0.00    -0.042 N 
ATOM      7  H21 UNL     1      -5.276  33.040   0.998  1.00  0.00     0.280 HD
ATOM      8  H22 UNL     1      -4.899  34.490   0.718  1.00  0.00     0.280 HD
HETATM    9  C3  UNL     1      -6.527  33.886  -0.455  1.00  0.00     0.210 C 
HETATM   10  C4  UNL     1      -5.857  32.977  -1.406  1.00  0.00     0.079 C 
HETATM   11  C5  UNL     1      -6.075  33.270  -2.847  1.00  0.00     0.275 C 
HETATM   12  N3  UNL     1      -6.132  34.643  -3.202  1.00  0.00     0.090 N 
HETATM   13  C12 UNL     1      -6.862  35.502  -2.359  1.00  0.00     0.275 C 
HETATM   14  C13 UNL     1      -6.781  35.265  -0.908  1.00  0.00     0.079 C 
ENDROOT
BRANCH  12  15
HETATM   15  C6  UNL     1      -6.518  34.747  -4.587  1.00  0.00     0.302 C 
BRANCH  15  16
HETATM   16  C7  UNL     1      -7.217  35.988  -4.960  1.00  0.00     0.302 C 
BRANCH  16  17
HETATM   17  N4  UNL     1      -8.382  35.792  -5.794  1.00  0.00     0.094 N 
HETATM   18  C8  UNL     1      -9.202  34.707  -5.305  1.00  0.00     0.298 C 
HETATM   19  C9  UNL     1     -10.265  35.153  -4.346  1.00  0.00     0.198 C 
HETATM   20  O2  UNL     1     -10.903  36.320  -4.659  1.00  0.00    -0.388 OA
HETATM   21  C10 UNL     1      -9.976  37.359  -4.834  1.00  0.00     0.198 C 
HETATM   22  C11 UNL     1      -9.156  36.981  -6.039  1.00  0.00     0.298 C 
ENDBRANCH  16  17
ENDBRANCH  15  16
ENDBRANCH  12  15
TORSDOF 3
ENDMDL
MODEL 5
REMARK VINA RESULT: -5.014222452      1.083      1.343
REMARK  3 active torsions:
REMARK  status: ('A' for Active; 'I' for Inactive)
REMARK    1  A    between atoms: N3_12  and  C6_13 
REMARK    2  A    between atoms: C6_13  and  C7_14 
REMARK    3  A    between atoms: C7_14  and  N4_15 
ROOT
HETATM    1  O1  UNL     1      -9.644  35.987  -7.393  1.00  0.00    -0.271 OA
HETATM    2  C1  UNL     1      -9.749  36.951  -6.590  1.00  0.00     0.255 C 
HETATM    3  N1  UNL     1      -9.699  38.347  -6.868  1.00  0.00    -0.336 N 
ATOM      4  H1  UNL     1      -9.440  38.754  -7.767  1.00  0.00     0.164 HD
HETATM    5  C2  UNL     1     -10.067  39.103  -5.692  1.00  0.00     0.358 C 
HETATM    6  N2  UNL     1     -10.723  38.097  -4.882  1.00  0.00    -0.042 N 
ATOM      7  H21 UNL     1     -11.721  38.000  -5.073  1.00  0.00     0.280 HD
ATOM      8  H22 UNL     1     -10.816  38.356  -3.900  1.00  0.00     0.280 HD
HETATM    9  C3  UNL     1      -9.958  36.869  -5.100  1.00  0.00     0.210 C 
HETATM   10  C4  UNL     1     -10.820  35.717  -4.768  1.00  0.00     0.079 C 
HETATM   11  C5  UNL     1     -10.117  34.492  -4.303  1.00  0.00     0.275 C 
HETATM   12  N3  UNL     1      -8.979  34.701  -3.482  1.00  0.00     0.090 N 
HETATM   13  C12 UNL     1      -8.089  35.727  -3.853  1.00  0.00     0.275 C 
HETATM   14  C13 UNL     1      -8.667  36.968  -4.395  1.00  0.00     0.079 C 
ENDROOT
BRANCH  12  15
HETATM   15  C6  UNL     1      -8.323  33.435  -3.269  1.00  0.00     0.302 C 
BRANCH  15  16
HETATM   16  C7  UNL     1      -6.868  33.501  -3.055  1.00  0.00     0.302 C 
BRANCH  16  17
HETATM   17  N4  UNL     1      -6.392  32.724  -1.932  1.00  0.00     0.094 N 
HETATM   18  C8  UNL     1      -5.005  33.013  -1.644  1.00  0.00     0.298 C 
HETATM   19  C9  UNL     1      -4.824  34.116  -0.645  1.00  0.00     0.198 C 
HETATM   20  O2  UNL     1      -5.690  34.116   0.412  1.00  0.00    -0.388 OA
HETATM   21  C10 UNL     1      -7.019  34.116  -0.038  1.00  0.00     0.198 C 
HETATM   22  C11 UNL     1      -7.212  32.803  -0.752  1.00  0.00     0.298 C 
ENDBRANCH  16  17
ENDBRANCH  15  16
ENDBRANCH  12  15
TORSDOF 3
ENDMDL
