MODEL 1
REMARK VINA RESULT: -8.234217357      0.000      0.000
REMARK  4 active torsions:
REMARK  status: ('A' for Active; 'I' for Inactive)
REMARK    1  A    between atoms: C2_2  and  S1_4 
REMARK    2  A    between atoms: S1_4  and  C3_5 
REMARK    3  A    between atoms: C3_5  and  C4_7 
REMARK    4  A    between atoms: C7_12  and  C8_13 
ROOT
HETATM    1  C4  UNL     1       5.389  -2.916  34.801  1.00  0.00     0.176 C 
HETATM    2  C5  UNL     1       4.972  -3.523  33.521  1.00  0.00     0.271 C 
HETATM    3  O3  UNL     1       4.435  -2.985  32.539  1.00  0.00    -0.264 OA
HETATM    4  O4  UNL     1       5.299  -4.864  33.610  1.00  0.00    -0.320 OA
HETATM    5  C6  UNL     1       6.229  -5.084  34.645  1.00  0.00     0.188 C 
HETATM    6  C7  UNL     1       6.663  -3.747  35.077  1.00  0.00     0.054 C 
ENDROOT
BRANCH   6   7
HETATM    7  C8  UNL     1       7.759  -3.104  34.386  1.00  0.00    -0.016 C 
HETATM    8  C9  UNL     1       8.517  -3.277  33.379  1.00  0.00    -0.083 C 
HETATM    9  C10 UNL     1       9.543  -2.153  33.178  1.00  0.00     0.034 C 
HETATM   10  C15 UNL     1       8.477  -4.417  32.484  1.00  0.00     0.034 C 
HETATM   11  C11 UNL     1      10.937  -2.792  33.148  1.00  0.00     0.004 C 
HETATM   12  C12 UNL     1      11.122  -3.650  31.946  1.00  0.00     0.000 C 
HETATM   13  C13 UNL     1      10.810  -5.088  32.095  1.00  0.00     0.000 C 
HETATM   14  C14 UNL     1       9.553  -5.449  32.791  1.00  0.00     0.004 C 
ENDBRANCH   6   7
BRANCH   1  15
HETATM   15  C3  UNL     1       5.637  -1.483  34.738  1.00  0.00     0.207 C 
HETATM   16  O2  UNL     1       6.238  -0.941  33.799  1.00  0.00    -0.284 OA
BRANCH  15  17
HETATM   17  S1  UNL     1       5.052  -0.449  36.069  1.00  0.00    -0.015 SA
BRANCH  17  18
HETATM   18  C2  UNL     1       5.758   1.179  36.027  1.00  0.00     0.189 C 
HETATM   19  C1  UNL     1       5.038   2.294  35.384  1.00  0.00     0.105 C 
HETATM   20  O1  UNL     1       6.838   1.371  36.531  1.00  0.00    -0.285 OA
ENDBRANCH  17  18
ENDBRANCH  15  17
ENDBRANCH   1  15
TORSDOF 4
ENDMDL
MODEL 2
REMARK VINA RESULT: -8.194930939      2.435      5.883
REMARK  4 active torsions:
REMARK  status: ('A' for Active; 'I' for Inactive)
REMARK    1  A    between atoms: C2_2  and  S1_4 
REMARK    2  A    between atoms: S1_4  and  C3_5 
REMARK    3  A    between atoms: C3_5  and  C4_7 
REMARK    4  A    between atoms: C7_12  and  C8_13 
ROOT
HETATM    1  C4  UNL     1       5.852  -3.833  33.798  1.00  0.00     0.176 C 
HETATM    2  C5  UNL     1       5.492  -4.282  35.158  1.00  0.00     0.271 C 
HETATM    3  O3  UNL     1       6.149  -4.977  35.952  1.00  0.00    -0.264 OA
HETATM    4  O4  UNL     1       4.233  -3.769  35.408  1.00  0.00    -0.320 OA
HETATM    5  C6  UNL     1       3.931  -2.725  34.511  1.00  0.00     0.188 C 
HETATM    6  C7  UNL     1       5.188  -2.438  33.802  1.00  0.00     0.054 C 
ENDROOT
BRANCH   6   7
HETATM    7  C8  UNL     1       6.130  -1.510  34.386  1.00  0.00    -0.016 C 
HETATM    8  C9  UNL     1       6.167  -0.537  35.205  1.00  0.00    -0.083 C 
HETATM    9  C10 UNL     1       7.570   0.053  35.401  1.00  0.00     0.034 C 
HETATM   10  C15 UNL     1       5.022   0.018  35.900  1.00  0.00     0.034 C 
HETATM   11  C11 UNL     1       7.496   1.553  35.086  1.00  0.00     0.004 C 
HETATM   12  C12 UNL     1       6.668   2.283  36.085  1.00  0.00     0.000 C 
HETATM   13  C13 UNL     1       5.236   2.464  35.765  1.00  0.00     0.000 C 
HETATM   14  C14 UNL     1       4.494   1.289  35.250  1.00  0.00     0.004 C 
ENDBRANCH   6   7
BRANCH   1  15
HETATM   15  C3  UNL     1       7.284  -3.790  33.535  1.00  0.00     0.207 C 
HETATM   16  O2  UNL     1       7.958  -2.754  33.632  1.00  0.00    -0.284 OA
BRANCH  15  17
HETATM   17  S1  UNL     1       8.117  -5.291  33.050  1.00  0.00    -0.015 SA
BRANCH  17  18
HETATM   18  C2  UNL     1       9.713  -4.985  32.338  1.00  0.00     0.189 C 
HETATM   19  C1  UNL     1       9.890  -3.940  31.312  1.00  0.00     0.105 C 
HETATM   20  O1  UNL     1      10.660  -5.641  32.699  1.00  0.00    -0.285 OA
ENDBRANCH  17  18
ENDBRANCH  15  17
ENDBRANCH   1  15
TORSDOF 4
ENDMDL
MODEL 3
REMARK VINA RESULT: -8.053184093      1.268      1.391
REMARK  4 active torsions:
REMARK  status: ('A' for Active; 'I' for Inactive)
REMARK    1  A    between atoms: C2_2  and  S1_4 
REMARK    2  A    between atoms: S1_4  and  C3_5 
REMARK    3  A    between atoms: C3_5  and  C4_7 
REMARK    4  A    between atoms: C7_12  and  C8_13 
ROOT
HETATM    1  C4  UNL     1       5.751  -3.733  34.342  1.00  0.00     0.176 C 
HETATM    2  C5  UNL     1       5.371  -4.123  32.969  1.00  0.00     0.271 C 
HETATM    3  O3  UNL     1       4.659  -3.515  32.153  1.00  0.00    -0.264 OA
HETATM    4  O4  UNL     1       5.976  -5.345  32.739  1.00  0.00    -0.320 OA
HETATM    5  C6  UNL     1       7.009  -5.575  33.669  1.00  0.00     0.188 C 
HETATM    6  C7  UNL     1       7.187  -4.302  34.383  1.00  0.00     0.054 C 
ENDROOT
BRANCH   6   7
HETATM    7  C8  UNL     1       8.068  -3.299  33.827  1.00  0.00    -0.016 C 
HETATM    8  C9  UNL     1       9.027  -3.189  32.998  1.00  0.00    -0.083 C 
HETATM    9  C10 UNL     1       9.556  -1.755  32.851  1.00  0.00     0.034 C 
HETATM   10  C15 UNL     1       9.619  -4.281  32.249  1.00  0.00     0.034 C 
HETATM   11  C11 UNL     1      11.062  -1.780  33.144  1.00  0.00     0.004 C 
HETATM   12  C12 UNL     1      11.810  -2.536  32.103  1.00  0.00     0.000 C 
HETATM   13  C13 UNL     1      12.055  -3.971  32.362  1.00  0.00     0.000 C 
HETATM   14  C14 UNL     1      10.920  -4.781  32.862  1.00  0.00     0.004 C 
ENDBRANCH   6   7
BRANCH   1  15
HETATM   15  C3  UNL     1       5.690  -2.301  34.603  1.00  0.00     0.207 C 
HETATM   16  O2  UNL     1       6.277  -1.461  33.906  1.00  0.00    -0.284 OA
BRANCH  15  17
HETATM   17  S1  UNL     1       4.725  -1.719  35.985  1.00  0.00    -0.015 SA
BRANCH  17  18
HETATM   18  C2  UNL     1       4.542   0.046  35.993  1.00  0.00     0.189 C 
HETATM   19  C1  UNL     1       5.609   0.910  36.532  1.00  0.00     0.105 C 
HETATM   20  O1  UNL     1       3.532   0.540  35.552  1.00  0.00    -0.285 OA
ENDBRANCH  17  18
ENDBRANCH  15  17
ENDBRANCH   1  15
TORSDOF 4
ENDMDL
MODEL 4
REMARK VINA RESULT: -7.978719272      2.418      5.809
REMARK  4 active torsions:
REMARK  status: ('A' for Active; 'I' for Inactive)
REMARK    1  A    between atoms: C2_2  and  S1_4 
REMARK    2  A    between atoms: S1_4  and  C3_5 
REMARK    3  A    between atoms: C3_5  and  C4_7 
REMARK    4  A    between atoms: C7_12  and  C8_13 
ROOT
HETATM    1  C4  UNL     1       6.693  -4.016  33.445  1.00  0.00     0.176 C 
HETATM    2  C5  UNL     1       6.149  -4.503  34.729  1.00  0.00     0.271 C 
HETATM    3  O3  UNL     1       6.745  -5.041  35.677  1.00  0.00    -0.264 OA
HETATM    4  O4  UNL     1       4.792  -4.245  34.691  1.00  0.00    -0.320 OA
HETATM    5  C6  UNL     1       4.490  -3.297  33.693  1.00  0.00     0.188 C 
HETATM    6  C7  UNL     1       5.790  -2.780  33.235  1.00  0.00     0.054 C 
ENDROOT
BRANCH   6   7
HETATM    7  C8  UNL     1       6.396  -1.674  33.942  1.00  0.00    -0.016 C 
HETATM    8  C9  UNL     1       6.174  -0.902  34.929  1.00  0.00    -0.083 C 
HETATM    9  C10 UNL     1       7.285   0.129  35.170  1.00  0.00     0.034 C 
HETATM   10  C15 UNL     1       4.992  -0.934  35.769  1.00  0.00     0.034 C 
HETATM   11  C11 UNL     1       6.642   1.522  35.151  1.00  0.00     0.004 C 
HETATM   12  C12 UNL     1       5.727   1.719  36.308  1.00  0.00     0.000 C 
HETATM   13  C13 UNL     1       4.298   1.402  36.095  1.00  0.00     0.000 C 
HETATM   14  C14 UNL     1       3.973   0.134  35.399  1.00  0.00     0.004 C 
ENDBRANCH   6   7
BRANCH   1  15
HETATM   15  C3  UNL     1       8.113  -3.695  33.473  1.00  0.00     0.207 C 
HETATM   16  O2  UNL     1       8.653  -3.098  34.416  1.00  0.00    -0.284 OA
BRANCH  15  17
HETATM   17  S1  UNL     1       9.133  -4.180  32.093  1.00  0.00    -0.015 SA
BRANCH  17  18
HETATM   18  C2  UNL     1      10.713  -3.373  32.096  1.00  0.00     0.189 C 
HETATM   19  C1  UNL     1      11.897  -4.040  32.669  1.00  0.00     0.105 C 
HETATM   20  O1  UNL     1      10.815  -2.266  31.624  1.00  0.00    -0.285 OA
ENDBRANCH  17  18
ENDBRANCH  15  17
ENDBRANCH   1  15
TORSDOF 4
ENDMDL
MODEL 5
REMARK VINA RESULT: -7.779587298      1.995      2.704
REMARK  4 active torsions:
REMARK  status: ('A' for Active; 'I' for Inactive)
REMARK    1  A    between atoms: C2_2  and  S1_4 
REMARK    2  A    between atoms: S1_4  and  C3_5 
REMARK    3  A    between atoms: C3_5  and  C4_7 
REMARK    4  A    between atoms: C7_12  and  C8_13 
ROOT
HETATM    1  C4  UNL     1       5.914  -4.825  34.375  1.00  0.00     0.176 C 
HETATM    2  C5  UNL     1       5.663  -4.935  32.924  1.00  0.00     0.271 C 
HETATM    3  O3  UNL     1       4.675  -4.558  32.271  1.00  0.00    -0.264 OA
HETATM    4  O4  UNL     1       6.773  -5.564  32.391  1.00  0.00    -0.320 OA
HETATM    5  C6  UNL     1       7.859  -5.506  33.286  1.00  0.00     0.188 C 
HETATM    6  C7  UNL     1       7.441  -4.584  34.354  1.00  0.00     0.054 C 
ENDROOT
BRANCH   6   7
HETATM    7  C8  UNL     1       7.654  -3.164  34.183  1.00  0.00    -0.016 C 
HETATM    8  C9  UNL     1       8.439  -2.356  33.592  1.00  0.00    -0.083 C 
HETATM    9  C10 UNL     1       8.099  -0.878  33.832  1.00  0.00     0.034 C 
HETATM   10  C15 UNL     1       9.574  -2.736  32.774  1.00  0.00     0.034 C 
HETATM   11  C11 UNL     1       9.351  -0.197  34.399  1.00  0.00     0.004 C 
HETATM   12  C12 UNL     1      10.449  -0.143  33.395  1.00  0.00     0.000 C 
HETATM   13  C13 UNL     1      11.428  -1.252  33.412  1.00  0.00     0.000 C 
HETATM   14  C14 UNL     1      10.899  -2.632  33.516  1.00  0.00     0.004 C 
ENDBRANCH   6   7
BRANCH   1  15
HETATM   15  C3  UNL     1       5.171  -3.764  35.039  1.00  0.00     0.207 C 
HETATM   16  O2  UNL     1       4.806  -3.831  36.221  1.00  0.00    -0.284 OA
BRANCH  15  17
HETATM   17  S1  UNL     1       4.763  -2.292  34.118  1.00  0.00    -0.015 SA
BRANCH  17  18
HETATM   18  C2  UNL     1       4.224  -0.962  35.162  1.00  0.00     0.189 C 
HETATM   19  C1  UNL     1       5.164  -0.309  36.092  1.00  0.00     0.105 C 
HETATM   20  O1  UNL     1       3.077  -0.592  35.107  1.00  0.00    -0.285 OA
ENDBRANCH  17  18
ENDBRANCH  15  17
ENDBRANCH   1  15
TORSDOF 4
ENDMDL
