MODEL 1
REMARK VINA RESULT: -6.102996434      0.000      0.000
REMARK  6 active torsions:
REMARK  status: ('A' for Active; 'I' for Inactive)
REMARK    1  A    between atoms: O1_2  and  C2_3 
REMARK    2  A    between atoms: C2_3  and  C3_5 
REMARK    3  A    between atoms: C9_11  and  C10_12 
REMARK    4  A    between atoms: C12_15  and  C13_16 
REMARK    5  A    between atoms: C13_16  and  O3_17 
REMARK    6  A    between atoms: C22_28  and  O4_29 
ROOT
HETATM    1  C10 UNL     1     -12.240  36.417   7.660  1.00  0.00     0.129 C 
HETATM    2  C11 UNL     1     -12.917  36.023   8.863  1.00  0.00     0.059 C 
HETATM    3  N1  UNL     1     -13.482  35.678   9.820  1.00  0.00    -0.197 NA
ENDROOT
BRANCH   1   4
HETATM    4  C9  UNL     1     -10.803  36.771   7.749  1.00  0.00     0.015 C 
HETATM    5  C8  UNL     1     -10.295  38.022   8.252  1.00  0.00    -0.019 A 
HETATM    6  C6  UNL     1      -9.551  38.422   9.429  1.00  0.00    -0.024 A 
HETATM    7  C7  UNL     1     -10.907  38.802   9.191  1.00  0.00     0.022 A 
HETATM    8  C14 UNL     1      -9.331  38.048   7.150  1.00  0.00    -0.029 C 
HETATM    9  C5  UNL     1      -8.584  39.535   9.602  1.00  0.00     0.012 C 
HETATM   10  C18 UNL     1      -8.893  37.197   9.912  1.00  0.00     0.036 C 
HETATM   11  C4  UNL     1      -8.653  39.800  11.132  1.00  0.00     0.024 C 
HETATM   12  C3  UNL     1      -7.884  38.641  11.774  1.00  0.00     0.086 C 
HETATM   13  C19 UNL     1      -8.387  37.354  11.294  1.00  0.00     0.125 C 
HETATM   14  C23 UNL     1      -8.190  38.664  13.280  1.00  0.00     0.055 C 
HETATM   15  F1  UNL     1      -9.540  37.092  12.100  1.00  0.00    -0.241 F 
HETATM   16  C20 UNL     1      -7.472  36.214  11.736  1.00  0.00     0.048 C 
HETATM   17  C21 UNL     1      -7.159  36.346  13.182  1.00  0.00     0.035 C 
HETATM   18  C22 UNL     1      -7.816  37.401  13.965  1.00  0.00     0.119 C 
HETATM   19  C17 UNL     1      -7.937  36.753   8.864  1.00  0.00     0.009 C 
HETATM   20  C16 UNL     1      -8.072  37.403   7.525  1.00  0.00     0.011 C 
HETATM   21  C12 UNL     1     -10.374  37.343   6.369  1.00  0.00     0.024 C 
HETATM   22  C15 UNL     1      -9.146  39.453   6.524  1.00  0.00     0.016 C 
BRANCH  12  23
HETATM   23  C2  UNL     1      -6.472  38.969  11.672  1.00  0.00     0.270 C 
HETATM   24  O2  UNL     1      -5.536  38.330  11.162  1.00  0.00    -0.264 OA
BRANCH  23  25
HETATM   25  O1  UNL     1      -6.081  40.201  12.234  1.00  0.00    -0.326 OA
HETATM   26  C1  UNL     1      -5.112  40.274  13.256  1.00  0.00     0.213 C 
ENDBRANCH  23  25
ENDBRANCH  12  23
BRANCH  18  27
HETATM   27  O4  UNL     1      -6.950  37.739  15.029  1.00  0.00    -0.396 OA
ATOM     28  H4  UNL     1      -7.488  38.056  15.744  1.00  0.00     0.210 HD
ENDBRANCH  18  27
BRANCH  21  29
HETATM   29  C13 UNL     1     -10.159  36.356   5.327  1.00  0.00     0.170 C 
BRANCH  29  30
HETATM   30  O3  UNL     1      -9.863  36.836   4.066  1.00  0.00    -0.400 OA
ATOM     31  H3  UNL     1      -9.917  36.216   3.348  1.00  0.00     0.209 HD
ENDBRANCH  29  30
ENDBRANCH  21  29
ENDBRANCH   1   4
TORSDOF 6
ENDMDL
MODEL 2
REMARK VINA RESULT: -5.651174799      2.711      6.941
REMARK  6 active torsions:
REMARK  status: ('A' for Active; 'I' for Inactive)
REMARK    1  A    between atoms: O1_2  and  C2_3 
REMARK    2  A    between atoms: C2_3  and  C3_5 
REMARK    3  A    between atoms: C9_11  and  C10_12 
REMARK    4  A    between atoms: C12_15  and  C13_16 
REMARK    5  A    between atoms: C13_16  and  O3_17 
REMARK    6  A    between atoms: C22_28  and  O4_29 
ROOT
HETATM    1  C10 UNL     1      -5.145  39.329  12.248  1.00  0.00     0.129 C 
HETATM    2  C11 UNL     1      -5.210  40.396  13.205  1.00  0.00     0.059 C 
HETATM    3  N1  UNL     1      -5.248  41.283  13.958  1.00  0.00    -0.197 NA
ENDROOT
BRANCH   1   4
HETATM    4  C9  UNL     1      -6.327  38.446  12.101  1.00  0.00     0.015 C 
HETATM    5  C8  UNL     1      -7.653  38.898  11.769  1.00  0.00    -0.019 A 
HETATM    6  C6  UNL     1      -8.520  38.761  10.616  1.00  0.00    -0.024 A 
HETATM    7  C7  UNL     1      -7.947  40.004  11.023  1.00  0.00     0.022 A 
HETATM    8  C14 UNL     1      -8.194  37.985  12.778  1.00  0.00    -0.029 C 
HETATM    9  C5  UNL     1     -10.003  38.719  10.548  1.00  0.00     0.012 C 
HETATM   10  C18 UNL     1      -8.019  37.584   9.888  1.00  0.00     0.036 C 
HETATM   11  C4  UNL     1     -10.281  39.188   9.092  1.00  0.00     0.024 C 
HETATM   12  C3  UNL     1      -9.913  37.991   8.209  1.00  0.00     0.086 C 
HETATM   13  C19 UNL     1      -8.563  37.517   8.512  1.00  0.00     0.125 C 
HETATM   14  C23 UNL     1      -9.854  38.491   6.757  1.00  0.00     0.055 C 
HETATM   15  F1  UNL     1      -7.699  38.383   7.772  1.00  0.00    -0.241 F 
HETATM   16  C20 UNL     1      -8.287  36.185   7.818  1.00  0.00     0.048 C 
HETATM   17  C21 UNL     1      -8.695  36.262   6.392  1.00  0.00     0.035 C 
HETATM   18  C22 UNL     1      -9.162  37.544   5.847  1.00  0.00     0.119 C 
HETATM   19  C17 UNL     1      -8.194  36.399  10.768  1.00  0.00     0.009 C 
HETATM   20  C16 UNL     1      -8.512  36.678  12.201  1.00  0.00     0.011 C 
HETATM   21  C12 UNL     1      -6.934  38.234  13.516  1.00  0.00     0.024 C 
HETATM   22  C15 UNL     1      -9.352  38.595  13.607  1.00  0.00     0.016 C 
BRANCH  12  23
HETATM   23  C2  UNL     1     -11.045  37.079   8.248  1.00  0.00     0.270 C 
HETATM   24  O2  UNL     1     -11.202  36.024   8.884  1.00  0.00    -0.264 OA
BRANCH  23  25
HETATM   25  O1  UNL     1     -12.148  37.429   7.442  1.00  0.00    -0.326 OA
HETATM   26  C1  UNL     1     -13.438  37.596   7.985  1.00  0.00     0.213 C 
ENDBRANCH  23  25
ENDBRANCH  12  23
BRANCH  18  27
HETATM   27  O4  UNL     1     -10.048  37.255   4.785  1.00  0.00    -0.396 OA
ATOM     28  H4  UNL     1     -10.913  37.543   5.051  1.00  0.00     0.210 HD
ENDBRANCH  18  27
BRANCH  21  29
HETATM   29  C13 UNL     1      -6.224  37.293  14.363  1.00  0.00     0.170 C 
BRANCH  29  30
HETATM   30  O3  UNL     1      -5.788  37.762  15.586  1.00  0.00    -0.400 OA
ATOM     31  H3  UNL     1      -4.848  37.801  15.719  1.00  0.00     0.209 HD
ENDBRANCH  29  30
ENDBRANCH  21  29
ENDBRANCH   1   4
TORSDOF 6
ENDMDL
MODEL 3
REMARK VINA RESULT: -5.451250366      3.432      7.135
REMARK  6 active torsions:
REMARK  status: ('A' for Active; 'I' for Inactive)
REMARK    1  A    between atoms: O1_2  and  C2_3 
REMARK    2  A    between atoms: C2_3  and  C3_5 
REMARK    3  A    between atoms: C9_11  and  C10_12 
REMARK    4  A    between atoms: C12_15  and  C13_16 
REMARK    5  A    between atoms: C13_16  and  O3_17 
REMARK    6  A    between atoms: C22_28  and  O4_29 
ROOT
HETATM    1  C10 UNL     1      -8.212  37.021   9.879  1.00  0.00     0.129 C 
HETATM    2  C11 UNL     1      -8.326  36.712  11.275  1.00  0.00     0.059 C 
HETATM    3  N1  UNL     1      -8.386  36.476  12.413  1.00  0.00    -0.197 NA
ENDROOT
BRANCH   1   4
HETATM    4  C9  UNL     1      -9.412  37.534   9.176  1.00  0.00     0.015 C 
HETATM    5  C8  UNL     1     -10.076  36.864   8.086  1.00  0.00    -0.019 A 
HETATM    6  C6  UNL     1     -11.355  36.206   7.920  1.00  0.00    -0.024 A 
HETATM    7  C7  UNL     1     -10.107  35.513   7.893  1.00  0.00     0.022 A 
HETATM    8  C14 UNL     1     -10.204  38.153   7.401  1.00  0.00    -0.029 C 
HETATM    9  C5  UNL     1     -12.199  36.075   6.705  1.00  0.00     0.012 C 
HETATM   10  C18 UNL     1     -12.214  36.743   8.988  1.00  0.00     0.036 C 
HETATM   11  C4  UNL     1     -13.035  34.802   7.019  1.00  0.00     0.024 C 
HETATM   12  C3  UNL     1     -14.075  35.251   8.051  1.00  0.00     0.086 C 
HETATM   13  C19 UNL     1     -13.431  35.923   9.180  1.00  0.00     0.125 C 
HETATM   14  C23 UNL     1     -14.714  33.984   8.641  1.00  0.00     0.055 C 
HETATM   15  F1  UNL     1     -12.984  34.862  10.028  1.00  0.00    -0.241 F 
HETATM   16  C20 UNL     1     -14.469  36.584  10.083  1.00  0.00     0.048 C 
HETATM   17  C21 UNL     1     -15.569  35.630  10.375  1.00  0.00     0.035 C 
HETATM   18  C22 UNL     1     -15.464  34.245   9.896  1.00  0.00     0.119 C 
HETATM   19  C17 UNL     1     -12.384  38.200   8.744  1.00  0.00     0.009 C 
HETATM   20  C16 UNL     1     -11.464  38.815   7.740  1.00  0.00     0.011 C 
HETATM   21  C12 UNL     1      -8.926  38.505   8.063  1.00  0.00     0.024 C 
HETATM   22  C15 UNL     1      -9.936  38.071   5.877  1.00  0.00     0.016 C 
BRANCH  12  23
HETATM   23  C2  UNL     1     -15.144  35.903   7.313  1.00  0.00     0.270 C 
HETATM   24  O2  UNL     1     -15.469  37.101   7.264  1.00  0.00    -0.264 OA
BRANCH  23  25
HETATM   25  O1  UNL     1     -15.951  35.061   6.521  1.00  0.00    -0.326 OA
HETATM   26  C1  UNL     1     -17.356  35.176   6.513  1.00  0.00     0.213 C 
ENDBRANCH  23  25
ENDBRANCH  12  23
BRANCH  18  27
HETATM   27  O4  UNL     1     -16.778  33.760   9.711  1.00  0.00    -0.396 OA
ATOM     28  H4  UNL     1     -16.923  33.078  10.355  1.00  0.00     0.210 HD
ENDBRANCH  18  27
BRANCH  21  29
HETATM   29  C13 UNL     1      -8.520  39.821   8.520  1.00  0.00     0.170 C 
BRANCH  29  30
HETATM   30  O3  UNL     1      -7.716  40.555   7.671  1.00  0.00    -0.400 OA
ATOM     31  H3  UNL     1      -7.045  40.077   7.197  1.00  0.00     0.209 HD
ENDBRANCH  29  30
ENDBRANCH  21  29
ENDBRANCH   1   4
TORSDOF 6
ENDMDL
MODEL 4
REMARK VINA RESULT: -4.809324557      7.569     10.572
REMARK  6 active torsions:
REMARK  status: ('A' for Active; 'I' for Inactive)
REMARK    1  A    between atoms: O1_2  and  C2_3 
REMARK    2  A    between atoms: C2_3  and  C3_5 
REMARK    3  A    between atoms: C9_11  and  C10_12 
REMARK    4  A    between atoms: C12_15  and  C13_16 
REMARK    5  A    between atoms: C13_16  and  O3_17 
REMARK    6  A    between atoms: C22_28  and  O4_29 
ROOT
HETATM    1  C10 UNL     1     -13.894  35.146   8.033  1.00  0.00     0.129 C 
HETATM    2  C11 UNL     1     -14.605  36.383   7.887  1.00  0.00     0.059 C 
HETATM    3  N1  UNL     1     -15.150  37.404   7.764  1.00  0.00    -0.197 NA
ENDROOT
BRANCH   1   4
HETATM    4  C9  UNL     1     -14.453  33.936   7.383  1.00  0.00     0.015 C 
HETATM    5  C8  UNL     1     -14.516  33.723   5.960  1.00  0.00    -0.019 A 
HETATM    6  C6  UNL     1     -13.854  32.830   5.031  1.00  0.00    -0.024 A 
HETATM    7  C7  UNL     1     -13.645  34.242   5.044  1.00  0.00     0.022 A 
HETATM    8  C14 UNL     1     -15.870  33.190   6.122  1.00  0.00    -0.029 C 
HETATM    9  C5  UNL     1     -14.352  32.258   3.754  1.00  0.00     0.012 C 
HETATM   10  C18 UNL     1     -13.366  31.707   5.847  1.00  0.00     0.036 C 
HETATM   11  C4  UNL     1     -13.031  31.950   2.992  1.00  0.00     0.024 C 
HETATM   12  C3  UNL     1     -12.461  30.700   3.671  1.00  0.00     0.086 C 
HETATM   13  C19 UNL     1     -12.370  30.890   5.119  1.00  0.00     0.125 C 
HETATM   14  C23 UNL     1     -11.011  30.536   3.189  1.00  0.00     0.055 C 
HETATM   15  F1  UNL     1     -11.148  31.606   5.315  1.00  0.00    -0.241 F 
HETATM   16  C20 UNL     1     -12.039  29.574   5.819  1.00  0.00     0.048 C 
HETATM   17  C21 UNL     1     -10.906  28.904   5.131  1.00  0.00     0.035 C 
HETATM   18  C22 UNL     1     -10.226  29.596   4.028  1.00  0.00     0.119 C 
HETATM   19  C17 UNL     1     -14.551  31.016   6.422  1.00  0.00     0.009 C 
HETATM   20  C16 UNL     1     -15.854  31.740   6.322  1.00  0.00     0.011 C 
HETATM   21  C12 UNL     1     -15.988  34.139   7.252  1.00  0.00     0.024 C 
HETATM   22  C15 UNL     1     -16.852  33.652   5.016  1.00  0.00     0.016 C 
BRANCH  12  23
HETATM   23  C2  UNL     1     -13.174  29.561   3.117  1.00  0.00     0.270 C 
HETATM   24  O2  UNL     1     -14.207  28.993   3.510  1.00  0.00    -0.264 OA
BRANCH  23  25
HETATM   25  O1  UNL     1     -12.622  28.995   1.950  1.00  0.00    -0.326 OA
HETATM   26  C1  UNL     1     -13.325  28.984   0.728  1.00  0.00     0.213 C 
ENDBRANCH  23  25
ENDBRANCH  12  23
BRANCH  18  27
HETATM   27  O4  UNL     1      -9.696  28.606   3.170  1.00  0.00    -0.396 OA
ATOM     28  H4  UNL     1      -9.143  29.046   2.536  1.00  0.00     0.210 HD
ENDBRANCH  18  27
BRANCH  21  29
HETATM   29  C13 UNL     1     -16.747  33.944   8.474  1.00  0.00     0.170 C 
BRANCH  29  30
HETATM   30  O3  UNL     1     -17.511  35.008   8.910  1.00  0.00    -0.400 OA
ATOM     31  H3  UNL     1     -18.186  34.817   9.551  1.00  0.00     0.209 HD
ENDBRANCH  29  30
ENDBRANCH  21  29
ENDBRANCH   1   4
TORSDOF 6
ENDMDL
MODEL 5
REMARK VINA RESULT: -4.676495325      2.898      5.727
REMARK  6 active torsions:
REMARK  status: ('A' for Active; 'I' for Inactive)
REMARK    1  A    between atoms: O1_2  and  C2_3 
REMARK    2  A    between atoms: C2_3  and  C3_5 
REMARK    3  A    between atoms: C9_11  and  C10_12 
REMARK    4  A    between atoms: C12_15  and  C13_16 
REMARK    5  A    between atoms: C13_16  and  O3_17 
REMARK    6  A    between atoms: C22_28  and  O4_29 
ROOT
HETATM    1  C10 UNL     1     -15.249  34.103  10.910  1.00  0.00     0.129 C 
HETATM    2  C11 UNL     1     -14.464  34.344  12.087  1.00  0.00     0.059 C 
HETATM    3  N1  UNL     1     -13.837  34.506  13.054  1.00  0.00    -0.197 NA
ENDROOT
BRANCH   1   4
HETATM    4  C9  UNL     1     -14.702  34.540   9.603  1.00  0.00     0.015 C 
HETATM    5  C8  UNL     1     -14.537  35.913   9.199  1.00  0.00    -0.019 A 
HETATM    6  C6  UNL     1     -13.398  36.776   8.958  1.00  0.00    -0.024 A 
HETATM    7  C7  UNL     1     -14.307  36.962  10.043  1.00  0.00     0.022 A 
HETATM    8  C14 UNL     1     -15.053  35.563   7.874  1.00  0.00    -0.029 C 
HETATM    9  C5  UNL     1     -13.262  37.919   8.020  1.00  0.00     0.012 C 
HETATM   10  C18 UNL     1     -12.267  35.870   8.704  1.00  0.00     0.036 C 
HETATM   11  C4  UNL     1     -12.123  38.751   8.675  1.00  0.00     0.024 C 
HETATM   12  C3  UNL     1     -10.838  37.972   8.377  1.00  0.00     0.086 C 
HETATM   13  C19 UNL     1     -10.968  36.575   8.790  1.00  0.00     0.125 C 
HETATM   14  C23 UNL     1      -9.728  38.558   9.264  1.00  0.00     0.055 C 
HETATM   15  F1  UNL     1     -10.689  36.583  10.192  1.00  0.00    -0.241 F 
HETATM   16  C20 UNL     1      -9.795  35.744   8.275  1.00  0.00     0.048 C 
HETATM   17  C21 UNL     1      -8.515  36.441   8.565  1.00  0.00     0.035 C 
HETATM   18  C22 UNL     1      -8.535  37.680   9.354  1.00  0.00     0.119 C 
HETATM   19  C17 UNL     1     -12.567  35.107   7.463  1.00  0.00     0.009 C 
HETATM   20  C16 UNL     1     -13.973  35.181   6.963  1.00  0.00     0.011 C 
HETATM   21  C12 UNL     1     -15.876  34.557   8.585  1.00  0.00     0.024 C 
HETATM   22  C15 UNL     1     -16.015  36.625   7.286  1.00  0.00     0.016 C 
BRANCH  12  23
HETATM   23  C2  UNL     1     -10.450  38.310   7.017  1.00  0.00     0.270 C 
HETATM   24  O2  UNL     1      -9.784  39.267   6.588  1.00  0.00    -0.264 OA
BRANCH  23  25
HETATM   25  O1  UNL     1     -10.887  37.424   6.012  1.00  0.00    -0.326 OA
HETATM   26  C1  UNL     1     -10.028  36.991   4.980  1.00  0.00     0.213 C 
ENDBRANCH  23  25
ENDBRANCH  12  23
BRANCH  18  27
HETATM   27  O4  UNL     1      -7.415  38.448   8.962  1.00  0.00    -0.396 OA
ATOM     28  H4  UNL     1      -6.746  38.333   9.626  1.00  0.00     0.210 HD
ENDBRANCH  18  27
BRANCH  21  29
HETATM   29  C13 UNL     1     -16.282  33.257   8.083  1.00  0.00     0.170 C 
BRANCH  29  30
HETATM   30  O3  UNL     1     -17.637  33.046   7.923  1.00  0.00    -0.400 OA
ATOM     31  H3  UNL     1     -17.901  32.205   7.568  1.00  0.00     0.209 HD
ENDBRANCH  29  30
ENDBRANCH  21  29
ENDBRANCH   1   4
TORSDOF 6
ENDMDL
