MODEL 1
REMARK VINA RESULT: -6.963653777      0.000      0.000
REMARK  1 active torsions:
REMARK  status: ('A' for Active; 'I' for Inactive)
REMARK    1  A    between atoms: C2_2  and  N1_3 
ROOT
HETATM    1  N1  UNL     1       1.310  -0.037  46.522  1.00  0.00    -0.296 N 
HETATM    2  C3  UNL     1       1.195  -0.578  45.291  1.00  0.00     0.330 A 
HETATM    3  O1  UNL     1       0.631  -1.708  45.198  1.00  0.00    -0.246 OA
HETATM    4  N2  UNL     1       1.635  -0.003  44.182  1.00  0.00    -0.273 N 
ATOM      5  H2  UNL     1       1.512  -0.475  43.286  1.00  0.00     0.173 HD
HETATM    6  C4  UNL     1       2.245   1.202  44.225  1.00  0.00     0.278 A 
HETATM    7  O2  UNL     1       2.675   1.780  43.194  1.00  0.00    -0.265 OA
HETATM    8  C5  UNL     1       2.387   1.796  45.443  1.00  0.00     0.130 A 
HETATM    9  N3  UNL     1       2.928   2.955  45.813  1.00  0.00    -0.352 N 
ATOM     10  H3  UNL     1       3.354   3.621  45.169  1.00  0.00     0.166 HD
HETATM   11  C6  UNL     1       2.844   3.136  47.134  1.00  0.00     0.032 A 
HETATM   12  C7  UNL     1       3.351   4.326  47.891  1.00  0.00     0.070 C 
HETATM   13  C8  UNL     1       2.215   2.027  47.627  1.00  0.00     0.098 A 
HETATM   14  N4  UNL     1       1.904   1.775  48.987  1.00  0.00    -0.098 NA
HETATM   15  C9  UNL     1       1.916   1.170  46.593  1.00  0.00     0.097 A 
ENDROOT
BRANCH   1  16
HETATM   16  C2  UNL     1       0.813  -0.705  47.693  1.00  0.00     0.130 C 
HETATM   17  C1  UNL     1       1.843  -1.667  48.272  1.00  0.00     0.027 C 
ENDBRANCH   1  16
TORSDOF 1
ENDMDL
MODEL 2
REMARK VINA RESULT: -6.775860090      1.545      3.253
REMARK  1 active torsions:
REMARK  status: ('A' for Active; 'I' for Inactive)
REMARK    1  A    between atoms: C2_2  and  N1_3 
ROOT
HETATM    1  N1  UNL     1       1.473   0.981  45.146  1.00  0.00    -0.296 N 
HETATM    2  C3  UNL     1       1.197  -0.282  44.760  1.00  0.00     0.330 A 
HETATM    3  O1  UNL     1       0.852  -0.466  43.556  1.00  0.00    -0.246 OA
HETATM    4  N2  UNL     1       1.264  -1.335  45.562  1.00  0.00    -0.273 N 
ATOM      5  H2  UNL     1       1.040  -2.262  45.198  1.00  0.00     0.173 HD
HETATM    6  C4  UNL     1       1.626  -1.195  46.856  1.00  0.00     0.278 A 
HETATM    7  O2  UNL     1       1.702  -2.170  47.646  1.00  0.00    -0.265 OA
HETATM    8  C5  UNL     1       1.917   0.060  47.299  1.00  0.00     0.130 A 
HETATM    9  N3  UNL     1       2.298   0.520  48.489  1.00  0.00    -0.352 N 
ATOM     10  H3  UNL     1       2.435  -0.064  49.314  1.00  0.00     0.166 HD
HETATM   11  C6  UNL     1       2.476   1.844  48.469  1.00  0.00     0.032 A 
HETATM   12  C7  UNL     1       2.902   2.690  49.631  1.00  0.00     0.070 C 
HETATM   13  C8  UNL     1       2.191   2.243  47.193  1.00  0.00     0.098 A 
HETATM   14  N4  UNL     1       2.246   3.571  46.698  1.00  0.00    -0.098 NA
HETATM   15  C9  UNL     1       1.838   1.148  46.436  1.00  0.00     0.097 A 
ENDROOT
BRANCH   1  16
HETATM   16  C2  UNL     1       1.384   2.087  44.234  1.00  0.00     0.130 C 
HETATM   17  C1  UNL     1       2.714   2.351  43.537  1.00  0.00     0.027 C 
ENDBRANCH   1  16
TORSDOF 1
ENDMDL
MODEL 3
REMARK VINA RESULT: -6.423538942      1.724      3.772
REMARK  1 active torsions:
REMARK  status: ('A' for Active; 'I' for Inactive)
REMARK    1  A    between atoms: C2_2  and  N1_3 
ROOT
HETATM    1  N1  UNL     1       2.073   2.279  46.975  1.00  0.00    -0.296 N 
HETATM    2  C3  UNL     1       2.554   3.252  46.173  1.00  0.00     0.330 A 
HETATM    3  O1  UNL     1       2.826   4.369  46.704  1.00  0.00    -0.246 OA
HETATM    4  N2  UNL     1       2.756   3.110  44.871  1.00  0.00    -0.273 N 
ATOM      5  H2  UNL     1       3.123   3.893  44.330  1.00  0.00     0.173 HD
HETATM    6  C4  UNL     1       2.482   1.940  44.254  1.00  0.00     0.278 A 
HETATM    7  O2  UNL     1       2.661   1.767  43.022  1.00  0.00    -0.265 OA
HETATM    8  C5  UNL     1       1.995   0.922  45.016  1.00  0.00     0.130 A 
HETATM    9  N3  UNL     1       1.635  -0.325  44.717  1.00  0.00    -0.352 N 
ATOM     10  H3  UNL     1       1.680  -0.725  43.780  1.00  0.00     0.166 HD
HETATM   11  C6  UNL     1       1.208  -0.986  45.796  1.00  0.00     0.032 A 
HETATM   12  C7  UNL     1       0.728  -2.406  45.824  1.00  0.00     0.070 C 
HETATM   13  C8  UNL     1       1.302  -0.106  46.838  1.00  0.00     0.098 A 
HETATM   14  N4  UNL     1       0.958  -0.367  48.189  1.00  0.00    -0.098 NA
HETATM   15  C9  UNL     1       1.791   1.097  46.382  1.00  0.00     0.097 A 
ENDROOT
BRANCH   1  16
HETATM   16  C2  UNL     1       1.874   2.486  48.382  1.00  0.00     0.130 C 
HETATM   17  C1  UNL     1       3.133   2.175  49.182  1.00  0.00     0.027 C 
ENDBRANCH   1  16
TORSDOF 1
ENDMDL
MODEL 4
REMARK VINA RESULT: -6.331657374      2.992      4.586
REMARK  1 active torsions:
REMARK  status: ('A' for Active; 'I' for Inactive)
REMARK    1  A    between atoms: C2_2  and  N1_3 
ROOT
HETATM    1  N1  UNL     1       3.772   1.905  48.502  1.00  0.00    -0.296 N 
HETATM    2  C3  UNL     1       5.072   2.259  48.430  1.00  0.00     0.330 A 
HETATM    3  O1  UNL     1       5.488   3.137  49.242  1.00  0.00    -0.246 OA
HETATM    4  N2  UNL     1       5.935   1.746  47.565  1.00  0.00    -0.273 N 
ATOM      5  H2  UNL     1       6.904   2.064  47.569  1.00  0.00     0.173 HD
HETATM    6  C4  UNL     1       5.545   0.806  46.675  1.00  0.00     0.278 A 
HETATM    7  O2  UNL     1       6.334   0.296  45.840  1.00  0.00    -0.265 OA
HETATM    8  C5  UNL     1       4.241   0.411  46.705  1.00  0.00     0.130 A 
HETATM    9  N3  UNL     1       3.561  -0.475  45.980  1.00  0.00    -0.352 N 
ATOM     10  H3  UNL     1       3.965  -1.032  45.228  1.00  0.00     0.166 HD
HETATM   11  C6  UNL     1       2.282  -0.542  46.361  1.00  0.00     0.032 A 
HETATM   12  C7  UNL     1       1.233  -1.431  45.763  1.00  0.00     0.070 C 
HETATM   13  C8  UNL     1       2.146   0.354  47.385  1.00  0.00     0.098 A 
HETATM   14  N4  UNL     1       0.957   0.626  48.107  1.00  0.00    -0.098 NA
HETATM   15  C9  UNL     1       3.356   0.966  47.624  1.00  0.00     0.097 A 
ENDROOT
BRANCH   1  16
HETATM   16  C2  UNL     1       2.880   2.494  49.461  1.00  0.00     0.130 C 
HETATM   17  C1  UNL     1       2.253   3.779  48.935  1.00  0.00     0.027 C 
ENDBRANCH   1  16
TORSDOF 1
ENDMDL
MODEL 5
REMARK VINA RESULT: -6.263494360      2.170      2.428
REMARK  1 active torsions:
REMARK  status: ('A' for Active; 'I' for Inactive)
REMARK    1  A    between atoms: C2_2  and  N1_3 
ROOT
HETATM    1  N1  UNL     1       1.937   0.604  47.428  1.00  0.00    -0.296 N 
HETATM    2  C3  UNL     1       2.330  -0.395  46.610  1.00  0.00     0.330 A 
HETATM    3  O1  UNL     1       1.470  -1.272  46.302  1.00  0.00    -0.246 OA
HETATM    4  N2  UNL     1       3.553  -0.513  46.115  1.00  0.00    -0.273 N 
ATOM      5  H2  UNL     1       3.776  -1.297  45.502  1.00  0.00     0.173 HD
HETATM    6  C4  UNL     1       4.509   0.395  46.412  1.00  0.00     0.278 A 
HETATM    7  O2  UNL     1       5.680   0.317  45.961  1.00  0.00    -0.265 OA
HETATM    8  C5  UNL     1       4.167   1.426  47.234  1.00  0.00     0.130 A 
HETATM    9  N3  UNL     1       4.862   2.460  47.705  1.00  0.00    -0.352 N 
ATOM     10  H3  UNL     1       5.844   2.636  47.493  1.00  0.00     0.166 HD
HETATM   11  C6  UNL     1       4.112   3.239  48.490  1.00  0.00     0.032 A 
HETATM   12  C7  UNL     1       4.570   4.485  49.186  1.00  0.00     0.070 C 
HETATM   13  C8  UNL     1       2.872   2.663  48.518  1.00  0.00     0.098 A 
HETATM   14  N4  UNL     1       1.742   3.142  49.226  1.00  0.00    -0.098 NA
HETATM   15  C9  UNL     1       2.875   1.527  47.741  1.00  0.00     0.097 A 
ENDROOT
BRANCH   1  16
HETATM   16  C2  UNL     1       0.597   0.685  47.937  1.00  0.00     0.130 C 
HETATM   17  C1  UNL     1      -0.332   1.408  46.968  1.00  0.00     0.027 C 
ENDBRANCH   1  16
TORSDOF 1
ENDMDL
