MODEL 1
REMARK VINA RESULT: -8.709736895      0.000      0.000
REMARK  13 active torsions:
REMARK  status: ('A' for Active; 'I' for Inactive)
REMARK    1  A    between atoms: C5_5  and  C6_6 
REMARK    2  A    between atoms: C7_11  and  N3_12 
REMARK    3  A    between atoms: N3_12  and  C8_14 
REMARK    4  A    between atoms: C8_14  and  C9_15 
REMARK    5  A    between atoms: C9_15  and  C10_16 
REMARK    6  A    between atoms: C10_16  and  N4_17 
REMARK    7  A    between atoms: C17_25  and  N6_26 
REMARK    8  A    between atoms: N7_29  and  C20_30 
REMARK    9  A    between atoms: C20_30  and  C21_31 
REMARK   10  A    between atoms: C21_31  and  C22_32 
REMARK   11  A    between atoms: C22_32  and  C23_33 
REMARK   12  A    between atoms: C27_40  and  C28_41 
REMARK   13  A    between atoms: C28_41  and  N8_42 
ROOT
HETATM    1  C6  UNL     1      39.237 -22.800 -38.160  1.00  0.00     0.085 A 
HETATM    2  N1  UNL     1      39.226 -22.068 -39.345  1.00  0.00    -0.296 N 
ATOM      3  H1  UNL     1      40.120 -21.781 -39.743  1.00  0.00     0.187 HD
HETATM    4  N2  UNL     1      38.140 -21.732 -39.970  1.00  0.00    -0.285 N 
ATOM      5  H2  UNL     1      38.194 -21.196 -40.836  1.00  0.00     0.188 HD
HETATM    6  C7  UNL     1      36.935 -22.093 -39.470  1.00  0.00     0.121 A 
HETATM    7  C16 UNL     1      36.897 -22.798 -38.301  1.00  0.00     0.081 A 
HETATM    8  C17 UNL     1      38.085 -23.184 -37.590  1.00  0.00     0.063 A 
ENDROOT
BRANCH   1   9
HETATM    9  C5  UNL     1      40.505 -23.383 -37.850  1.00  0.00    -0.005 A 
HETATM   10  C4  UNL     1      40.658 -24.567 -38.644  1.00  0.00     0.014 A 
HETATM   11  C3  UNL     1      41.758 -25.345 -38.568  1.00  0.00     0.008 A 
HETATM   12  C2  UNL     1      42.762 -25.019 -37.728  1.00  0.00    -0.051 A 
HETATM   13  C1  UNL     1      43.910 -25.926 -37.635  1.00  0.00     0.049 C 
HETATM   14  C27 UNL     1      42.676 -23.857 -36.931  1.00  0.00    -0.019 A 
HETATM   15  C26 UNL     1      41.534 -23.084 -37.035  1.00  0.00     0.026 A 
BRANCH  14  16
HETATM   16  C28 UNL     1      43.795 -23.658 -36.038  1.00  0.00     0.071 C 
BRANCH  16  17
HETATM   17  N8  UNL     1      43.605 -23.665 -34.600  1.00  0.00    -0.290 NA
HETATM   18  C29 UNL     1      43.683 -22.239 -34.173  1.00  0.00     0.114 C 
HETATM   19  C30 UNL     1      42.381 -21.603 -33.864  1.00  0.00     0.137 C 
HETATM   20  N9  UNL     1      41.904 -21.908 -32.509  1.00  0.00    -0.360 N 
HETATM   21  C31 UNL     1      42.029 -23.223 -31.954  1.00  0.00     0.218 C 
ATOM     22  H9  UNL     1      41.476 -21.169 -31.952  1.00  0.00     0.162 HD
HETATM   23  O1  UNL     1      41.607 -23.262 -30.770  1.00  0.00    -0.274 OA
HETATM   24  C32 UNL     1      42.565 -24.451 -32.592  1.00  0.00     0.117 C 
HETATM   25  C33 UNL     1      42.424 -24.270 -34.112  1.00  0.00     0.104 C 
ENDBRANCH  16  17
ENDBRANCH  14  16
ENDBRANCH   1   9
BRANCH   8  26
HETATM   26  N6  UNL     1      37.923 -23.849 -36.363  1.00  0.00    -0.376 N 
HETATM   27  C18 UNL     1      38.768 -24.618 -35.551  1.00  0.00     0.153 C 
HETATM   28  C19 UNL     1      38.646 -24.158 -34.091  1.00  0.00     0.292 C 
HETATM   29  N7  UNL     1      37.311 -24.611 -33.660  1.00  0.00     0.091 N 
HETATM   30  C24 UNL     1      36.333 -23.807 -34.413  1.00  0.00     0.292 C 
HETATM   31  C25 UNL     1      36.514 -23.783 -35.861  1.00  0.00     0.153 C 
BRANCH  29  32
HETATM   32  C20 UNL     1      37.132 -24.204 -32.269  1.00  0.00     0.273 C 
BRANCH  32  33
HETATM   33  C21 UNL     1      35.970 -24.951 -31.654  1.00  0.00     0.039 C 
BRANCH  33  34
HETATM   34  C22 UNL     1      35.150 -24.057 -30.748  1.00  0.00     0.119 C 
BRANCH  34  35
HETATM   35  C23 UNL     1      33.827 -23.791 -31.472  1.00  0.00     0.387 C 
HETATM   36  F1  UNL     1      33.452 -24.849 -32.270  1.00  0.00    -0.171 F 
HETATM   37  F2  UNL     1      34.055 -22.658 -32.270  1.00  0.00    -0.171 F 
HETATM   38  F3  UNL     1      32.901 -23.417 -30.541  1.00  0.00    -0.171 F 
ENDBRANCH  34  35
ENDBRANCH  33  34
ENDBRANCH  32  33
ENDBRANCH  29  32
ENDBRANCH   8  26
BRANCH   6  39
HETATM   39  N3  UNL     1      35.862 -21.824 -40.150  1.00  0.00    -0.355 N 
ATOM     40  H3  UNL     1      35.471 -20.896 -39.986  1.00  0.00     0.166 HD
BRANCH  39  41
HETATM   41  C8  UNL     1      35.155 -22.604 -41.070  1.00  0.00     0.064 C 
BRANCH  41  42
HETATM   42  C9  UNL     1      34.374 -23.763 -40.520  1.00  0.00     0.074 C 
BRANCH  42  43
HETATM   43  C10 UNL     1      34.880 -25.087 -40.894  1.00  0.00     0.277 C 
BRANCH  43  44
HETATM   44  N4  UNL     1      36.201 -25.502 -40.631  1.00  0.00     0.092 N 
HETATM   45  C11 UNL     1      36.326 -26.021 -39.267  1.00  0.00     0.302 C 
HETATM   46  C12 UNL     1      35.931 -27.423 -39.052  1.00  0.00     0.302 C 
HETATM   47  N5  UNL     1      36.746 -28.250 -39.933  1.00  0.00     0.087 N 
HETATM   48  C13 UNL     1      36.680 -29.644 -39.643  1.00  0.00     0.310 C 
HETATM   49  C14 UNL     1      36.275 -27.908 -41.277  1.00  0.00     0.302 C 
HETATM   50  C15 UNL     1      36.681 -26.505 -41.580  1.00  0.00     0.302 C 
ENDBRANCH  43  44
ENDBRANCH  42  43
ENDBRANCH  41  42
ENDBRANCH  39  41
ENDBRANCH   6  39
TORSDOF 13
ENDMDL
MODEL 2
REMARK VINA RESULT: -8.689651565      4.282      9.206
REMARK  13 active torsions:
REMARK  status: ('A' for Active; 'I' for Inactive)
REMARK    1  A    between atoms: C5_5  and  C6_6 
REMARK    2  A    between atoms: C7_11  and  N3_12 
REMARK    3  A    between atoms: N3_12  and  C8_14 
REMARK    4  A    between atoms: C8_14  and  C9_15 
REMARK    5  A    between atoms: C9_15  and  C10_16 
REMARK    6  A    between atoms: C10_16  and  N4_17 
REMARK    7  A    between atoms: C17_25  and  N6_26 
REMARK    8  A    between atoms: N7_29  and  C20_30 
REMARK    9  A    between atoms: C20_30  and  C21_31 
REMARK   10  A    between atoms: C21_31  and  C22_32 
REMARK   11  A    between atoms: C22_32  and  C23_33 
REMARK   12  A    between atoms: C27_40  and  C28_41 
REMARK   13  A    between atoms: C28_41  and  N8_42 
ROOT
HETATM    1  C6  UNL     1      36.344 -24.551 -35.376  1.00  0.00     0.085 A 
HETATM    2  N1  UNL     1      36.071 -23.446 -34.573  1.00  0.00    -0.296 N 
ATOM      3  H1  UNL     1      36.279 -22.519 -34.942  1.00  0.00     0.187 HD
HETATM    4  N2  UNL     1      35.565 -23.533 -33.382  1.00  0.00    -0.285 N 
ATOM      5  H2  UNL     1      35.385 -22.688 -32.840  1.00  0.00     0.188 HD
HETATM    6  C7  UNL     1      35.278 -24.748 -32.858  1.00  0.00     0.121 A 
HETATM    7  C16 UNL     1      35.544 -25.860 -33.604  1.00  0.00     0.081 A 
HETATM    8  C17 UNL     1      36.102 -25.792 -34.926  1.00  0.00     0.063 A 
ENDROOT
BRANCH   1   9
HETATM    9  C5  UNL     1      36.526 -24.233 -36.758  1.00  0.00    -0.005 A 
HETATM   10  C4  UNL     1      37.782 -23.557 -36.900  1.00  0.00     0.014 A 
HETATM   11  C3  UNL     1      38.232 -23.122 -38.096  1.00  0.00     0.008 A 
HETATM   12  C2  UNL     1      37.496 -23.319 -39.209  1.00  0.00    -0.051 A 
HETATM   13  C1  UNL     1      37.996 -22.775 -40.475  1.00  0.00     0.049 C 
HETATM   14  C27 UNL     1      36.257 -23.992 -39.135  1.00  0.00    -0.019 A 
HETATM   15  C26 UNL     1      35.828 -24.424 -37.894  1.00  0.00     0.026 A 
BRANCH  14  16
HETATM   16  C28 UNL     1      35.550 -24.085 -40.393  1.00  0.00     0.071 C 
BRANCH  16  17
HETATM   17  N8  UNL     1      34.140 -23.752 -40.475  1.00  0.00    -0.290 NA
HETATM   18  C29 UNL     1      34.079 -22.268 -40.591  1.00  0.00     0.114 C 
HETATM   19  C30 UNL     1      33.793 -21.754 -41.951  1.00  0.00     0.137 C 
HETATM   20  N9  UNL     1      32.360 -21.766 -42.274  1.00  0.00    -0.360 N 
HETATM   21  C31 UNL     1      31.523 -22.868 -41.905  1.00  0.00     0.218 C 
ATOM     22  H9  UNL     1      31.954 -20.974 -42.771  1.00  0.00     0.162 HD
HETATM   23  O1  UNL     1      30.325 -22.661 -42.229  1.00  0.00    -0.274 OA
HETATM   24  C32 UNL     1      31.901 -24.135 -41.231  1.00  0.00     0.117 C 
HETATM   25  C33 UNL     1      33.395 -24.366 -41.508  1.00  0.00     0.104 C 
ENDBRANCH  16  17
ENDBRANCH  14  16
ENDBRANCH   1   9
BRANCH   8  26
HETATM   26  N6  UNL     1      36.397 -27.003 -35.573  1.00  0.00    -0.376 N 
HETATM   27  C18 UNL     1      35.619 -28.058 -36.071  1.00  0.00     0.153 C 
HETATM   28  C19 UNL     1      36.094 -28.432 -37.483  1.00  0.00     0.292 C 
HETATM   29  N7  UNL     1      37.402 -29.083 -37.284  1.00  0.00     0.091 N 
HETATM   30  C24 UNL     1      38.325 -28.034 -36.819  1.00  0.00     0.292 C 
HETATM   31  C25 UNL     1      37.870 -27.252 -35.674  1.00  0.00     0.153 C 
BRANCH  29  32
HETATM   32  C20 UNL     1      37.911 -29.467 -38.598  1.00  0.00     0.273 C 
BRANCH  32  33
HETATM   33  C21 UNL     1      36.792 -29.451 -39.613  1.00  0.00     0.039 C 
BRANCH  33  34
HETATM   34  C22 UNL     1      37.263 -28.927 -40.953  1.00  0.00     0.119 C 
BRANCH  34  35
HETATM   35  C23 UNL     1      36.740 -27.492 -41.074  1.00  0.00     0.387 C 
HETATM   36  F1  UNL     1      36.805 -27.026 -42.368  1.00  0.00    -0.171 F 
HETATM   37  F2  UNL     1      37.573 -26.718 -40.251  1.00  0.00    -0.171 F 
HETATM   38  F3  UNL     1      35.499 -27.444 -40.508  1.00  0.00    -0.171 F 
ENDBRANCH  34  35
ENDBRANCH  33  34
ENDBRANCH  32  33
ENDBRANCH  29  32
ENDBRANCH   8  26
BRANCH   6  39
HETATM   39  N3  UNL     1      34.694 -24.815 -31.700  1.00  0.00    -0.355 N 
ATOM     40  H3  UNL     1      33.678 -24.898 -31.736  1.00  0.00     0.166 HD
BRANCH  39  41
HETATM   41  C8  UNL     1      35.236 -24.792 -30.411  1.00  0.00     0.064 C 
BRANCH  41  42
HETATM   42  C9  UNL     1      36.455 -25.637 -30.172  1.00  0.00     0.074 C 
BRANCH  42  43
HETATM   43  C10 UNL     1      37.736 -24.945 -30.357  1.00  0.00     0.277 C 
BRANCH  43  44
HETATM   44  N4  UNL     1      38.869 -25.573 -30.913  1.00  0.00     0.092 N 
HETATM   45  C11 UNL     1      38.875 -25.446 -32.373  1.00  0.00     0.302 C 
HETATM   46  C12 UNL     1      39.403 -24.187 -32.926  1.00  0.00     0.302 C 
HETATM   47  N5  UNL     1      40.771 -24.035 -32.446  1.00  0.00     0.087 N 
HETATM   48  C13 UNL     1      41.509 -23.015 -33.115  1.00  0.00     0.310 C 
HETATM   49  C14 UNL     1      40.619 -23.802 -31.008  1.00  0.00     0.302 C 
HETATM   50  C15 UNL     1      40.125 -25.057 -30.372  1.00  0.00     0.302 C 
ENDBRANCH  43  44
ENDBRANCH  42  43
ENDBRANCH  41  42
ENDBRANCH  39  41
ENDBRANCH   6  39
TORSDOF 13
ENDMDL
MODEL 3
REMARK VINA RESULT: -8.590177884      3.315      6.571
REMARK  13 active torsions:
REMARK  status: ('A' for Active; 'I' for Inactive)
REMARK    1  A    between atoms: C5_5  and  C6_6 
REMARK    2  A    between atoms: C7_11  and  N3_12 
REMARK    3  A    between atoms: N3_12  and  C8_14 
REMARK    4  A    between atoms: C8_14  and  C9_15 
REMARK    5  A    between atoms: C9_15  and  C10_16 
REMARK    6  A    between atoms: C10_16  and  N4_17 
REMARK    7  A    between atoms: C17_25  and  N6_26 
REMARK    8  A    between atoms: N7_29  and  C20_30 
REMARK    9  A    between atoms: C20_30  and  C21_31 
REMARK   10  A    between atoms: C21_31  and  C22_32 
REMARK   11  A    between atoms: C22_32  and  C23_33 
REMARK   12  A    between atoms: C27_40  and  C28_41 
REMARK   13  A    between atoms: C28_41  and  N8_42 
ROOT
HETATM    1  C6  UNL     1      36.300 -26.993 -38.997  1.00  0.00     0.085 A 
HETATM    2  N1  UNL     1      36.242 -27.886 -40.065  1.00  0.00    -0.296 N 
ATOM      3  H1  UNL     1      35.815 -27.570 -40.935  1.00  0.00     0.187 HD
HETATM    4  N2  UNL     1      36.703 -29.097 -40.012  1.00  0.00    -0.285 N 
ATOM      5  H2  UNL     1      36.634 -29.706 -40.827  1.00  0.00     0.188 HD
HETATM    6  C7  UNL     1      37.275 -29.552 -38.872  1.00  0.00     0.121 A 
HETATM    7  C16 UNL     1      37.339 -28.716 -37.794  1.00  0.00     0.081 A 
HETATM    8  C17 UNL     1      36.838 -27.370 -37.827  1.00  0.00     0.063 A 
ENDROOT
BRANCH   1   9
HETATM    9  C5  UNL     1      36.099 -25.628 -39.370  1.00  0.00    -0.005 A 
HETATM   10  C4  UNL     1      35.084 -25.585 -40.382  1.00  0.00     0.014 A 
HETATM   11  C3  UNL     1      34.678 -24.427 -40.943  1.00  0.00     0.008 A 
HETATM   12  C2  UNL     1      35.227 -23.257 -40.556  1.00  0.00    -0.051 A 
HETATM   13  C1  UNL     1      34.798 -22.031 -41.236  1.00  0.00     0.049 C 
HETATM   14  C27 UNL     1      36.221 -23.233 -39.553  1.00  0.00    -0.019 A 
HETATM   15  C26 UNL     1      36.613 -24.438 -39.001  1.00  0.00     0.026 A 
BRANCH  14  16
HETATM   16  C28 UNL     1      36.760 -21.921 -39.275  1.00  0.00     0.071 C 
BRANCH  16  17
HETATM   17  N8  UNL     1      38.154 -21.621 -39.547  1.00  0.00    -0.290 NA
HETATM   18  C29 UNL     1      38.880 -21.876 -38.271  1.00  0.00     0.114 C 
HETATM   19  C30 UNL     1      39.654 -23.139 -38.229  1.00  0.00     0.137 C 
HETATM   20  N9  UNL     1      40.969 -23.023 -38.872  1.00  0.00    -0.360 N 
HETATM   21  C31 UNL     1      41.137 -22.306 -40.100  1.00  0.00     0.218 C 
ATOM     22  H9  UNL     1      41.779 -23.463 -38.435  1.00  0.00     0.162 HD
HETATM   23  O1  UNL     1      42.344 -22.284 -40.455  1.00  0.00    -0.274 OA
HETATM   24  C32 UNL     1      40.106 -21.638 -40.932  1.00  0.00     0.117 C 
HETATM   25  C33 UNL     1      38.763 -22.316 -40.618  1.00  0.00     0.104 C 
ENDBRANCH  16  17
ENDBRANCH  14  16
ENDBRANCH   1   9
BRANCH   8  26
HETATM   26  N6  UNL     1      36.896 -26.624 -36.638  1.00  0.00    -0.376 N 
HETATM   27  C18 UNL     1      37.921 -25.953 -35.955  1.00  0.00     0.153 C 
HETATM   28  C19 UNL     1      37.442 -24.553 -35.544  1.00  0.00     0.292 C 
HETATM   29  N7  UNL     1      36.460 -24.789 -34.469  1.00  0.00     0.091 N 
HETATM   30  C24 UNL     1      35.298 -25.437 -35.098  1.00  0.00     0.292 C 
HETATM   31  C25 UNL     1      35.590 -26.618 -35.904  1.00  0.00     0.153 C 
BRANCH  29  32
HETATM   32  C20 UNL     1      35.965 -23.488 -34.028  1.00  0.00     0.273 C 
BRANCH  32  33
HETATM   33  C21 UNL     1      35.767 -23.486 -32.530  1.00  0.00     0.039 C 
BRANCH  33  34
HETATM   34  C22 UNL     1      34.418 -22.917 -32.146  1.00  0.00     0.119 C 
BRANCH  34  35
HETATM   35  C23 UNL     1      33.692 -24.003 -31.347  1.00  0.00     0.387 C 
HETATM   36  F1  UNL     1      32.561 -23.521 -30.729  1.00  0.00    -0.171 F 
HETATM   37  F2  UNL     1      34.611 -24.435 -30.378  1.00  0.00    -0.171 F 
HETATM   38  F3  UNL     1      33.485 -25.070 -32.173  1.00  0.00    -0.171 F 
ENDBRANCH  34  35
ENDBRANCH  33  34
ENDBRANCH  32  33
ENDBRANCH  29  32
ENDBRANCH   8  26
BRANCH   6  39
HETATM   39  N3  UNL     1      37.807 -30.737 -38.861  1.00  0.00    -0.355 N 
ATOM     40  H3  UNL     1      37.808 -31.215 -39.762  1.00  0.00     0.166 HD
BRANCH  39  41
HETATM   41  C8  UNL     1      38.379 -31.460 -37.810  1.00  0.00     0.064 C 
BRANCH  41  42
HETATM   42  C9  UNL     1      37.584 -32.614 -37.268  1.00  0.00     0.074 C 
BRANCH  42  43
HETATM   43  C10 UNL     1      36.300 -32.251 -36.657  1.00  0.00     0.277 C 
BRANCH  43  44
HETATM   44  N4  UNL     1      36.198 -31.368 -35.563  1.00  0.00     0.092 N 
HETATM   45  C11 UNL     1      34.944 -30.613 -35.614  1.00  0.00     0.302 C 
HETATM   46  C12 UNL     1      33.745 -31.282 -35.080  1.00  0.00     0.302 C 
HETATM   47  N5  UNL     1      34.016 -31.628 -33.691  1.00  0.00     0.087 N 
HETATM   48  C13 UNL     1      32.861 -32.027 -32.957  1.00  0.00     0.310 C 
HETATM   49  C14 UNL     1      35.044 -32.668 -33.777  1.00  0.00     0.302 C 
HETATM   50  C15 UNL     1      36.307 -32.049 -34.274  1.00  0.00     0.302 C 
ENDBRANCH  43  44
ENDBRANCH  42  43
ENDBRANCH  41  42
ENDBRANCH  39  41
ENDBRANCH   6  39
TORSDOF 13
ENDMDL
MODEL 4
REMARK VINA RESULT: -8.525611575      3.115      6.349
REMARK  13 active torsions:
REMARK  status: ('A' for Active; 'I' for Inactive)
REMARK    1  A    between atoms: C5_5  and  C6_6 
REMARK    2  A    between atoms: C7_11  and  N3_12 
REMARK    3  A    between atoms: N3_12  and  C8_14 
REMARK    4  A    between atoms: C8_14  and  C9_15 
REMARK    5  A    between atoms: C9_15  and  C10_16 
REMARK    6  A    between atoms: C10_16  and  N4_17 
REMARK    7  A    between atoms: C17_25  and  N6_26 
REMARK    8  A    between atoms: N7_29  and  C20_30 
REMARK    9  A    between atoms: C20_30  and  C21_31 
REMARK   10  A    between atoms: C21_31  and  C22_32 
REMARK   11  A    between atoms: C22_32  and  C23_33 
REMARK   12  A    between atoms: C27_40  and  C28_41 
REMARK   13  A    between atoms: C28_41  and  N8_42 
ROOT
HETATM    1  C6  UNL     1      36.194 -26.911 -39.708  1.00  0.00     0.085 A 
HETATM    2  N1  UNL     1      35.956 -27.600 -40.896  1.00  0.00    -0.296 N 
ATOM      3  H1  UNL     1      35.449 -27.119 -41.639  1.00  0.00     0.187 HD
HETATM    4  N2  UNL     1      36.345 -28.819 -41.109  1.00  0.00    -0.285 N 
ATOM      5  H2  UNL     1      36.144 -29.271 -42.000  1.00  0.00     0.188 HD
HETATM    6  C7  UNL     1      37.019 -29.489 -40.144  1.00  0.00     0.121 A 
HETATM    7  C16 UNL     1      37.261 -28.859 -38.957  1.00  0.00     0.081 A 
HETATM    8  C17 UNL     1      36.842 -27.509 -38.697  1.00  0.00     0.063 A 
ENDROOT
BRANCH   1   9
HETATM    9  C5  UNL     1      36.034 -25.495 -39.816  1.00  0.00    -0.005 A 
HETATM   10  C4  UNL     1      34.942 -25.235 -40.709  1.00  0.00     0.014 A 
HETATM   11  C3  UNL     1      34.552 -23.980 -41.019  1.00  0.00     0.008 A 
HETATM   12  C2  UNL     1      35.190 -22.920 -40.483  1.00  0.00    -0.051 A 
HETATM   13  C1  UNL     1      34.771 -21.577 -40.895  1.00  0.00     0.049 C 
HETATM   14  C27 UNL     1      36.264 -23.112 -39.586  1.00  0.00    -0.019 A 
HETATM   15  C26 UNL     1      36.637 -24.411 -39.291  1.00  0.00     0.026 A 
BRANCH  14  16
HETATM   16  C28 UNL     1      36.891 -21.892 -39.131  1.00  0.00     0.071 C 
BRANCH  16  17
HETATM   17  N8  UNL     1      38.265 -21.590 -39.486  1.00  0.00    -0.290 NA
HETATM   18  C29 UNL     1      39.076 -21.911 -38.278  1.00  0.00     0.114 C 
HETATM   19  C30 UNL     1      39.837 -23.180 -38.351  1.00  0.00     0.137 C 
HETATM   20  N9  UNL     1      41.105 -23.044 -39.079  1.00  0.00    -0.360 N 
HETATM   21  C31 UNL     1      41.195 -22.269 -40.280  1.00  0.00     0.218 C 
ATOM     22  H9  UNL     1      41.939 -23.510 -38.721  1.00  0.00     0.162 HD
HETATM   23  O1  UNL     1      42.373 -22.239 -40.719  1.00  0.00    -0.274 OA
HETATM   24  C32 UNL     1      40.114 -21.555 -41.005  1.00  0.00     0.117 C 
HETATM   25  C33 UNL     1      38.790 -22.236 -40.629  1.00  0.00     0.104 C 
ENDBRANCH  16  17
ENDBRANCH  14  16
ENDBRANCH   1   9
BRANCH   8  26
HETATM   26  N6  UNL     1      37.085 -26.987 -37.416  1.00  0.00    -0.376 N 
HETATM   27  C18 UNL     1      38.214 -26.456 -36.777  1.00  0.00     0.153 C 
HETATM   28  C19 UNL     1      37.841 -25.147 -36.064  1.00  0.00     0.292 C 
HETATM   29  N7  UNL     1      37.008 -25.563 -34.920  1.00  0.00     0.091 N 
HETATM   30  C24 UNL     1      35.750 -26.082 -35.484  1.00  0.00     0.292 C 
HETATM   31  C25 UNL     1      35.893 -27.102 -36.517  1.00  0.00     0.153 C 
BRANCH  29  32
HETATM   32  C20 UNL     1      36.619 -24.358 -34.194  1.00  0.00     0.273 C 
BRANCH  32  33
HETATM   33  C21 UNL     1      35.131 -24.369 -33.927  1.00  0.00     0.039 C 
BRANCH  33  34
HETATM   34  C22 UNL     1      34.783 -23.589 -32.678  1.00  0.00     0.119 C 
BRANCH  34  35
HETATM   35  C23 UNL     1      33.938 -24.517 -31.799  1.00  0.00     0.387 C 
HETATM   36  F1  UNL     1      32.859 -23.865 -31.247  1.00  0.00    -0.171 F 
HETATM   37  F2  UNL     1      34.798 -24.954 -30.778  1.00  0.00    -0.171 F 
HETATM   38  F3  UNL     1      33.626 -25.626 -32.531  1.00  0.00    -0.171 F 
ENDBRANCH  34  35
ENDBRANCH  33  34
ENDBRANCH  32  33
ENDBRANCH  29  32
ENDBRANCH   8  26
BRANCH   6  39
HETATM   39  N3  UNL     1      37.476 -30.677 -40.402  1.00  0.00    -0.355 N 
ATOM     40  H3  UNL     1      37.586 -31.281 -39.587  1.00  0.00     0.166 HD
BRANCH  39  41
HETATM   41  C8  UNL     1      37.842 -31.261 -41.618  1.00  0.00     0.064 C 
BRANCH  41  42
HETATM   42  C9  UNL     1      39.287 -31.637 -41.784  1.00  0.00     0.074 C 
BRANCH  42  43
HETATM   43  C10 UNL     1      40.239 -30.533 -41.614  1.00  0.00     0.277 C 
BRANCH  43  44
HETATM   44  N4  UNL     1      41.261 -30.549 -40.644  1.00  0.00     0.092 N 
HETATM   45  C11 UNL     1      42.471 -29.892 -41.146  1.00  0.00     0.302 C 
HETATM   46  C12 UNL     1      42.515 -28.423 -41.050  1.00  0.00     0.302 C 
HETATM   47  N5  UNL     1      42.349 -28.068 -39.646  1.00  0.00     0.087 N 
HETATM   48  C13 UNL     1      42.648 -26.706 -39.353  1.00  0.00     0.310 C 
HETATM   49  C14 UNL     1      40.965 -28.443 -39.346  1.00  0.00     0.302 C 
HETATM   50  C15 UNL     1      40.856 -29.929 -39.384  1.00  0.00     0.302 C 
ENDBRANCH  43  44
ENDBRANCH  42  43
ENDBRANCH  41  42
ENDBRANCH  39  41
ENDBRANCH   6  39
TORSDOF 13
ENDMDL
MODEL 5
REMARK VINA RESULT: -8.512376987      3.035      6.274
REMARK  13 active torsions:
REMARK  status: ('A' for Active; 'I' for Inactive)
REMARK    1  A    between atoms: C5_5  and  C6_6 
REMARK    2  A    between atoms: C7_11  and  N3_12 
REMARK    3  A    between atoms: N3_12  and  C8_14 
REMARK    4  A    between atoms: C8_14  and  C9_15 
REMARK    5  A    between atoms: C9_15  and  C10_16 
REMARK    6  A    between atoms: C10_16  and  N4_17 
REMARK    7  A    between atoms: C17_25  and  N6_26 
REMARK    8  A    between atoms: N7_29  and  C20_30 
REMARK    9  A    between atoms: C20_30  and  C21_31 
REMARK   10  A    between atoms: C21_31  and  C22_32 
REMARK   11  A    between atoms: C22_32  and  C23_33 
REMARK   12  A    between atoms: C27_40  and  C28_41 
REMARK   13  A    between atoms: C28_41  and  N8_42 
ROOT
HETATM    1  C6  UNL     1      36.272 -26.970 -39.055  1.00  0.00     0.085 A 
HETATM    2  N1  UNL     1      36.235 -27.846 -40.138  1.00  0.00    -0.296 N 
ATOM      3  H1  UNL     1      35.819 -27.517 -41.009  1.00  0.00     0.187 HD
HETATM    4  N2  UNL     1      36.701 -29.056 -40.098  1.00  0.00    -0.285 N 
ATOM      5  H2  UNL     1      36.647 -29.651 -40.924  1.00  0.00     0.188 HD
HETATM    6  C7  UNL     1      37.257 -29.526 -38.957  1.00  0.00     0.121 A 
HETATM    7  C16 UNL     1      37.301 -28.708 -37.865  1.00  0.00     0.081 A 
HETATM    8  C17 UNL     1      36.794 -27.364 -37.883  1.00  0.00     0.063 A 
ENDROOT
BRANCH   1   9
HETATM    9  C5  UNL     1      36.070 -25.600 -39.409  1.00  0.00    -0.005 A 
HETATM   10  C4  UNL     1      35.037 -25.542 -40.402  1.00  0.00     0.014 A 
HETATM   11  C3  UNL     1      34.626 -24.376 -40.942  1.00  0.00     0.008 A 
HETATM   12  C2  UNL     1      35.187 -23.213 -40.552  1.00  0.00    -0.051 A 
HETATM   13  C1  UNL     1      34.751 -21.977 -41.210  1.00  0.00     0.049 C 
HETATM   14  C27 UNL     1      36.199 -23.204 -39.567  1.00  0.00    -0.019 A 
HETATM   15  C26 UNL     1      36.595 -24.417 -39.035  1.00  0.00     0.026 A 
BRANCH  14  16
HETATM   16  C28 UNL     1      36.748 -21.897 -39.283  1.00  0.00     0.071 C 
BRANCH  16  17
HETATM   17  N8  UNL     1      38.145 -21.608 -39.549  1.00  0.00    -0.290 NA
HETATM   18  C29 UNL     1      38.868 -21.892 -38.278  1.00  0.00     0.114 C 
HETATM   19  C30 UNL     1      39.627 -23.164 -38.256  1.00  0.00     0.137 C 
HETATM   20  N9  UNL     1      40.944 -23.053 -38.896  1.00  0.00    -0.360 N 
HETATM   21  C31 UNL     1      41.121 -22.317 -40.112  1.00  0.00     0.218 C 
ATOM     22  H9  UNL     1      41.748 -23.509 -38.466  1.00  0.00     0.162 HD
HETATM   23  O1  UNL     1      42.328 -22.302 -40.467  1.00  0.00    -0.274 OA
HETATM   24  C32 UNL     1      40.098 -21.624 -40.934  1.00  0.00     0.117 C 
HETATM   25  C33 UNL     1      38.747 -22.292 -40.631  1.00  0.00     0.104 C 
ENDBRANCH  16  17
ENDBRANCH  14  16
ENDBRANCH   1   9
BRANCH   8  26
HETATM   26  N6  UNL     1      36.831 -26.637 -36.681  1.00  0.00    -0.376 N 
HETATM   27  C18 UNL     1      37.845 -25.988 -35.964  1.00  0.00     0.153 C 
HETATM   28  C19 UNL     1      37.370 -24.589 -35.542  1.00  0.00     0.292 C 
HETATM   29  N7  UNL     1      36.361 -24.831 -34.494  1.00  0.00     0.091 N 
HETATM   30  C24 UNL     1      35.207 -25.458 -35.162  1.00  0.00     0.292 C 
HETATM   31  C25 UNL     1      35.508 -26.629 -35.979  1.00  0.00     0.153 C 
BRANCH  29  32
HETATM   32  C20 UNL     1      35.867 -23.532 -34.046  1.00  0.00     0.273 C 
BRANCH  32  33
HETATM   33  C21 UNL     1      35.803 -23.494 -32.536  1.00  0.00     0.039 C 
BRANCH  33  34
HETATM   34  C22 UNL     1      34.489 -22.921 -32.049  1.00  0.00     0.119 C 
BRANCH  34  35
HETATM   35  C23 UNL     1      33.764 -24.050 -31.310  1.00  0.00     0.387 C 
HETATM   36  F1  UNL     1      33.453 -25.099 -32.146  1.00  0.00    -0.171 F 
HETATM   37  F2  UNL     1      32.582 -23.476 -30.814  1.00  0.00    -0.171 F 
HETATM   38  F3  UNL     1      34.507 -24.388 -30.216  1.00  0.00    -0.171 F 
ENDBRANCH  34  35
ENDBRANCH  33  34
ENDBRANCH  32  33
ENDBRANCH  29  32
ENDBRANCH   8  26
BRANCH   6  39
HETATM   39  N3  UNL     1      37.796 -30.708 -38.957  1.00  0.00    -0.355 N 
ATOM     40  H3  UNL     1      37.188 -31.456 -38.622  1.00  0.00     0.166 HD
BRANCH  39  41
HETATM   41  C8  UNL     1      39.076 -31.119 -39.342  1.00  0.00     0.064 C 
BRANCH  41  42
HETATM   42  C9  UNL     1      40.158 -31.032 -38.305  1.00  0.00     0.074 C 
BRANCH  42  43
HETATM   43  C10 UNL     1      40.923 -29.780 -38.309  1.00  0.00     0.277 C 
BRANCH  43  44
HETATM   44  N4  UNL     1      40.749 -28.782 -39.289  1.00  0.00     0.092 N 
HETATM   45  C11 UNL     1      40.487 -27.480 -38.671  1.00  0.00     0.302 C 
HETATM   46  C12 UNL     1      41.660 -26.714 -38.218  1.00  0.00     0.302 C 
HETATM   47  N5  UNL     1      42.525 -26.508 -39.373  1.00  0.00     0.087 N 
HETATM   48  C13 UNL     1      43.557 -25.549 -39.161  1.00  0.00     0.310 C 
HETATM   49  C14 UNL     1      43.025 -27.849 -39.687  1.00  0.00     0.302 C 
HETATM   50  C15 UNL     1      41.891 -28.672 -40.195  1.00  0.00     0.302 C 
ENDBRANCH  43  44
ENDBRANCH  42  43
ENDBRANCH  41  42
ENDBRANCH  39  41
ENDBRANCH   6  39
TORSDOF 13
ENDMDL
