MODEL 1
REMARK VINA RESULT: -8.236227959      0.000      0.000
REMARK  15 active torsions:
REMARK  status: ('A' for Active; 'I' for Inactive)
REMARK    1  A    between atoms: C2_2  and  C3_3 
REMARK    2  A    between atoms: N1_5  and  C5_6 
REMARK    3  A    between atoms: C5_6  and  C6_7 
REMARK    4  A    between atoms: C6_7  and  C7_8 
REMARK       I    between atoms: C7_8  and  N2_10 
REMARK    5  A    between atoms: C9_12  and  O2_13 
REMARK    6  A    between atoms: C11_16  and  C12_17 
REMARK    7  A    between atoms: N3_22  and  C15_23 
REMARK    8  A    between atoms: C15_23  and  C16_24 
REMARK    9  A    between atoms: C17_25  and  C19_27 
REMARK   10  A    between atoms: C19_27  and  C20_28 
REMARK   11  A    between atoms: C19_27  and  O5_34 
REMARK   12  A    between atoms: C20_28  and  C21_29 
REMARK   13  A    between atoms: C21_29  and  C22_30 
REMARK   14  A    between atoms: O5_34  and  C23_35 
REMARK       I    between atoms: C23_35  and  N4_37 
REMARK       I    between atoms: N5_40  and  C26_41 
REMARK   15  A    between atoms: C26_41  and  O8_43 
ROOT
HETATM    1  C15 UNL     1      37.601 -26.177 -31.749  1.00  0.00     0.300 C 
ENDROOT
BRANCH   1   2
HETATM    2  N3  UNL     1      38.658 -25.953 -32.689  1.00  0.00     0.099 N 
HETATM    3  C3  UNL     1      39.838 -25.410 -32.134  1.00  0.00     0.240 C 
HETATM    4  C4  UNL     1      41.071 -25.950 -32.880  1.00  0.00     0.152 C 
HETATM    5  N1  UNL     1      40.765 -26.104 -34.246  1.00  0.00    -0.408 N 
HETATM    6  C13 UNL     1      39.832 -27.160 -34.486  1.00  0.00     0.147 C 
HETATM    7  C14 UNL     1      38.952 -27.271 -33.263  1.00  0.00     0.292 C 
BRANCH   3   8
HETATM    8  C2  UNL     1      39.961 -23.909 -32.203  1.00  0.00     0.033 C 
HETATM    9  C1  UNL     1      41.184 -23.399 -31.523  1.00  0.00     0.007 C 
ENDBRANCH   3   8
BRANCH   5  10
HETATM   10  C5  UNL     1      41.837 -25.995 -35.185  1.00  0.00     0.126 C 
BRANCH  10  11
HETATM   11  C6  UNL     1      42.754 -24.894 -34.683  1.00  0.00     0.122 C 
BRANCH  11  12
HETATM   12  C7  UNL     1      42.447 -23.598 -35.377  1.00  0.00     0.222 C 
HETATM   13  O1  UNL     1      41.273 -23.368 -35.769  1.00  0.00    -0.273 OA
HETATM   14  N2  UNL     1      43.500 -22.678 -35.561  1.00  0.00    -0.335 N 
HETATM   15  C8  UNL     1      44.867 -22.887 -35.122  1.00  0.00     0.158 C 
HETATM   16  C11 UNL     1      43.416 -21.397 -36.206  1.00  0.00     0.190 C 
HETATM   17  C9  UNL     1      45.362 -21.463 -34.871  1.00  0.00     0.138 C 
HETATM   18  C10 UNL     1      44.791 -20.744 -36.055  1.00  0.00     0.070 C 
BRANCH  17  19
HETATM   19  O2  UNL     1      46.747 -21.434 -34.838  1.00  0.00    -0.394 OA
ATOM     20  H2  UNL     1      47.049 -20.713 -34.298  1.00  0.00     0.210 HD
ENDBRANCH  17  19
BRANCH  16  21
HETATM   21  C12 UNL     1      42.422 -20.478 -35.636  1.00  0.00     0.197 C 
HETATM   22  O3  UNL     1      41.875 -19.666 -36.453  1.00  0.00    -0.646 OA
HETATM   23  O4  UNL     1      42.048 -20.431 -34.312  1.00  0.00    -0.646 OA
ENDBRANCH  16  21
ENDBRANCH  11  12
ENDBRANCH  10  11
ENDBRANCH   5  10
ENDBRANCH   1   2
BRANCH   1  24
HETATM   24  C16 UNL     1      36.348 -26.545 -32.447  1.00  0.00     0.008 C 
HETATM   25  C17 UNL     1      35.642 -25.757 -33.225  1.00  0.00    -0.057 C 
HETATM   26  C18 UNL     1      34.383 -26.382 -33.831  1.00  0.00     0.046 C 
BRANCH  25  27
HETATM   27  C19 UNL     1      35.909 -24.340 -33.561  1.00  0.00     0.162 C 
BRANCH  27  28
HETATM   28  C20 UNL     1      34.806 -23.438 -33.019  1.00  0.00     0.046 C 
BRANCH  28  29
HETATM   29  C21 UNL     1      34.995 -23.147 -31.554  1.00  0.00     0.120 C 
BRANCH  29  30
HETATM   30  C22 UNL     1      34.046 -24.004 -30.736  1.00  0.00     0.388 C 
HETATM   31  F1  UNL     1      33.325 -23.219 -29.822  1.00  0.00    -0.171 F 
HETATM   32  F2  UNL     1      34.759 -24.948 -30.071  1.00  0.00    -0.171 F 
HETATM   33  F3  UNL     1      33.072 -24.571 -31.560  1.00  0.00    -0.171 F 
ENDBRANCH  29  30
ENDBRANCH  28  29
ENDBRANCH  27  28
BRANCH  27  34
HETATM   34  O5  UNL     1      35.924 -24.264 -34.995  1.00  0.00    -0.294 OA
BRANCH  34  35
HETATM   35  C23 UNL     1      37.118 -24.228 -35.712  1.00  0.00     0.363 C 
HETATM   36  O6  UNL     1      38.106 -23.771 -35.080  1.00  0.00    -0.238 OA
HETATM   37  N4  UNL     1      37.186 -24.676 -37.047  1.00  0.00    -0.325 N 
HETATM   38  C24 UNL     1      36.010 -25.211 -37.671  1.00  0.00     0.148 C 
HETATM   39  C29 UNL     1      38.424 -24.590 -37.762  1.00  0.00     0.148 C 
HETATM   40  C25 UNL     1      35.910 -24.883 -39.156  1.00  0.00     0.148 C 
HETATM   41  N5  UNL     1      36.882 -23.856 -39.422  1.00  0.00    -0.325 N 
HETATM   42  C26 UNL     1      36.470 -22.593 -39.899  1.00  0.00     0.362 C 
HETATM   43  C28 UNL     1      38.271 -24.149 -39.200  1.00  0.00     0.148 C 
HETATM   44  O7  UNL     1      37.302 -21.653 -40.147  1.00  0.00    -0.238 OA
BRANCH  42  45
HETATM   45  O8  UNL     1      35.140 -22.274 -40.134  1.00  0.00    -0.309 OA
HETATM   46  C27 UNL     1      34.669 -21.901 -41.441  1.00  0.00     0.215 C 
ENDBRANCH  42  45
ENDBRANCH  34  35
ENDBRANCH  27  34
ENDBRANCH  25  27
ENDBRANCH   1  24
TORSDOF 15
ENDMDL
MODEL 2
REMARK VINA RESULT: -8.223178958      1.114      1.747
REMARK  15 active torsions:
REMARK  status: ('A' for Active; 'I' for Inactive)
REMARK    1  A    between atoms: C2_2  and  C3_3 
REMARK    2  A    between atoms: N1_5  and  C5_6 
REMARK    3  A    between atoms: C5_6  and  C6_7 
REMARK    4  A    between atoms: C6_7  and  C7_8 
REMARK       I    between atoms: C7_8  and  N2_10 
REMARK    5  A    between atoms: C9_12  and  O2_13 
REMARK    6  A    between atoms: C11_16  and  C12_17 
REMARK    7  A    between atoms: N3_22  and  C15_23 
REMARK    8  A    between atoms: C15_23  and  C16_24 
REMARK    9  A    between atoms: C17_25  and  C19_27 
REMARK   10  A    between atoms: C19_27  and  C20_28 
REMARK   11  A    between atoms: C19_27  and  O5_34 
REMARK   12  A    between atoms: C20_28  and  C21_29 
REMARK   13  A    between atoms: C21_29  and  C22_30 
REMARK   14  A    between atoms: O5_34  and  C23_35 
REMARK       I    between atoms: C23_35  and  N4_37 
REMARK       I    between atoms: N5_40  and  C26_41 
REMARK   15  A    between atoms: C26_41  and  O8_43 
ROOT
HETATM    1  C15 UNL     1      37.836 -26.011 -32.146  1.00  0.00     0.300 C 
ENDROOT
BRANCH   1   2
HETATM    2  N3  UNL     1      38.972 -25.642 -32.937  1.00  0.00     0.099 N 
HETATM    3  C3  UNL     1      40.033 -25.057 -32.210  1.00  0.00     0.240 C 
HETATM    4  C4  UNL     1      41.383 -25.450 -32.837  1.00  0.00     0.152 C 
HETATM    5  N1  UNL     1      41.248 -25.525 -34.236  1.00  0.00    -0.408 N 
HETATM    6  C13 UNL     1      40.437 -26.626 -34.654  1.00  0.00     0.147 C 
HETATM    7  C14 UNL     1      39.435 -26.890 -33.555  1.00  0.00     0.292 C 
BRANCH   3   8
HETATM    8  C2  UNL     1      40.041 -23.551 -32.168  1.00  0.00     0.033 C 
HETATM    9  C1  UNL     1      41.259 -22.999 -31.512  1.00  0.00     0.007 C 
ENDBRANCH   3   8
BRANCH   5  10
HETATM   10  C5  UNL     1      42.408 -25.269 -35.031  1.00  0.00     0.126 C 
BRANCH  10  11
HETATM   11  C6  UNL     1      43.349 -24.431 -34.185  1.00  0.00     0.122 C 
BRANCH  11  12
HETATM   12  C7  UNL     1      44.309 -23.676 -35.059  1.00  0.00     0.222 C 
HETATM   13  O1  UNL     1      45.285 -24.280 -35.575  1.00  0.00    -0.273 OA
HETATM   14  N2  UNL     1      44.072 -22.302 -35.272  1.00  0.00    -0.335 N 
HETATM   15  C8  UNL     1      42.959 -21.558 -34.712  1.00  0.00     0.158 C 
HETATM   16  C11 UNL     1      44.872 -21.407 -36.060  1.00  0.00     0.190 C 
HETATM   17  C9  UNL     1      42.733 -20.458 -35.748  1.00  0.00     0.138 C 
HETATM   18  C10 UNL     1      44.143 -20.062 -36.065  1.00  0.00     0.070 C 
BRANCH  17  19
HETATM   19  O2  UNL     1      41.991 -19.425 -35.199  1.00  0.00    -0.394 OA
ATOM     20  H2  UNL     1      41.410 -19.053 -35.851  1.00  0.00     0.210 HD
ENDBRANCH  17  19
BRANCH  16  21
HETATM   21  C12 UNL     1      45.066 -21.812 -37.458  1.00  0.00     0.197 C 
HETATM   22  O3  UNL     1      46.263 -21.771 -37.894  1.00  0.00    -0.646 OA
HETATM   23  O4  UNL     1      44.068 -22.223 -38.313  1.00  0.00    -0.646 OA
ENDBRANCH  16  21
ENDBRANCH  11  12
ENDBRANCH  10  11
ENDBRANCH   5  10
ENDBRANCH   1   2
BRANCH   1  24
HETATM   24  C16 UNL     1      36.659 -26.266 -33.007  1.00  0.00     0.008 C 
HETATM   25  C17 UNL     1      35.977 -25.358 -33.666  1.00  0.00    -0.057 C 
HETATM   26  C18 UNL     1      34.799 -25.882 -34.490  1.00  0.00     0.046 C 
BRANCH  25  27
HETATM   27  C19 UNL     1      36.201 -23.894 -33.684  1.00  0.00     0.162 C 
BRANCH  27  28
HETATM   28  C20 UNL     1      35.030 -23.158 -33.042  1.00  0.00     0.046 C 
BRANCH  28  29
HETATM   29  C21 UNL     1      35.172 -23.086 -31.545  1.00  0.00     0.120 C 
BRANCH  29  30
HETATM   30  C22 UNL     1      34.235 -24.086 -30.894  1.00  0.00     0.388 C 
HETATM   31  F1  UNL     1      33.457 -23.469 -29.901  1.00  0.00    -0.171 F 
HETATM   32  F2  UNL     1      34.965 -25.092 -30.349  1.00  0.00    -0.171 F 
HETATM   33  F3  UNL     1      33.309 -24.560 -31.824  1.00  0.00    -0.171 F 
ENDBRANCH  29  30
ENDBRANCH  28  29
ENDBRANCH  27  28
BRANCH  27  34
HETATM   34  O5  UNL     1      36.297 -23.521 -35.067  1.00  0.00    -0.294 OA
BRANCH  34  35
HETATM   35  C23 UNL     1      37.359 -23.941 -35.866  1.00  0.00     0.363 C 
HETATM   36  O6  UNL     1      38.501 -23.787 -35.360  1.00  0.00    -0.238 OA
HETATM   37  N4  UNL     1      37.141 -24.496 -37.144  1.00  0.00    -0.325 N 
HETATM   38  C24 UNL     1      35.798 -24.661 -37.619  1.00  0.00     0.148 C 
HETATM   39  C29 UNL     1      38.260 -24.885 -37.948  1.00  0.00     0.148 C 
HETATM   40  C25 UNL     1      35.656 -24.443 -39.121  1.00  0.00     0.148 C 
HETATM   41  N5  UNL     1      36.875 -23.822 -39.569  1.00  0.00    -0.325 N 
HETATM   42  C26 UNL     1      36.845 -22.538 -40.154  1.00  0.00     0.362 C 
HETATM   43  C28 UNL     1      38.110 -24.539 -39.412  1.00  0.00     0.148 C 
HETATM   44  O7  UNL     1      37.906 -21.951 -40.564  1.00  0.00    -0.238 OA
BRANCH  42  45
HETATM   45  O8  UNL     1      35.672 -21.818 -40.329  1.00  0.00    -0.309 OA
HETATM   46  C27 UNL     1      34.776 -22.083 -41.423  1.00  0.00     0.215 C 
ENDBRANCH  42  45
ENDBRANCH  34  35
ENDBRANCH  27  34
ENDBRANCH  25  27
ENDBRANCH   1  24
TORSDOF 15
ENDMDL
MODEL 3
REMARK VINA RESULT: -7.874727524      2.224      6.101
REMARK  15 active torsions:
REMARK  status: ('A' for Active; 'I' for Inactive)
REMARK    1  A    between atoms: C2_2  and  C3_3 
REMARK    2  A    between atoms: N1_5  and  C5_6 
REMARK    3  A    between atoms: C5_6  and  C6_7 
REMARK    4  A    between atoms: C6_7  and  C7_8 
REMARK       I    between atoms: C7_8  and  N2_10 
REMARK    5  A    between atoms: C9_12  and  O2_13 
REMARK    6  A    between atoms: C11_16  and  C12_17 
REMARK    7  A    between atoms: N3_22  and  C15_23 
REMARK    8  A    between atoms: C15_23  and  C16_24 
REMARK    9  A    between atoms: C17_25  and  C19_27 
REMARK   10  A    between atoms: C19_27  and  C20_28 
REMARK   11  A    between atoms: C19_27  and  O5_34 
REMARK   12  A    between atoms: C20_28  and  C21_29 
REMARK   13  A    between atoms: C21_29  and  C22_30 
REMARK   14  A    between atoms: O5_34  and  C23_35 
REMARK       I    between atoms: C23_35  and  N4_37 
REMARK       I    between atoms: N5_40  and  C26_41 
REMARK   15  A    between atoms: C26_41  and  O8_43 
ROOT
HETATM    1  C15 UNL     1      34.638 -27.540 -34.364  1.00  0.00     0.300 C 
ENDROOT
BRANCH   1   2
HETATM    2  N3  UNL     1      35.215 -27.548 -35.675  1.00  0.00     0.099 N 
HETATM    3  C3  UNL     1      36.325 -26.690 -35.838  1.00  0.00     0.240 C 
HETATM    4  C4  UNL     1      37.328 -27.305 -36.830  1.00  0.00     0.152 C 
HETATM    5  N1  UNL     1      36.631 -27.996 -37.839  1.00  0.00    -0.408 N 
HETATM    6  C13 UNL     1      35.986 -29.176 -37.354  1.00  0.00     0.147 C 
HETATM    7  C14 UNL     1      35.635 -28.936 -35.905  1.00  0.00     0.292 C 
BRANCH   3   8
HETATM    8  C2  UNL     1      36.015 -25.321 -36.388  1.00  0.00     0.033 C 
HETATM    9  C1  UNL     1      36.750 -24.235 -35.680  1.00  0.00     0.007 C 
ENDBRANCH   3   8
BRANCH   5  10
HETATM   10  C5  UNL     1      37.252 -28.107 -39.121  1.00  0.00     0.126 C 
BRANCH  10  11
HETATM   11  C6  UNL     1      38.114 -26.871 -39.304  1.00  0.00     0.122 C 
BRANCH  11  12
HETATM   12  C7  UNL     1      37.383 -25.836 -40.110  1.00  0.00     0.222 C 
HETATM   13  O1  UNL     1      36.557 -26.202 -40.986  1.00  0.00    -0.273 OA
HETATM   14  N2  UNL     1      37.655 -24.476 -39.847  1.00  0.00    -0.335 N 
HETATM   15  C8  UNL     1      38.589 -23.998 -38.844  1.00  0.00     0.158 C 
HETATM   16  C11 UNL     1      37.074 -23.343 -40.511  1.00  0.00     0.190 C 
HETATM   17  C9  UNL     1      38.001 -22.643 -38.455  1.00  0.00     0.138 C 
HETATM   18  C10 UNL     1      37.608 -22.100 -39.796  1.00  0.00     0.070 C 
BRANCH  17  19
HETATM   19  O2  UNL     1      38.958 -21.869 -37.819  1.00  0.00    -0.394 OA
ATOM     20  H2  UNL     1      39.049 -21.031 -38.257  1.00  0.00     0.210 HD
ENDBRANCH  17  19
BRANCH  16  21
HETATM   21  C12 UNL     1      35.607 -23.283 -40.470  1.00  0.00     0.197 C 
HETATM   22  O3  UNL     1      35.042 -22.691 -41.447  1.00  0.00    -0.646 OA
HETATM   23  O4  UNL     1      34.816 -23.807 -39.472  1.00  0.00    -0.646 OA
ENDBRANCH  16  21
ENDBRANCH  11  12
ENDBRANCH  10  11
ENDBRANCH   5  10
ENDBRANCH   1   2
BRANCH   1  24
HETATM   24  C16 UNL     1      35.550 -28.176 -33.387  1.00  0.00     0.008 C 
HETATM   25  C17 UNL     1      36.122 -27.579 -32.367  1.00  0.00    -0.057 C 
HETATM   26  C18 UNL     1      37.023 -28.464 -31.502  1.00  0.00     0.046 C 
BRANCH  25  27
HETATM   27  C19 UNL     1      36.014 -26.155 -31.975  1.00  0.00     0.162 C 
BRANCH  27  28
HETATM   28  C20 UNL     1      34.695 -25.560 -32.453  1.00  0.00     0.046 C 
BRANCH  28  29
HETATM   29  C21 UNL     1      34.164 -24.536 -31.485  1.00  0.00     0.120 C 
BRANCH  29  30
HETATM   30  C22 UNL     1      34.624 -23.152 -31.902  1.00  0.00     0.388 C 
HETATM   31  F1  UNL     1      35.049 -23.147 -33.240  1.00  0.00    -0.171 F 
HETATM   32  F2  UNL     1      35.640 -22.757 -31.093  1.00  0.00    -0.171 F 
HETATM   33  F3  UNL     1      33.554 -22.255 -31.868  1.00  0.00    -0.171 F 
ENDBRANCH  29  30
ENDBRANCH  28  29
ENDBRANCH  27  28
BRANCH  27  34
HETATM   34  O5  UNL     1      37.104 -25.478 -32.622  1.00  0.00    -0.294 OA
BRANCH  34  35
HETATM   35  C23 UNL     1      38.290 -25.195 -31.948  1.00  0.00     0.363 C 
HETATM   36  O6  UNL     1      38.152 -24.579 -30.860  1.00  0.00    -0.238 OA
HETATM   37  N4  UNL     1      39.541 -25.582 -32.472  1.00  0.00    -0.325 N 
HETATM   38  C24 UNL     1      39.593 -26.310 -33.706  1.00  0.00     0.148 C 
HETATM   39  C29 UNL     1      40.741 -25.242 -31.767  1.00  0.00     0.148 C 
HETATM   40  C25 UNL     1      40.803 -25.963 -34.565  1.00  0.00     0.148 C 
HETATM   41  N5  UNL     1      41.375 -24.762 -34.013  1.00  0.00    -0.325 N 
HETATM   42  C26 UNL     1      41.447 -23.587 -34.790  1.00  0.00     0.362 C 
HETATM   43  C28 UNL     1      41.871 -24.794 -32.665  1.00  0.00     0.148 C 
HETATM   44  O7  UNL     1      41.946 -22.500 -34.337  1.00  0.00    -0.238 OA
BRANCH  42  45
HETATM   45  O8  UNL     1      40.985 -23.519 -36.097  1.00  0.00    -0.309 OA
HETATM   46  C27 UNL     1      41.879 -23.594 -37.221  1.00  0.00     0.215 C 
ENDBRANCH  42  45
ENDBRANCH  34  35
ENDBRANCH  27  34
ENDBRANCH  25  27
ENDBRANCH   1  24
TORSDOF 15
ENDMDL
MODEL 4
REMARK VINA RESULT: -7.831255725      1.636      2.055
REMARK  15 active torsions:
REMARK  status: ('A' for Active; 'I' for Inactive)
REMARK    1  A    between atoms: C2_2  and  C3_3 
REMARK    2  A    between atoms: N1_5  and  C5_6 
REMARK    3  A    between atoms: C5_6  and  C6_7 
REMARK    4  A    between atoms: C6_7  and  C7_8 
REMARK       I    between atoms: C7_8  and  N2_10 
REMARK    5  A    between atoms: C9_12  and  O2_13 
REMARK    6  A    between atoms: C11_16  and  C12_17 
REMARK    7  A    between atoms: N3_22  and  C15_23 
REMARK    8  A    between atoms: C15_23  and  C16_24 
REMARK    9  A    between atoms: C17_25  and  C19_27 
REMARK   10  A    between atoms: C19_27  and  C20_28 
REMARK   11  A    between atoms: C19_27  and  O5_34 
REMARK   12  A    between atoms: C20_28  and  C21_29 
REMARK   13  A    between atoms: C21_29  and  C22_30 
REMARK   14  A    between atoms: O5_34  and  C23_35 
REMARK       I    between atoms: C23_35  and  N4_37 
REMARK       I    between atoms: N5_40  and  C26_41 
REMARK   15  A    between atoms: C26_41  and  O8_43 
ROOT
HETATM    1  C15 UNL     1      36.938 -27.702 -31.813  1.00  0.00     0.300 C 
ENDROOT
BRANCH   1   2
HETATM    2  N3  UNL     1      38.084 -26.965 -32.256  1.00  0.00     0.099 N 
HETATM    3  C3  UNL     1      38.859 -26.398 -31.219  1.00  0.00     0.240 C 
HETATM    4  C4  UNL     1      40.347 -26.391 -31.614  1.00  0.00     0.152 C 
HETATM    5  N1  UNL     1      40.467 -26.152 -32.996  1.00  0.00    -0.408 N 
HETATM    6  C13 UNL     1      39.992 -27.243 -33.788  1.00  0.00     0.147 C 
HETATM    7  C14 UNL     1      38.901 -27.931 -33.002  1.00  0.00     0.292 C 
BRANCH   3   8
HETATM    8  C2  UNL     1      38.536 -24.967 -30.873  1.00  0.00     0.033 C 
HETATM    9  C1  UNL     1      38.042 -24.188 -32.043  1.00  0.00     0.007 C 
ENDBRANCH   3   8
BRANCH   5  10
HETATM   10  C5  UNL     1      41.660 -25.518 -33.460  1.00  0.00     0.126 C 
BRANCH  10  11
HETATM   11  C6  UNL     1      41.265 -24.139 -33.956  1.00  0.00     0.122 C 
BRANCH  11  12
HETATM   12  C7  UNL     1      41.362 -24.073 -35.454  1.00  0.00     0.222 C 
HETATM   13  O1  UNL     1      40.605 -24.792 -36.157  1.00  0.00    -0.273 OA
HETATM   14  N2  UNL     1      42.308 -23.192 -36.020  1.00  0.00    -0.335 N 
HETATM   15  C8  UNL     1      43.198 -22.334 -35.259  1.00  0.00     0.158 C 
HETATM   16  C11 UNL     1      42.562 -22.992 -37.419  1.00  0.00     0.190 C 
HETATM   17  C9  UNL     1      43.423 -21.158 -36.207  1.00  0.00     0.138 C 
HETATM   18  C10 UNL     1      43.594 -21.867 -37.516  1.00  0.00     0.070 C 
BRANCH  17  19
HETATM   19  O2  UNL     1      44.549 -20.444 -35.828  1.00  0.00    -0.394 OA
ATOM     20  H2  UNL     1      44.362 -19.513 -35.823  1.00  0.00     0.210 HD
ENDBRANCH  17  19
BRANCH  16  21
HETATM   21  C12 UNL     1      41.393 -22.591 -38.212  1.00  0.00     0.197 C 
HETATM   22  O3  UNL     1      40.784 -21.540 -37.825  1.00  0.00    -0.646 OA
HETATM   23  O4  UNL     1      40.916 -23.256 -39.320  1.00  0.00    -0.646 OA
ENDBRANCH  16  21
ENDBRANCH  11  12
ENDBRANCH  10  11
ENDBRANCH   5  10
ENDBRANCH   1   2
BRANCH   1  24
HETATM   24  C16 UNL     1      36.109 -28.123 -32.965  1.00  0.00     0.008 C 
HETATM   25  C17 UNL     1      35.433 -27.324 -33.759  1.00  0.00    -0.057 C 
HETATM   26  C18 UNL     1      34.654 -28.011 -34.882  1.00  0.00     0.046 C 
BRANCH  25  27
HETATM   27  C19 UNL     1      35.322 -25.850 -33.677  1.00  0.00     0.162 C 
BRANCH  27  28
HETATM   28  C20 UNL     1      34.097 -25.443 -32.864  1.00  0.00     0.046 C 
BRANCH  28  29
HETATM   29  C21 UNL     1      34.479 -24.932 -31.501  1.00  0.00     0.120 C 
BRANCH  29  30
HETATM   30  C22 UNL     1      34.276 -23.429 -31.443  1.00  0.00     0.388 C 
HETATM   31  F1  UNL     1      35.345 -22.805 -30.779  1.00  0.00    -0.171 F 
HETATM   32  F2  UNL     1      33.113 -23.161 -30.799  1.00  0.00    -0.171 F 
HETATM   33  F3  UNL     1      34.296 -22.887 -32.729  1.00  0.00    -0.171 F 
ENDBRANCH  29  30
ENDBRANCH  28  29
ENDBRANCH  27  28
BRANCH  27  34
HETATM   34  O5  UNL     1      35.173 -25.383 -35.027  1.00  0.00    -0.294 OA
BRANCH  34  35
HETATM   35  C23 UNL     1      36.076 -24.487 -35.594  1.00  0.00     0.363 C 
HETATM   36  O6  UNL     1      36.326 -23.469 -34.897  1.00  0.00    -0.238 OA
HETATM   37  N4  UNL     1      36.653 -24.727 -36.858  1.00  0.00    -0.325 N 
HETATM   38  C24 UNL     1      36.329 -25.934 -37.562  1.00  0.00     0.148 C 
HETATM   39  C29 UNL     1      37.550 -23.764 -37.422  1.00  0.00     0.148 C 
HETATM   40  C25 UNL     1      36.261 -25.754 -39.074  1.00  0.00     0.148 C 
HETATM   41  N5  UNL     1      36.235 -24.337 -39.324  1.00  0.00    -0.325 N 
HETATM   42  C26 UNL     1      35.128 -23.750 -39.974  1.00  0.00     0.362 C 
HETATM   43  C28 UNL     1      37.358 -23.545 -38.905  1.00  0.00     0.148 C 
HETATM   44  O7  UNL     1      35.067 -22.494 -40.214  1.00  0.00    -0.238 OA
BRANCH  42  45
HETATM   45  O8  UNL     1      34.029 -24.482 -40.399  1.00  0.00    -0.309 OA
HETATM   46  C27 UNL     1      33.148 -23.998 -41.428  1.00  0.00     0.215 C 
ENDBRANCH  42  45
ENDBRANCH  34  35
ENDBRANCH  27  34
ENDBRANCH  25  27
ENDBRANCH   1  24
TORSDOF 15
ENDMDL
MODEL 5
REMARK VINA RESULT: -7.742965984      1.400      1.661
REMARK  15 active torsions:
REMARK  status: ('A' for Active; 'I' for Inactive)
REMARK    1  A    between atoms: C2_2  and  C3_3 
REMARK    2  A    between atoms: N1_5  and  C5_6 
REMARK    3  A    between atoms: C5_6  and  C6_7 
REMARK    4  A    between atoms: C6_7  and  C7_8 
REMARK       I    between atoms: C7_8  and  N2_10 
REMARK    5  A    between atoms: C9_12  and  O2_13 
REMARK    6  A    between atoms: C11_16  and  C12_17 
REMARK    7  A    between atoms: N3_22  and  C15_23 
REMARK    8  A    between atoms: C15_23  and  C16_24 
REMARK    9  A    between atoms: C17_25  and  C19_27 
REMARK   10  A    between atoms: C19_27  and  C20_28 
REMARK   11  A    between atoms: C19_27  and  O5_34 
REMARK   12  A    between atoms: C20_28  and  C21_29 
REMARK   13  A    between atoms: C21_29  and  C22_30 
REMARK   14  A    between atoms: O5_34  and  C23_35 
REMARK       I    between atoms: C23_35  and  N4_37 
REMARK       I    between atoms: N5_40  and  C26_41 
REMARK   15  A    between atoms: C26_41  and  O8_43 
ROOT
HETATM    1  C15 UNL     1      38.197 -26.338 -32.558  1.00  0.00     0.300 C 
ENDROOT
BRANCH   1   2
HETATM    2  N3  UNL     1      39.439 -25.868 -33.095  1.00  0.00     0.099 N 
HETATM    3  C3  UNL     1      40.218 -25.101 -32.200  1.00  0.00     0.240 C 
HETATM    4  C4  UNL     1      41.716 -25.345 -32.459  1.00  0.00     0.152 C 
HETATM    5  N1  UNL     1      41.933 -25.524 -33.838  1.00  0.00    -0.408 N 
HETATM    6  C13 UNL     1      41.381 -26.747 -34.329  1.00  0.00     0.147 C 
HETATM    7  C14 UNL     1      40.181 -27.077 -33.473  1.00  0.00     0.292 C 
BRANCH   3   8
HETATM    8  C2  UNL     1      40.039 -23.608 -32.295  1.00  0.00     0.033 C 
HETATM    9  C1  UNL     1      41.146 -22.852 -31.644  1.00  0.00     0.007 C 
ENDBRANCH   3   8
BRANCH   5  10
HETATM   10  C5  UNL     1      43.212 -25.162 -34.363  1.00  0.00     0.126 C 
BRANCH  10  11
HETATM   11  C6  UNL     1      43.039 -24.974 -35.859  1.00  0.00     0.122 C 
BRANCH  11  12
HETATM   12  C7  UNL     1      42.652 -23.556 -36.169  1.00  0.00     0.222 C 
HETATM   13  O1  UNL     1      41.455 -23.287 -36.447  1.00  0.00    -0.273 OA
HETATM   14  N2  UNL     1      43.660 -22.570 -36.133  1.00  0.00    -0.335 N 
HETATM   15  C8  UNL     1      45.053 -22.822 -35.810  1.00  0.00     0.158 C 
HETATM   16  C11 UNL     1      43.499 -21.170 -36.407  1.00  0.00     0.190 C 
HETATM   17  C9  UNL     1      45.503 -21.495 -35.202  1.00  0.00     0.138 C 
HETATM   18  C10 UNL     1      44.854 -20.514 -36.130  1.00  0.00     0.070 C 
BRANCH  17  19
HETATM   19  O2  UNL     1      46.887 -21.409 -35.207  1.00  0.00    -0.394 OA
ATOM     20  H2  UNL     1      47.172 -20.662 -34.695  1.00  0.00     0.210 HD
ENDBRANCH  17  19
BRANCH  16  21
HETATM   21  C12 UNL     1      42.497 -20.485 -35.580  1.00  0.00     0.197 C 
HETATM   22  O3  UNL     1      41.855 -19.539 -36.144  1.00  0.00    -0.646 OA
HETATM   23  O4  UNL     1      42.210 -20.785 -34.267  1.00  0.00    -0.646 OA
ENDBRANCH  16  21
ENDBRANCH  11  12
ENDBRANCH  10  11
ENDBRANCH   5  10
ENDBRANCH   1   2
BRANCH   1  24
HETATM   24  C16 UNL     1      37.514 -27.230 -33.522  1.00  0.00     0.008 C 
HETATM   25  C17 UNL     1      36.757 -26.844 -34.524  1.00  0.00    -0.057 C 
HETATM   26  C18 UNL     1      36.166 -27.967 -35.379  1.00  0.00     0.046 C 
BRANCH  25  27
HETATM   27  C19 UNL     1      36.395 -25.459 -34.903  1.00  0.00     0.162 C 
BRANCH  27  28
HETATM   28  C20 UNL     1      34.953 -25.151 -34.516  1.00  0.00     0.046 C 
BRANCH  28  29
HETATM   29  C21 UNL     1      34.834 -24.782 -33.061  1.00  0.00     0.120 C 
BRANCH  29  30
HETATM   30  C22 UNL     1      35.280 -23.346 -32.859  1.00  0.00     0.388 C 
HETATM   31  F1  UNL     1      34.258 -22.583 -32.273  1.00  0.00    -0.171 F 
HETATM   32  F2  UNL     1      35.624 -22.813 -34.059  1.00  0.00    -0.171 F 
HETATM   33  F3  UNL     1      36.332 -23.290 -31.943  1.00  0.00    -0.171 F 
ENDBRANCH  29  30
ENDBRANCH  28  29
ENDBRANCH  27  28
BRANCH  27  34
HETATM   34  O5  UNL     1      36.530 -25.386 -36.331  1.00  0.00    -0.294 OA
BRANCH  34  35
HETATM   35  C23 UNL     1      37.355 -24.442 -36.939  1.00  0.00     0.363 C 
HETATM   36  O6  UNL     1      37.883 -23.610 -36.156  1.00  0.00    -0.238 OA
HETATM   37  N4  UNL     1      37.566 -24.441 -38.334  1.00  0.00    -0.325 N 
HETATM   38  C24 UNL     1      36.944 -25.452 -39.139  1.00  0.00     0.148 C 
HETATM   39  C29 UNL     1      38.393 -23.433 -38.925  1.00  0.00     0.148 C 
HETATM   40  C25 UNL     1      36.519 -24.953 -40.515  1.00  0.00     0.148 C 
HETATM   41  N5  UNL     1      36.587 -23.516 -40.477  1.00  0.00    -0.325 N 
HETATM   42  C26 UNL     1      35.424 -22.743 -40.682  1.00  0.00     0.362 C 
HETATM   43  C28 UNL     1      37.859 -22.895 -40.233  1.00  0.00     0.148 C 
HETATM   44  O7  UNL     1      35.442 -21.464 -40.655  1.00  0.00    -0.238 OA
BRANCH  42  45
HETATM   45  O8  UNL     1      34.180 -23.306 -40.928  1.00  0.00    -0.309 OA
HETATM   46  C27 UNL     1      33.187 -22.633 -41.722  1.00  0.00     0.215 C 
ENDBRANCH  42  45
ENDBRANCH  34  35
ENDBRANCH  27  34
ENDBRANCH  25  27
ENDBRANCH   1  24
TORSDOF 15
ENDMDL
