MODEL 1
REMARK VINA RESULT: -8.768385191      0.000      0.000
REMARK  13 active torsions:
REMARK  status: ('A' for Active; 'I' for Inactive)
REMARK    1  A    between atoms: O1_2  and  C2_3 
REMARK    2  A    between atoms: C5_7  and  C6_8 
REMARK    3  A    between atoms: C6_8  and  C7_9 
REMARK    4  A    between atoms: C7_9  and  N1_10 
REMARK    5  A    between atoms: N1_10  and  C8_12 
REMARK    6  A    between atoms: C14_24  and  O2_25 
REMARK    7  A    between atoms: N5_27  and  C15_28 
REMARK    8  A    between atoms: C15_28  and  C16_29 
REMARK    9  A    between atoms: C23_38  and  O3_39 
REMARK   10  A    between atoms: O3_39  and  C24_40 
REMARK   11  A    between atoms: C24_40  and  C25_41 
REMARK   12  A    between atoms: C25_41  and  C26_42 
REMARK   13  A    between atoms: C26_42  and  N6_43 
ROOT
HETATM    1  C8  UNL     1      36.357 -28.099 -37.209  1.00  0.00     0.137 A 
HETATM    2  N2  UNL     1      36.290 -28.825 -38.351  1.00  0.00    -0.337 N 
ATOM      3  H2  UNL     1      36.261 -29.843 -38.305  1.00  0.00     0.168 HD
HETATM    4  C9  UNL     1      36.263 -28.210 -39.541  1.00  0.00     0.183 A 
HETATM    5  N3  UNL     1      36.299 -26.873 -39.631  1.00  0.00    -0.336 N 
ATOM      6  H3  UNL     1      36.276 -26.445 -40.557  1.00  0.00     0.168 HD
HETATM    7  C10 UNL     1      36.365 -26.077 -38.556  1.00  0.00     0.145 A 
HETATM    8  C11 UNL     1      36.393 -26.727 -37.335  1.00  0.00     0.122 A 
HETATM    9  N4  UNL     1      36.463 -25.954 -36.246  1.00  0.00    -0.350 N 
ATOM     10  H4  UNL     1      36.484 -26.412 -35.335  1.00  0.00     0.166 HD
HETATM   11  C12 UNL     1      36.508 -24.623 -36.277  1.00  0.00     0.058 A 
HETATM   12  C13 UNL     1      36.586 -23.779 -35.056  1.00  0.00     0.072 C 
HETATM   13  C14 UNL     1      36.477 -24.030 -37.535  1.00  0.00     0.171 A 
HETATM   14  N5  UNL     1      36.404 -24.715 -38.691  1.00  0.00    -0.284 N 
ENDROOT
BRANCH   1  15
HETATM   15  N1  UNL     1      36.378 -28.747 -36.133  1.00  0.00    -0.354 N 
ATOM     16  H1  UNL     1      37.322 -28.859 -35.765  1.00  0.00     0.166 HD
BRANCH  15  17
HETATM   17  C7  UNL     1      35.412 -29.352 -35.317  1.00  0.00     0.067 C 
BRANCH  17  18
HETATM   18  C6  UNL     1      34.333 -28.398 -34.801  1.00  0.00     0.083 C 
BRANCH  18  19
HETATM   19  C5  UNL     1      34.917 -27.558 -33.729  1.00  0.00    -0.049 A 
HETATM   20  C4  UNL     1      34.183 -26.492 -33.262  1.00  0.00     0.029 A 
HETATM   21  C3  UNL     1      34.662 -25.658 -32.263  1.00  0.00     0.047 A 
HETATM   22  C2  UNL     1      35.929 -25.938 -31.736  1.00  0.00     0.118 A 
HETATM   23 BR1  UNL     1      33.642 -24.184 -31.621  1.00  0.00    -0.048 Br
HETATM   24  C23 UNL     1      36.680 -26.988 -32.178  1.00  0.00     0.103 A 
HETATM   25  C22 UNL     1      36.166 -27.797 -33.178  1.00  0.00     0.047 A 
BRANCH  22  26
HETATM   26  O1  UNL     1      36.431 -25.117 -30.735  1.00  0.00    -0.352 OA
HETATM   27  C1  UNL     1      37.173 -23.940 -31.037  1.00  0.00     0.210 C 
ENDBRANCH  22  26
BRANCH  24  28
HETATM   28  O3  UNL     1      37.938 -27.226 -31.621  1.00  0.00    -0.348 OA
BRANCH  28  29
HETATM   29  C24 UNL     1      39.087 -27.370 -32.431  1.00  0.00     0.181 C 
BRANCH  29  30
HETATM   30  C25 UNL     1      39.274 -26.123 -33.252  1.00  0.00     0.072 C 
BRANCH  30  31
HETATM   31  C26 UNL     1      40.674 -25.676 -33.416  1.00  0.00     0.070 C 
BRANCH  31  32
HETATM   32  N6  UNL     1      40.957 -24.317 -33.539  1.00  0.00    -0.351 N 
HETATM   33  C27 UNL     1      41.826 -23.885 -34.552  1.00  0.00     0.095 C 
HETATM   34  C28 UNL     1      42.553 -22.602 -34.342  1.00  0.00     0.277 C 
HETATM   35  N7  UNL     1      41.955 -21.730 -33.375  1.00  0.00    -0.066 N 
HETATM   36  C29 UNL     1      41.575 -22.457 -32.169  1.00  0.00     0.277 C 
ATOM     37  H72 UNL     1      42.561 -20.938 -33.160  1.00  0.00     0.277 HD
ATOM     38  H71 UNL     1      41.165 -21.220 -33.769  1.00  0.00     0.277 HD
HETATM   39  C30 UNL     1      40.474 -23.403 -32.591  1.00  0.00     0.095 C 
ENDBRANCH  31  32
ENDBRANCH  30  31
ENDBRANCH  29  30
ENDBRANCH  28  29
ENDBRANCH  24  28
ENDBRANCH  18  19
ENDBRANCH  17  18
ENDBRANCH  15  17
ENDBRANCH   1  15
BRANCH  14  40
HETATM   40  C15 UNL     1      36.438 -24.142 -39.995  1.00  0.00     0.115 C 
BRANCH  40  41
HETATM   41  C16 UNL     1      35.247 -23.551 -40.568  1.00  0.00     0.019 A 
HETATM   42  C17 UNL     1      34.253 -24.425 -41.051  1.00  0.00     0.019 A 
HETATM   43  C18 UNL     1      33.122 -23.915 -41.625  1.00  0.00     0.043 A 
HETATM   44  C19 UNL     1      32.887 -22.570 -41.765  1.00  0.00     0.119 A 
HETATM   45  F1  UNL     1      31.729 -22.107 -42.350  1.00  0.00    -0.206 F 
HETATM   46  C20 UNL     1      33.848 -21.718 -41.299  1.00  0.00     0.085 A 
HETATM   47  C21 UNL     1      35.015 -22.222 -40.708  1.00  0.00     0.131 A 
HETATM   48  F2  UNL     1      35.899 -21.254 -40.292  1.00  0.00    -0.205 F 
ENDBRANCH  40  41
ENDBRANCH  14  40
BRANCH  13  49
HETATM   49  O2  UNL     1      36.535 -22.650 -37.559  1.00  0.00    -0.344 OA
ATOM     50  H2  UNL     1      37.377 -22.262 -37.350  1.00  0.00     0.219 HD
ENDBRANCH  13  49
TORSDOF 13
ENDMDL
MODEL 2
REMARK VINA RESULT: -8.507554475      1.429      2.044
REMARK  13 active torsions:
REMARK  status: ('A' for Active; 'I' for Inactive)
REMARK    1  A    between atoms: O1_2  and  C2_3 
REMARK    2  A    between atoms: C5_7  and  C6_8 
REMARK    3  A    between atoms: C6_8  and  C7_9 
REMARK    4  A    between atoms: C7_9  and  N1_10 
REMARK    5  A    between atoms: N1_10  and  C8_12 
REMARK    6  A    between atoms: C14_24  and  O2_25 
REMARK    7  A    between atoms: N5_27  and  C15_28 
REMARK    8  A    between atoms: C15_28  and  C16_29 
REMARK    9  A    between atoms: C23_38  and  O3_39 
REMARK   10  A    between atoms: O3_39  and  C24_40 
REMARK   11  A    between atoms: C24_40  and  C25_41 
REMARK   12  A    between atoms: C25_41  and  C26_42 
REMARK   13  A    between atoms: C26_42  and  N6_43 
ROOT
HETATM    1  C8  UNL     1      36.356 -28.118 -37.317  1.00  0.00     0.137 A 
HETATM    2  N2  UNL     1      36.295 -28.839 -38.462  1.00  0.00    -0.337 N 
ATOM      3  H2  UNL     1      36.288 -29.858 -38.421  1.00  0.00     0.168 HD
HETATM    4  C9  UNL     1      36.245 -28.218 -39.648  1.00  0.00     0.183 A 
HETATM    5  N3  UNL     1      36.253 -26.881 -39.732  1.00  0.00    -0.336 N 
ATOM      6  H3  UNL     1      36.213 -26.448 -40.655  1.00  0.00     0.168 HD
HETATM    7  C10 UNL     1      36.310 -26.090 -38.653  1.00  0.00     0.145 A 
HETATM    8  C11 UNL     1      36.361 -26.745 -37.435  1.00  0.00     0.122 A 
HETATM    9  N4  UNL     1      36.423 -25.976 -36.344  1.00  0.00    -0.350 N 
ATOM     10  H4  UNL     1      36.461 -26.438 -35.435  1.00  0.00     0.166 HD
HETATM   11  C12 UNL     1      36.439 -24.645 -36.367  1.00  0.00     0.058 A 
HETATM   12  C13 UNL     1      36.508 -23.805 -35.143  1.00  0.00     0.072 C 
HETATM   13  C14 UNL     1      36.385 -24.045 -37.622  1.00  0.00     0.171 A 
HETATM   14  N5  UNL     1      36.319 -24.726 -38.781  1.00  0.00    -0.284 N 
ENDROOT
BRANCH   1  15
HETATM   15  N1  UNL     1      36.398 -28.770 -36.244  1.00  0.00    -0.354 N 
ATOM     16  H1  UNL     1      37.348 -28.867 -35.886  1.00  0.00     0.166 HD
BRANCH  15  17
HETATM   17  C7  UNL     1      35.452 -29.397 -35.422  1.00  0.00     0.067 C 
BRANCH  17  18
HETATM   18  C6  UNL     1      34.380 -28.460 -34.864  1.00  0.00     0.083 C 
BRANCH  18  19
HETATM   19  C5  UNL     1      35.003 -27.584 -33.843  1.00  0.00    -0.049 A 
HETATM   20  C4  UNL     1      34.253 -26.555 -33.322  1.00  0.00     0.029 A 
HETATM   21  C3  UNL     1      34.766 -25.691 -32.365  1.00  0.00     0.047 A 
HETATM   22  C2  UNL     1      36.084 -25.901 -31.940  1.00  0.00     0.118 A 
HETATM   23 BR1  UNL     1      33.724 -24.267 -31.647  1.00  0.00    -0.048 Br
HETATM   24  C23 UNL     1      36.851 -26.914 -32.438  1.00  0.00     0.103 A 
HETATM   25  C22 UNL     1      36.302 -27.754 -33.392  1.00  0.00     0.047 A 
BRANCH  22  26
HETATM   26  O1  UNL     1      36.620 -25.049 -30.984  1.00  0.00    -0.352 OA
HETATM   27  C1  UNL     1      37.316 -23.861 -31.348  1.00  0.00     0.210 C 
ENDBRANCH  22  26
BRANCH  24  28
HETATM   28  O3  UNL     1      38.160 -27.083 -31.982  1.00  0.00    -0.348 OA
BRANCH  28  29
HETATM   29  C24 UNL     1      39.238 -27.245 -32.882  1.00  0.00     0.181 C 
BRANCH  29  30
HETATM   30  C25 UNL     1      39.536 -25.926 -33.541  1.00  0.00     0.072 C 
BRANCH  30  31
HETATM   31  C26 UNL     1      40.522 -25.976 -34.642  1.00  0.00     0.070 C 
BRANCH  31  32
HETATM   32  N6  UNL     1      40.087 -25.922 -35.964  1.00  0.00    -0.351 N 
HETATM   33  C27 UNL     1      39.904 -27.116 -36.678  1.00  0.00     0.095 C 
HETATM   34  C28 UNL     1      40.005 -27.060 -38.162  1.00  0.00     0.277 C 
HETATM   35  N7  UNL     1      39.814 -25.755 -38.723  1.00  0.00    -0.066 N 
HETATM   36  C29 UNL     1      40.571 -24.747 -37.990  1.00  0.00     0.277 C 
ATOM     37  H72 UNL     1      40.036 -25.740 -39.719  1.00  0.00     0.277 HD
ATOM     38  H71 UNL     1      38.825 -25.514 -38.780  1.00  0.00     0.277 HD
HETATM   39  C30 UNL     1      39.946 -24.686 -36.615  1.00  0.00     0.095 C 
ENDBRANCH  31  32
ENDBRANCH  30  31
ENDBRANCH  29  30
ENDBRANCH  28  29
ENDBRANCH  24  28
ENDBRANCH  18  19
ENDBRANCH  17  18
ENDBRANCH  15  17
ENDBRANCH   1  15
BRANCH  14  40
HETATM   40  C15 UNL     1      36.330 -24.145 -40.083  1.00  0.00     0.115 C 
BRANCH  40  41
HETATM   41  C16 UNL     1      35.129 -23.549 -40.631  1.00  0.00     0.019 A 
HETATM   42  C17 UNL     1      34.105 -24.418 -41.054  1.00  0.00     0.019 A 
HETATM   43  C18 UNL     1      32.964 -23.904 -41.603  1.00  0.00     0.043 A 
HETATM   44  C19 UNL     1      32.747 -22.560 -41.772  1.00  0.00     0.119 A 
HETATM   45  F1  UNL     1      31.577 -22.093 -42.330  1.00  0.00    -0.206 F 
HETATM   46  C20 UNL     1      33.737 -21.713 -41.365  1.00  0.00     0.085 A 
HETATM   47  C21 UNL     1      34.915 -22.221 -40.799  1.00  0.00     0.131 A 
HETATM   48  F2  UNL     1      35.829 -21.257 -40.441  1.00  0.00    -0.205 F 
ENDBRANCH  40  41
ENDBRANCH  14  40
BRANCH  13  49
HETATM   49  O2  UNL     1      36.414 -22.665 -37.639  1.00  0.00    -0.344 OA
ATOM     50  H2  UNL     1      36.391 -22.234 -36.793  1.00  0.00     0.219 HD
ENDBRANCH  13  49
TORSDOF 13
ENDMDL
MODEL 3
REMARK VINA RESULT: -8.402162046      2.525      3.503
REMARK  13 active torsions:
REMARK  status: ('A' for Active; 'I' for Inactive)
REMARK    1  A    between atoms: O1_2  and  C2_3 
REMARK    2  A    between atoms: C5_7  and  C6_8 
REMARK    3  A    between atoms: C6_8  and  C7_9 
REMARK    4  A    between atoms: C7_9  and  N1_10 
REMARK    5  A    between atoms: N1_10  and  C8_12 
REMARK    6  A    between atoms: C14_24  and  O2_25 
REMARK    7  A    between atoms: N5_27  and  C15_28 
REMARK    8  A    between atoms: C15_28  and  C16_29 
REMARK    9  A    between atoms: C23_38  and  O3_39 
REMARK   10  A    between atoms: O3_39  and  C24_40 
REMARK   11  A    between atoms: C24_40  and  C25_41 
REMARK   12  A    between atoms: C25_41  and  C26_42 
REMARK   13  A    between atoms: C26_42  and  N6_43 
ROOT
HETATM    1  C8  UNL     1      36.412 -28.010 -37.357  1.00  0.00     0.137 A 
HETATM    2  N2  UNL     1      36.327 -28.737 -38.496  1.00  0.00    -0.337 N 
ATOM      3  H2  UNL     1      36.333 -29.756 -38.449  1.00  0.00     0.168 HD
HETATM    4  C9  UNL     1      36.235 -28.124 -39.683  1.00  0.00     0.183 A 
HETATM    5  N3  UNL     1      36.224 -26.787 -39.774  1.00  0.00    -0.336 N 
ATOM      6  H3  UNL     1      36.153 -26.359 -40.698  1.00  0.00     0.168 HD
HETATM    7  C10 UNL     1      36.304 -25.989 -38.700  1.00  0.00     0.145 A 
HETATM    8  C11 UNL     1      36.398 -26.637 -37.482  1.00  0.00     0.122 A 
HETATM    9  N4  UNL     1      36.482 -25.862 -36.396  1.00  0.00    -0.350 N 
ATOM     10  H4  UNL     1      36.551 -26.319 -35.487  1.00  0.00     0.166 HD
HETATM   11  C12 UNL     1      36.482 -24.530 -36.427  1.00  0.00     0.058 A 
HETATM   12  C13 UNL     1      36.576 -23.684 -35.209  1.00  0.00     0.072 C 
HETATM   13  C14 UNL     1      36.384 -23.938 -37.682  1.00  0.00     0.171 A 
HETATM   14  N5  UNL     1      36.292 -24.626 -38.835  1.00  0.00    -0.284 N 
ENDROOT
BRANCH   1  15
HETATM   15  N1  UNL     1      36.493 -28.656 -36.282  1.00  0.00    -0.354 N 
ATOM     16  H1  UNL     1      37.450 -28.713 -35.935  1.00  0.00     0.166 HD
BRANCH  15  17
HETATM   17  C7  UNL     1      35.582 -29.317 -35.447  1.00  0.00     0.067 C 
BRANCH  17  18
HETATM   18  C6  UNL     1      34.470 -28.426 -34.893  1.00  0.00     0.083 C 
BRANCH  18  19
HETATM   19  C5  UNL     1      35.004 -27.666 -33.738  1.00  0.00    -0.049 A 
HETATM   20  C4  UNL     1      34.345 -26.524 -33.347  1.00  0.00     0.029 A 
HETATM   21  C3  UNL     1      34.784 -25.758 -32.277  1.00  0.00     0.047 A 
HETATM   22  C2  UNL     1      35.931 -26.188 -31.598  1.00  0.00     0.118 A 
HETATM   23 BR1  UNL     1      33.868 -24.177 -31.740  1.00  0.00    -0.048 Br
HETATM   24  C23 UNL     1      36.606 -27.317 -31.962  1.00  0.00     0.103 A 
HETATM   25  C22 UNL     1      36.135 -28.054 -33.036  1.00  0.00     0.047 A 
BRANCH  22  26
HETATM   26  O1  UNL     1      36.391 -25.438 -30.525  1.00  0.00    -0.352 OA
HETATM   27  C1  UNL     1      37.445 -24.491 -30.672  1.00  0.00     0.210 C 
ENDBRANCH  22  26
BRANCH  24  28
HETATM   28  O3  UNL     1      37.745 -27.705 -31.254  1.00  0.00    -0.348 OA
BRANCH  28  29
HETATM   29  C24 UNL     1      37.869 -29.005 -30.714  1.00  0.00     0.181 C 
BRANCH  29  30
HETATM   30  C25 UNL     1      38.293 -28.905 -29.274  1.00  0.00     0.072 C 
BRANCH  30  31
HETATM   31  C26 UNL     1      37.211 -28.596 -28.315  1.00  0.00     0.070 C 
BRANCH  31  32
HETATM   32  N6  UNL     1      37.182 -27.356 -27.680  1.00  0.00    -0.351 N 
HETATM   33  C27 UNL     1      38.319 -26.536 -27.720  1.00  0.00     0.095 C 
HETATM   34  C28 UNL     1      38.496 -25.541 -26.626  1.00  0.00     0.277 C 
HETATM   35  N7  UNL     1      37.292 -25.206 -25.925  1.00  0.00    -0.066 N 
HETATM   36  C29 UNL     1      36.525 -26.400 -25.589  1.00  0.00     0.277 C 
ATOM     37  H72 UNL     1      37.486 -24.640 -25.099  1.00  0.00     0.277 HD
ATOM     38  H71 UNL     1      36.730 -24.534 -26.448  1.00  0.00     0.277 HD
HETATM   39  C30 UNL     1      36.071 -26.980 -26.909  1.00  0.00     0.095 C 
ENDBRANCH  31  32
ENDBRANCH  30  31
ENDBRANCH  29  30
ENDBRANCH  28  29
ENDBRANCH  24  28
ENDBRANCH  18  19
ENDBRANCH  17  18
ENDBRANCH  15  17
ENDBRANCH   1  15
BRANCH  14  40
HETATM   40  C15 UNL     1      36.259 -24.052 -40.140  1.00  0.00     0.115 C 
BRANCH  40  41
HETATM   41  C16 UNL     1      35.026 -23.512 -40.673  1.00  0.00     0.019 A 
HETATM   42  C17 UNL     1      34.040 -24.428 -41.089  1.00  0.00     0.019 A 
HETATM   43  C18 UNL     1      32.869 -23.968 -41.624  1.00  0.00     0.043 A 
HETATM   44  C19 UNL     1      32.586 -22.635 -41.786  1.00  0.00     0.119 A 
HETATM   45  F1  UNL     1      31.390 -22.223 -42.330  1.00  0.00    -0.206 F 
HETATM   46  C20 UNL     1      33.539 -21.743 -41.385  1.00  0.00     0.085 A 
HETATM   47  C21 UNL     1      34.746 -22.196 -40.834  1.00  0.00     0.131 A 
HETATM   48  F2  UNL     1      35.617 -21.190 -40.482  1.00  0.00    -0.205 F 
ENDBRANCH  40  41
ENDBRANCH  14  40
BRANCH  13  49
HETATM   49  O2  UNL     1      36.396 -22.558 -37.707  1.00  0.00    -0.344 OA
ATOM     50  H2  UNL     1      36.822 -22.155 -38.455  1.00  0.00     0.219 HD
ENDBRANCH  13  49
TORSDOF 13
ENDMDL
MODEL 4
REMARK VINA RESULT: -8.257996761      3.824      8.866
REMARK  13 active torsions:
REMARK  status: ('A' for Active; 'I' for Inactive)
REMARK    1  A    between atoms: O1_2  and  C2_3 
REMARK    2  A    between atoms: C5_7  and  C6_8 
REMARK    3  A    between atoms: C6_8  and  C7_9 
REMARK    4  A    between atoms: C7_9  and  N1_10 
REMARK    5  A    between atoms: N1_10  and  C8_12 
REMARK    6  A    between atoms: C14_24  and  O2_25 
REMARK    7  A    between atoms: N5_27  and  C15_28 
REMARK    8  A    between atoms: C15_28  and  C16_29 
REMARK    9  A    between atoms: C23_38  and  O3_39 
REMARK   10  A    between atoms: O3_39  and  C24_40 
REMARK   11  A    between atoms: C24_40  and  C25_41 
REMARK   12  A    between atoms: C25_41  and  C26_42 
REMARK   13  A    between atoms: C26_42  and  N6_43 
ROOT
HETATM    1  C8  UNL     1      36.125 -26.806 -36.969  1.00  0.00     0.137 A 
HETATM    2  N2  UNL     1      35.584 -25.615 -37.318  1.00  0.00    -0.337 N 
ATOM      3  H2  UNL     1      35.188 -25.490 -38.249  1.00  0.00     0.168 HD
HETATM    4  C9  UNL     1      35.567 -24.599 -36.444  1.00  0.00     0.183 A 
HETATM    5  N3  UNL     1      36.079 -24.735 -35.214  1.00  0.00    -0.336 N 
ATOM      6  H3  UNL     1      36.045 -23.937 -34.578  1.00  0.00     0.168 HD
HETATM    7  C10 UNL     1      36.633 -25.876 -34.783  1.00  0.00     0.145 A 
HETATM    8  C11 UNL     1      36.644 -26.915 -35.696  1.00  0.00     0.122 A 
HETATM    9  N4  UNL     1      37.195 -28.063 -35.291  1.00  0.00    -0.350 N 
ATOM     10  H4  UNL     1      37.213 -28.843 -35.948  1.00  0.00     0.166 HD
HETATM   11  C12 UNL     1      37.724 -28.253 -34.084  1.00  0.00     0.058 A 
HETATM   12  C13 UNL     1      38.334 -29.537 -33.650  1.00  0.00     0.072 C 
HETATM   13  C14 UNL     1      37.683 -27.170 -33.211  1.00  0.00     0.171 A 
HETATM   14  N5  UNL     1      37.149 -25.974 -33.518  1.00  0.00    -0.284 N 
ENDROOT
BRANCH   1  15
HETATM   15  N1  UNL     1      36.102 -27.710 -37.841  1.00  0.00    -0.354 N 
ATOM     16  H1  UNL     1      35.839 -28.616 -37.454  1.00  0.00     0.166 HD
BRANCH  15  17
HETATM   17  C7  UNL     1      36.354 -27.772 -39.218  1.00  0.00     0.067 C 
BRANCH  17  18
HETATM   18  C6  UNL     1      37.825 -27.609 -39.600  1.00  0.00     0.083 C 
BRANCH  18  19
HETATM   19  C5  UNL     1      38.183 -26.174 -39.507  1.00  0.00    -0.049 A 
HETATM   20  C4  UNL     1      39.281 -25.823 -38.756  1.00  0.00     0.029 A 
HETATM   21  C3  UNL     1      39.678 -24.501 -38.618  1.00  0.00     0.047 A 
HETATM   22  C2  UNL     1      38.920 -23.524 -39.276  1.00  0.00     0.118 A 
HETATM   23 BR1  UNL     1      41.198 -24.020 -37.577  1.00  0.00    -0.048 Br
HETATM   24  C23 UNL     1      37.827 -23.842 -40.028  1.00  0.00     0.103 A 
HETATM   25  C22 UNL     1      37.463 -25.174 -40.140  1.00  0.00     0.047 A 
BRANCH  22  26
HETATM   26  O1  UNL     1      39.297 -22.194 -39.153  1.00  0.00    -0.352 OA
HETATM   27  C1  UNL     1      40.060 -21.538 -40.162  1.00  0.00     0.210 C 
ENDBRANCH  22  26
BRANCH  24  28
HETATM   28  O3  UNL     1      37.103 -22.832 -40.665  1.00  0.00    -0.348 OA
BRANCH  28  29
HETATM   29  C24 UNL     1      35.971 -22.243 -40.058  1.00  0.00     0.181 C 
BRANCH  29  30
HETATM   30  C25 UNL     1      34.850 -22.177 -41.060  1.00  0.00     0.072 C 
BRANCH  30  31
HETATM   31  C26 UNL     1      34.019 -23.395 -41.162  1.00  0.00     0.070 C 
BRANCH  31  32
HETATM   32  N6  UNL     1      32.721 -23.308 -41.660  1.00  0.00    -0.351 N 
HETATM   33  C27 UNL     1      32.162 -22.044 -41.908  1.00  0.00     0.095 C 
HETATM   34  C28 UNL     1      30.678 -21.924 -41.879  1.00  0.00     0.277 C 
HETATM   35  N7  UNL     1      29.976 -23.159 -42.064  1.00  0.00    -0.066 N 
HETATM   36  C29 UNL     1      30.550 -24.222 -41.246  1.00  0.00     0.277 C 
ATOM     37  H72 UNL     1      28.977 -23.051 -41.890  1.00  0.00     0.277 HD
ATOM     38  H71 UNL     1      29.937 -23.423 -43.048  1.00  0.00     0.277 HD
HETATM   39  C30 UNL     1      31.935 -24.462 -41.801  1.00  0.00     0.095 C 
ENDBRANCH  31  32
ENDBRANCH  30  31
ENDBRANCH  29  30
ENDBRANCH  28  29
ENDBRANCH  24  28
ENDBRANCH  18  19
ENDBRANCH  17  18
ENDBRANCH  15  17
ENDBRANCH   1  15
BRANCH  14  40
HETATM   40  C15 UNL     1      37.151 -24.826 -32.673  1.00  0.00     0.115 C 
BRANCH  40  41
HETATM   41  C16 UNL     1      35.953 -24.438 -31.958  1.00  0.00     0.019 A 
HETATM   42  C17 UNL     1      35.160 -23.419 -32.521  1.00  0.00     0.019 A 
HETATM   43  C18 UNL     1      34.033 -23.000 -31.871  1.00  0.00     0.043 A 
HETATM   44  C19 UNL     1      33.614 -23.522 -30.673  1.00  0.00     0.119 A 
HETATM   45  F1  UNL     1      32.469 -23.065 -30.059  1.00  0.00    -0.206 F 
HETATM   46  C20 UNL     1      34.380 -24.509 -30.122  1.00  0.00     0.085 A 
HETATM   47  C21 UNL     1      35.540 -24.952 -30.774  1.00  0.00     0.131 A 
HETATM   48  F2  UNL     1      36.218 -25.944 -30.104  1.00  0.00    -0.205 F 
ENDBRANCH  40  41
ENDBRANCH  14  40
BRANCH  13  49
HETATM   49  O2  UNL     1      38.244 -27.371 -31.965  1.00  0.00    -0.344 OA
ATOM     50  H2  UNL     1      37.811 -28.007 -31.408  1.00  0.00     0.219 HD
ENDBRANCH  13  49
TORSDOF 13
ENDMDL
MODEL 5
REMARK VINA RESULT: -8.255911563      2.791      4.621
REMARK  13 active torsions:
REMARK  status: ('A' for Active; 'I' for Inactive)
REMARK    1  A    between atoms: O1_2  and  C2_3 
REMARK    2  A    between atoms: C5_7  and  C6_8 
REMARK    3  A    between atoms: C6_8  and  C7_9 
REMARK    4  A    between atoms: C7_9  and  N1_10 
REMARK    5  A    between atoms: N1_10  and  C8_12 
REMARK    6  A    between atoms: C14_24  and  O2_25 
REMARK    7  A    between atoms: N5_27  and  C15_28 
REMARK    8  A    between atoms: C15_28  and  C16_29 
REMARK    9  A    between atoms: C23_38  and  O3_39 
REMARK   10  A    between atoms: O3_39  and  C24_40 
REMARK   11  A    between atoms: C24_40  and  C25_41 
REMARK   12  A    between atoms: C25_41  and  C26_42 
REMARK   13  A    between atoms: C26_42  and  N6_43 
ROOT
HETATM    1  C8  UNL     1      36.652 -27.643 -38.491  1.00  0.00     0.137 A 
HETATM    2  N2  UNL     1      36.383 -28.324 -39.630  1.00  0.00    -0.337 N 
ATOM      3  H2  UNL     1      36.484 -29.339 -39.651  1.00  0.00     0.168 HD
HETATM    4  C9  UNL     1      35.985 -27.670 -40.730  1.00  0.00     0.183 A 
HETATM    5  N3  UNL     1      35.844 -26.338 -40.731  1.00  0.00    -0.336 N 
ATOM      6  H3  UNL     1      35.538 -25.879 -41.590  1.00  0.00     0.168 HD
HETATM    7  C10 UNL     1      36.087 -25.584 -39.650  1.00  0.00     0.145 A 
HETATM    8  C11 UNL     1      36.497 -26.273 -38.523  1.00  0.00     0.122 A 
HETATM    9  N4  UNL     1      36.750 -25.543 -37.433  1.00  0.00    -0.350 N 
ATOM     10  H4  UNL     1      37.052 -26.031 -36.590  1.00  0.00     0.166 HD
HETATM   11  C12 UNL     1      36.632 -24.217 -37.379  1.00  0.00     0.058 A 
HETATM   12  C13 UNL     1      36.918 -23.420 -36.157  1.00  0.00     0.072 C 
HETATM   13  C14 UNL     1      36.216 -23.582 -38.545  1.00  0.00     0.171 A 
HETATM   14  N5  UNL     1      35.933 -24.224 -39.693  1.00  0.00    -0.284 N 
ENDROOT
BRANCH   1  15
HETATM   15  N1  UNL     1      37.018 -28.325 -37.502  1.00  0.00    -0.354 N 
ATOM     16  H1  UNL     1      36.229 -28.694 -36.971  1.00  0.00     0.166 HD
BRANCH  15  17
HETATM   17  C7  UNL     1      38.252 -28.700 -36.953  1.00  0.00     0.067 C 
BRANCH  17  18
HETATM   18  C6  UNL     1      39.467 -28.245 -37.761  1.00  0.00     0.083 C 
BRANCH  18  19
HETATM   19  C5  UNL     1      39.885 -26.908 -37.275  1.00  0.00    -0.049 A 
HETATM   20  C4  UNL     1      40.282 -25.972 -38.203  1.00  0.00     0.029 A 
HETATM   21  C3  UNL     1      40.690 -24.701 -37.827  1.00  0.00     0.047 A 
HETATM   22  C2  UNL     1      40.684 -24.394 -36.460  1.00  0.00     0.118 A 
HETATM   23 BR1  UNL     1      41.239 -23.409 -39.114  1.00  0.00    -0.048 Br
HETATM   24  C23 UNL     1      40.294 -25.301 -35.518  1.00  0.00     0.103 A 
HETATM   25  C22 UNL     1      39.895 -26.561 -35.934  1.00  0.00     0.047 A 
BRANCH  22  26
HETATM   26  O1  UNL     1      41.088 -23.128 -36.059  1.00  0.00    -0.352 OA
HETATM   27  C1  UNL     1      42.438 -22.856 -35.697  1.00  0.00     0.210 C 
ENDBRANCH  22  26
BRANCH  24  28
HETATM   28  O3  UNL     1      40.305 -24.948 -34.167  1.00  0.00    -0.348 OA
BRANCH  28  29
HETATM   29  C24 UNL     1      39.229 -24.244 -33.581  1.00  0.00     0.181 C 
BRANCH  29  30
HETATM   30  C25 UNL     1      38.389 -25.200 -32.779  1.00  0.00     0.072 C 
BRANCH  30  31
HETATM   31  C26 UNL     1      37.785 -24.639 -31.552  1.00  0.00     0.070 C 
BRANCH  31  32
HETATM   32  N6  UNL     1      36.401 -24.522 -31.452  1.00  0.00    -0.351 N 
HETATM   33  C27 UNL     1      35.594 -25.637 -31.727  1.00  0.00     0.095 C 
HETATM   34  C28 UNL     1      34.195 -25.389 -32.171  1.00  0.00     0.277 C 
HETATM   35  N7  UNL     1      33.682 -24.096 -31.829  1.00  0.00    -0.066 N 
HETATM   36  C29 UNL     1      34.647 -23.045 -32.132  1.00  0.00     0.277 C 
ATOM     37  H72 UNL     1      32.782 -23.920 -32.278  1.00  0.00     0.277 HD
ATOM     38  H71 UNL     1      33.381 -24.059 -30.855  1.00  0.00     0.277 HD
HETATM   39  C30 UNL     1      35.810 -23.275 -31.195  1.00  0.00     0.095 C 
ENDBRANCH  31  32
ENDBRANCH  30  31
ENDBRANCH  29  30
ENDBRANCH  28  29
ENDBRANCH  24  28
ENDBRANCH  18  19
ENDBRANCH  17  18
ENDBRANCH  15  17
ENDBRANCH   1  15
BRANCH  14  40
HETATM   40  C15 UNL     1      35.570 -23.599 -40.922  1.00  0.00     0.115 C 
BRANCH  40  41
HETATM   41  C16 UNL     1      34.200 -23.198 -41.165  1.00  0.00     0.019 A 
HETATM   42  C17 UNL     1      33.253 -24.217 -41.387  1.00  0.00     0.019 A 
HETATM   43  C18 UNL     1      31.952 -23.888 -41.647  1.00  0.00     0.043 A 
HETATM   44  C19 UNL     1      31.498 -22.595 -41.707  1.00  0.00     0.119 A 
HETATM   45  F1  UNL     1      30.175 -22.317 -41.972  1.00  0.00    -0.206 F 
HETATM   46  C20 UNL     1      32.412 -21.603 -41.494  1.00  0.00     0.085 A 
HETATM   47  C21 UNL     1      33.752 -21.921 -41.226  1.00  0.00     0.131 A 
HETATM   48  F2  UNL     1      34.563 -20.826 -41.039  1.00  0.00    -0.205 F 
ENDBRANCH  40  41
ENDBRANCH  14  40
BRANCH  13  49
HETATM   49  O2  UNL     1      36.107 -22.207 -38.484  1.00  0.00    -0.344 OA
ATOM     50  H2  UNL     1      36.749 -21.759 -37.946  1.00  0.00     0.219 HD
ENDBRANCH  13  49
TORSDOF 13
ENDMDL
