MODEL 1
REMARK VINA RESULT: -7.241715674      0.000      0.000
REMARK  5 active torsions:
REMARK  status: ('A' for Active; 'I' for Inactive)
REMARK    1  A    between atoms: N1_1  and  C1_4 
REMARK    2  A    between atoms: C2_7  and  C3_8 
REMARK    3  A    between atoms: C3_8  and  S1_9 
REMARK    4  A    between atoms: S1_9  and  C4_10 
REMARK    5  A    between atoms: C5_15  and  C6_16 
ROOT
HETATM    1  C4  UNL     1      64.359  19.473  25.170  1.00  0.00     0.203 A 
HETATM    2  N3  UNL     1      63.775  18.619  26.058  1.00  0.00    -0.272 N 
ATOM      3  H3  UNL     1      64.218  17.849  26.558  1.00  0.00     0.189 HD
HETATM    4  N4  UNL     1      62.511  19.002  26.131  1.00  0.00    -0.281 N 
ATOM      5  H4  UNL     1      61.806  18.556  26.717  1.00  0.00     0.189 HD
HETATM    6  C5  UNL     1      62.280  20.046  25.337  1.00  0.00     0.145 A 
HETATM    7  O1  UNL     1      63.435  20.309  24.763  1.00  0.00    -0.272 OA
ENDROOT
BRANCH   1   8
HETATM    8  S1  UNL     1      66.049  19.483  24.639  1.00  0.00    -0.079 SA
BRANCH   8   9
HETATM    9  C3  UNL     1      66.633  21.185  24.592  1.00  0.00     0.140 C 
BRANCH   9  10
HETATM   10  C2  UNL     1      66.616  21.788  23.259  1.00  0.00     0.037 A 
HETATM   11  N2  UNL     1      67.680  22.424  22.734  1.00  0.00    -0.195 N 
HETATM   12  C1  UNL     1      67.692  22.983  21.521  1.00  0.00     0.675 A 
ATOM     13  H2  UNL     1      68.530  22.482  23.296  1.00  0.00     0.184 HD
HETATM   14  N5  UNL     1      66.551  22.893  20.791  1.00  0.00    -0.202 N 
HETATM   15  C13 UNL     1      65.450  22.281  21.233  1.00  0.00     0.108 A 
ATOM     16  H5  UNL     1      66.534  23.312  19.862  1.00  0.00     0.183 HD
HETATM   17  C12 UNL     1      65.461  21.710  22.490  1.00  0.00     0.044 A 
BRANCH  12  18
HETATM   18  N1  UNL     1      68.721  23.595  21.019  1.00  0.00    -0.234 N 
ATOM     19  H12 UNL     1      69.627  23.127  21.011  1.00  0.00     0.174 HD
ATOM     20  H11 UNL     1      68.684  24.535  20.624  1.00  0.00     0.174 HD
ENDBRANCH  12  18
ENDBRANCH   9  10
ENDBRANCH   8   9
ENDBRANCH   1   8
BRANCH   6  21
HETATM   21  C6  UNL     1      61.008  20.780  25.124  1.00  0.00     0.062 C 
HETATM   22  C7  UNL     1      61.259  21.846  24.085  1.00  0.00     0.013 C 
HETATM   23  C8  UNL     1      60.192  22.911  24.095  1.00  0.00     0.001 C 
HETATM   24  C9  UNL     1      60.139  23.605  25.411  1.00  0.00     0.000 C 
HETATM   25  C10 UNL     1      60.511  22.772  26.579  1.00  0.00     0.001 C 
HETATM   26  C11 UNL     1      60.386  21.293  26.369  1.00  0.00     0.013 C 
ENDBRANCH   6  21
TORSDOF 5
ENDMDL
MODEL 2
REMARK VINA RESULT: -7.199360448      2.627      5.861
REMARK  5 active torsions:
REMARK  status: ('A' for Active; 'I' for Inactive)
REMARK    1  A    between atoms: N1_1  and  C1_4 
REMARK    2  A    between atoms: C2_7  and  C3_8 
REMARK    3  A    between atoms: C3_8  and  S1_9 
REMARK    4  A    between atoms: S1_9  and  C4_10 
REMARK    5  A    between atoms: C5_15  and  C6_16 
ROOT
HETATM    1  C4  UNL     1      63.466  19.537  25.667  1.00  0.00     0.203 A 
HETATM    2  N3  UNL     1      64.624  18.882  25.965  1.00  0.00    -0.272 N 
ATOM      3  H3  UNL     1      64.729  18.029  26.513  1.00  0.00     0.189 HD
HETATM    4  N4  UNL     1      65.583  19.590  25.390  1.00  0.00    -0.281 N 
ATOM      5  H4  UNL     1      66.575  19.357  25.430  1.00  0.00     0.189 HD
HETATM    6  C5  UNL     1      65.083  20.647  24.753  1.00  0.00     0.145 A 
HETATM    7  O1  UNL     1      63.782  20.583  24.944  1.00  0.00    -0.272 OA
ENDROOT
BRANCH   1   8
HETATM    8  S1  UNL     1      61.822  19.089  26.150  1.00  0.00    -0.079 SA
BRANCH   8   9
HETATM    9  C3  UNL     1      61.012  20.531  26.860  1.00  0.00     0.140 C 
BRANCH   9  10
HETATM   10  C2  UNL     1      60.621  21.543  25.877  1.00  0.00     0.037 A 
HETATM   11  N2  UNL     1      60.638  21.314  24.550  1.00  0.00    -0.195 N 
HETATM   12  C1  UNL     1      60.287  22.218  23.632  1.00  0.00     0.675 A 
ATOM     13  H2  UNL     1      60.937  20.394  24.226  1.00  0.00     0.184 HD
HETATM   14  N5  UNL     1      59.893  23.435  24.087  1.00  0.00    -0.202 N 
HETATM   15  C13 UNL     1      59.846  23.748  25.383  1.00  0.00     0.108 A 
ATOM     16  H5  UNL     1      59.620  24.143  23.406  1.00  0.00     0.183 HD
HETATM   17  C12 UNL     1      60.213  22.797  26.314  1.00  0.00     0.044 A 
BRANCH  12  18
HETATM   18  N1  UNL     1      60.305  21.992  22.353  1.00  0.00    -0.234 N 
ATOM     19  H12 UNL     1      60.313  21.030  22.016  1.00  0.00     0.174 HD
ATOM     20  H11 UNL     1      60.312  22.729  21.649  1.00  0.00     0.174 HD
ENDBRANCH  12  18
ENDBRANCH   9  10
ENDBRANCH   8   9
ENDBRANCH   1   8
BRANCH   6  21
HETATM   21  C6  UNL     1      65.807  21.689  23.985  1.00  0.00     0.062 C 
HETATM   22  C7  UNL     1      64.797  22.721  23.542  1.00  0.00     0.013 C 
HETATM   23  C8  UNL     1      65.317  23.580  22.418  1.00  0.00     0.001 C 
HETATM   24  C9  UNL     1      65.637  22.757  21.219  1.00  0.00     0.000 C 
HETATM   25  C10 UNL     1      66.088  21.375  21.504  1.00  0.00     0.001 C 
HETATM   26  C11 UNL     1      66.642  21.159  22.880  1.00  0.00     0.013 C 
ENDBRANCH   6  21
TORSDOF 5
ENDMDL
MODEL 3
REMARK VINA RESULT: -7.098535631      1.012      1.147
REMARK  5 active torsions:
REMARK  status: ('A' for Active; 'I' for Inactive)
REMARK    1  A    between atoms: N1_1  and  C1_4 
REMARK    2  A    between atoms: C2_7  and  C3_8 
REMARK    3  A    between atoms: C3_8  and  S1_9 
REMARK    4  A    between atoms: S1_9  and  C4_10 
REMARK    5  A    between atoms: C5_15  and  C6_16 
ROOT
HETATM    1  C4  UNL     1      64.448  20.112  24.741  1.00  0.00     0.203 A 
HETATM    2  N3  UNL     1      63.991  19.315  25.748  1.00  0.00    -0.272 N 
ATOM      3  H3  UNL     1      64.523  18.630  26.286  1.00  0.00     0.189 HD
HETATM    4  N4  UNL     1      62.711  19.619  25.881  1.00  0.00    -0.281 N 
ATOM      5  H4  UNL     1      62.083  19.189  26.560  1.00  0.00     0.189 HD
HETATM    6  C5  UNL     1      62.349  20.560  25.011  1.00  0.00     0.145 A 
HETATM    7  O1  UNL     1      63.439  20.839  24.328  1.00  0.00    -0.272 OA
ENDROOT
BRANCH   1   8
HETATM    8  S1  UNL     1      66.092  20.180  24.084  1.00  0.00    -0.079 SA
BRANCH   8   9
HETATM    9  C3  UNL     1      66.007  20.699  22.363  1.00  0.00     0.140 C 
BRANCH   9  10
HETATM   10  C2  UNL     1      66.459  22.072  22.128  1.00  0.00     0.037 A 
HETATM   11  N2  UNL     1      67.653  22.361  21.576  1.00  0.00    -0.195 N 
HETATM   12  C1  UNL     1      68.089  23.603  21.351  1.00  0.00     0.675 A 
ATOM     13  H2  UNL     1      68.260  21.585  21.313  1.00  0.00     0.184 HD
HETATM   14  N5  UNL     1      67.263  24.619  21.708  1.00  0.00    -0.202 N 
HETATM   15  C13 UNL     1      66.064  24.424  22.261  1.00  0.00     0.108 A 
ATOM     16  H5  UNL     1      67.574  25.577  21.546  1.00  0.00     0.183 HD
HETATM   17  C12 UNL     1      65.634  23.132  22.484  1.00  0.00     0.044 A 
BRANCH  12  18
HETATM   18  N1  UNL     1      69.241  23.877  20.817  1.00  0.00    -0.234 N 
ATOM     19  H12 UNL     1      70.033  23.259  20.994  1.00  0.00     0.174 HD
ATOM     20  H11 UNL     1      69.411  24.686  20.221  1.00  0.00     0.174 HD
ENDBRANCH  12  18
ENDBRANCH   9  10
ENDBRANCH   8   9
ENDBRANCH   1   8
BRANCH   6  21
HETATM   21  C6  UNL     1      61.014  21.182  24.826  1.00  0.00     0.062 C 
HETATM   22  C7  UNL     1      61.162  22.300  23.822  1.00  0.00     0.013 C 
HETATM   23  C8  UNL     1      60.004  23.263  23.870  1.00  0.00     0.001 C 
HETATM   24  C9  UNL     1      59.897  23.906  25.209  1.00  0.00     0.000 C 
HETATM   25  C10 UNL     1      60.349  23.072  26.347  1.00  0.00     0.001 C 
HETATM   26  C11 UNL     1      60.357  21.596  26.090  1.00  0.00     0.013 C 
ENDBRANCH   6  21
TORSDOF 5
ENDMDL
MODEL 4
REMARK VINA RESULT: -7.082900042      3.466      5.508
REMARK  5 active torsions:
REMARK  status: ('A' for Active; 'I' for Inactive)
REMARK    1  A    between atoms: N1_1  and  C1_4 
REMARK    2  A    between atoms: C2_7  and  C3_8 
REMARK    3  A    between atoms: C3_8  and  S1_9 
REMARK    4  A    between atoms: S1_9  and  C4_10 
REMARK    5  A    between atoms: C5_15  and  C6_16 
ROOT
HETATM    1  C4  UNL     1      67.114  23.805  21.920  1.00  0.00     0.203 A 
HETATM    2  N3  UNL     1      67.883  22.865  21.302  1.00  0.00    -0.272 N 
ATOM      3  H3  UNL     1      68.726  23.020  20.750  1.00  0.00     0.189 HD
HETATM    4  N4  UNL     1      67.302  21.707  21.571  1.00  0.00    -0.281 N 
ATOM      5  H4  UNL     1      67.641  20.802  21.246  1.00  0.00     0.189 HD
HETATM    6  C5  UNL     1      66.215  21.879  22.321  1.00  0.00     0.145 A 
HETATM    7  O1  UNL     1      66.130  23.178  22.516  1.00  0.00    -0.272 OA
ENDROOT
BRANCH   1   8
HETATM    8  S1  UNL     1      67.365  25.559  21.936  1.00  0.00    -0.079 SA
BRANCH   8   9
HETATM    9  C3  UNL     1      65.869  26.365  21.342  1.00  0.00     0.140 C 
BRANCH   9  10
HETATM   10  C2  UNL     1      64.637  25.625  21.624  1.00  0.00     0.037 A 
HETATM   11  N2  UNL     1      64.105  24.742  20.758  1.00  0.00    -0.195 N 
HETATM   12  C1  UNL     1      62.984  24.054  20.990  1.00  0.00     0.675 A 
ATOM     13  H2  UNL     1      64.587  24.588  19.872  1.00  0.00     0.184 HD
HETATM   14  N5  UNL     1      62.361  24.275  22.175  1.00  0.00    -0.202 N 
HETATM   15  C13 UNL     1      62.818  25.132  23.090  1.00  0.00     0.108 A 
ATOM     16  H5  UNL     1      61.502  23.762  22.375  1.00  0.00     0.183 HD
HETATM   17  C12 UNL     1      63.979  25.832  22.829  1.00  0.00     0.044 A 
BRANCH  12  18
HETATM   18  N1  UNL     1      62.475  23.203  20.152  1.00  0.00    -0.234 N 
ATOM     19  H12 UNL     1      61.669  23.475  19.589  1.00  0.00     0.174 HD
ATOM     20  H11 UNL     1      62.835  22.258  20.016  1.00  0.00     0.174 HD
ENDBRANCH  12  18
ENDBRANCH   9  10
ENDBRANCH   8   9
ENDBRANCH   1   8
BRANCH   6  21
HETATM   21  C6  UNL     1      65.281  20.851  22.843  1.00  0.00     0.062 C 
HETATM   22  C7  UNL     1      64.245  21.554  23.686  1.00  0.00     0.013 C 
HETATM   23  C8  UNL     1      63.515  20.603  24.600  1.00  0.00     0.001 C 
HETATM   24  C9  UNL     1      64.456  19.941  25.546  1.00  0.00     0.000 C 
HETATM   25  C10 UNL     1      65.827  19.729  25.027  1.00  0.00     0.001 C 
HETATM   26  C11 UNL     1      65.947  19.720  23.534  1.00  0.00     0.013 C 
ENDBRANCH   6  21
TORSDOF 5
ENDMDL
MODEL 5
REMARK VINA RESULT: -7.079626273      3.088      5.629
REMARK  5 active torsions:
REMARK  status: ('A' for Active; 'I' for Inactive)
REMARK    1  A    between atoms: N1_1  and  C1_4 
REMARK    2  A    between atoms: C2_7  and  C3_8 
REMARK    3  A    between atoms: C3_8  and  S1_9 
REMARK    4  A    between atoms: S1_9  and  C4_10 
REMARK    5  A    between atoms: C5_15  and  C6_16 
ROOT
HETATM    1  C4  UNL     1      65.936  22.549  21.332  1.00  0.00     0.203 A 
HETATM    2  N3  UNL     1      67.251  22.245  21.525  1.00  0.00    -0.272 N 
ATOM      3  H3  UNL     1      68.024  22.404  20.880  1.00  0.00     0.189 HD
HETATM    4  N4  UNL     1      67.309  21.702  22.730  1.00  0.00    -0.281 N 
ATOM      5  H4  UNL     1      68.165  21.365  23.170  1.00  0.00     0.189 HD
HETATM    6  C5  UNL     1      66.103  21.652  23.293  1.00  0.00     0.145 A 
HETATM    7  O1  UNL     1      65.285  22.180  22.407  1.00  0.00    -0.272 OA
ENDROOT
BRANCH   1   8
HETATM    8  S1  UNL     1      65.205  23.302  19.904  1.00  0.00    -0.079 SA
BRANCH   8   9
HETATM    9  C3  UNL     1      64.105  24.621  20.442  1.00  0.00     0.140 C 
BRANCH   9  10
HETATM   10  C2  UNL     1      63.081  24.194  21.398  1.00  0.00     0.037 A 
HETATM   11  N2  UNL     1      62.115  23.310  21.084  1.00  0.00    -0.195 N 
HETATM   12  C1  UNL     1      61.170  22.904  21.936  1.00  0.00     0.675 A 
ATOM     13  H2  UNL     1      62.105  22.927  20.139  1.00  0.00     0.184 HD
HETATM   14  N5  UNL     1      61.205  23.427  23.188  1.00  0.00    -0.202 N 
HETATM   15  C13 UNL     1      62.125  24.309  23.585  1.00  0.00     0.108 A 
ATOM     16  H5  UNL     1      60.494  23.133  23.857  1.00  0.00     0.183 HD
HETATM   17  C12 UNL     1      63.093  24.714  22.687  1.00  0.00     0.044 A 
BRANCH  12  18
HETATM   18  N1  UNL     1      60.241  22.051  21.628  1.00  0.00    -0.234 N 
ATOM     19  H12 UNL     1      60.457  21.054  21.629  1.00  0.00     0.174 HD
ATOM     20  H11 UNL     1      59.288  22.317  21.380  1.00  0.00     0.174 HD
ENDBRANCH  12  18
ENDBRANCH   9  10
ENDBRANCH   8   9
ENDBRANCH   1   8
BRANCH   6  21
HETATM   21  C6  UNL     1      65.728  21.122  24.627  1.00  0.00     0.062 C 
HETATM   22  C7  UNL     1      66.121  19.665  24.673  1.00  0.00     0.013 C 
HETATM   23  C8  UNL     1      65.421  18.923  25.782  1.00  0.00     0.001 C 
HETATM   24  C9  UNL     1      63.944  18.959  25.602  1.00  0.00     0.000 C 
HETATM   25  C10 UNL     1      63.419  20.175  24.937  1.00  0.00     0.001 C 
HETATM   26  C11 UNL     1      64.316  21.373  25.005  1.00  0.00     0.013 C 
ENDBRANCH   6  21
TORSDOF 5
ENDMDL
