MODEL 1
REMARK VINA RESULT: -6.278766930      0.000      0.000
REMARK  10 active torsions:
REMARK  status: ('A' for Active; 'I' for Inactive)
REMARK    1  A    between atoms: C1_4  and  C2_5 
REMARK    2  A    between atoms: C2_5  and  N2_6 
REMARK    3  A    between atoms: C2_5  and  C11_19 
REMARK    4  A    between atoms: N2_6  and  N3_7 
REMARK       I    between atoms: N3_7  and  C3_9 
REMARK    5  A    between atoms: C3_9  and  C4_11 
REMARK    6  A    between atoms: C4_11  and  O2_12 
REMARK    7  A    between atoms: O2_12  and  C5_13 
REMARK    8  A    between atoms: C11_19  and  C12_21 
REMARK    9  A    between atoms: C12_21  and  C13_22 
REMARK   10  A    between atoms: C13_22  and  N4_23 
ROOT
HETATM    1  C2  UNL     1      18.568  -6.989   6.492  1.00  0.00     0.206 C 
ENDROOT
BRANCH   1   2
HETATM    2  C1  UNL     1      17.634  -7.700   5.560  1.00  0.00     0.083 C 
HETATM    3  N1  UNL     1      17.506  -7.268   4.385  1.00  0.00    -0.409 N 
ATOM      4  H12 UNL     1      18.035  -6.448   4.088  1.00  0.00     0.155 HD
ATOM      5  H11 UNL     1      16.870  -7.751   3.751  1.00  0.00     0.155 HD
ENDBRANCH   1   2
BRANCH   1   6
HETATM    6  N2  UNL     1      18.035  -7.039   7.825  1.00  0.00    -0.121 NA
BRANCH   6   7
HETATM    7  N3  UNL     1      17.835  -5.705   8.248  1.00  0.00    -0.271 N 
HETATM    8  C3  UNL     1      18.589  -5.212   9.367  1.00  0.00     0.257 C 
HETATM    9  O1  UNL     1      19.411  -5.961   9.950  1.00  0.00    -0.270 OA
ATOM     10  H3  UNL     1      17.167  -5.104   7.767  1.00  0.00     0.185 HD
BRANCH   8  11
HETATM   11  C4  UNL     1      18.392  -3.829   9.826  1.00  0.00     0.279 C 
BRANCH  11  12
HETATM   12  O2  UNL     1      19.638  -3.202  10.058  1.00  0.00    -0.342 OA
BRANCH  12  13
HETATM   13  C5  UNL     1      20.005  -2.714  11.305  1.00  0.00     0.069 A 
HETATM   14  C6  UNL     1      19.833  -3.509  12.415  1.00  0.00     0.037 A 
HETATM   15  C7  UNL     1      20.190  -3.058  13.690  1.00  0.00     0.003 A 
HETATM   16  C8  UNL     1      20.725  -1.790  13.842  1.00  0.00     0.000 A 
HETATM   17  C9  UNL     1      20.906  -0.979  12.744  1.00  0.00     0.003 A 
HETATM   18  C10 UNL     1      20.542  -1.457  11.490  1.00  0.00     0.037 A 
ENDBRANCH  12  13
ENDBRANCH  11  12
ENDBRANCH   8  11
ENDBRANCH   6   7
ENDBRANCH   1   6
BRANCH   1  19
HETATM   19  C11 UNL     1      19.861  -7.718   6.372  1.00  0.00     0.154 C 
HETATM   20  O3  UNL     1      20.018  -8.744   5.745  1.00  0.00    -0.296 OA
BRANCH  19  21
HETATM   21  C12 UNL     1      21.041  -7.148   7.070  1.00  0.00     0.107 C 
BRANCH  21  22
HETATM   22  C13 UNL     1      21.304  -5.710   6.623  1.00  0.00     0.237 C 
BRANCH  22  23
HETATM   23  N4  UNL     1      22.734  -5.515   6.599  1.00  0.00    -0.079 N 
ATOM     24  H43 UNL     1      23.177  -5.720   7.494  1.00  0.00     0.274 HD
ATOM     25  H42 UNL     1      23.221  -6.219   6.044  1.00  0.00     0.274 HD
ATOM     26  H41 UNL     1      22.910  -4.563   6.277  1.00  0.00     0.274 HD
ENDBRANCH  22  23
ENDBRANCH  21  22
ENDBRANCH  19  21
ENDBRANCH   1  19
TORSDOF 10
ENDMDL
MODEL 2
REMARK VINA RESULT: -6.235244386      0.159      1.074
REMARK  10 active torsions:
REMARK  status: ('A' for Active; 'I' for Inactive)
REMARK    1  A    between atoms: C1_4  and  C2_5 
REMARK    2  A    between atoms: C2_5  and  N2_6 
REMARK    3  A    between atoms: C2_5  and  C11_19 
REMARK    4  A    between atoms: N2_6  and  N3_7 
REMARK       I    between atoms: N3_7  and  C3_9 
REMARK    5  A    between atoms: C3_9  and  C4_11 
REMARK    6  A    between atoms: C4_11  and  O2_12 
REMARK    7  A    between atoms: O2_12  and  C5_13 
REMARK    8  A    between atoms: C11_19  and  C12_21 
REMARK    9  A    between atoms: C12_21  and  C13_22 
REMARK   10  A    between atoms: C13_22  and  N4_23 
ROOT
HETATM    1  C2  UNL     1      18.548  -6.875   6.450  1.00  0.00     0.206 C 
ENDROOT
BRANCH   1   2
HETATM    2  C1  UNL     1      17.687  -7.687   5.531  1.00  0.00     0.083 C 
HETATM    3  N1  UNL     1      17.435  -7.238   4.383  1.00  0.00    -0.409 N 
ATOM      4  H12 UNL     1      17.818  -6.336   4.098  1.00  0.00     0.155 HD
ATOM      5  H11 UNL     1      16.849  -7.791   3.757  1.00  0.00     0.155 HD
ENDBRANCH   1   2
BRANCH   1   6
HETATM    6  N2  UNL     1      17.977  -6.890   7.768  1.00  0.00    -0.121 NA
BRANCH   6   7
HETATM    7  N3  UNL     1      17.826  -5.545   8.176  1.00  0.00    -0.271 N 
HETATM    8  C3  UNL     1      18.458  -5.113   9.392  1.00  0.00     0.257 C 
HETATM    9  O1  UNL     1      19.132  -5.925  10.072  1.00  0.00    -0.270 OA
ATOM     10  H3  UNL     1      17.278  -4.892   7.616  1.00  0.00     0.185 HD
BRANCH   8  11
HETATM   11  C4  UNL     1      18.309  -3.720   9.837  1.00  0.00     0.279 C 
BRANCH  11  12
HETATM   12  O2  UNL     1      19.575  -3.135  10.069  1.00  0.00    -0.342 OA
BRANCH  12  13
HETATM   13  C5  UNL     1      19.974  -2.699  11.325  1.00  0.00     0.069 A 
HETATM   14  C6  UNL     1      20.529  -1.446  11.457  1.00  0.00     0.037 A 
HETATM   15  C7  UNL     1      20.945  -0.967  12.703  1.00  0.00     0.003 A 
HETATM   16  C8  UNL     1      20.798  -1.763  13.826  1.00  0.00     0.000 A 
HETATM   17  C9  UNL     1      20.245  -3.019  13.716  1.00  0.00     0.003 A 
HETATM   18  C10 UNL     1      19.841  -3.467  12.463  1.00  0.00     0.037 A 
ENDBRANCH  12  13
ENDBRANCH  11  12
ENDBRANCH   8  11
ENDBRANCH   6   7
ENDBRANCH   1   6
BRANCH   1  19
HETATM   19  C11 UNL     1      19.885  -7.530   6.405  1.00  0.00     0.154 C 
HETATM   20  O3  UNL     1      20.156  -8.498   5.727  1.00  0.00    -0.296 OA
BRANCH  19  21
HETATM   21  C12 UNL     1      20.962  -6.957   7.251  1.00  0.00     0.107 C 
BRANCH  21  22
HETATM   22  C13 UNL     1      21.337  -5.549   6.787  1.00  0.00     0.237 C 
BRANCH  22  23
HETATM   23  N4  UNL     1      22.761  -5.531   6.553  1.00  0.00    -0.079 N 
ATOM     24  H43 UNL     1      23.295  -5.932   7.324  1.00  0.00     0.274 HD
ATOM     25  H42 UNL     1      23.053  -6.191   5.832  1.00  0.00     0.274 HD
ATOM     26  H41 UNL     1      23.027  -4.569   6.343  1.00  0.00     0.274 HD
ENDBRANCH  22  23
ENDBRANCH  21  22
ENDBRANCH  19  21
ENDBRANCH   1  19
TORSDOF 10
ENDMDL
MODEL 3
REMARK VINA RESULT: -6.155933182      1.021      2.882
REMARK  10 active torsions:
REMARK  status: ('A' for Active; 'I' for Inactive)
REMARK    1  A    between atoms: C1_4  and  C2_5 
REMARK    2  A    between atoms: C2_5  and  N2_6 
REMARK    3  A    between atoms: C2_5  and  C11_19 
REMARK    4  A    between atoms: N2_6  and  N3_7 
REMARK       I    between atoms: N3_7  and  C3_9 
REMARK    5  A    between atoms: C3_9  and  C4_11 
REMARK    6  A    between atoms: C4_11  and  O2_12 
REMARK    7  A    between atoms: O2_12  and  C5_13 
REMARK    8  A    between atoms: C11_19  and  C12_21 
REMARK    9  A    between atoms: C12_21  and  C13_22 
REMARK   10  A    between atoms: C13_22  and  N4_23 
ROOT
HETATM    1  C2  UNL     1      20.660  -6.717   7.502  1.00  0.00     0.206 C 
ENDROOT
BRANCH   1   2
HETATM    2  C1  UNL     1      21.398  -5.440   7.240  1.00  0.00     0.083 C 
HETATM    3  N1  UNL     1      22.459  -5.482   6.564  1.00  0.00    -0.409 N 
ATOM      4  H12 UNL     1      22.796  -6.377   6.209  1.00  0.00     0.155 HD
ATOM      5  H11 UNL     1      22.962  -4.613   6.386  1.00  0.00     0.155 HD
ENDBRANCH   1   2
BRANCH   1   6
HETATM    6  N2  UNL     1      19.873  -6.572   8.695  1.00  0.00    -0.121 NA
BRANCH   6   7
HETATM    7  N3  UNL     1      19.859  -5.197   9.025  1.00  0.00    -0.271 N 
HETATM    8  C3  UNL     1      18.607  -4.576   9.360  1.00  0.00     0.257 C 
HETATM    9  O1  UNL     1      17.550  -5.254   9.360  1.00  0.00    -0.270 OA
ATOM     10  H3  UNL     1      20.723  -4.655   9.024  1.00  0.00     0.185 HD
BRANCH   8  11
HETATM   11  C4  UNL     1      18.570  -3.147   9.701  1.00  0.00     0.279 C 
BRANCH  11  12
HETATM   12  O2  UNL     1      19.850  -2.699  10.099  1.00  0.00    -0.342 OA
BRANCH  12  13
HETATM   13  C5  UNL     1      20.162  -2.416  11.423  1.00  0.00     0.069 A 
HETATM   14  C6  UNL     1      20.773  -1.222  11.730  1.00  0.00     0.037 A 
HETATM   15  C7  UNL     1      21.104  -0.897  13.050  1.00  0.00     0.003 A 
HETATM   16  C8  UNL     1      20.814  -1.790  14.067  1.00  0.00     0.000 A 
HETATM   17  C9  UNL     1      20.202  -2.990  13.781  1.00  0.00     0.003 A 
HETATM   18  C10 UNL     1      19.885  -3.283  12.460  1.00  0.00     0.037 A 
ENDBRANCH  12  13
ENDBRANCH  11  12
ENDBRANCH   8  11
ENDBRANCH   6   7
ENDBRANCH   1   6
BRANCH   1  19
HETATM   19  C11 UNL     1      19.818  -6.932   6.292  1.00  0.00     0.154 C 
HETATM   20  O3  UNL     1      20.243  -6.980   5.157  1.00  0.00    -0.296 OA
BRANCH  19  21
HETATM   21  C12 UNL     1      18.356  -7.097   6.489  1.00  0.00     0.107 C 
BRANCH  21  22
HETATM   22  C13 UNL     1      17.749  -7.975   5.395  1.00  0.00     0.237 C 
BRANCH  22  23
HETATM   23  N4  UNL     1      17.293  -7.104   4.339  1.00  0.00    -0.079 N 
ATOM     24  H43 UNL     1      17.794  -6.216   4.313  1.00  0.00     0.274 HD
ATOM     25  H42 UNL     1      17.559  -7.433   3.410  1.00  0.00     0.274 HD
ATOM     26  H41 UNL     1      16.286  -6.988   4.446  1.00  0.00     0.274 HD
ENDBRANCH  22  23
ENDBRANCH  21  22
ENDBRANCH  19  21
ENDBRANCH   1  19
TORSDOF 10
ENDMDL
MODEL 4
REMARK VINA RESULT: -6.151070062      1.018      2.677
REMARK  10 active torsions:
REMARK  status: ('A' for Active; 'I' for Inactive)
REMARK    1  A    between atoms: C1_4  and  C2_5 
REMARK    2  A    between atoms: C2_5  and  N2_6 
REMARK    3  A    between atoms: C2_5  and  C11_19 
REMARK    4  A    between atoms: N2_6  and  N3_7 
REMARK       I    between atoms: N3_7  and  C3_9 
REMARK    5  A    between atoms: C3_9  and  C4_11 
REMARK    6  A    between atoms: C4_11  and  O2_12 
REMARK    7  A    between atoms: O2_12  and  C5_13 
REMARK    8  A    between atoms: C11_19  and  C12_21 
REMARK    9  A    between atoms: C12_21  and  C13_22 
REMARK   10  A    between atoms: C13_22  and  N4_23 
ROOT
HETATM    1  C2  UNL     1      20.650  -6.747   7.534  1.00  0.00     0.206 C 
ENDROOT
BRANCH   1   2
HETATM    2  C1  UNL     1      21.406  -5.477   7.290  1.00  0.00     0.083 C 
HETATM    3  N1  UNL     1      22.448  -5.518   6.585  1.00  0.00    -0.409 N 
ATOM      4  H12 UNL     1      22.758  -6.407   6.194  1.00  0.00     0.155 HD
ATOM      5  H11 UNL     1      22.963  -4.653   6.420  1.00  0.00     0.155 HD
ENDBRANCH   1   2
BRANCH   1   6
HETATM    6  N2  UNL     1      19.854  -6.603   8.721  1.00  0.00    -0.121 NA
BRANCH   6   7
HETATM    7  N3  UNL     1      19.843  -5.230   9.056  1.00  0.00    -0.271 N 
HETATM    8  C3  UNL     1      18.591  -4.603   9.376  1.00  0.00     0.257 C 
HETATM    9  O1  UNL     1      17.530  -5.275   9.359  1.00  0.00    -0.270 OA
ATOM     10  H3  UNL     1      20.710  -4.692   9.070  1.00  0.00     0.185 HD
BRANCH   8  11
HETATM   11  C4  UNL     1      18.556  -3.175   9.722  1.00  0.00     0.279 C 
BRANCH  11  12
HETATM   12  O2  UNL     1      19.845  -2.721  10.085  1.00  0.00    -0.342 OA
BRANCH  12  13
HETATM   13  C5  UNL     1      20.175  -2.384  11.390  1.00  0.00     0.069 A 
HETATM   14  C6  UNL     1      19.885  -3.265  12.407  1.00  0.00     0.037 A 
HETATM   15  C7  UNL     1      20.201  -2.965  13.737  1.00  0.00     0.003 A 
HETATM   16  C8  UNL     1      20.815  -1.761  14.039  1.00  0.00     0.000 A 
HETATM   17  C9  UNL     1      21.114  -0.866  13.036  1.00  0.00     0.003 A 
HETATM   18  C10 UNL     1      20.789  -1.194  11.725  1.00  0.00     0.037 A 
ENDBRANCH  12  13
ENDBRANCH  11  12
ENDBRANCH   8  11
ENDBRANCH   6   7
ENDBRANCH   1   6
BRANCH   1  19
HETATM   19  C11 UNL     1      19.817  -6.940   6.314  1.00  0.00     0.154 C 
HETATM   20  O3  UNL     1      20.251  -6.982   5.183  1.00  0.00    -0.296 OA
BRANCH  19  21
HETATM   21  C12 UNL     1      18.352  -7.091   6.497  1.00  0.00     0.107 C 
BRANCH  21  22
HETATM   22  C13 UNL     1      17.747  -7.972   5.403  1.00  0.00     0.237 C 
BRANCH  22  23
HETATM   23  N4  UNL     1      17.294  -7.103   4.345  1.00  0.00    -0.079 N 
ATOM     24  H43 UNL     1      17.993  -6.969   3.615  1.00  0.00     0.274 HD
ATOM     25  H42 UNL     1      16.574  -7.531   3.762  1.00  0.00     0.274 HD
ATOM     26  H41 UNL     1      16.991  -6.228   4.771  1.00  0.00     0.274 HD
ENDBRANCH  22  23
ENDBRANCH  21  22
ENDBRANCH  19  21
ENDBRANCH   1  19
TORSDOF 10
ENDMDL
MODEL 5
REMARK VINA RESULT: -6.112156794      3.148      3.748
REMARK  10 active torsions:
REMARK  status: ('A' for Active; 'I' for Inactive)
REMARK    1  A    between atoms: C1_4  and  C2_5 
REMARK    2  A    between atoms: C2_5  and  N2_6 
REMARK    3  A    between atoms: C2_5  and  C11_19 
REMARK    4  A    between atoms: N2_6  and  N3_7 
REMARK       I    between atoms: N3_7  and  C3_9 
REMARK    5  A    between atoms: C3_9  and  C4_11 
REMARK    6  A    between atoms: C4_11  and  O2_12 
REMARK    7  A    between atoms: O2_12  and  C5_13 
REMARK    8  A    between atoms: C11_19  and  C12_21 
REMARK    9  A    between atoms: C12_21  and  C13_22 
REMARK   10  A    between atoms: C13_22  and  N4_23 
ROOT
HETATM    1  C2  UNL     1      18.678  -6.835   6.081  1.00  0.00     0.206 C 
ENDROOT
BRANCH   1   2
HETATM    2  C1  UNL     1      17.863  -7.729   5.198  1.00  0.00     0.083 C 
HETATM    3  N1  UNL     1      17.195  -7.212   4.264  1.00  0.00    -0.409 N 
ATOM      4  H12 UNL     1      17.219  -6.202   4.126  1.00  0.00     0.155 HD
ATOM      5  H11 UNL     1      16.640  -7.821   3.663  1.00  0.00     0.155 HD
ENDBRANCH   1   2
BRANCH   1   6
HETATM    6  N2  UNL     1      17.929  -6.536   7.270  1.00  0.00    -0.121 NA
BRANCH   6   7
HETATM    7  N3  UNL     1      17.852  -7.726   8.029  1.00  0.00    -0.271 N 
HETATM    8  C3  UNL     1      17.126  -7.712   9.269  1.00  0.00     0.257 C 
HETATM    9  O1  UNL     1      16.571  -6.656   9.660  1.00  0.00    -0.270 OA
ATOM     10  H3  UNL     1      18.305  -8.579   7.703  1.00  0.00     0.185 HD
BRANCH   8  11
HETATM   11  C4  UNL     1      17.038  -8.937  10.077  1.00  0.00     0.279 C 
BRANCH  11  12
HETATM   12  O2  UNL     1      18.311  -9.292  10.580  1.00  0.00    -0.342 OA
BRANCH  12  13
HETATM   13  C5  UNL     1      18.960  -8.549  11.556  1.00  0.00     0.069 A 
HETATM   14  C6  UNL     1      18.634  -8.745  12.879  1.00  0.00     0.037 A 
HETATM   15  C7  UNL     1      19.263  -8.018  13.895  1.00  0.00     0.003 A 
HETATM   16  C8  UNL     1      20.229  -7.082  13.568  1.00  0.00     0.000 A 
HETATM   17  C9  UNL     1      20.570  -6.870  12.251  1.00  0.00     0.003 A 
HETATM   18  C10 UNL     1      19.928  -7.610  11.264  1.00  0.00     0.037 A 
ENDBRANCH  12  13
ENDBRANCH  11  12
ENDBRANCH   8  11
ENDBRANCH   6   7
ENDBRANCH   1   6
BRANCH   1  19
HETATM   19  C11 UNL     1      19.918  -7.608   6.373  1.00  0.00     0.154 C 
HETATM   20  O3  UNL     1      20.131  -8.739   5.991  1.00  0.00    -0.296 OA
BRANCH  19  21
HETATM   21  C12 UNL     1      20.966  -6.946   7.191  1.00  0.00     0.107 C 
BRANCH  21  22
HETATM   22  C13 UNL     1      21.336  -5.581   6.612  1.00  0.00     0.237 C 
BRANCH  22  23
HETATM   23  N4  UNL     1      22.776  -5.500   6.568  1.00  0.00    -0.079 N 
ATOM     24  H43 UNL     1      23.112  -4.644   6.128  1.00  0.00     0.274 HD
ATOM     25  H42 UNL     1      23.193  -5.351   7.487  1.00  0.00     0.274 HD
ATOM     26  H41 UNL     1      23.119  -6.344   6.109  1.00  0.00     0.274 HD
ENDBRANCH  22  23
ENDBRANCH  21  22
ENDBRANCH  19  21
ENDBRANCH   1  19
TORSDOF 10
ENDMDL
