MODEL 1
REMARK VINA RESULT: -11.352568488      0.000      0.000
REMARK  10 active torsions:
REMARK  status: ('A' for Active; 'I' for Inactive)
REMARK    1  A    between atoms: C5_7  and  N1_8 
REMARK    2  A    between atoms: N1_8  and  C6_9 
REMARK    3  A    between atoms: N3_13  and  C8_15 
REMARK    4  A    between atoms: C8_15  and  C9_16 
REMARK    5  A    between atoms: C9_16  and  C10_17 
REMARK    6  A    between atoms: C10_17  and  N4_18 
REMARK    7  A    between atoms: C15_25  and  N6_26 
REMARK    8  A    between atoms: N6_26  and  C16_28 
REMARK    9  A    between atoms: N7_31  and  C19_32 
REMARK   10  A    between atoms: C19_32  and  C20_33 
ROOT
HETATM    1  C6  UNL     1      -7.715  53.832  -5.215  1.00  0.00     0.288 A 
HETATM    2  N2  UNL     1      -9.041  53.487  -5.117  1.00  0.00    -0.148 N 
ATOM      3  H2  UNL     1      -9.366  52.649  -5.598  1.00  0.00     0.188 HD
HETATM    4  C7  UNL     1      -9.924  54.207  -4.415  1.00  0.00     0.696 A 
HETATM    5  N3  UNL     1     -11.168  53.903  -4.319  1.00  0.00    -0.225 N 
ATOM      6  H3  UNL     1     -11.779  54.501  -3.764  1.00  0.00     0.177 HD
HETATM    7  N5  UNL     1      -9.463  55.330  -3.777  1.00  0.00    -0.022 N 
ATOM      8  H5  UNL     1     -10.130  55.882  -3.238  1.00  0.00     0.203 HD
HETATM    9  C15 UNL     1      -8.204  55.741  -3.818  1.00  0.00     0.696 A 
HETATM   10  N8  UNL     1      -7.354  54.977  -4.542  1.00  0.00    -0.148 N 
ATOM     11  H8  UNL     1      -6.378  55.269  -4.592  1.00  0.00     0.188 HD
ENDROOT
BRANCH   9  12
HETATM   12  N6  UNL     1      -7.750  56.758  -3.179  1.00  0.00    -0.221 N 
ATOM     13  H6  UNL     1      -6.782  56.673  -2.870  1.00  0.00     0.178 HD
BRANCH  12  14
HETATM   14  C16 UNL     1      -8.373  57.968  -2.837  1.00  0.00     0.102 C 
HETATM   15  C17 UNL     1      -7.562  58.721  -1.748  1.00  0.00     0.056 C 
HETATM   16  C18 UNL     1      -8.565  59.628  -1.117  1.00  0.00     0.274 C 
HETATM   17  N7  UNL     1      -9.099  60.570  -2.046  1.00  0.00     0.088 N 
HETATM   18  C27 UNL     1      -9.566  60.036  -3.281  1.00  0.00     0.274 C 
HETATM   19  C28 UNL     1      -8.756  58.921  -3.905  1.00  0.00     0.056 C 
BRANCH  17  20
HETATM   20  C19 UNL     1      -8.125  61.637  -2.249  1.00  0.00     0.277 C 
BRANCH  20  21
HETATM   21  C20 UNL     1      -8.675  62.857  -1.473  1.00  0.00     0.014 C 
HETATM   22  C21 UNL     1      -9.996  63.299  -2.045  1.00  0.00     0.006 C 
HETATM   23  C22 UNL     1     -10.795  64.061  -1.019  1.00  0.00     0.000 C 
HETATM   24  C23 UNL     1     -10.284  65.424  -0.708  1.00  0.00     0.000 C 
HETATM   25  C24 UNL     1      -9.047  65.828  -1.477  1.00  0.00     0.000 C 
HETATM   26  C25 UNL     1      -7.823  65.114  -0.895  1.00  0.00     0.000 C 
HETATM   27  C26 UNL     1      -7.591  63.912  -1.749  1.00  0.00     0.006 C 
ENDBRANCH  20  21
ENDBRANCH  17  20
ENDBRANCH  12  14
ENDBRANCH   9  12
BRANCH   1  28
HETATM   28  N1  UNL     1      -6.950  53.144  -5.825  1.00  0.00    -0.367 NA
BRANCH  28  29
HETATM   29  C5  UNL     1      -6.102  52.379  -6.504  1.00  0.00     0.157 A 
HETATM   30  C4  UNL     1      -5.146  51.614  -5.839  1.00  0.00     0.076 A 
HETATM   31  C3  UNL     1      -4.258  50.842  -6.573  1.00  0.00     0.030 A 
HETATM   32 CL1  UNL     1      -4.987  51.544  -4.082  1.00  0.00    -0.081 Cl
HETATM   33  C2  UNL     1      -4.299  50.815  -7.939  1.00  0.00     0.046 A 
HETATM   34  C1  UNL     1      -5.234  51.562  -8.596  1.00  0.00     0.141 A 
HETATM   35  F1  UNL     1      -5.265  51.523  -9.954  1.00  0.00    -0.204 F 
HETATM   36  C29 UNL     1      -6.142  52.348  -7.925  1.00  0.00     0.115 A 
HETATM   37 CL2  UNL     1      -7.297  53.284  -8.840  1.00  0.00    -0.077 Cl
ENDBRANCH  28  29
ENDBRANCH   1  28
BRANCH   5  38
HETATM   38  C8  UNL     1     -11.723  52.764  -4.957  1.00  0.00     0.140 C 
BRANCH  38  39
HETATM   39  C9  UNL     1     -11.549  52.938  -6.479  1.00  0.00     0.050 C 
BRANCH  39  40
HETATM   40  C10 UNL     1     -11.323  51.559  -7.018  1.00  0.00     0.274 C 
BRANCH  40  41
HETATM   41  N4  UNL     1      -9.896  51.374  -7.345  1.00  0.00     0.088 N 
HETATM   42  C11 UNL     1      -9.889  50.550  -8.557  1.00  0.00     0.272 C 
HETATM   43  C12 UNL     1      -8.524  49.945  -8.541  1.00  0.00     0.032 C 
HETATM   44  C13 UNL     1      -8.378  49.557  -7.073  1.00  0.00     0.032 C 
HETATM   45  C14 UNL     1      -9.314  50.467  -6.354  1.00  0.00     0.272 C 
ENDBRANCH  40  41
ENDBRANCH  39  40
ENDBRANCH  38  39
ENDBRANCH   5  38
TORSDOF 10
ENDMDL
MODEL 2
REMARK VINA RESULT: -11.222796754      0.748      1.637
REMARK  10 active torsions:
REMARK  status: ('A' for Active; 'I' for Inactive)
REMARK    1  A    between atoms: C5_7  and  N1_8 
REMARK    2  A    between atoms: N1_8  and  C6_9 
REMARK    3  A    between atoms: N3_13  and  C8_15 
REMARK    4  A    between atoms: C8_15  and  C9_16 
REMARK    5  A    between atoms: C9_16  and  C10_17 
REMARK    6  A    between atoms: C10_17  and  N4_18 
REMARK    7  A    between atoms: C15_25  and  N6_26 
REMARK    8  A    between atoms: N6_26  and  C16_28 
REMARK    9  A    between atoms: N7_31  and  C19_32 
REMARK   10  A    between atoms: C19_32  and  C20_33 
ROOT
HETATM    1  C6  UNL     1      -7.752  53.879  -5.216  1.00  0.00     0.288 A 
HETATM    2  N2  UNL     1      -9.078  53.527  -5.159  1.00  0.00    -0.148 N 
ATOM      3  H2  UNL     1      -9.388  52.701  -5.669  1.00  0.00     0.188 HD
HETATM    4  C7  UNL     1      -9.980  54.226  -4.459  1.00  0.00     0.696 A 
HETATM    5  N3  UNL     1     -11.226  53.915  -4.400  1.00  0.00    -0.225 N 
ATOM      6  H3  UNL     1     -11.852  54.497  -3.844  1.00  0.00     0.177 HD
HETATM    7  N5  UNL     1      -9.539  55.332  -3.781  1.00  0.00    -0.022 N 
ATOM      8  H5  UNL     1     -10.221  55.868  -3.244  1.00  0.00     0.203 HD
HETATM    9  C15 UNL     1      -8.280  55.748  -3.781  1.00  0.00     0.696 A 
HETATM   10  N8  UNL     1      -7.411  55.006  -4.504  1.00  0.00    -0.148 N 
ATOM     11  H8  UNL     1      -6.435  55.303  -4.523  1.00  0.00     0.188 HD
ENDROOT
BRANCH   9  12
HETATM   12  N6  UNL     1      -7.846  56.750  -3.105  1.00  0.00    -0.221 N 
ATOM     13  H6  UNL     1      -6.906  56.635  -2.725  1.00  0.00     0.178 HD
BRANCH  12  14
HETATM   14  C16 UNL     1      -8.456  57.977  -2.804  1.00  0.00     0.102 C 
HETATM   15  C17 UNL     1      -7.675  58.727  -1.691  1.00  0.00     0.056 C 
HETATM   16  C18 UNL     1      -8.684  59.663  -1.114  1.00  0.00     0.274 C 
HETATM   17  N7  UNL     1      -9.158  60.603  -2.075  1.00  0.00     0.088 N 
HETATM   18  C27 UNL     1      -9.585  60.063  -3.323  1.00  0.00     0.274 C 
HETATM   19  C28 UNL     1      -8.774  58.924  -3.899  1.00  0.00     0.056 C 
BRANCH  17  20
HETATM   20  C19 UNL     1      -8.154  61.647  -2.251  1.00  0.00     0.277 C 
BRANCH  20  21
HETATM   21  C20 UNL     1      -8.683  62.871  -1.465  1.00  0.00     0.014 C 
HETATM   22  C21 UNL     1      -9.992  63.345  -2.039  1.00  0.00     0.006 C 
HETATM   23  C22 UNL     1     -10.780  64.114  -1.009  1.00  0.00     0.000 C 
HETATM   24  C23 UNL     1     -10.242  65.463  -0.683  1.00  0.00     0.000 C 
HETATM   25  C24 UNL     1      -8.993  65.848  -1.441  1.00  0.00     0.000 C 
HETATM   26  C25 UNL     1      -7.788  65.104  -0.861  1.00  0.00     0.000 C 
HETATM   27  C26 UNL     1      -7.576  63.905  -1.725  1.00  0.00     0.006 C 
ENDBRANCH  20  21
ENDBRANCH  17  20
ENDBRANCH  12  14
ENDBRANCH   9  12
BRANCH   1  28
HETATM   28  N1  UNL     1      -6.971  53.210  -5.826  1.00  0.00    -0.367 NA
BRANCH  28  29
HETATM   29  C5  UNL     1      -6.102  52.467  -6.503  1.00  0.00     0.157 A 
HETATM   30  C4  UNL     1      -6.165  52.386  -7.893  1.00  0.00     0.076 A 
HETATM   31  C3  UNL     1      -5.260  51.585  -8.573  1.00  0.00     0.030 A 
HETATM   32 CL1  UNL     1      -7.339  53.263  -8.878  1.00  0.00    -0.081 Cl
HETATM   33  C2  UNL     1      -4.304  50.870  -7.909  1.00  0.00     0.046 A 
HETATM   34  C1  UNL     1      -4.235  50.945  -6.547  1.00  0.00     0.141 A 
HETATM   35  F1  UNL     1      -3.277  50.231  -5.900  1.00  0.00    -0.204 F 
HETATM   36  C29 UNL     1      -5.105  51.722  -5.816  1.00  0.00     0.115 A 
HETATM   37 CL2  UNL     1      -4.959  51.753  -4.076  1.00  0.00    -0.077 Cl
ENDBRANCH  28  29
ENDBRANCH   1  28
BRANCH   5  38
HETATM   38  C8  UNL     1     -11.761  52.792  -5.082  1.00  0.00     0.140 C 
BRANCH  38  39
HETATM   39  C9  UNL     1     -11.435  52.944  -6.581  1.00  0.00     0.050 C 
BRANCH  39  40
HETATM   40  C10 UNL     1     -11.241  51.549  -7.093  1.00  0.00     0.274 C 
BRANCH  40  41
HETATM   41  N4  UNL     1      -9.822  51.330  -7.430  1.00  0.00     0.088 N 
HETATM   42  C11 UNL     1      -9.844  50.495  -8.635  1.00  0.00     0.272 C 
HETATM   43  C12 UNL     1      -8.492  49.860  -8.626  1.00  0.00     0.032 C 
HETATM   44  C13 UNL     1      -8.343  49.481  -7.156  1.00  0.00     0.032 C 
HETATM   45  C14 UNL     1      -9.252  50.418  -6.437  1.00  0.00     0.272 C 
ENDBRANCH  40  41
ENDBRANCH  39  40
ENDBRANCH  38  39
ENDBRANCH   5  38
TORSDOF 10
ENDMDL
MODEL 3
REMARK VINA RESULT: -11.191177157      0.592      1.258
REMARK  10 active torsions:
REMARK  status: ('A' for Active; 'I' for Inactive)
REMARK    1  A    between atoms: C5_7  and  N1_8 
REMARK    2  A    between atoms: N1_8  and  C6_9 
REMARK    3  A    between atoms: N3_13  and  C8_15 
REMARK    4  A    between atoms: C8_15  and  C9_16 
REMARK    5  A    between atoms: C9_16  and  C10_17 
REMARK    6  A    between atoms: C10_17  and  N4_18 
REMARK    7  A    between atoms: C15_25  and  N6_26 
REMARK    8  A    between atoms: N6_26  and  C16_28 
REMARK    9  A    between atoms: N7_31  and  C19_32 
REMARK   10  A    between atoms: C19_32  and  C20_33 
ROOT
HETATM    1  C6  UNL     1      -7.551  53.822  -5.184  1.00  0.00     0.288 A 
HETATM    2  N2  UNL     1      -8.880  53.517  -5.019  1.00  0.00    -0.148 N 
ATOM      3  H2  UNL     1      -9.250  52.680  -5.469  1.00  0.00     0.188 HD
HETATM    4  C7  UNL     1      -9.708  54.274  -4.289  1.00  0.00     0.696 A 
HETATM    5  N3  UNL     1     -10.955  54.007  -4.130  1.00  0.00    -0.225 N 
ATOM      6  H3  UNL     1     -11.522  54.632  -3.557  1.00  0.00     0.177 HD
HETATM    7  N5  UNL     1      -9.187  55.393  -3.694  1.00  0.00    -0.022 N 
ATOM      8  H5  UNL     1      -9.812  55.974  -3.135  1.00  0.00     0.203 HD
HETATM    9  C15 UNL     1      -7.920  55.767  -3.801  1.00  0.00     0.696 A 
HETATM   10  N8  UNL     1      -7.127  54.967  -4.549  1.00  0.00    -0.148 N 
ATOM     11  H8  UNL     1      -6.146  55.231  -4.650  1.00  0.00     0.188 HD
ENDROOT
BRANCH   9  12
HETATM   12  N6  UNL     1      -7.408  56.782  -3.202  1.00  0.00    -0.221 N 
ATOM     13  H6  UNL     1      -6.663  56.558  -2.543  1.00  0.00     0.178 HD
BRANCH  12  14
HETATM   14  C16 UNL     1      -7.711  58.147  -3.308  1.00  0.00     0.102 C 
HETATM   15  C17 UNL     1      -9.071  58.469  -2.632  1.00  0.00     0.056 C 
HETATM   16  C18 UNL     1      -9.503  59.741  -3.282  1.00  0.00     0.274 C 
HETATM   17  N7  UNL     1      -8.588  60.808  -3.037  1.00  0.00     0.088 N 
HETATM   18  C27 UNL     1      -7.214  60.524  -3.282  1.00  0.00     0.274 C 
HETATM   19  C28 UNL     1      -6.708  59.154  -2.888  1.00  0.00     0.056 C 
BRANCH  17  20
HETATM   20  C19 UNL     1      -8.805  61.316  -1.686  1.00  0.00     0.277 C 
BRANCH  20  21
HETATM   21  C20 UNL     1      -9.004  62.842  -1.842  1.00  0.00     0.014 C 
HETATM   22  C21 UNL     1      -8.027  63.596  -0.979  1.00  0.00     0.006 C 
HETATM   23  C22 UNL     1      -7.809  64.990  -1.511  1.00  0.00     0.000 C 
HETATM   24  C23 UNL     1      -8.953  65.923  -1.322  1.00  0.00     0.000 C 
HETATM   25  C24 UNL     1     -10.150  65.324  -0.620  1.00  0.00     0.000 C 
HETATM   26  C25 UNL     1     -10.909  64.410  -1.586  1.00  0.00     0.000 C 
HETATM   27  C26 UNL     1     -10.437  63.021  -1.312  1.00  0.00     0.006 C 
ENDBRANCH  20  21
ENDBRANCH  17  20
ENDBRANCH  12  14
ENDBRANCH   9  12
BRANCH   1  28
HETATM   28  N1  UNL     1      -6.836  53.102  -5.817  1.00  0.00    -0.367 NA
BRANCH  28  29
HETATM   29  C5  UNL     1      -6.042  52.302  -6.520  1.00  0.00     0.157 A 
HETATM   30  C4  UNL     1      -5.090  51.507  -5.885  1.00  0.00     0.076 A 
HETATM   31  C3  UNL     1      -4.259  50.697  -6.645  1.00  0.00     0.030 A 
HETATM   32 CL1  UNL     1      -4.868  51.444  -4.135  1.00  0.00    -0.081 Cl
HETATM   33  C2  UNL     1      -4.352  50.662  -8.008  1.00  0.00     0.046 A 
HETATM   34  C1  UNL     1      -5.284  51.438  -8.637  1.00  0.00     0.141 A 
HETATM   35  F1  UNL     1      -5.367  51.391  -9.993  1.00  0.00    -0.204 F 
HETATM   36  C29 UNL     1      -6.136  52.262  -7.938  1.00  0.00     0.115 A 
HETATM   37 CL2  UNL     1      -7.290  53.234  -8.818  1.00  0.00    -0.077 Cl
ENDBRANCH  28  29
ENDBRANCH   1  28
BRANCH   5  38
HETATM   38  C8  UNL     1     -11.571  52.874  -4.721  1.00  0.00     0.140 C 
BRANCH  38  39
HETATM   39  C9  UNL     1     -11.394  52.978  -6.249  1.00  0.00     0.050 C 
BRANCH  39  40
HETATM   40  C10 UNL     1     -11.224  51.570  -6.730  1.00  0.00     0.274 C 
BRANCH  40  41
HETATM   41  N4  UNL     1      -9.844  51.366  -7.212  1.00  0.00     0.088 N 
HETATM   42  C11 UNL     1      -9.989  50.638  -8.476  1.00  0.00     0.272 C 
HETATM   43  C12 UNL     1      -8.654  49.991  -8.643  1.00  0.00     0.032 C 
HETATM   44  C13 UNL     1      -8.380  49.487  -7.230  1.00  0.00     0.032 C 
HETATM   45  C14 UNL     1      -9.203  50.368  -6.355  1.00  0.00     0.272 C 
ENDBRANCH  40  41
ENDBRANCH  39  40
ENDBRANCH  38  39
ENDBRANCH   5  38
TORSDOF 10
ENDMDL
MODEL 4
REMARK VINA RESULT: -11.006617337      1.606      2.276
REMARK  10 active torsions:
REMARK  status: ('A' for Active; 'I' for Inactive)
REMARK    1  A    between atoms: C5_7  and  N1_8 
REMARK    2  A    between atoms: N1_8  and  C6_9 
REMARK    3  A    between atoms: N3_13  and  C8_15 
REMARK    4  A    between atoms: C8_15  and  C9_16 
REMARK    5  A    between atoms: C9_16  and  C10_17 
REMARK    6  A    between atoms: C10_17  and  N4_18 
REMARK    7  A    between atoms: C15_25  and  N6_26 
REMARK    8  A    between atoms: N6_26  and  C16_28 
REMARK    9  A    between atoms: N7_31  and  C19_32 
REMARK   10  A    between atoms: C19_32  and  C20_33 
ROOT
HETATM    1  C6  UNL     1      -6.776  54.377  -6.281  1.00  0.00     0.288 A 
HETATM    2  N2  UNL     1      -7.893  54.284  -5.487  1.00  0.00    -0.148 N 
ATOM      3  H2  UNL     1      -8.355  53.380  -5.393  1.00  0.00     0.188 HD
HETATM    4  C7  UNL     1      -8.399  55.335  -4.829  1.00  0.00     0.696 A 
HETATM    5  N3  UNL     1      -9.447  55.268  -4.088  1.00  0.00    -0.225 N 
ATOM      6  H3  UNL     1      -9.772  56.113  -3.619  1.00  0.00     0.177 HD
HETATM    7  N5  UNL     1      -7.761  56.539  -4.970  1.00  0.00    -0.022 N 
ATOM      8  H5  UNL     1      -8.140  57.344  -4.470  1.00  0.00     0.203 HD
HETATM    9  C15 UNL     1      -6.681  56.723  -5.716  1.00  0.00     0.696 A 
HETATM   10  N8  UNL     1      -6.211  55.629  -6.359  1.00  0.00    -0.148 N 
ATOM     11  H8  UNL     1      -5.382  55.741  -6.941  1.00  0.00     0.188 HD
ENDROOT
BRANCH   9  12
HETATM   12  N6  UNL     1      -6.043  57.834  -5.811  1.00  0.00    -0.221 N 
ATOM     13  H6  UNL     1      -5.610  58.002  -6.718  1.00  0.00     0.178 HD
BRANCH  12  14
HETATM   14  C16 UNL     1      -5.846  58.851  -4.866  1.00  0.00     0.102 C 
HETATM   15  C17 UNL     1      -7.076  59.798  -4.805  1.00  0.00     0.056 C 
HETATM   16  C18 UNL     1      -6.528  61.061  -4.230  1.00  0.00     0.274 C 
HETATM   17  N7  UNL     1      -6.009  60.874  -2.915  1.00  0.00     0.088 N 
HETATM   18  C27 UNL     1      -5.114  59.778  -2.744  1.00  0.00     0.274 C 
HETATM   19  C28 UNL     1      -5.434  58.500  -3.486  1.00  0.00     0.056 C 
BRANCH  17  20
HETATM   20  C19 UNL     1      -7.122  60.818  -1.972  1.00  0.00     0.277 C 
BRANCH  20  21
HETATM   21  C20 UNL     1      -7.832  62.188  -2.085  1.00  0.00     0.014 C 
HETATM   22  C21 UNL     1      -7.390  63.109  -0.978  1.00  0.00     0.006 C 
HETATM   23  C22 UNL     1      -7.599  64.550  -1.367  1.00  0.00     0.000 C 
HETATM   24  C23 UNL     1      -9.018  64.995  -1.397  1.00  0.00     0.000 C 
HETATM   25  C24 UNL     1     -10.025  63.930  -1.026  1.00  0.00     0.000 C 
HETATM   26  C25 UNL     1     -10.190  62.951  -2.191  1.00  0.00     0.000 C 
HETATM   27  C26 UNL     1      -9.305  61.787  -1.893  1.00  0.00     0.006 C 
ENDBRANCH  20  21
ENDBRANCH  17  20
ENDBRANCH  12  14
ENDBRANCH   9  12
BRANCH   1  28
HETATM   28  N1  UNL     1      -6.335  53.408  -6.825  1.00  0.00    -0.367 NA
BRANCH  28  29
HETATM   29  C5  UNL     1      -5.844  52.331  -7.430  1.00  0.00     0.157 A 
HETATM   30  C4  UNL     1      -4.806  51.602  -6.853  1.00  0.00     0.076 A 
HETATM   31  C3  UNL     1      -4.297  50.496  -7.517  1.00  0.00     0.030 A 
HETATM   32 CL1  UNL     1      -4.081  51.988  -5.291  1.00  0.00    -0.081 Cl
HETATM   33  C2  UNL     1      -4.791  50.103  -8.729  1.00  0.00     0.046 A 
HETATM   34  C1  UNL     1      -5.809  50.813  -9.299  1.00  0.00     0.141 A 
HETATM   35  F1  UNL     1      -6.293  50.409 -10.503  1.00  0.00    -0.204 F 
HETATM   36  C29 UNL     1      -6.356  51.919  -8.691  1.00  0.00     0.115 A 
HETATM   37 CL2  UNL     1      -7.646  52.780  -9.493  1.00  0.00    -0.077 Cl
ENDBRANCH  28  29
ENDBRANCH   1  28
BRANCH   5  38
HETATM   38  C8  UNL     1     -10.168  54.061  -3.901  1.00  0.00     0.140 C 
BRANCH  38  39
HETATM   39  C9  UNL     1     -11.268  53.990  -4.979  1.00  0.00     0.050 C 
BRANCH  39  40
HETATM   40  C10 UNL     1     -11.364  52.544  -5.359  1.00  0.00     0.274 C 
BRANCH  40  41
HETATM   41  N4  UNL     1     -10.406  52.243  -6.440  1.00  0.00     0.088 N 
HETATM   42  C11 UNL     1     -11.182  51.501  -7.438  1.00  0.00     0.272 C 
HETATM   43  C12 UNL     1     -10.129  50.767  -8.201  1.00  0.00     0.032 C 
HETATM   44  C13 UNL     1      -9.225  50.273  -7.076  1.00  0.00     0.032 C 
HETATM   45  C14 UNL     1      -9.476  51.222  -5.955  1.00  0.00     0.272 C 
ENDBRANCH  40  41
ENDBRANCH  39  40
ENDBRANCH  38  39
ENDBRANCH   5  38
TORSDOF 10
ENDMDL
MODEL 5
REMARK VINA RESULT: -11.004159259      1.866      4.163
REMARK  10 active torsions:
REMARK  status: ('A' for Active; 'I' for Inactive)
REMARK    1  A    between atoms: C5_7  and  N1_8 
REMARK    2  A    between atoms: N1_8  and  C6_9 
REMARK    3  A    between atoms: N3_13  and  C8_15 
REMARK    4  A    between atoms: C8_15  and  C9_16 
REMARK    5  A    between atoms: C9_16  and  C10_17 
REMARK    6  A    between atoms: C10_17  and  N4_18 
REMARK    7  A    between atoms: C15_25  and  N6_26 
REMARK    8  A    between atoms: N6_26  and  C16_28 
REMARK    9  A    between atoms: N7_31  and  C19_32 
REMARK   10  A    between atoms: C19_32  and  C20_33 
ROOT
HETATM    1  C6  UNL     1      -8.245  54.332  -4.842  1.00  0.00     0.288 A 
HETATM    2  N2  UNL     1      -6.881  54.326  -5.000  1.00  0.00    -0.148 N 
ATOM      3  H2  UNL     1      -6.470  53.693  -5.686  1.00  0.00     0.188 HD
HETATM    4  C7  UNL     1      -6.069  55.117  -4.289  1.00  0.00     0.696 A 
HETATM    5  N3  UNL     1      -4.790  55.119  -4.419  1.00  0.00    -0.225 N 
ATOM      6  H3  UNL     1      -4.239  55.752  -3.841  1.00  0.00     0.177 HD
HETATM    7  N5  UNL     1      -6.645  55.958  -3.373  1.00  0.00    -0.022 N 
ATOM      8  H5  UNL     1      -6.032  56.566  -2.829  1.00  0.00     0.203 HD
HETATM    9  C15 UNL     1      -7.949  56.030  -3.151  1.00  0.00     0.696 A 
HETATM   10  N8  UNL     1      -8.724  55.209  -3.896  1.00  0.00    -0.148 N 
ATOM     11  H8  UNL     1      -9.732  55.242  -3.746  1.00  0.00     0.188 HD
ENDROOT
BRANCH   9  12
HETATM   12  N6  UNL     1      -8.504  56.854  -2.336  1.00  0.00    -0.221 N 
ATOM     13  H6  UNL     1      -9.180  56.435  -1.698  1.00  0.00     0.178 HD
BRANCH  12  14
HETATM   14  C16 UNL     1      -8.329  58.238  -2.184  1.00  0.00     0.102 C 
HETATM   15  C17 UNL     1      -8.935  59.010  -3.387  1.00  0.00     0.056 C 
HETATM   16  C18 UNL     1      -8.216  60.318  -3.372  1.00  0.00     0.274 C 
HETATM   17  N7  UNL     1      -8.455  61.049  -2.171  1.00  0.00     0.088 N 
HETATM   18  C27 UNL     1      -8.279  60.331  -0.954  1.00  0.00     0.274 C 
HETATM   19  C28 UNL     1      -8.749  58.894  -0.923  1.00  0.00     0.056 C 
BRANCH  17  20
HETATM   20  C19 UNL     1      -9.773  61.670  -2.250  1.00  0.00     0.277 C 
BRANCH  20  21
HETATM   21  C20 UNL     1      -9.667  62.980  -1.433  1.00  0.00     0.014 C 
HETATM   22  C21 UNL     1     -10.755  63.942  -1.830  1.00  0.00     0.006 C 
HETATM   23  C22 UNL     1     -11.026  64.928  -0.722  1.00  0.00     0.000 C 
HETATM   24  C23 UNL     1      -9.966  65.951  -0.514  1.00  0.00     0.000 C 
HETATM   25  C24 UNL     1      -8.787  65.841  -1.453  1.00  0.00     0.000 C 
HETATM   26  C25 UNL     1      -7.897  64.670  -1.028  1.00  0.00     0.000 C 
HETATM   27  C26 UNL     1      -8.293  63.509  -1.878  1.00  0.00     0.006 C 
ENDBRANCH  20  21
ENDBRANCH  17  20
ENDBRANCH  12  14
ENDBRANCH   9  12
BRANCH   1  28
HETATM   28  N1  UNL     1      -8.939  53.633  -5.520  1.00  0.00    -0.367 NA
BRANCH  28  29
HETATM   29  C5  UNL     1      -9.710  52.855  -6.273  1.00  0.00     0.157 A 
HETATM   30  C4  UNL     1     -11.019  52.567  -5.892  1.00  0.00     0.076 A 
HETATM   31  C3  UNL     1     -11.793  51.734  -6.685  1.00  0.00     0.030 A 
HETATM   32 CL1  UNL     1     -11.787  53.213  -4.441  1.00  0.00    -0.081 Cl
HETATM   33  C2  UNL     1     -11.300  51.186  -7.836  1.00  0.00     0.046 A 
HETATM   34  C1  UNL     1     -10.018  51.465  -8.215  1.00  0.00     0.141 A 
HETATM   35  F1  UNL     1      -9.542  50.916  -9.364  1.00  0.00    -0.204 F 
HETATM   36  C29 UNL     1      -9.200  52.284  -7.471  1.00  0.00     0.115 A 
HETATM   37 CL2  UNL     1      -7.569  52.580  -8.018  1.00  0.00    -0.077 Cl
ENDBRANCH  28  29
ENDBRANCH   1  28
BRANCH   5  38
HETATM   38  C8  UNL     1      -4.119  54.271  -5.337  1.00  0.00     0.140 C 
BRANCH  38  39
HETATM   39  C9  UNL     1      -3.085  53.440  -4.551  1.00  0.00     0.050 C 
BRANCH  39  40
HETATM   40  C10 UNL     1      -3.340  52.015  -4.935  1.00  0.00     0.274 C 
BRANCH  40  41
HETATM   41  N4  UNL     1      -4.765  51.831  -5.270  1.00  0.00     0.088 N 
HETATM   42  C11 UNL     1      -5.306  51.011  -4.182  1.00  0.00     0.272 C 
HETATM   43  C12 UNL     1      -6.526  50.406  -4.794  1.00  0.00     0.032 C 
HETATM   44  C13 UNL     1      -6.011  50.012  -6.175  1.00  0.00     0.032 C 
HETATM   45  C14 UNL     1      -4.853  50.920  -6.412  1.00  0.00     0.272 C 
ENDBRANCH  40  41
ENDBRANCH  39  40
ENDBRANCH  38  39
ENDBRANCH   5  38
TORSDOF 10
ENDMDL
