MODEL 1
REMARK VINA RESULT: -10.486176719      0.000      0.000
REMARK  9 active torsions:
REMARK  status: ('A' for Active; 'I' for Inactive)
REMARK    1  A    between atoms: N1_2  and  C3_4 
REMARK    2  A    between atoms: C3_4  and  C4_5 
REMARK    3  A    between atoms: C4_5  and  S1_8 
REMARK    4  A    between atoms: S1_8  and  N2_11 
REMARK    5  A    between atoms: N2_11  and  C7_13 
REMARK    6  A    between atoms: C9_15  and  C10_16 
REMARK       I    between atoms: C10_16  and  N3_18 
REMARK    7  A    between atoms: N3_18  and  C11_20 
REMARK    8  A    between atoms: C15_24  and  C16_25 
REMARK    9  A    between atoms: C26_38  and  O4_39 
ROOT
HETATM    1  C7  UNL     1      -6.977  53.448  -7.230  1.00  0.00     0.126 C 
HETATM    2  C8  UNL     1      -7.770  52.868  -6.129  1.00  0.00    -0.051 C 
HETATM    3  C9  UNL     1      -8.084  53.240  -4.807  1.00  0.00     0.079 C 
HETATM    4  C18 UNL     1      -7.598  51.311  -6.246  1.00  0.00     0.037 C 
HETATM    5  C19 UNL     1      -8.756  51.045  -7.208  1.00  0.00     0.010 C 
HETATM    6  C20 UNL     1      -8.492  51.764  -8.509  1.00  0.00     0.001 C 
HETATM    7  C21 UNL     1      -7.651  52.958  -8.520  1.00  0.00     0.018 C 
HETATM    8  C22 UNL     1      -6.674  52.972  -9.669  1.00  0.00     0.008 C 
HETATM    9  C23 UNL     1      -7.382  52.550 -10.923  1.00  0.00     0.006 C 
HETATM   10  C24 UNL     1      -7.739  51.106 -10.842  1.00  0.00    -0.004 C 
HETATM   11  C25 UNL     1      -6.571  50.311 -11.441  1.00  0.00     0.037 C 
HETATM   12  C26 UNL     1      -6.746  48.831 -11.302  1.00  0.00     0.118 C 
HETATM   13  C27 UNL     1      -7.195  48.461  -9.916  1.00  0.00     0.032 C 
HETATM   14  C28 UNL     1      -7.149  49.648  -8.978  1.00  0.00     0.012 C 
HETATM   15  C29 UNL     1      -8.146  50.644  -9.495  1.00  0.00    -0.036 C 
HETATM   16  C30 UNL     1      -9.444  49.847  -9.661  1.00  0.00     0.016 C 
ENDROOT
BRANCH   1  17
HETATM   17  N2  UNL     1      -5.579  53.180  -7.190  1.00  0.00    -0.309 N 
ATOM     18  H2  UNL     1      -5.257  52.334  -7.660  1.00  0.00     0.172 HD
BRANCH  17  19
HETATM   19  S1  UNL     1      -4.441  54.102  -6.461  1.00  0.00     0.236 S 
HETATM   20  O1  UNL     1      -4.907  55.550  -6.366  1.00  0.00    -0.205 OA
HETATM   21  O2  UNL     1      -3.116  54.023  -7.199  1.00  0.00    -0.205 OA
BRANCH  19  22
HETATM   22  C4  UNL     1      -3.976  53.724  -4.759  1.00  0.00     0.102 C 
HETATM   23  C5  UNL     1      -4.700  54.591  -3.749  1.00  0.00     0.035 C 
HETATM   24  C6  UNL     1      -2.497  53.811  -4.598  1.00  0.00     0.035 C 
BRANCH  22  25
HETATM   25  C3  UNL     1      -4.489  52.319  -4.534  1.00  0.00     0.297 C 
BRANCH  25  26
HETATM   26  N1  UNL     1      -3.666  51.245  -4.907  1.00  0.00     0.081 N 
HETATM   27  C1  UNL     1      -4.123  50.419  -5.942  1.00  0.00     0.309 C 
HETATM   28  C2  UNL     1      -3.227  50.403  -3.799  1.00  0.00     0.309 C 
ENDBRANCH  25  26
ENDBRANCH  22  25
ENDBRANCH  19  22
ENDBRANCH  17  19
ENDBRANCH   1  17
BRANCH   3  29
HETATM   29  C10 UNL     1      -8.886  54.493  -4.541  1.00  0.00     0.246 C 
HETATM   30  O3  UNL     1     -10.100  54.523  -4.915  1.00  0.00    -0.268 OA
HETATM   31  N3  UNL     1      -8.211  55.514  -3.886  1.00  0.00    -0.324 N 
ATOM     32  H3  UNL     1      -7.252  55.238  -3.678  1.00  0.00     0.169 HD
BRANCH  31  33
HETATM   33  C11 UNL     1      -8.464  56.806  -3.429  1.00  0.00     0.035 A 
HETATM   34  C12 UNL     1      -9.069  57.734  -4.300  1.00  0.00     0.029 A 
HETATM   35  C13 UNL     1      -9.346  59.009  -3.900  1.00  0.00     0.003 A 
HETATM   36  C14 UNL     1      -9.039  59.416  -2.616  1.00  0.00     0.016 A 
HETATM   37  C15 UNL     1      -8.450  58.510  -1.774  1.00  0.00     0.050 A 
HETATM   38  C17 UNL     1      -8.162  57.221  -2.164  1.00  0.00     0.045 A 
BRANCH  37  39
HETATM   39  C16 UNL     1      -8.149  58.940  -0.403  1.00  0.00     0.417 C 
HETATM   40  F1  UNL     1      -7.250  60.010  -0.436  1.00  0.00    -0.166 F 
HETATM   41  F2  UNL     1      -7.597  57.881   0.320  1.00  0.00    -0.166 F 
HETATM   42  F3  UNL     1      -9.298  59.386   0.191  1.00  0.00    -0.166 F 
ENDBRANCH  37  39
ENDBRANCH  31  33
ENDBRANCH   3  29
BRANCH  12  43
HETATM   43  O4  UNL     1      -7.537  48.254 -12.298  1.00  0.00    -0.396 OA
ATOM     44  H4  UNL     1      -8.354  47.887 -11.980  1.00  0.00     0.210 HD
ENDBRANCH  12  43
TORSDOF 9
ENDMDL
MODEL 2
REMARK VINA RESULT: -10.361335718      1.582      1.938
REMARK  9 active torsions:
REMARK  status: ('A' for Active; 'I' for Inactive)
REMARK    1  A    between atoms: N1_2  and  C3_4 
REMARK    2  A    between atoms: C3_4  and  C4_5 
REMARK    3  A    between atoms: C4_5  and  S1_8 
REMARK    4  A    between atoms: S1_8  and  N2_11 
REMARK    5  A    between atoms: N2_11  and  C7_13 
REMARK    6  A    between atoms: C9_15  and  C10_16 
REMARK       I    between atoms: C10_16  and  N3_18 
REMARK    7  A    between atoms: N3_18  and  C11_20 
REMARK    8  A    between atoms: C15_24  and  C16_25 
REMARK    9  A    between atoms: C26_38  and  O4_39 
ROOT
HETATM    1  C7  UNL     1      -6.831  53.553  -7.363  1.00  0.00     0.126 C 
HETATM    2  C8  UNL     1      -7.670  53.081  -6.245  1.00  0.00    -0.051 C 
HETATM    3  C9  UNL     1      -7.988  53.549  -4.955  1.00  0.00     0.079 C 
HETATM    4  C18 UNL     1      -7.570  51.514  -6.263  1.00  0.00     0.037 C 
HETATM    5  C19 UNL     1      -8.723  51.242  -7.230  1.00  0.00     0.010 C 
HETATM    6  C20 UNL     1      -8.404  51.866  -8.567  1.00  0.00     0.001 C 
HETATM    7  C21 UNL     1      -7.506  53.016  -8.635  1.00  0.00     0.018 C 
HETATM    8  C22 UNL     1      -6.510  52.913  -9.763  1.00  0.00     0.008 C 
HETATM    9  C23 UNL     1      -7.217  52.447 -11.002  1.00  0.00     0.006 C 
HETATM   10  C24 UNL     1      -7.643  51.029 -10.840  1.00  0.00    -0.004 C 
HETATM   11  C25 UNL     1      -6.505  50.145 -11.365  1.00  0.00     0.037 C 
HETATM   12  C26 UNL     1      -6.752  48.686 -11.139  1.00  0.00     0.118 C 
HETATM   13  C27 UNL     1      -7.242  48.425  -9.742  1.00  0.00     0.032 C 
HETATM   14  C28 UNL     1      -7.156  49.664  -8.878  1.00  0.00     0.012 C 
HETATM   15  C29 UNL     1      -8.095  50.672  -9.474  1.00  0.00    -0.036 C 
HETATM   16  C30 UNL     1      -9.426  49.927  -9.617  1.00  0.00     0.016 C 
ENDROOT
BRANCH   1  17
HETATM   17  N2  UNL     1      -5.448  53.224  -7.279  1.00  0.00    -0.309 N 
ATOM     18  H2  UNL     1      -5.152  52.358  -7.730  1.00  0.00     0.172 HD
BRANCH  17  19
HETATM   19  S1  UNL     1      -4.291  54.104  -6.529  1.00  0.00     0.236 S 
HETATM   20  O1  UNL     1      -4.691  55.573  -6.471  1.00  0.00    -0.205 OA
HETATM   21  O2  UNL     1      -2.949  53.950  -7.225  1.00  0.00    -0.205 OA
BRANCH  19  22
HETATM   22  C4  UNL     1      -3.897  53.733  -4.808  1.00  0.00     0.102 C 
HETATM   23  C5  UNL     1      -4.637  54.627  -3.833  1.00  0.00     0.035 C 
HETATM   24  C6  UNL     1      -2.423  53.787  -4.594  1.00  0.00     0.035 C 
BRANCH  22  25
HETATM   25  C3  UNL     1      -4.451  52.342  -4.588  1.00  0.00     0.297 C 
BRANCH  25  26
HETATM   26  N1  UNL     1      -3.645  51.245  -4.932  1.00  0.00     0.081 N 
HETATM   27  C1  UNL     1      -4.083  50.436  -5.987  1.00  0.00     0.309 C 
HETATM   28  C2  UNL     1      -3.275  50.389  -3.810  1.00  0.00     0.309 C 
ENDBRANCH  25  26
ENDBRANCH  22  25
ENDBRANCH  19  22
ENDBRANCH  17  19
ENDBRANCH   1  17
BRANCH   3  29
HETATM   29  C10 UNL     1      -8.733  54.852  -4.783  1.00  0.00     0.246 C 
HETATM   30  O3  UNL     1     -10.003  54.826  -4.790  1.00  0.00    -0.268 OA
HETATM   31  N3  UNL     1      -7.943  55.981  -4.614  1.00  0.00    -0.324 N 
ATOM     32  H3  UNL     1      -6.954  55.737  -4.629  1.00  0.00     0.169 HD
BRANCH  31  33
HETATM   33  C11 UNL     1      -8.110  57.352  -4.432  1.00  0.00     0.035 A 
HETATM   34  C12 UNL     1      -9.333  57.832  -3.921  1.00  0.00     0.029 A 
HETATM   35  C13 UNL     1      -9.545  59.164  -3.714  1.00  0.00     0.003 A 
HETATM   36  C14 UNL     1      -8.549  60.078  -4.002  1.00  0.00     0.016 A 
HETATM   37  C15 UNL     1      -7.363  59.607  -4.499  1.00  0.00     0.050 A 
HETATM   38  C17 UNL     1      -7.136  58.265  -4.715  1.00  0.00     0.045 A 
BRANCH  37  39
HETATM   39  C16 UNL     1      -6.300  60.580  -4.779  1.00  0.00     0.417 C 
HETATM   40  F1  UNL     1      -6.862  61.847  -4.957  1.00  0.00    -0.166 F 
HETATM   41  F2  UNL     1      -5.601  60.206  -5.929  1.00  0.00    -0.166 F 
HETATM   42  F3  UNL     1      -5.460  60.649  -3.702  1.00  0.00    -0.166 F 
ENDBRANCH  37  39
ENDBRANCH  31  33
ENDBRANCH   3  29
BRANCH  12  43
HETATM   43  O4  UNL     1      -7.553  48.085 -12.113  1.00  0.00    -0.396 OA
ATOM     44  H4  UNL     1      -8.418  47.837 -11.806  1.00  0.00     0.210 HD
ENDBRANCH  12  43
TORSDOF 9
ENDMDL
MODEL 3
REMARK VINA RESULT: -9.980042023      4.983      9.362
REMARK  9 active torsions:
REMARK  status: ('A' for Active; 'I' for Inactive)
REMARK    1  A    between atoms: N1_2  and  C3_4 
REMARK    2  A    between atoms: C3_4  and  C4_5 
REMARK    3  A    between atoms: C4_5  and  S1_8 
REMARK    4  A    between atoms: S1_8  and  N2_11 
REMARK    5  A    between atoms: N2_11  and  C7_13 
REMARK    6  A    between atoms: C9_15  and  C10_16 
REMARK       I    between atoms: C10_16  and  N3_18 
REMARK    7  A    between atoms: N3_18  and  C11_20 
REMARK    8  A    between atoms: C15_24  and  C16_25 
REMARK    9  A    between atoms: C26_38  and  O4_39 
ROOT
HETATM    1  C7  UNL     1      -6.825  54.087  -5.691  1.00  0.00     0.126 C 
HETATM    2  C8  UNL     1      -6.120  54.466  -6.931  1.00  0.00    -0.051 C 
HETATM    3  C9  UNL     1      -5.712  53.799  -8.103  1.00  0.00     0.079 C 
HETATM    4  C18 UNL     1      -5.072  55.559  -6.515  1.00  0.00     0.037 C 
HETATM    5  C19 UNL     1      -5.976  56.782  -6.667  1.00  0.00     0.010 C 
HETATM    6  C20 UNL     1      -7.124  56.671  -5.694  1.00  0.00     0.001 C 
HETATM    7  C21 UNL     1      -7.565  55.355  -5.239  1.00  0.00     0.018 C 
HETATM    8  C22 UNL     1      -7.839  55.312  -3.756  1.00  0.00     0.008 C 
HETATM    9  C23 UNL     1      -8.618  56.533  -3.363  1.00  0.00     0.006 C 
HETATM   10  C24 UNL     1      -7.756  57.743  -3.480  1.00  0.00    -0.004 C 
HETATM   11  C25 UNL     1      -7.075  57.952  -2.122  1.00  0.00     0.037 C 
HETATM   12  C26 UNL     1      -6.074  59.066  -2.142  1.00  0.00     0.118 C 
HETATM   13  C27 UNL     1      -5.190  58.986  -3.354  1.00  0.00     0.032 C 
HETATM   14  C28 UNL     1      -5.402  57.696  -4.117  1.00  0.00     0.012 C 
HETATM   15  C29 UNL     1      -6.815  57.723  -4.624  1.00  0.00    -0.036 C 
HETATM   16  C30 UNL     1      -6.945  59.070  -5.342  1.00  0.00     0.016 C 
ENDROOT
BRANCH   1  17
HETATM   17  N2  UNL     1      -6.012  53.517  -4.669  1.00  0.00    -0.309 N 
ATOM     18  H2  UNL     1      -5.864  54.078  -3.830  1.00  0.00     0.172 HD
BRANCH  17  19
HETATM   19  S1  UNL     1      -5.295  52.048  -4.716  1.00  0.00     0.236 S 
HETATM   20  O1  UNL     1      -5.183  51.463  -3.313  1.00  0.00    -0.205 OA
HETATM   21  O2  UNL     1      -3.923  52.128  -5.364  1.00  0.00    -0.205 OA
BRANCH  19  22
HETATM   22  C4  UNL     1      -6.097  50.718  -5.636  1.00  0.00     0.102 C 
HETATM   23  C5  UNL     1      -6.382  49.503  -4.776  1.00  0.00     0.035 C 
HETATM   24  C6  UNL     1      -5.292  50.365  -6.838  1.00  0.00     0.035 C 
BRANCH  22  25
HETATM   25  C3  UNL     1      -7.451  51.283  -6.006  1.00  0.00     0.297 C 
BRANCH  25  26
HETATM   26  N1  UNL     1      -8.489  50.383  -6.294  1.00  0.00     0.081 N 
HETATM   27  C1  UNL     1      -8.576  49.907  -7.608  1.00  0.00     0.309 C 
HETATM   28  C2  UNL     1      -9.812  50.827  -5.870  1.00  0.00     0.309 C 
ENDBRANCH  25  26
ENDBRANCH  22  25
ENDBRANCH  19  22
ENDBRANCH  17  19
ENDBRANCH   1  17
BRANCH   3  29
HETATM   29  C10 UNL     1      -6.742  53.201  -9.033  1.00  0.00     0.246 C 
HETATM   30  O3  UNL     1      -7.964  53.247  -8.690  1.00  0.00    -0.268 OA
HETATM   31  N3  UNL     1      -6.247  52.656 -10.211  1.00  0.00    -0.324 N 
ATOM     32  H3  UNL     1      -5.234  52.759 -10.259  1.00  0.00     0.169 HD
BRANCH  31  33
HETATM   33  C11 UNL     1      -6.733  52.011 -11.345  1.00  0.00     0.035 A 
HETATM   34  C12 UNL     1      -6.442  52.546 -12.616  1.00  0.00     0.029 A 
HETATM   35  C13 UNL     1      -6.886  51.948 -13.759  1.00  0.00     0.003 A 
HETATM   36  C14 UNL     1      -7.635  50.789 -13.691  1.00  0.00     0.016 A 
HETATM   37  C15 UNL     1      -7.917  50.273 -12.453  1.00  0.00     0.050 A 
HETATM   38  C17 UNL     1      -7.477  50.868 -11.290  1.00  0.00     0.045 A 
BRANCH  37  39
HETATM   39  C16 UNL     1      -8.692  49.029 -12.387  1.00  0.00     0.417 C 
HETATM   40  F1  UNL     1      -9.526  49.057 -11.266  1.00  0.00    -0.166 F 
HETATM   41  F2  UNL     1      -7.831  47.933 -12.307  1.00  0.00    -0.166 F 
HETATM   42  F3  UNL     1      -9.491  48.938 -13.494  1.00  0.00    -0.166 F 
ENDBRANCH  37  39
ENDBRANCH  31  33
ENDBRANCH   3  29
BRANCH  12  43
HETATM   43  O4  UNL     1      -6.630  60.335  -1.962  1.00  0.00    -0.396 OA
ATOM     44  H4  UNL     1      -6.361  60.767  -1.159  1.00  0.00     0.210 HD
ENDBRANCH  12  43
TORSDOF 9
ENDMDL
MODEL 4
REMARK VINA RESULT: -9.902254997      4.734      9.173
REMARK  9 active torsions:
REMARK  status: ('A' for Active; 'I' for Inactive)
REMARK    1  A    between atoms: N1_2  and  C3_4 
REMARK    2  A    between atoms: C3_4  and  C4_5 
REMARK    3  A    between atoms: C4_5  and  S1_8 
REMARK    4  A    between atoms: S1_8  and  N2_11 
REMARK    5  A    between atoms: N2_11  and  C7_13 
REMARK    6  A    between atoms: C9_15  and  C10_16 
REMARK       I    between atoms: C10_16  and  N3_18 
REMARK    7  A    between atoms: N3_18  and  C11_20 
REMARK    8  A    between atoms: C15_24  and  C16_25 
REMARK    9  A    between atoms: C26_38  and  O4_39 
ROOT
HETATM    1  C7  UNL     1      -6.145  54.630  -5.564  1.00  0.00     0.126 C 
HETATM    2  C8  UNL     1      -5.917  55.104  -6.943  1.00  0.00    -0.051 C 
HETATM    3  C9  UNL     1      -5.608  54.502  -8.179  1.00  0.00     0.079 C 
HETATM    4  C18 UNL     1      -5.211  56.500  -6.808  1.00  0.00     0.037 C 
HETATM    5  C19 UNL     1      -6.470  57.364  -6.729  1.00  0.00     0.010 C 
HETATM    6  C20 UNL     1      -7.255  56.982  -5.498  1.00  0.00     0.001 C 
HETATM    7  C21 UNL     1      -7.125  55.637  -4.944  1.00  0.00     0.018 C 
HETATM    8  C22 UNL     1      -7.009  55.635  -3.439  1.00  0.00     0.008 C 
HETATM    9  C23 UNL     1      -8.022  56.581  -2.866  1.00  0.00     0.006 C 
HETATM   10  C24 UNL     1      -7.652  57.984  -3.199  1.00  0.00    -0.004 C 
HETATM   11  C25 UNL     1      -6.772  58.509  -2.057  1.00  0.00     0.037 C 
HETATM   12  C26 UNL     1      -6.220  59.873  -2.331  1.00  0.00     0.118 C 
HETATM   13  C27 UNL     1      -5.673  59.972  -3.727  1.00  0.00     0.032 C 
HETATM   14  C28 UNL     1      -5.632  58.621  -4.409  1.00  0.00     0.012 C 
HETATM   15  C29 UNL     1      -7.056  58.163  -4.543  1.00  0.00    -0.036 C 
HETATM   16  C30 UNL     1      -7.781  59.338  -5.209  1.00  0.00     0.016 C 
ENDROOT
BRANCH   1  17
HETATM   17  N2  UNL     1      -4.973  54.430  -4.780  1.00  0.00    -0.309 N 
ATOM     18  H2  UNL     1      -4.890  54.980  -3.925  1.00  0.00     0.172 HD
BRANCH  17  19
HETATM   19  S1  UNL     1      -3.749  53.399  -5.122  1.00  0.00     0.236 S 
HETATM   20  O1  UNL     1      -2.697  53.436  -4.020  1.00  0.00    -0.205 OA
HETATM   21  O2  UNL     1      -3.117  53.725  -6.465  1.00  0.00    -0.205 OA
BRANCH  19  22
HETATM   22  C4  UNL     1      -4.111  51.637  -5.265  1.00  0.00     0.102 C 
HETATM   23  C5  UNL     1      -3.114  50.774  -4.518  1.00  0.00     0.035 C 
HETATM   24  C6  UNL     1      -4.211  51.247  -6.699  1.00  0.00     0.035 C 
BRANCH  22  25
HETATM   25  C3  UNL     1      -5.427  51.465  -4.537  1.00  0.00     0.297 C 
BRANCH  25  26
HETATM   26  N1  UNL     1      -6.396  50.626  -5.109  1.00  0.00     0.081 N 
HETATM   27  C1  UNL     1      -7.624  51.208  -5.450  1.00  0.00     0.309 C 
HETATM   28  C2  UNL     1      -6.653  49.399  -4.364  1.00  0.00     0.309 C 
ENDBRANCH  25  26
ENDBRANCH  22  25
ENDBRANCH  19  22
ENDBRANCH  17  19
ENDBRANCH   1  17
BRANCH   3  29
HETATM   29  C10 UNL     1      -6.579  53.538  -8.817  1.00  0.00     0.246 C 
HETATM   30  O3  UNL     1      -7.634  53.232  -8.179  1.00  0.00    -0.268 OA
HETATM   31  N3  UNL     1      -6.229  53.075 -10.079  1.00  0.00    -0.324 N 
ATOM     32  H3  UNL     1      -5.344  53.481 -10.380  1.00  0.00     0.169 HD
BRANCH  31  33
HETATM   33  C11 UNL     1      -6.735  52.215 -11.052  1.00  0.00     0.035 A 
HETATM   34  C12 UNL     1      -6.645  52.587 -12.408  1.00  0.00     0.029 A 
HETATM   35  C13 UNL     1      -7.117  51.779 -13.400  1.00  0.00     0.003 A 
HETATM   36  C14 UNL     1      -7.695  50.563 -13.090  1.00  0.00     0.016 A 
HETATM   37  C15 UNL     1      -7.781  50.206 -11.770  1.00  0.00     0.050 A 
HETATM   38  C17 UNL     1      -7.311  51.013 -10.757  1.00  0.00     0.045 A 
BRANCH  37  39
HETATM   39  C16 UNL     1      -8.372  48.903 -11.447  1.00  0.00     0.417 C 
HETATM   40  F1  UNL     1      -7.813  47.919 -12.267  1.00  0.00    -0.166 F 
HETATM   41  F2  UNL     1      -9.755  48.945 -11.634  1.00  0.00    -0.166 F 
HETATM   42  F3  UNL     1      -8.068  48.580 -10.152  1.00  0.00    -0.166 F 
ENDBRANCH  37  39
ENDBRANCH  31  33
ENDBRANCH   3  29
BRANCH  12  43
HETATM   43  O4  UNL     1      -7.096  60.916  -2.020  1.00  0.00    -0.396 OA
ATOM     44  H4  UNL     1      -7.393  60.917  -1.117  1.00  0.00     0.210 HD
ENDBRANCH  12  43
TORSDOF 9
ENDMDL
MODEL 5
REMARK VINA RESULT: -9.843137225      4.919      9.248
REMARK  9 active torsions:
REMARK  status: ('A' for Active; 'I' for Inactive)
REMARK    1  A    between atoms: N1_2  and  C3_4 
REMARK    2  A    between atoms: C3_4  and  C4_5 
REMARK    3  A    between atoms: C4_5  and  S1_8 
REMARK    4  A    between atoms: S1_8  and  N2_11 
REMARK    5  A    between atoms: N2_11  and  C7_13 
REMARK    6  A    between atoms: C9_15  and  C10_16 
REMARK       I    between atoms: C10_16  and  N3_18 
REMARK    7  A    between atoms: N3_18  and  C11_20 
REMARK    8  A    between atoms: C15_24  and  C16_25 
REMARK    9  A    between atoms: C26_38  and  O4_39 
ROOT
HETATM    1  C7  UNL     1      -5.917  54.476  -5.555  1.00  0.00     0.126 C 
HETATM    2  C8  UNL     1      -5.872  54.825  -6.988  1.00  0.00    -0.051 C 
HETATM    3  C9  UNL     1      -5.654  54.124  -8.190  1.00  0.00     0.079 C 
HETATM    4  C18 UNL     1      -5.256  56.267  -7.062  1.00  0.00     0.037 C 
HETATM    5  C19 UNL     1      -6.557  57.058  -6.920  1.00  0.00     0.010 C 
HETATM    6  C20 UNL     1      -7.176  56.752  -5.578  1.00  0.00     0.001 C 
HETATM    7  C21 UNL     1      -6.894  55.479  -4.922  1.00  0.00     0.018 C 
HETATM    8  C22 UNL     1      -6.618  55.632  -3.447  1.00  0.00     0.008 C 
HETATM    9  C23 UNL     1      -7.629  56.567  -2.851  1.00  0.00     0.006 C 
HETATM   10  C24 UNL     1      -7.396  57.951  -3.351  1.00  0.00    -0.004 C 
HETATM   11  C25 UNL     1      -6.438  58.637  -2.368  1.00  0.00     0.037 C 
HETATM   12  C26 UNL     1      -6.016  59.998  -2.826  1.00  0.00     0.118 C 
HETATM   13  C27 UNL     1      -5.629  59.992  -4.278  1.00  0.00     0.032 C 
HETATM   14  C28 UNL     1      -5.567  58.585  -4.834  1.00  0.00     0.012 C 
HETATM   15  C29 UNL     1      -6.960  58.032  -4.764  1.00  0.00    -0.036 C 
HETATM   16  C30 UNL     1      -7.833  59.090  -5.448  1.00  0.00     0.016 C 
ENDROOT
BRANCH   1  17
HETATM   17  N2  UNL     1      -4.658  54.424  -4.893  1.00  0.00    -0.309 N 
ATOM     18  H2  UNL     1      -4.484  55.128  -4.175  1.00  0.00     0.172 HD
BRANCH  17  19
HETATM   19  S1  UNL     1      -3.464  53.342  -5.176  1.00  0.00     0.236 S 
HETATM   20  O1  UNL     1      -2.382  53.449  -4.108  1.00  0.00    -0.205 OA
HETATM   21  O2  UNL     1      -2.861  53.540  -6.557  1.00  0.00    -0.205 OA
BRANCH  19  22
HETATM   22  C4  UNL     1      -3.864  51.583  -5.161  1.00  0.00     0.102 C 
HETATM   23  C5  UNL     1      -2.932  50.780  -4.275  1.00  0.00     0.035 C 
HETATM   24  C6  UNL     1      -3.897  51.050  -6.552  1.00  0.00     0.035 C 
BRANCH  22  25
HETATM   25  C3  UNL     1      -5.221  51.514  -4.495  1.00  0.00     0.297 C 
BRANCH  25  26
HETATM   26  N1  UNL     1      -6.209  50.712  -5.086  1.00  0.00     0.081 N 
HETATM   27  C1  UNL     1      -7.400  51.344  -5.469  1.00  0.00     0.309 C 
HETATM   28  C2  UNL     1      -6.542  49.506  -4.337  1.00  0.00     0.309 C 
ENDBRANCH  25  26
ENDBRANCH  22  25
ENDBRANCH  19  22
ENDBRANCH  17  19
ENDBRANCH   1  17
BRANCH   3  29
HETATM   29  C10 UNL     1      -6.618  53.045  -8.625  1.00  0.00     0.246 C 
HETATM   30  O3  UNL     1      -7.861  53.239  -8.448  1.00  0.00    -0.268 OA
HETATM   31  N3  UNL     1      -6.045  51.920  -9.203  1.00  0.00    -0.324 N 
ATOM     32  H3  UNL     1      -5.031  52.013  -9.247  1.00  0.00     0.169 HD
BRANCH  31  33
HETATM   33  C11 UNL     1      -6.453  50.701  -9.741  1.00  0.00     0.035 A 
HETATM   34  C12 UNL     1      -6.080  49.507  -9.092  1.00  0.00     0.029 A 
HETATM   35  C13 UNL     1      -6.460  48.288  -9.572  1.00  0.00     0.003 A 
HETATM   36  C14 UNL     1      -7.232  48.201 -10.715  1.00  0.00     0.016 A 
HETATM   37  C15 UNL     1      -7.591  49.365 -11.342  1.00  0.00     0.050 A 
HETATM   38  C17 UNL     1      -7.212  50.603 -10.871  1.00  0.00     0.045 A 
BRANCH  37  39
HETATM   39  C16 UNL     1      -8.432  49.269 -12.541  1.00  0.00     0.417 C 
HETATM   40  F1  UNL     1      -8.019  48.181 -13.315  1.00  0.00    -0.166 F 
HETATM   41  F2  UNL     1      -8.336  50.444 -13.288  1.00  0.00    -0.166 F 
HETATM   42  F3  UNL     1      -9.727  49.038 -12.164  1.00  0.00    -0.166 F 
ENDBRANCH  37  39
ENDBRANCH  31  33
ENDBRANCH   3  29
BRANCH  12  43
HETATM   43  O4  UNL     1      -6.925  61.012  -2.515  1.00  0.00    -0.396 OA
ATOM     44  H4  UNL     1      -6.642  61.584  -1.810  1.00  0.00     0.210 HD
ENDBRANCH  12  43
TORSDOF 9
ENDMDL
