MODEL 1
REMARK VINA RESULT: -9.361678959      0.000      0.000
REMARK  9 active torsions:
REMARK  status: ('A' for Active; 'I' for Inactive)
REMARK    1  A    between atoms: N1_1  and  C1_4 
REMARK    2  A    between atoms: N4_13  and  C5_14 
REMARK    3  A    between atoms: C6_16  and  C7_17 
REMARK    4  A    between atoms: C7_17  and  O3_18 
REMARK    5  A    between atoms: O3_18  and  S1_19 
REMARK    6  A    between atoms: C8_23  and  C9_24 
REMARK       I    between atoms: C9_24  and  N5_26 
REMARK    7  A    between atoms: N5_26  and  N6_28 
REMARK    8  A    between atoms: C10_31  and  O8_32 
REMARK    9  A    between atoms: C10_31  and  O9_34 
ROOT
HETATM    1  C5  UNL     1     -21.004  18.587 -16.131  1.00  0.00     0.294 C 
HETATM    2  O2  UNL     1     -20.677  19.893 -15.965  1.00  0.00    -0.352 OA
HETATM    3  C6  UNL     1     -19.295  19.939 -15.938  1.00  0.00     0.168 C 
HETATM    4  C8  UNL     1     -18.780  18.745 -16.700  1.00  0.00     0.177 C 
HETATM    5  C10 UNL     1     -20.062  18.185 -17.275  1.00  0.00     0.220 C 
ENDROOT
BRANCH   1   6
HETATM    6  N4  UNL     1     -22.365  18.254 -16.359  1.00  0.00    -0.294 N 
HETATM    7  C4  UNL     1     -22.978  17.247 -15.681  1.00  0.00     0.188 A 
HETATM    8  N3  UNL     1     -24.245  17.168 -16.104  1.00  0.00    -0.345 N 
HETATM    9  C3  UNL     1     -24.449  18.106 -17.038  1.00  0.00     0.147 A 
ATOM     10  H3  UNL     1     -24.943  16.502 -15.769  1.00  0.00     0.167 HD
HETATM   11  C2  UNL     1     -25.589  18.420 -17.768  1.00  0.00     0.290 A 
HETATM   12  C11 UNL     1     -23.253  18.791 -17.195  1.00  0.00     0.159 A 
HETATM   13  N2  UNL     1     -25.455  19.436 -18.641  1.00  0.00    -0.154 N 
HETATM   14  O1  UNL     1     -26.643  17.776 -17.593  1.00  0.00    -0.265 OA
HETATM   15  C1  UNL     1     -24.301  20.104 -18.799  1.00  0.00     0.680 A 
ATOM     16  H2  UNL     1     -26.261  19.709 -19.203  1.00  0.00     0.187 HD
HETATM   17  N7  UNL     1     -23.186  19.800 -18.088  1.00  0.00    -0.174 N 
ATOM     18  H7  UNL     1     -22.320  20.321 -18.226  1.00  0.00     0.186 HD
BRANCH  15  19
HETATM   19  N1  UNL     1     -24.257  21.060 -19.653  1.00  0.00    -0.234 N 
ATOM     20  H12 UNL     1     -25.130  21.455 -20.002  1.00  0.00     0.174 HD
ATOM     21  H11 UNL     1     -23.345  21.400 -19.959  1.00  0.00     0.174 HD
ENDBRANCH  15  19
ENDBRANCH   1   6
BRANCH   5  22
HETATM   22  O8  UNL     1     -20.014  16.806 -17.411  1.00  0.00    -0.361 OA
ATOM     23  H8  UNL     1     -20.672  16.505 -18.027  1.00  0.00     0.213 HD
ENDBRANCH   5  22
BRANCH   5  24
HETATM   24  O9  UNL     1     -20.456  18.840 -18.408  1.00  0.00    -0.361 OA
ATOM     25  H9  UNL     1     -20.348  18.252 -19.147  1.00  0.00     0.213 HD
ENDBRANCH   5  24
BRANCH   3  26
HETATM   26  C7  UNL     1     -18.857  19.887 -14.475  1.00  0.00     0.226 C 
BRANCH  26  27
HETATM   27  O3  UNL     1     -17.854  20.851 -14.342  1.00  0.00    -0.254 OA
BRANCH  27  28
HETATM   28  S1  UNL     1     -16.373  20.200 -13.972  1.00  0.00     0.251 S 
HETATM   29  O4  UNL     1     -16.270  18.743 -14.339  1.00  0.00    -0.572 OA
HETATM   30  O5  UNL     1     -15.249  20.913 -14.669  1.00  0.00    -0.572 OA
HETATM   31  O6  UNL     1     -16.166  20.318 -12.299  1.00  0.00    -0.572 OA
ENDBRANCH  27  28
ENDBRANCH  26  27
ENDBRANCH   3  26
BRANCH   4  32
HETATM   32  C9  UNL     1     -17.741  19.046 -17.682  1.00  0.00     0.247 C 
HETATM   33  O7  UNL     1     -17.912  18.598 -18.860  1.00  0.00    -0.271 OA
HETATM   34  N5  UNL     1     -16.571  19.784 -17.442  1.00  0.00    -0.276 N 
ATOM     35  H5  UNL     1     -16.393  20.161 -16.511  1.00  0.00     0.189 HD
BRANCH  34  36
HETATM   36  N6  UNL     1     -15.656  20.007 -18.460  1.00  0.00    -0.343 N 
ATOM     37  H62 UNL     1     -15.794  20.807 -19.077  1.00  0.00     0.176 HD
ATOM     38  H61 UNL     1     -14.861  19.381 -18.590  1.00  0.00     0.176 HD
ENDBRANCH  34  36
ENDBRANCH   4  32
TORSDOF 9
ENDMDL
MODEL 2
REMARK VINA RESULT: -9.252932320      4.312      8.377
REMARK  9 active torsions:
REMARK  status: ('A' for Active; 'I' for Inactive)
REMARK    1  A    between atoms: N1_1  and  C1_4 
REMARK    2  A    between atoms: N4_13  and  C5_14 
REMARK    3  A    between atoms: C6_16  and  C7_17 
REMARK    4  A    between atoms: C7_17  and  O3_18 
REMARK    5  A    between atoms: O3_18  and  S1_19 
REMARK    6  A    between atoms: C8_23  and  C9_24 
REMARK       I    between atoms: C9_24  and  N5_26 
REMARK    7  A    between atoms: N5_26  and  N6_28 
REMARK    8  A    between atoms: C10_31  and  O8_32 
REMARK    9  A    between atoms: C10_31  and  O9_34 
ROOT
HETATM    1  C5  UNL     1     -16.051  19.531 -14.748  1.00  0.00     0.294 C 
HETATM    2  O2  UNL     1     -17.206  18.976 -14.303  1.00  0.00    -0.352 OA
HETATM    3  C6  UNL     1     -18.117  19.112 -15.335  1.00  0.00     0.168 C 
HETATM    4  C8  UNL     1     -17.341  19.198 -16.624  1.00  0.00     0.177 C 
HETATM    5  C10 UNL     1     -15.936  18.904 -16.145  1.00  0.00     0.220 C 
ENDROOT
BRANCH   1   6
HETATM    6  N4  UNL     1     -14.882  19.391 -13.954  1.00  0.00    -0.294 N 
HETATM    7  C4  UNL     1     -13.740  20.072 -14.238  1.00  0.00     0.188 A 
HETATM    8  N3  UNL     1     -12.818  19.743 -13.325  1.00  0.00    -0.345 N 
HETATM    9  C3  UNL     1     -13.354  18.864 -12.468  1.00  0.00     0.147 A 
ATOM     10  H3  UNL     1     -11.863  20.102 -13.289  1.00  0.00     0.167 HD
HETATM   11  C2  UNL     1     -12.802  18.233 -11.359  1.00  0.00     0.290 A 
HETATM   12  C11 UNL     1     -14.663  18.646 -12.873  1.00  0.00     0.159 A 
HETATM   13  N2  UNL     1     -13.623  17.394 -10.702  1.00  0.00    -0.154 N 
HETATM   14  O1  UNL     1     -11.619  18.461 -11.032  1.00  0.00    -0.265 OA
HETATM   15  C1  UNL     1     -14.891  17.177 -11.087  1.00  0.00     0.680 A 
ATOM     16  H2  UNL     1     -13.270  16.905  -9.880  1.00  0.00     0.187 HD
HETATM   17  N7  UNL     1     -15.434  17.791 -12.169  1.00  0.00    -0.174 N 
ATOM     18  H7  UNL     1     -16.400  17.611 -12.443  1.00  0.00     0.186 HD
BRANCH  15  19
HETATM   19  N1  UNL     1     -15.609  16.362 -10.405  1.00  0.00    -0.234 N 
ATOM     20  H12 UNL     1     -16.007  16.672  -9.519  1.00  0.00     0.174 HD
ATOM     21  H11 UNL     1     -15.761  15.422 -10.771  1.00  0.00     0.174 HD
ENDBRANCH  15  19
ENDBRANCH   1   6
BRANCH   5  22
HETATM   22  O8  UNL     1     -14.979  19.562 -16.903  1.00  0.00    -0.361 OA
ATOM     23  H8  UNL     1     -15.352  19.875 -17.719  1.00  0.00     0.213 HD
ENDBRANCH   5  22
BRANCH   5  24
HETATM   24  O9  UNL     1     -15.702  17.566 -15.999  1.00  0.00    -0.361 OA
ATOM     25  H9  UNL     1     -15.542  17.194 -16.858  1.00  0.00     0.213 HD
ENDBRANCH   5  24
BRANCH   3  26
HETATM   26  C7  UNL     1     -18.912  20.392 -15.087  1.00  0.00     0.226 C 
BRANCH  26  27
HETATM   27  O3  UNL     1     -20.069  20.280 -15.862  1.00  0.00    -0.254 OA
BRANCH  27  28
HETATM   28  S1  UNL     1     -21.180  19.226 -15.222  1.00  0.00     0.251 S 
HETATM   29  O4  UNL     1     -21.266  17.934 -15.990  1.00  0.00    -0.572 OA
HETATM   30  O5  UNL     1     -20.872  18.873 -13.794  1.00  0.00    -0.572 OA
HETATM   31  O6  UNL     1     -22.696  19.969 -15.306  1.00  0.00    -0.572 OA
ENDBRANCH  27  28
ENDBRANCH  26  27
ENDBRANCH   3  26
BRANCH   4  32
HETATM   32  C9  UNL     1     -17.826  18.324 -17.690  1.00  0.00     0.247 C 
HETATM   33  O7  UNL     1     -18.324  17.207 -17.340  1.00  0.00    -0.271 OA
HETATM   34  N5  UNL     1     -17.790  18.605 -19.065  1.00  0.00    -0.276 N 
ATOM     35  H5  UNL     1     -17.397  19.489 -19.390  1.00  0.00     0.189 HD
BRANCH  34  36
HETATM   36  N6  UNL     1     -18.286  17.694 -19.985  1.00  0.00    -0.343 N 
ATOM     37  H62 UNL     1     -19.217  17.304 -19.837  1.00  0.00     0.176 HD
ATOM     38  H61 UNL     1     -17.729  17.417 -20.794  1.00  0.00     0.176 HD
ENDBRANCH  34  36
ENDBRANCH   4  32
TORSDOF 9
ENDMDL
MODEL 3
REMARK VINA RESULT: -9.221739759      4.466      8.842
REMARK  9 active torsions:
REMARK  status: ('A' for Active; 'I' for Inactive)
REMARK    1  A    between atoms: N1_1  and  C1_4 
REMARK    2  A    between atoms: N4_13  and  C5_14 
REMARK    3  A    between atoms: C6_16  and  C7_17 
REMARK    4  A    between atoms: C7_17  and  O3_18 
REMARK    5  A    between atoms: O3_18  and  S1_19 
REMARK    6  A    between atoms: C8_23  and  C9_24 
REMARK       I    between atoms: C9_24  and  N5_26 
REMARK    7  A    between atoms: N5_26  and  N6_28 
REMARK    8  A    between atoms: C10_31  and  O8_32 
REMARK    9  A    between atoms: C10_31  and  O9_34 
ROOT
HETATM    1  C5  UNL     1     -15.935  19.826 -13.734  1.00  0.00     0.294 C 
HETATM    2  O2  UNL     1     -17.003  18.998 -13.847  1.00  0.00    -0.352 OA
HETATM    3  C6  UNL     1     -17.670  19.389 -14.994  1.00  0.00     0.168 C 
HETATM    4  C8  UNL     1     -16.668  20.053 -15.904  1.00  0.00     0.177 C 
HETATM    5  C10 UNL     1     -15.375  19.789 -15.164  1.00  0.00     0.220 C 
ENDROOT
BRANCH   1   6
HETATM    6  N4  UNL     1     -14.970  19.554 -12.729  1.00  0.00    -0.294 N 
HETATM    7  C4  UNL     1     -14.839  18.318 -12.179  1.00  0.00     0.188 A 
HETATM    8  N3  UNL     1     -13.858  18.365 -11.270  1.00  0.00    -0.345 N 
HETATM    9  C3  UNL     1     -13.363  19.610 -11.233  1.00  0.00     0.147 A 
ATOM     10  H3  UNL     1     -13.538  17.582 -10.699  1.00  0.00     0.167 HD
HETATM   11  C2  UNL     1     -12.343  20.152 -10.460  1.00  0.00     0.290 A 
HETATM   12  C11 UNL     1     -14.072  20.357 -12.161  1.00  0.00     0.159 A 
HETATM   13  N2  UNL     1     -12.089  21.457 -10.672  1.00  0.00    -0.154 N 
HETATM   14  O1  UNL     1     -11.732  19.440  -9.638  1.00  0.00    -0.265 OA
HETATM   15  C1  UNL     1     -12.771  22.189 -11.567  1.00  0.00     0.680 A 
ATOM     16  H2  UNL     1     -11.350  21.907 -10.132  1.00  0.00     0.187 HD
HETATM   17  N7  UNL     1     -13.767  21.663 -12.324  1.00  0.00    -0.174 N 
ATOM     18  H7  UNL     1     -14.272  22.238 -12.998  1.00  0.00     0.186 HD
BRANCH  15  19
HETATM   19  N1  UNL     1     -12.467  23.427 -11.708  1.00  0.00    -0.234 N 
ATOM     20  H12 UNL     1     -13.085  24.031 -12.248  1.00  0.00     0.174 HD
ATOM     21  H11 UNL     1     -11.610  23.771 -11.275  1.00  0.00     0.174 HD
ENDBRANCH  15  19
ENDBRANCH   1   6
BRANCH   5  22
HETATM   22  O8  UNL     1     -14.448  20.803 -15.356  1.00  0.00    -0.361 OA
ATOM     23  H8  UNL     1     -14.818  21.502 -15.882  1.00  0.00     0.213 HD
ENDBRANCH   5  22
BRANCH   5  24
HETATM   24  O9  UNL     1     -14.882  18.537 -15.401  1.00  0.00    -0.361 OA
ATOM     25  H9  UNL     1     -13.995  18.621 -15.730  1.00  0.00     0.213 HD
ENDBRANCH   5  24
BRANCH   3  26
HETATM   26  C7  UNL     1     -18.769  20.367 -14.582  1.00  0.00     0.226 C 
BRANCH  26  27
HETATM   27  O3  UNL     1     -19.678  20.388 -15.642  1.00  0.00    -0.254 OA
BRANCH  27  28
HETATM   28  S1  UNL     1     -20.934  19.321 -15.442  1.00  0.00     0.251 S 
HETATM   29  O4  UNL     1     -20.991  18.745 -14.052  1.00  0.00    -0.572 OA
HETATM   30  O5  UNL     1     -22.268  19.956 -15.714  1.00  0.00    -0.572 OA
HETATM   31  O6  UNL     1     -20.689  18.038 -16.515  1.00  0.00    -0.572 OA
ENDBRANCH  27  28
ENDBRANCH  26  27
ENDBRANCH   3  26
BRANCH   4  32
HETATM   32  C9  UNL     1     -16.694  19.587 -17.288  1.00  0.00     0.247 C 
HETATM   33  O7  UNL     1     -15.666  19.826 -17.998  1.00  0.00    -0.271 OA
HETATM   34  N5  UNL     1     -17.751  18.900 -17.905  1.00  0.00    -0.276 N 
ATOM     35  H5  UNL     1     -18.596  18.689 -17.373  1.00  0.00     0.189 HD
BRANCH  34  36
HETATM   36  N6  UNL     1     -17.658  18.504 -19.231  1.00  0.00    -0.343 N 
ATOM     37  H62 UNL     1     -16.733  18.428 -19.655  1.00  0.00     0.176 HD
ATOM     38  H61 UNL     1     -18.497  18.295 -19.771  1.00  0.00     0.176 HD
ENDBRANCH  34  36
ENDBRANCH   4  32
TORSDOF 9
ENDMDL
MODEL 4
REMARK VINA RESULT: -9.104651865      4.577      8.747
REMARK  9 active torsions:
REMARK  status: ('A' for Active; 'I' for Inactive)
REMARK    1  A    between atoms: N1_1  and  C1_4 
REMARK    2  A    between atoms: N4_13  and  C5_14 
REMARK    3  A    between atoms: C6_16  and  C7_17 
REMARK    4  A    between atoms: C7_17  and  O3_18 
REMARK    5  A    between atoms: O3_18  and  S1_19 
REMARK    6  A    between atoms: C8_23  and  C9_24 
REMARK       I    between atoms: C9_24  and  N5_26 
REMARK    7  A    between atoms: N5_26  and  N6_28 
REMARK    8  A    between atoms: C10_31  and  O8_32 
REMARK    9  A    between atoms: C10_31  and  O9_34 
ROOT
HETATM    1  C5  UNL     1     -15.342  19.468 -14.122  1.00  0.00     0.294 C 
HETATM    2  O2  UNL     1     -16.477  18.725 -14.135  1.00  0.00    -0.352 OA
HETATM    3  C6  UNL     1     -17.260  19.241 -15.152  1.00  0.00     0.168 C 
HETATM    4  C8  UNL     1     -16.341  19.900 -16.150  1.00  0.00     0.177 C 
HETATM    5  C10 UNL     1     -14.984  19.496 -15.615  1.00  0.00     0.220 C 
ENDROOT
BRANCH   1   6
HETATM    6  N4  UNL     1     -14.274  19.060 -13.281  1.00  0.00    -0.294 N 
HETATM    7  C4  UNL     1     -13.014  19.546 -13.438  1.00  0.00     0.188 A 
HETATM    8  N3  UNL     1     -12.230  18.986 -12.509  1.00  0.00    -0.345 N 
HETATM    9  C3  UNL     1     -12.969  18.153 -11.764  1.00  0.00     0.147 A 
ATOM     10  H3  UNL     1     -11.233  19.165 -12.387  1.00  0.00     0.167 HD
HETATM   11  C2  UNL     1     -12.614  17.350 -10.687  1.00  0.00     0.290 A 
HETATM   12  C11 UNL     1     -14.264  18.206 -12.259  1.00  0.00     0.159 A 
HETATM   13  N2  UNL     1     -13.614  16.623 -10.154  1.00  0.00    -0.154 N 
HETATM   14  O1  UNL     1     -11.436  17.336 -10.276  1.00  0.00    -0.265 OA
HETATM   15  C1  UNL     1     -14.869  16.667 -10.627  1.00  0.00     0.680 A 
ATOM     16  H2  UNL     1     -13.409  16.016  -9.361  1.00  0.00     0.187 HD
HETATM   17  N7  UNL     1     -15.220  17.450 -11.678  1.00  0.00    -0.174 N 
ATOM     18  H7  UNL     1     -16.180  17.467 -12.021  1.00  0.00     0.186 HD
BRANCH  15  19
HETATM   19  N1  UNL     1     -15.764  15.942 -10.062  1.00  0.00    -0.234 N 
ATOM     20  H12 UNL     1     -16.697  15.896 -10.471  1.00  0.00     0.174 HD
ATOM     21  H11 UNL     1     -15.515  15.430  -9.216  1.00  0.00     0.174 HD
ENDBRANCH  15  19
ENDBRANCH   1   6
BRANCH   5  22
HETATM   22  O8  UNL     1     -14.017  20.456 -15.872  1.00  0.00    -0.361 OA
ATOM     23  H8  UNL     1     -13.153  20.134 -15.641  1.00  0.00     0.213 HD
ENDBRANCH   5  22
BRANCH   5  24
HETATM   24  O9  UNL     1     -14.626  18.234 -15.997  1.00  0.00    -0.361 OA
ATOM     25  H9  UNL     1     -14.987  18.067 -16.860  1.00  0.00     0.213 HD
ENDBRANCH   5  24
BRANCH   3  26
HETATM   26  C7  UNL     1     -18.214  20.259 -14.531  1.00  0.00     0.226 C 
BRANCH  26  27
HETATM   27  O3  UNL     1     -19.186  20.513 -15.501  1.00  0.00    -0.254 OA
BRANCH  27  28
HETATM   28  S1  UNL     1     -20.526  19.546 -15.347  1.00  0.00     0.251 S 
HETATM   29  O4  UNL     1     -20.667  18.963 -13.967  1.00  0.00    -0.572 OA
HETATM   30  O5  UNL     1     -21.799  20.285 -15.649  1.00  0.00    -0.572 OA
HETATM   31  O6  UNL     1     -20.352  18.257 -16.428  1.00  0.00    -0.572 OA
ENDBRANCH  27  28
ENDBRANCH  26  27
ENDBRANCH   3  26
BRANCH   4  32
HETATM   32  C9  UNL     1     -16.590  19.537 -17.543  1.00  0.00     0.247 C 
HETATM   33  O7  UNL     1     -15.711  19.881 -18.396  1.00  0.00    -0.271 OA
HETATM   34  N5  UNL     1     -17.711  18.844 -18.025  1.00  0.00    -0.276 N 
ATOM     35  H5  UNL     1     -18.442  18.550 -17.377  1.00  0.00     0.189 HD
BRANCH  34  36
HETATM   36  N6  UNL     1     -17.834  18.554 -19.376  1.00  0.00    -0.343 N 
ATOM     37  H62 UNL     1     -17.746  19.314 -20.051  1.00  0.00     0.176 HD
ATOM     38  H61 UNL     1     -18.010  17.598 -19.688  1.00  0.00     0.176 HD
ENDBRANCH  34  36
ENDBRANCH   4  32
TORSDOF 9
ENDMDL
MODEL 5
REMARK VINA RESULT: -9.081914434      4.794      8.381
REMARK  9 active torsions:
REMARK  status: ('A' for Active; 'I' for Inactive)
REMARK    1  A    between atoms: N1_1  and  C1_4 
REMARK    2  A    between atoms: N4_13  and  C5_14 
REMARK    3  A    between atoms: C6_16  and  C7_17 
REMARK    4  A    between atoms: C7_17  and  O3_18 
REMARK    5  A    between atoms: O3_18  and  S1_19 
REMARK    6  A    between atoms: C8_23  and  C9_24 
REMARK       I    between atoms: C9_24  and  N5_26 
REMARK    7  A    between atoms: N5_26  and  N6_28 
REMARK    8  A    between atoms: C10_31  and  O8_32 
REMARK    9  A    between atoms: C10_31  and  O9_34 
ROOT
HETATM    1  C5  UNL     1     -15.066  19.705 -13.920  1.00  0.00     0.294 C 
HETATM    2  O2  UNL     1     -14.952  20.757 -14.769  1.00  0.00    -0.352 OA
HETATM    3  C6  UNL     1     -15.121  20.241 -16.041  1.00  0.00     0.168 C 
HETATM    4  C8  UNL     1     -15.945  18.984 -15.921  1.00  0.00     0.177 C 
HETATM    5  C10 UNL     1     -16.331  19.021 -14.458  1.00  0.00     0.220 C 
ENDROOT
BRANCH   1   6
HETATM    6  N4  UNL     1     -15.097  19.961 -12.524  1.00  0.00    -0.294 N 
HETATM    7  C4  UNL     1     -15.084  21.227 -12.029  1.00  0.00     0.188 A 
HETATM    8  N3  UNL     1     -15.123  21.155 -10.693  1.00  0.00    -0.345 N 
HETATM    9  C3  UNL     1     -15.159  19.866 -10.331  1.00  0.00     0.147 A 
ATOM     10  H3  UNL     1     -15.124  21.952 -10.055  1.00  0.00     0.167 HD
HETATM   11  C2  UNL     1     -15.206  19.284  -9.070  1.00  0.00     0.290 A 
HETATM   12  C11 UNL     1     -15.143  19.115 -11.497  1.00  0.00     0.159 A 
HETATM   13  N2  UNL     1     -15.236  17.938  -9.054  1.00  0.00    -0.154 N 
HETATM   14  O1  UNL     1     -15.220  20.000  -8.048  1.00  0.00    -0.265 OA
HETATM   15  C1  UNL     1     -15.220  17.204 -10.178  1.00  0.00     0.680 A 
ATOM     16  H2  UNL     1     -15.271  17.459  -8.155  1.00  0.00     0.187 HD
HETATM   17  N7  UNL     1     -15.174  17.768 -11.411  1.00  0.00    -0.174 N 
ATOM     18  H7  UNL     1     -15.163  17.190 -12.251  1.00  0.00     0.186 HD
BRANCH  15  19
HETATM   19  N1  UNL     1     -15.250  15.926 -10.076  1.00  0.00    -0.234 N 
ATOM     20  H12 UNL     1     -14.775  15.478  -9.293  1.00  0.00     0.174 HD
ATOM     21  H11 UNL     1     -15.751  15.391 -10.786  1.00  0.00     0.174 HD
ENDBRANCH  15  19
ENDBRANCH   1   6
BRANCH   5  22
HETATM   22  O8  UNL     1     -16.468  17.749 -13.924  1.00  0.00    -0.361 OA
ATOM     23  H8  UNL     1     -17.378  17.475 -13.935  1.00  0.00     0.213 HD
ENDBRANCH   5  22
BRANCH   5  24
HETATM   24  O9  UNL     1     -17.398  19.840 -14.220  1.00  0.00    -0.361 OA
ATOM     25  H9  UNL     1     -17.423  20.506 -14.897  1.00  0.00     0.213 HD
ENDBRANCH   5  24
BRANCH   3  26
HETATM   26  C7  UNL     1     -13.736  19.937 -16.607  1.00  0.00     0.226 C 
BRANCH  26  27
HETATM   27  O3  UNL     1     -13.704  18.557 -16.820  1.00  0.00    -0.254 OA
BRANCH  27  28
HETATM   28  S1  UNL     1     -12.398  17.820 -16.108  1.00  0.00     0.251 S 
HETATM   29  O4  UNL     1     -11.928  16.609 -16.869  1.00  0.00    -0.572 OA
HETATM   30  O5  UNL     1     -11.222  18.746 -15.979  1.00  0.00    -0.572 OA
HETATM   31  O6  UNL     1     -12.878  17.300 -14.573  1.00  0.00    -0.572 OA
ENDBRANCH  27  28
ENDBRANCH  26  27
ENDBRANCH   3  26
BRANCH   4  32
HETATM   32  C9  UNL     1     -17.065  18.894 -16.854  1.00  0.00     0.247 C 
HETATM   33  O7  UNL     1     -18.113  18.299 -16.444  1.00  0.00    -0.271 OA
HETATM   34  N5  UNL     1     -17.090  19.405 -18.161  1.00  0.00    -0.276 N 
ATOM     35  H5  UNL     1     -16.271  19.888 -18.531  1.00  0.00     0.189 HD
BRANCH  34  36
HETATM   36  N6  UNL     1     -18.219  19.259 -18.954  1.00  0.00    -0.343 N 
ATOM     37  H62 UNL     1     -19.004  19.895 -18.811  1.00  0.00     0.176 HD
ATOM     38  H61 UNL     1     -18.262  18.530 -19.666  1.00  0.00     0.176 HD
ENDBRANCH  34  36
ENDBRANCH   4  32
TORSDOF 9
ENDMDL
