MODEL 1
REMARK VINA RESULT: -8.117061555      0.000      0.000
REMARK  11 active torsions:
REMARK  status: ('A' for Active; 'I' for Inactive)
REMARK    1  A    between atoms: C3_4  and  N1_5 
REMARK    2  A    between atoms: N1_5  and  C4_6 
REMARK    3  A    between atoms: C5_9  and  N3_10 
REMARK    4  A    between atoms: N3_10  and  C6_12 
REMARK    5  A    between atoms: C6_12  and  C7_13 
REMARK    6  A    between atoms: C7_13  and  C8_14 
REMARK    7  A    between atoms: C8_14  and  C9_15 
REMARK    8  A    between atoms: C9_15  and  N4_16 
REMARK    9  A    between atoms: C19_29  and  C20_30 
REMARK   10  A    between atoms: C20_30  and  C21_31 
REMARK   11  A    between atoms: C21_31  and  N6_32 
ROOT
HETATM    1  C4  UNL     1     -14.650 -28.889 -12.929  1.00  0.00     0.217 A 
HETATM    2  N2  UNL     1     -15.089 -27.676 -13.401  1.00  0.00    -0.163 N 
ATOM      3  H2  UNL     1     -15.062 -27.497 -14.405  1.00  0.00     0.187 HD
HETATM    4  C5  UNL     1     -15.552 -26.725 -12.585  1.00  0.00     0.680 A 
HETATM    5  N5  UNL     1     -15.584 -26.954 -11.276  1.00  0.00    -0.200 N 
ATOM      6  H5  UNL     1     -15.938 -26.217 -10.666  1.00  0.00     0.183 HD
HETATM    7  C15 UNL     1     -15.175 -28.109 -10.712  1.00  0.00     0.135 A 
HETATM    8  C16 UNL     1     -14.705 -29.081 -11.535  1.00  0.00     0.108 A 
HETATM    9 CL2  UNL     1     -14.139 -30.618 -10.873  1.00  0.00    -0.078 Cl
ENDROOT
BRANCH   1  10
HETATM   10  N1  UNL     1     -14.291 -29.746 -13.639  1.00  0.00    -0.385 NA
BRANCH  10  11
HETATM   11  C3  UNL     1     -13.872 -30.701 -14.440  1.00  0.00     0.111 A 
HETATM   12  C2  UNL     1     -12.745 -31.467 -14.038  1.00  0.00     0.069 A 
HETATM   13  C1  UNL     1     -12.265 -32.470 -14.832  1.00  0.00     0.043 A 
HETATM   14 CL1  UNL     1     -10.865 -33.419 -14.317  1.00  0.00    -0.084 Cl
HETATM   15  C19 UNL     1     -12.842 -32.786 -16.042  1.00  0.00    -0.035 A 
HETATM   16  C18 UNL     1     -13.936 -32.065 -16.458  1.00  0.00     0.012 A 
HETATM   17  C17 UNL     1     -14.429 -31.054 -15.672  1.00  0.00     0.045 A 
BRANCH  15  18
HETATM   18  C20 UNL     1     -12.252 -33.889 -16.846  1.00  0.00     0.070 C 
BRANCH  18  19
HETATM   19  C21 UNL     1     -12.015 -33.456 -18.267  1.00  0.00     0.277 C 
BRANCH  19  20
HETATM   20  N6  UNL     1     -11.465 -34.573 -19.009  1.00  0.00     0.088 N 
HETATM   21  C22 UNL     1     -12.023 -34.705 -20.345  1.00  0.00     0.272 C 
HETATM   22  C23 UNL     1     -11.910 -33.440 -21.134  1.00  0.00     0.030 C 
HETATM   23  C24 UNL     1     -10.560 -32.812 -21.117  1.00  0.00     0.003 C 
HETATM   24  C25 UNL     1      -9.750 -33.048 -19.874  1.00  0.00     0.030 C 
HETATM   25  C26 UNL     1     -10.025 -34.378 -19.210  1.00  0.00     0.272 C 
ENDBRANCH  19  20
ENDBRANCH  18  19
ENDBRANCH  15  18
ENDBRANCH  10  11
ENDBRANCH   1  10
BRANCH   4  26
HETATM   26  N3  UNL     1     -15.940 -25.606 -13.134  1.00  0.00    -0.226 N 
ATOM     27  H3  UNL     1     -16.355 -25.600 -14.067  1.00  0.00     0.177 HD
BRANCH  26  28
HETATM   28  C6  UNL     1     -15.769 -24.353 -12.382  1.00  0.00     0.138 C 
BRANCH  28  29
HETATM   29  C7  UNL     1     -14.320 -23.964 -12.472  1.00  0.00     0.022 C 
BRANCH  29  30
HETATM   30  C8  UNL     1     -14.097 -22.565 -13.017  1.00  0.00     0.032 C 
BRANCH  30  31
HETATM   31  C9  UNL     1     -12.704 -22.104 -12.601  1.00  0.00     0.272 C 
BRANCH  31  32
HETATM   32  N4  UNL     1     -12.116 -21.361 -13.683  1.00  0.00     0.088 N 
HETATM   33  C10 UNL     1     -11.758 -20.021 -13.213  1.00  0.00     0.272 C 
HETATM   34  C11 UNL     1     -11.333 -19.213 -14.400  1.00  0.00     0.030 C 
HETATM   35  C12 UNL     1     -10.229 -19.898 -15.181  1.00  0.00     0.003 C 
HETATM   36  C13 UNL     1      -9.775 -21.083 -14.366  1.00  0.00     0.030 C 
HETATM   37  C14 UNL     1     -10.947 -22.036 -14.226  1.00  0.00     0.272 C 
ENDBRANCH  31  32
ENDBRANCH  30  31
ENDBRANCH  29  30
ENDBRANCH  28  29
ENDBRANCH  26  28
ENDBRANCH   4  26
TORSDOF 11
ENDMDL
MODEL 2
REMARK VINA RESULT: -8.019894377      1.516      1.989
REMARK  11 active torsions:
REMARK  status: ('A' for Active; 'I' for Inactive)
REMARK    1  A    between atoms: C3_4  and  N1_5 
REMARK    2  A    between atoms: N1_5  and  C4_6 
REMARK    3  A    between atoms: C5_9  and  N3_10 
REMARK    4  A    between atoms: N3_10  and  C6_12 
REMARK    5  A    between atoms: C6_12  and  C7_13 
REMARK    6  A    between atoms: C7_13  and  C8_14 
REMARK    7  A    between atoms: C8_14  and  C9_15 
REMARK    8  A    between atoms: C9_15  and  N4_16 
REMARK    9  A    between atoms: C19_29  and  C20_30 
REMARK   10  A    between atoms: C20_30  and  C21_31 
REMARK   11  A    between atoms: C21_31  and  N6_32 
ROOT
HETATM    1  C4  UNL     1     -15.750 -27.914 -13.971  1.00  0.00     0.217 A 
HETATM    2  N2  UNL     1     -15.170 -27.237 -12.926  1.00  0.00    -0.163 N 
ATOM      3  H2  UNL     1     -14.295 -27.586 -12.535  1.00  0.00     0.187 HD
HETATM    4  C5  UNL     1     -15.717 -26.134 -12.407  1.00  0.00     0.680 A 
HETATM    5  N5  UNL     1     -16.860 -25.679 -12.913  1.00  0.00    -0.200 N 
ATOM      6  H5  UNL     1     -17.267 -24.837 -12.504  1.00  0.00     0.183 HD
HETATM    7  C15 UNL     1     -17.509 -26.271 -13.936  1.00  0.00     0.135 A 
HETATM    8  C16 UNL     1     -16.958 -27.391 -14.469  1.00  0.00     0.108 A 
HETATM    9 CL2  UNL     1     -17.754 -28.231 -15.804  1.00  0.00    -0.078 Cl
ENDROOT
BRANCH   1  10
HETATM   10  N1  UNL     1     -15.252 -28.851 -14.465  1.00  0.00    -0.385 NA
BRANCH  10  11
HETATM   11  C3  UNL     1     -14.702 -29.914 -15.008  1.00  0.00     0.111 A 
HETATM   12  C2  UNL     1     -13.513 -30.426 -14.423  1.00  0.00     0.069 A 
HETATM   13  C1  UNL     1     -12.898 -31.528 -14.948  1.00  0.00     0.043 A 
HETATM   14 CL1  UNL     1     -11.422 -32.159 -14.206  1.00  0.00    -0.084 Cl
HETATM   15  C19 UNL     1     -13.392 -32.188 -16.050  1.00  0.00    -0.035 A 
HETATM   16  C18 UNL     1     -14.542 -31.719 -16.637  1.00  0.00     0.012 A 
HETATM   17  C17 UNL     1     -15.172 -30.614 -16.123  1.00  0.00     0.045 A 
BRANCH  15  18
HETATM   18  C20 UNL     1     -12.656 -33.375 -16.558  1.00  0.00     0.070 C 
BRANCH  18  19
HETATM   19  C21 UNL     1     -12.106 -33.123 -17.936  1.00  0.00     0.277 C 
BRANCH  19  20
HETATM   20  N6  UNL     1     -11.738 -34.392 -18.532  1.00  0.00     0.088 N 
HETATM   21  C22 UNL     1     -12.378 -34.630 -19.815  1.00  0.00     0.272 C 
HETATM   22  C23 UNL     1     -12.152 -33.509 -20.778  1.00  0.00     0.030 C 
HETATM   23  C24 UNL     1     -10.735 -33.066 -20.898  1.00  0.00     0.003 C 
HETATM   24  C25 UNL     1      -9.896 -33.235 -19.664  1.00  0.00     0.030 C 
HETATM   25  C26 UNL     1     -10.298 -34.415 -18.809  1.00  0.00     0.272 C 
ENDBRANCH  19  20
ENDBRANCH  18  19
ENDBRANCH  15  18
ENDBRANCH  10  11
ENDBRANCH   1  10
BRANCH   4  26
HETATM   26  N3  UNL     1     -15.089 -25.568 -11.413  1.00  0.00    -0.226 N 
ATOM     27  H3  UNL     1     -14.764 -26.122 -10.620  1.00  0.00     0.177 HD
BRANCH  26  28
HETATM   28  C6  UNL     1     -14.859 -24.115 -11.457  1.00  0.00     0.138 C 
BRANCH  28  29
HETATM   29  C7  UNL     1     -13.858 -23.848 -12.546  1.00  0.00     0.022 C 
BRANCH  29  30
HETATM   30  C8  UNL     1     -13.701 -22.376 -12.882  1.00  0.00     0.032 C 
BRANCH  30  31
HETATM   31  C9  UNL     1     -12.730 -21.755 -11.884  1.00  0.00     0.272 C 
BRANCH  31  32
HETATM   32  N4  UNL     1     -11.647 -21.142 -12.604  1.00  0.00     0.088 N 
HETATM   33  C10 UNL     1     -11.316 -21.963 -13.771  1.00  0.00     0.272 C 
HETATM   34  C11 UNL     1     -10.067 -21.408 -14.386  1.00  0.00     0.030 C 
HETATM   35  C12 UNL     1     -10.202 -19.932 -14.700  1.00  0.00     0.003 C 
HETATM   36  C13 UNL     1     -11.647 -19.560 -14.479  1.00  0.00     0.030 C 
HETATM   37  C14 UNL     1     -11.975 -19.785 -13.016  1.00  0.00     0.272 C 
ENDBRANCH  31  32
ENDBRANCH  30  31
ENDBRANCH  29  30
ENDBRANCH  28  29
ENDBRANCH  26  28
ENDBRANCH   4  26
TORSDOF 11
ENDMDL
MODEL 3
REMARK VINA RESULT: -7.985463465      2.674      3.867
REMARK  11 active torsions:
REMARK  status: ('A' for Active; 'I' for Inactive)
REMARK    1  A    between atoms: C3_4  and  N1_5 
REMARK    2  A    between atoms: N1_5  and  C4_6 
REMARK    3  A    between atoms: C5_9  and  N3_10 
REMARK    4  A    between atoms: N3_10  and  C6_12 
REMARK    5  A    between atoms: C6_12  and  C7_13 
REMARK    6  A    between atoms: C7_13  and  C8_14 
REMARK    7  A    between atoms: C8_14  and  C9_15 
REMARK    8  A    between atoms: C9_15  and  N4_16 
REMARK    9  A    between atoms: C19_29  and  C20_30 
REMARK   10  A    between atoms: C20_30  and  C21_31 
REMARK   11  A    between atoms: C21_31  and  N6_32 
ROOT
HETATM    1  C4  UNL     1     -15.297 -26.373 -10.975  1.00  0.00     0.217 A 
HETATM    2  N2  UNL     1     -15.024 -25.055 -11.248  1.00  0.00    -0.163 N 
ATOM      3  H2  UNL     1     -14.725 -24.796 -12.188  1.00  0.00     0.187 HD
HETATM    4  C5  UNL     1     -15.139 -24.101 -10.319  1.00  0.00     0.680 A 
HETATM    5  N5  UNL     1     -15.525 -24.436  -9.092  1.00  0.00    -0.200 N 
ATOM      6  H5  UNL     1     -15.605 -23.698  -8.393  1.00  0.00     0.183 HD
HETATM    7  C15 UNL     1     -15.815 -25.700  -8.721  1.00  0.00     0.135 A 
HETATM    8  C16 UNL     1     -15.702 -26.674  -9.661  1.00  0.00     0.108 A 
HETATM    9 CL2  UNL     1     -16.052 -28.357  -9.251  1.00  0.00    -0.078 Cl
ENDROOT
BRANCH   1  10
HETATM   10  N1  UNL     1     -15.248 -27.206 -11.794  1.00  0.00    -0.385 NA
BRANCH  10  11
HETATM   11  C3  UNL     1     -15.197 -28.131 -12.728  1.00  0.00     0.111 A 
HETATM   12  C2  UNL     1     -15.776 -27.839 -13.992  1.00  0.00     0.069 A 
HETATM   13  C1  UNL     1     -15.752 -28.764 -14.998  1.00  0.00     0.043 A 
HETATM   14 CL1  UNL     1     -16.471 -28.386 -16.569  1.00  0.00    -0.084 Cl
HETATM   15  C19 UNL     1     -15.174 -30.003 -14.841  1.00  0.00    -0.035 A 
HETATM   16  C18 UNL     1     -14.603 -30.314 -13.631  1.00  0.00     0.012 A 
HETATM   17  C17 UNL     1     -14.618 -29.398 -12.610  1.00  0.00     0.045 A 
BRANCH  15  18
HETATM   18  C20 UNL     1     -15.199 -30.951 -15.987  1.00  0.00     0.070 C 
BRANCH  18  19
HETATM   19  C21 UNL     1     -14.487 -32.232 -15.645  1.00  0.00     0.277 C 
BRANCH  19  20
HETATM   20  N6  UNL     1     -13.370 -32.401 -16.554  1.00  0.00     0.088 N 
HETATM   21  C22 UNL     1     -12.155 -31.746 -16.097  1.00  0.00     0.272 C 
HETATM   22  C23 UNL     1     -11.776 -32.158 -14.711  1.00  0.00     0.030 C 
HETATM   23  C24 UNL     1     -11.779 -33.628 -14.473  1.00  0.00     0.003 C 
HETATM   24  C25 UNL     1     -12.758 -34.416 -15.296  1.00  0.00     0.030 C 
HETATM   25  C26 UNL     1     -13.025 -33.823 -16.661  1.00  0.00     0.272 C 
ENDBRANCH  19  20
ENDBRANCH  18  19
ENDBRANCH  15  18
ENDBRANCH  10  11
ENDBRANCH   1  10
BRANCH   4  26
HETATM   26  N3  UNL     1     -14.851 -22.880 -10.679  1.00  0.00    -0.226 N 
ATOM     27  H3  UNL     1     -15.277 -22.084 -10.205  1.00  0.00     0.177 HD
BRANCH  26  28
HETATM   28  C6  UNL     1     -13.898 -22.675 -11.782  1.00  0.00     0.138 C 
BRANCH  28  29
HETATM   29  C7  UNL     1     -12.764 -21.842 -11.252  1.00  0.00     0.022 C 
BRANCH  29  30
HETATM   30  C8  UNL     1     -12.301 -20.761 -12.212  1.00  0.00     0.032 C 
BRANCH  30  31
HETATM   31  C9  UNL     1     -12.105 -21.390 -13.587  1.00  0.00     0.272 C 
BRANCH  31  32
HETATM   32  N4  UNL     1     -11.467 -20.434 -14.451  1.00  0.00     0.088 N 
HETATM   33  C10 UNL     1     -11.323 -19.160 -13.743  1.00  0.00     0.272 C 
HETATM   34  C11 UNL     1     -10.840 -18.138 -14.725  1.00  0.00     0.030 C 
HETATM   35  C12 UNL     1      -9.576 -18.587 -15.429  1.00  0.00     0.003 C 
HETATM   36  C13 UNL     1      -9.104 -19.843 -14.739  1.00  0.00     0.030 C 
HETATM   37  C14 UNL     1     -10.171 -20.907 -14.912  1.00  0.00     0.272 C 
ENDBRANCH  31  32
ENDBRANCH  30  31
ENDBRANCH  29  30
ENDBRANCH  28  29
ENDBRANCH  26  28
ENDBRANCH   4  26
TORSDOF 11
ENDMDL
MODEL 4
REMARK VINA RESULT: -7.837518733      3.236      4.786
REMARK  11 active torsions:
REMARK  status: ('A' for Active; 'I' for Inactive)
REMARK    1  A    between atoms: C3_4  and  N1_5 
REMARK    2  A    between atoms: N1_5  and  C4_6 
REMARK    3  A    between atoms: C5_9  and  N3_10 
REMARK    4  A    between atoms: N3_10  and  C6_12 
REMARK    5  A    between atoms: C6_12  and  C7_13 
REMARK    6  A    between atoms: C7_13  and  C8_14 
REMARK    7  A    between atoms: C8_14  and  C9_15 
REMARK    8  A    between atoms: C9_15  and  N4_16 
REMARK    9  A    between atoms: C19_29  and  C20_30 
REMARK   10  A    between atoms: C20_30  and  C21_31 
REMARK   11  A    between atoms: C21_31  and  N6_32 
ROOT
HETATM    1  C4  UNL     1     -16.912 -24.831 -12.602  1.00  0.00     0.217 A 
HETATM    2  N2  UNL     1     -16.210 -24.420 -11.496  1.00  0.00    -0.163 N 
ATOM      3  H2  UNL     1     -15.440 -24.996 -11.157  1.00  0.00     0.187 HD
HETATM    4  C5  UNL     1     -16.505 -23.288 -10.851  1.00  0.00     0.680 A 
HETATM    5  N5  UNL     1     -17.511 -22.537 -11.289  1.00  0.00    -0.200 N 
ATOM      6  H5  UNL     1     -17.727 -21.677 -10.785  1.00  0.00     0.183 HD
HETATM    7  C15 UNL     1     -18.263 -22.852 -12.364  1.00  0.00     0.135 A 
HETATM    8  C16 UNL     1     -17.967 -24.001 -13.025  1.00  0.00     0.108 A 
HETATM    9 CL2  UNL     1     -18.912 -24.490 -14.436  1.00  0.00    -0.078 Cl
ENDROOT
BRANCH   1  10
HETATM   10  N1  UNL     1     -16.628 -25.794 -13.203  1.00  0.00    -0.385 NA
BRANCH  10  11
HETATM   11  C3  UNL     1     -16.292 -26.874 -13.873  1.00  0.00     0.111 A 
HETATM   12  C2  UNL     1     -17.251 -27.442 -14.755  1.00  0.00     0.069 A 
HETATM   13  C1  UNL     1     -16.955 -28.566 -15.474  1.00  0.00     0.043 A 
HETATM   14 CL1  UNL     1     -18.156 -29.258 -16.573  1.00  0.00    -0.084 Cl
HETATM   15  C19 UNL     1     -15.734 -29.193 -15.385  1.00  0.00    -0.035 A 
HETATM   16  C18 UNL     1     -14.783 -28.667 -14.543  1.00  0.00     0.012 A 
HETATM   17  C17 UNL     1     -15.064 -27.539 -13.813  1.00  0.00     0.045 A 
BRANCH  15  18
HETATM   18  C20 UNL     1     -15.499 -30.415 -16.199  1.00  0.00     0.070 C 
BRANCH  18  19
HETATM   19  C21 UNL     1     -14.892 -31.512 -15.367  1.00  0.00     0.277 C 
BRANCH  19  20
HETATM   20  N6  UNL     1     -13.906 -32.212 -16.167  1.00  0.00     0.088 N 
HETATM   21  C22 UNL     1     -12.615 -31.545 -16.199  1.00  0.00     0.272 C 
HETATM   22  C23 UNL     1     -12.085 -31.269 -14.828  1.00  0.00     0.030 C 
HETATM   23  C24 UNL     1     -12.126 -32.431 -13.898  1.00  0.00     0.003 C 
HETATM   24  C25 UNL     1     -13.235 -33.415 -14.137  1.00  0.00     0.030 C 
HETATM   25  C26 UNL     1     -13.642 -33.535 -15.588  1.00  0.00     0.272 C 
ENDBRANCH  19  20
ENDBRANCH  18  19
ENDBRANCH  15  18
ENDBRANCH  10  11
ENDBRANCH   1  10
BRANCH   4  26
HETATM   26  N3  UNL     1     -15.780 -22.989  -9.808  1.00  0.00    -0.226 N 
ATOM     27  H3  UNL     1     -15.853 -23.537  -8.950  1.00  0.00     0.177 HD
BRANCH  26  28
HETATM   28  C6  UNL     1     -14.857 -21.847  -9.892  1.00  0.00     0.138 C 
BRANCH  28  29
HETATM   29  C7  UNL     1     -13.585 -22.337 -10.526  1.00  0.00     0.022 C 
BRANCH  29  30
HETATM   30  C8  UNL     1     -13.045 -21.414 -11.602  1.00  0.00     0.032 C 
BRANCH  30  31
HETATM   31  C9  UNL     1     -12.733 -22.249 -12.840  1.00  0.00     0.272 C 
BRANCH  31  32
HETATM   32  N4  UNL     1     -12.098 -21.411 -13.821  1.00  0.00     0.088 N 
HETATM   33  C10 UNL     1     -11.812 -20.103 -13.228  1.00  0.00     0.272 C 
HETATM   34  C11 UNL     1     -11.335 -19.195 -14.321  1.00  0.00     0.030 C 
HETATM   35  C12 UNL     1     -10.163 -19.790 -15.075  1.00  0.00     0.003 C 
HETATM   36  C13 UNL     1      -9.728 -21.023 -14.322  1.00  0.00     0.030 C 
HETATM   37  C14 UNL     1     -10.876 -22.013 -14.334  1.00  0.00     0.272 C 
ENDBRANCH  31  32
ENDBRANCH  30  31
ENDBRANCH  29  30
ENDBRANCH  28  29
ENDBRANCH  26  28
ENDBRANCH   4  26
TORSDOF 11
ENDMDL
MODEL 5
REMARK VINA RESULT: -7.718828006      2.525      3.699
REMARK  11 active torsions:
REMARK  status: ('A' for Active; 'I' for Inactive)
REMARK    1  A    between atoms: C3_4  and  N1_5 
REMARK    2  A    between atoms: N1_5  and  C4_6 
REMARK    3  A    between atoms: C5_9  and  N3_10 
REMARK    4  A    between atoms: N3_10  and  C6_12 
REMARK    5  A    between atoms: C6_12  and  C7_13 
REMARK    6  A    between atoms: C7_13  and  C8_14 
REMARK    7  A    between atoms: C8_14  and  C9_15 
REMARK    8  A    between atoms: C9_15  and  N4_16 
REMARK    9  A    between atoms: C19_29  and  C20_30 
REMARK   10  A    between atoms: C20_30  and  C21_31 
REMARK   11  A    between atoms: C21_31  and  N6_32 
ROOT
HETATM    1  C4  UNL     1     -16.531 -26.431 -13.523  1.00  0.00     0.217 A 
HETATM    2  N2  UNL     1     -15.743 -25.621 -12.742  1.00  0.00    -0.163 N 
ATOM      3  H2  UNL     1     -14.773 -25.887 -12.575  1.00  0.00     0.187 HD
HETATM    4  C5  UNL     1     -16.210 -24.495 -12.195  1.00  0.00     0.680 A 
HETATM    5  N5  UNL     1     -17.476 -24.148 -12.408  1.00  0.00    -0.200 N 
ATOM      6  H5  UNL     1     -17.818 -23.287 -11.982  1.00  0.00     0.183 HD
HETATM    7  C15 UNL     1     -18.331 -24.873 -13.157  1.00  0.00     0.135 A 
HETATM    8  C16 UNL     1     -17.863 -26.018 -13.717  1.00  0.00     0.108 A 
HETATM    9 CL2  UNL     1     -18.924 -27.031 -14.702  1.00  0.00    -0.078 Cl
ENDROOT
BRANCH   1  10
HETATM   10  N1  UNL     1     -16.118 -27.391 -14.047  1.00  0.00    -0.385 NA
BRANCH  10  11
HETATM   11  C3  UNL     1     -15.647 -28.477 -14.620  1.00  0.00     0.111 A 
HETATM   12  C2  UNL     1     -14.287 -28.819 -14.393  1.00  0.00     0.069 A 
HETATM   13  C1  UNL     1     -13.745 -29.935 -14.965  1.00  0.00     0.043 A 
HETATM   14 CL1  UNL     1     -12.052 -30.352 -14.669  1.00  0.00    -0.084 Cl
HETATM   15  C19 UNL     1     -14.477 -30.773 -15.775  1.00  0.00    -0.035 A 
HETATM   16  C18 UNL     1     -15.797 -30.471 -16.013  1.00  0.00     0.012 A 
HETATM   17  C17 UNL     1     -16.356 -29.354 -15.446  1.00  0.00     0.045 A 
BRANCH  15  18
HETATM   18  C20 UNL     1     -13.806 -31.963 -16.362  1.00  0.00     0.070 C 
BRANCH  18  19
HETATM   19  C21 UNL     1     -13.885 -33.142 -15.431  1.00  0.00     0.277 C 
BRANCH  19  20
HETATM   20  N6  UNL     1     -13.102 -34.228 -15.988  1.00  0.00     0.088 N 
HETATM   21  C22 UNL     1     -11.668 -34.010 -15.893  1.00  0.00     0.272 C 
HETATM   22  C23 UNL     1     -11.232 -33.707 -14.495  1.00  0.00     0.030 C 
HETATM   23  C24 UNL     1     -11.757 -34.642 -13.461  1.00  0.00     0.003 C 
HETATM   24  C25 UNL     1     -13.095 -35.256 -13.761  1.00  0.00     0.030 C 
HETATM   25  C26 UNL     1     -13.355 -35.463 -15.236  1.00  0.00     0.272 C 
ENDBRANCH  19  20
ENDBRANCH  18  19
ENDBRANCH  15  18
ENDBRANCH  10  11
ENDBRANCH   1  10
BRANCH   4  26
HETATM   26  N3  UNL     1     -15.381 -23.798 -11.465  1.00  0.00    -0.226 N 
ATOM     27  H3  UNL     1     -15.542 -23.680 -10.465  1.00  0.00     0.177 HD
BRANCH  26  28
HETATM   28  C6  UNL     1     -14.210 -23.187 -12.114  1.00  0.00     0.138 C 
BRANCH  28  29
HETATM   29  C7  UNL     1     -13.658 -22.153 -11.172  1.00  0.00     0.022 C 
BRANCH  29  30
HETATM   30  C8  UNL     1     -12.469 -21.394 -11.730  1.00  0.00     0.032 C 
BRANCH  30  31
HETATM   31  C9  UNL     1     -12.009 -22.091 -13.006  1.00  0.00     0.272 C 
BRANCH  31  32
HETATM   32  N4  UNL     1     -11.651 -21.094 -13.979  1.00  0.00     0.088 N 
HETATM   33  C10 UNL     1     -11.529 -19.793 -13.318  1.00  0.00     0.272 C 
HETATM   34  C11 UNL     1     -11.352 -18.751 -14.379  1.00  0.00     0.030 C 
HETATM   35  C12 UNL     1     -10.192 -19.075 -15.299  1.00  0.00     0.003 C 
HETATM   36  C13 UNL     1      -9.462 -20.250 -14.698  1.00  0.00     0.030 C 
HETATM   37  C14 UNL     1     -10.413 -21.431 -14.666  1.00  0.00     0.272 C 
ENDBRANCH  31  32
ENDBRANCH  30  31
ENDBRANCH  29  30
ENDBRANCH  28  29
ENDBRANCH  26  28
ENDBRANCH   4  26
TORSDOF 11
ENDMDL
