MODEL 1
REMARK VINA RESULT: -8.380079895      0.000      0.000
REMARK  9 active torsions:
REMARK  status: ('A' for Active; 'I' for Inactive)
REMARK    1  A    between atoms: C1_2  and  C2_3 
REMARK    2  A    between atoms: C2_3  and  C3_4 
REMARK    3  A    between atoms: C3_4  and  N1_5 
REMARK    4  A    between atoms: C8_15  and  C9_16 
REMARK    5  A    between atoms: C13_24  and  C14_25 
REMARK    6  A    between atoms: C14_25  and  C15_26 
REMARK    7  A    between atoms: C14_25  and  C16_28 
REMARK    8  A    between atoms: C16_28  and  C17_29 
REMARK    9  A    between atoms: C17_29  and  N6_30 
ROOT
HETATM    1  C9  UNL     1     -16.058 -26.819 -12.131  1.00  0.00     0.089 A 
HETATM    2  N4  UNL     1     -17.238 -27.147 -12.734  1.00  0.00    -0.297 N 
ATOM      3  H4  UNL     1     -17.670 -28.070 -12.686  1.00  0.00     0.187 HD
HETATM    4  N5  UNL     1     -17.745 -26.128 -13.380  1.00  0.00    -0.299 N 
ATOM      5  H5  UNL     1     -18.619 -26.139 -13.905  1.00  0.00     0.187 HD
HETATM    6  C10 UNL     1     -16.945 -25.083 -13.248  1.00  0.00     0.060 A 
HETATM    7  C11 UNL     1     -16.992 -23.803 -13.703  1.00  0.00     0.032 A 
HETATM    8  C12 UNL     1     -15.993 -22.905 -13.400  1.00  0.00     0.010 A 
HETATM    9  C13 UNL     1     -14.910 -23.282 -12.620  1.00  0.00    -0.052 A 
HETATM   10  C22 UNL     1     -14.907 -24.599 -12.179  1.00  0.00     0.023 A 
HETATM   11  C23 UNL     1     -15.870 -25.510 -12.456  1.00  0.00     0.023 A 
ENDROOT
BRANCH   1  12
HETATM   12  C8  UNL     1     -15.234 -27.707 -11.335  1.00  0.00     0.091 A 
HETATM   13  N3  UNL     1     -14.902 -27.673 -10.048  1.00  0.00    -0.297 N 
HETATM   14  N2  UNL     1     -14.114 -28.717  -9.753  1.00  0.00    -0.299 N 
ATOM     15  H3  UNL     1     -15.201 -26.960  -9.384  1.00  0.00     0.187 HD
HETATM   16  C7  UNL     1     -13.921 -29.452 -10.849  1.00  0.00     0.063 A 
ATOM     17  H2  UNL     1     -13.724 -28.918  -8.833  1.00  0.00     0.187 HD
HETATM   18  C6  UNL     1     -13.271 -30.636 -11.396  1.00  0.00     0.034 A 
HETATM   19  C24 UNL     1     -14.614 -28.846 -11.879  1.00  0.00     0.049 A 
HETATM   20  C5  UNL     1     -13.529 -30.771 -12.659  1.00  0.00     0.032 A 
HETATM   21  C4  UNL     1     -14.399 -29.647 -13.057  1.00  0.00     0.043 A 
HETATM   22  N1  UNL     1     -14.860 -29.451 -14.245  1.00  0.00    -0.389 N 
ATOM     23  H1  UNL     1     -15.454 -28.637 -14.409  1.00  0.00     0.159 HD
BRANCH  22  24
HETATM   24  C3  UNL     1     -14.574 -30.326 -15.349  1.00  0.00     0.122 C 
BRANCH  24  25
HETATM   25  C2  UNL     1     -15.738 -30.354 -16.285  1.00  0.00     0.051 C 
BRANCH  25  26
HETATM   26  C1  UNL     1     -16.579 -29.086 -16.175  1.00  0.00     0.224 C 
HETATM   27  F1  UNL     1     -16.641 -28.431 -17.370  1.00  0.00    -0.255 F 
ENDBRANCH  25  26
ENDBRANCH  24  25
ENDBRANCH  22  24
ENDBRANCH   1  12
BRANCH   9  28
HETATM   28  C14 UNL     1     -13.823 -22.349 -12.270  1.00  0.00     0.030 C 
BRANCH  28  29
HETATM   29  C15 UNL     1     -13.597 -22.401 -10.788  1.00  0.00     0.094 C 
HETATM   30 BR1  UNL     1     -15.152 -21.788  -9.806  1.00  0.00    -0.096 Br
ENDBRANCH  28  29
BRANCH  28  31
HETATM   31  C16 UNL     1     -12.594 -22.475 -13.092  1.00  0.00     0.040 C 
BRANCH  31  32
HETATM   32  C17 UNL     1     -11.554 -21.434 -12.927  1.00  0.00     0.273 C 
BRANCH  32  33
HETATM   33  N6  UNL     1     -11.163 -20.830 -14.196  1.00  0.00     0.088 N 
HETATM   34  C18 UNL     1      -9.806 -21.036 -14.529  1.00  0.00     0.272 C 
HETATM   35  C19 UNL     1      -9.259 -19.799 -15.128  1.00  0.00     0.032 C 
HETATM   36  C20 UNL     1     -10.385 -18.805 -15.090  1.00  0.00     0.032 C 
HETATM   37  C21 UNL     1     -11.355 -19.413 -14.087  1.00  0.00     0.272 C 
ENDBRANCH  32  33
ENDBRANCH  31  32
ENDBRANCH  28  31
ENDBRANCH   9  28
TORSDOF 9
ENDMDL
MODEL 2
REMARK VINA RESULT: -8.232306574      1.319      1.471
REMARK  9 active torsions:
REMARK  status: ('A' for Active; 'I' for Inactive)
REMARK    1  A    between atoms: C1_2  and  C2_3 
REMARK    2  A    between atoms: C2_3  and  C3_4 
REMARK    3  A    between atoms: C3_4  and  N1_5 
REMARK    4  A    between atoms: C8_15  and  C9_16 
REMARK    5  A    between atoms: C13_24  and  C14_25 
REMARK    6  A    between atoms: C14_25  and  C15_26 
REMARK    7  A    between atoms: C14_25  and  C16_28 
REMARK    8  A    between atoms: C16_28  and  C17_29 
REMARK    9  A    between atoms: C17_29  and  N6_30 
ROOT
HETATM    1  C9  UNL     1     -16.065 -26.612 -11.711  1.00  0.00     0.089 A 
HETATM    2  N4  UNL     1     -17.218 -27.004 -12.329  1.00  0.00    -0.297 N 
ATOM      3  H4  UNL     1     -17.669 -27.907 -12.182  1.00  0.00     0.187 HD
HETATM    4  N5  UNL     1     -17.670 -26.076 -13.132  1.00  0.00    -0.299 N 
ATOM      5  H5  UNL     1     -18.516 -26.146 -13.698  1.00  0.00     0.187 HD
HETATM    6  C10 UNL     1     -16.859 -25.032 -13.097  1.00  0.00     0.060 A 
HETATM    7  C11 UNL     1     -16.858 -23.823 -13.720  1.00  0.00     0.032 A 
HETATM    8  C12 UNL     1     -15.860 -22.905 -13.485  1.00  0.00     0.010 A 
HETATM    9  C13 UNL     1     -14.826 -23.186 -12.604  1.00  0.00    -0.052 A 
HETATM   10  C22 UNL     1     -14.872 -24.432 -11.992  1.00  0.00     0.023 A 
HETATM   11  C23 UNL     1     -15.836 -25.361 -12.197  1.00  0.00     0.023 A 
ENDROOT
BRANCH   1  12
HETATM   12  C8  UNL     1     -15.301 -27.395 -10.761  1.00  0.00     0.091 A 
HETATM   13  N3  UNL     1     -14.948 -27.144  -9.504  1.00  0.00    -0.297 N 
HETATM   14  N2  UNL     1     -14.240 -28.171  -9.015  1.00  0.00    -0.299 N 
ATOM     15  H3  UNL     1     -15.181 -26.296  -8.988  1.00  0.00     0.187 HD
HETATM   16  C7  UNL     1     -14.120 -29.114  -9.951  1.00  0.00     0.063 A 
ATOM     17  H2  UNL     1     -13.853 -28.224  -8.074  1.00  0.00     0.187 HD
HETATM   18  C6  UNL     1     -13.572 -30.427 -10.262  1.00  0.00     0.034 A 
HETATM   19  C24 UNL     1     -14.779 -28.662 -11.078  1.00  0.00     0.049 A 
HETATM   20  C5  UNL     1     -13.858 -30.779 -11.476  1.00  0.00     0.032 A 
HETATM   21  C4  UNL     1     -14.644 -29.686 -12.081  1.00  0.00     0.043 A 
HETATM   22  N1  UNL     1     -15.105 -29.683 -13.285  1.00  0.00    -0.389 N 
ATOM     23  H1  UNL     1     -15.637 -28.872 -13.601  1.00  0.00     0.159 HD
BRANCH  22  24
HETATM   24  C3  UNL     1     -14.905 -30.773 -14.202  1.00  0.00     0.122 C 
BRANCH  24  25
HETATM   25  C2  UNL     1     -14.000 -30.341 -15.309  1.00  0.00     0.051 C 
BRANCH  25  26
HETATM   26  C1  UNL     1     -12.548 -30.715 -15.025  1.00  0.00     0.224 C 
HETATM   27  F1  UNL     1     -11.961 -29.812 -14.187  1.00  0.00    -0.255 F 
ENDBRANCH  25  26
ENDBRANCH  24  25
ENDBRANCH  22  24
ENDBRANCH   1  12
BRANCH   9  28
HETATM   28  C14 UNL     1     -13.743 -22.227 -12.322  1.00  0.00     0.030 C 
BRANCH  28  29
HETATM   29  C15 UNL     1     -13.483 -22.207 -10.845  1.00  0.00     0.094 C 
HETATM   30 BR1  UNL     1     -15.070 -21.709  -9.848  1.00  0.00    -0.096 Br
ENDBRANCH  28  29
BRANCH  28  31
HETATM   31  C16 UNL     1     -12.531 -22.380 -13.165  1.00  0.00     0.040 C 
BRANCH  31  32
HETATM   32  C17 UNL     1     -11.454 -21.376 -12.999  1.00  0.00     0.273 C 
BRANCH  32  33
HETATM   33  N6  UNL     1     -11.090 -20.736 -14.258  1.00  0.00     0.088 N 
HETATM   34  C18 UNL     1      -9.737 -20.923 -14.619  1.00  0.00     0.272 C 
HETATM   35  C19 UNL     1      -9.209 -19.667 -15.194  1.00  0.00     0.032 C 
HETATM   36  C20 UNL     1     -10.340 -18.682 -15.110  1.00  0.00     0.032 C 
HETATM   37  C21 UNL     1     -11.289 -19.324 -14.107  1.00  0.00     0.272 C 
ENDBRANCH  32  33
ENDBRANCH  31  32
ENDBRANCH  28  31
ENDBRANCH   9  28
TORSDOF 9
ENDMDL
MODEL 3
REMARK VINA RESULT: -7.956007372      2.209      3.640
REMARK  9 active torsions:
REMARK  status: ('A' for Active; 'I' for Inactive)
REMARK    1  A    between atoms: C1_2  and  C2_3 
REMARK    2  A    between atoms: C2_3  and  C3_4 
REMARK    3  A    between atoms: C3_4  and  N1_5 
REMARK    4  A    between atoms: C8_15  and  C9_16 
REMARK    5  A    between atoms: C13_24  and  C14_25 
REMARK    6  A    between atoms: C14_25  and  C15_26 
REMARK    7  A    between atoms: C14_25  and  C16_28 
REMARK    8  A    between atoms: C16_28  and  C17_29 
REMARK    9  A    between atoms: C17_29  and  N6_30 
ROOT
HETATM    1  C9  UNL     1     -16.071 -27.371 -12.827  1.00  0.00     0.089 A 
HETATM    2  N4  UNL     1     -17.244 -27.667 -13.458  1.00  0.00    -0.297 N 
ATOM      3  H4  UNL     1     -17.599 -28.613 -13.596  1.00  0.00     0.187 HD
HETATM    4  N5  UNL     1     -17.856 -26.584 -13.865  1.00  0.00    -0.299 N 
ATOM      5  H5  UNL     1     -18.747 -26.560 -14.360  1.00  0.00     0.187 HD
HETATM    6  C10 UNL     1     -17.137 -25.524 -13.533  1.00  0.00     0.060 A 
HETATM    7  C11 UNL     1     -17.305 -24.186 -13.707  1.00  0.00     0.032 A 
HETATM    8  C12 UNL     1     -16.369 -23.288 -13.245  1.00  0.00     0.010 A 
HETATM    9  C13 UNL     1     -15.229 -23.724 -12.586  1.00  0.00    -0.052 A 
HETATM   10  C22 UNL     1     -15.103 -25.098 -12.432  1.00  0.00     0.023 A 
HETATM   11  C23 UNL     1     -16.001 -26.011 -12.873  1.00  0.00     0.023 A 
ENDROOT
BRANCH   1  12
HETATM   12  C8  UNL     1     -15.148 -28.330 -12.255  1.00  0.00     0.091 A 
HETATM   13  N3  UNL     1     -14.405 -29.275 -12.823  1.00  0.00    -0.297 N 
HETATM   14  N2  UNL     1     -13.696 -29.922 -11.887  1.00  0.00    -0.299 N 
ATOM     15  H3  UNL     1     -14.378 -29.478 -13.822  1.00  0.00     0.187 HD
HETATM   16  C7  UNL     1     -13.967 -29.406 -10.688  1.00  0.00     0.063 A 
ATOM     17  H2  UNL     1     -13.050 -30.690 -12.065  1.00  0.00     0.187 HD
HETATM   18  C6  UNL     1     -13.683 -29.483  -9.261  1.00  0.00     0.034 A 
HETATM   19  C24 UNL     1     -14.886 -28.392 -10.874  1.00  0.00     0.049 A 
HETATM   20  C5  UNL     1     -14.360 -28.597  -8.601  1.00  0.00     0.032 A 
HETATM   21  C4  UNL     1     -15.171 -27.841  -9.575  1.00  0.00     0.043 A 
HETATM   22  N1  UNL     1     -15.973 -26.875  -9.281  1.00  0.00    -0.389 N 
ATOM     23  H1  UNL     1     -16.487 -26.421 -10.036  1.00  0.00     0.159 HD
BRANCH  22  24
HETATM   24  C3  UNL     1     -16.176 -26.409  -7.936  1.00  0.00     0.122 C 
BRANCH  24  25
HETATM   25  C2  UNL     1     -16.445 -24.940  -7.945  1.00  0.00     0.051 C 
BRANCH  25  26
HETATM   26  C1  UNL     1     -17.699 -24.603  -8.748  1.00  0.00     0.224 C 
HETATM   27  F1  UNL     1     -17.381 -24.225 -10.021  1.00  0.00    -0.255 F 
ENDBRANCH  25  26
ENDBRANCH  24  25
ENDBRANCH  22  24
ENDBRANCH   1  12
BRANCH   9  28
HETATM   28  C14 UNL     1     -14.207 -22.793 -12.071  1.00  0.00     0.030 C 
BRANCH  28  29
HETATM   29  C15 UNL     1     -14.120 -22.943 -10.581  1.00  0.00     0.094 C 
HETATM   30 BR1  UNL     1     -15.246 -21.655  -9.667  1.00  0.00    -0.096 Br
ENDBRANCH  28  29
BRANCH  28  31
HETATM   31  C16 UNL     1     -12.903 -22.836 -12.778  1.00  0.00     0.040 C 
BRANCH  31  32
HETATM   32  C17 UNL     1     -12.017 -21.656 -12.645  1.00  0.00     0.273 C 
BRANCH  32  33
HETATM   33  N6  UNL     1     -11.580 -21.138 -13.936  1.00  0.00     0.088 N 
HETATM   34  C18 UNL     1     -10.253 -21.490 -14.270  1.00  0.00     0.272 C 
HETATM   35  C19 UNL     1      -9.591 -20.335 -14.915  1.00  0.00     0.032 C 
HETATM   36  C20 UNL     1     -10.612 -19.233 -14.904  1.00  0.00     0.032 C 
HETATM   37  C21 UNL     1     -11.628 -19.707 -13.875  1.00  0.00     0.272 C 
ENDBRANCH  32  33
ENDBRANCH  31  32
ENDBRANCH  28  31
ENDBRANCH   9  28
TORSDOF 9
ENDMDL
MODEL 4
REMARK VINA RESULT: -7.756651296      2.119      2.967
REMARK  9 active torsions:
REMARK  status: ('A' for Active; 'I' for Inactive)
REMARK    1  A    between atoms: C1_2  and  C2_3 
REMARK    2  A    between atoms: C2_3  and  C3_4 
REMARK    3  A    between atoms: C3_4  and  N1_5 
REMARK    4  A    between atoms: C8_15  and  C9_16 
REMARK    5  A    between atoms: C13_24  and  C14_25 
REMARK    6  A    between atoms: C14_25  and  C15_26 
REMARK    7  A    between atoms: C14_25  and  C16_28 
REMARK    8  A    between atoms: C16_28  and  C17_29 
REMARK    9  A    between atoms: C17_29  and  N6_30 
ROOT
HETATM    1  C9  UNL     1     -15.324 -26.667  -8.796  1.00  0.00     0.089 A 
HETATM    2  N4  UNL     1     -16.042 -26.395  -7.668  1.00  0.00    -0.297 N 
ATOM      3  H4  UNL     1     -16.152 -27.042  -6.887  1.00  0.00     0.187 HD
HETATM    4  N5  UNL     1     -16.573 -25.199  -7.714  1.00  0.00    -0.299 N 
ATOM      5  H5  UNL     1     -17.150 -24.781  -6.984  1.00  0.00     0.187 HD
HETATM    6  C10 UNL     1     -16.244 -24.618  -8.856  1.00  0.00     0.060 A 
HETATM    7  C11 UNL     1     -16.519 -23.404  -9.403  1.00  0.00     0.032 A 
HETATM    8  C12 UNL     1     -16.030 -23.058 -10.643  1.00  0.00     0.010 A 
HETATM    9  C13 UNL     1     -15.241 -23.938 -11.368  1.00  0.00    -0.052 A 
HETATM   10  C22 UNL     1     -14.988 -25.164 -10.767  1.00  0.00     0.023 A 
HETATM   11  C23 UNL     1     -15.451 -25.541  -9.552  1.00  0.00     0.023 A 
ENDROOT
BRANCH   1  12
HETATM   12  C8  UNL     1     -14.608 -27.896  -9.073  1.00  0.00     0.091 A 
HETATM   13  N3  UNL     1     -13.670 -28.537  -8.381  1.00  0.00    -0.297 N 
HETATM   14  N2  UNL     1     -13.301 -29.647  -9.034  1.00  0.00    -0.299 N 
ATOM     15  H3  UNL     1     -13.289 -28.229  -7.487  1.00  0.00     0.187 HD
HETATM   16  C7  UNL     1     -13.996 -29.749 -10.168  1.00  0.00     0.063 A 
ATOM     17  H2  UNL     1     -12.597 -30.312  -8.714  1.00  0.00     0.187 HD
HETATM   18  C6  UNL     1     -14.223 -30.549 -11.364  1.00  0.00     0.034 A 
HETATM   19  C24 UNL     1     -14.839 -28.656 -10.233  1.00  0.00     0.049 A 
HETATM   20  C5  UNL     1     -15.129 -30.014 -12.121  1.00  0.00     0.032 A 
HETATM   21  C4  UNL     1     -15.585 -28.776 -11.459  1.00  0.00     0.043 A 
HETATM   22  N1  UNL     1     -16.484 -27.976 -11.922  1.00  0.00    -0.389 N 
ATOM     23  H1  UNL     1     -16.723 -27.145 -11.380  1.00  0.00     0.159 HD
BRANCH  22  24
HETATM   24  C3  UNL     1     -17.166 -28.202 -13.167  1.00  0.00     0.122 C 
BRANCH  24  25
HETATM   25  C2  UNL     1     -16.522 -27.398 -14.249  1.00  0.00     0.051 C 
BRANCH  25  26
HETATM   26  C1  UNL     1     -15.865 -28.291 -15.298  1.00  0.00     0.224 C 
HETATM   27  F1  UNL     1     -14.505 -28.200 -15.239  1.00  0.00    -0.255 F 
ENDBRANCH  25  26
ENDBRANCH  24  25
ENDBRANCH  22  24
ENDBRANCH   1  12
BRANCH   9  28
HETATM   28  C14 UNL     1     -14.694 -23.602 -12.695  1.00  0.00     0.030 C 
BRANCH  28  29
HETATM   29  C15 UNL     1     -15.671 -22.720 -13.415  1.00  0.00     0.094 C 
HETATM   30 BR1  UNL     1     -17.277 -23.690 -13.909  1.00  0.00    -0.096 Br
ENDBRANCH  28  29
BRANCH  28  31
HETATM   31  C16 UNL     1     -13.295 -23.107 -12.694  1.00  0.00     0.040 C 
BRANCH  31  32
HETATM   32  C17 UNL     1     -13.014 -21.860 -11.944  1.00  0.00     0.273 C 
BRANCH  32  33
HETATM   33  N6  UNL     1     -11.841 -21.157 -12.452  1.00  0.00     0.088 N 
HETATM   34  C18 UNL     1     -12.134 -19.889 -13.003  1.00  0.00     0.272 C 
HETATM   35  C19 UNL     1     -11.315 -19.685 -14.218  1.00  0.00     0.032 C 
HETATM   36  C20 UNL     1     -10.532 -20.955 -14.389  1.00  0.00     0.032 C 
HETATM   37  C21 UNL     1     -11.276 -21.948 -13.506  1.00  0.00     0.272 C 
ENDBRANCH  32  33
ENDBRANCH  31  32
ENDBRANCH  28  31
ENDBRANCH   9  28
TORSDOF 9
ENDMDL
MODEL 5
REMARK VINA RESULT: -7.570140283      1.844      3.813
REMARK  9 active torsions:
REMARK  status: ('A' for Active; 'I' for Inactive)
REMARK    1  A    between atoms: C1_2  and  C2_3 
REMARK    2  A    between atoms: C2_3  and  C3_4 
REMARK    3  A    between atoms: C3_4  and  N1_5 
REMARK    4  A    between atoms: C8_15  and  C9_16 
REMARK    5  A    between atoms: C13_24  and  C14_25 
REMARK    6  A    between atoms: C14_25  and  C15_26 
REMARK    7  A    between atoms: C14_25  and  C16_28 
REMARK    8  A    between atoms: C16_28  and  C17_29 
REMARK    9  A    between atoms: C17_29  and  N6_30 
ROOT
HETATM    1  C9  UNL     1     -15.295 -28.120 -11.794  1.00  0.00     0.089 A 
HETATM    2  N4  UNL     1     -15.614 -28.992 -10.793  1.00  0.00    -0.297 N 
ATOM      3  H4  UNL     1     -15.722 -29.998 -10.921  1.00  0.00     0.187 HD
HETATM    4  N5  UNL     1     -15.765 -28.374  -9.649  1.00  0.00    -0.299 N 
ATOM      5  H5  UNL     1     -16.004 -28.821  -8.764  1.00  0.00     0.187 HD
HETATM    6  C10 UNL     1     -15.559 -27.078  -9.820  1.00  0.00     0.060 A 
HETATM    7  C11 UNL     1     -15.585 -26.006  -8.985  1.00  0.00     0.032 A 
HETATM    8  C12 UNL     1     -15.321 -24.738  -9.450  1.00  0.00     0.010 A 
HETATM    9  C13 UNL     1     -15.020 -24.517 -10.786  1.00  0.00    -0.052 A 
HETATM   10  C22 UNL     1     -15.006 -25.643 -11.599  1.00  0.00     0.023 A 
HETATM   11  C23 UNL     1     -15.259 -26.905 -11.179  1.00  0.00     0.023 A 
ENDROOT
BRANCH   1  12
HETATM   12  C8  UNL     1     -15.059 -28.467 -13.181  1.00  0.00     0.091 A 
HETATM   13  N3  UNL     1     -14.036 -29.081 -13.767  1.00  0.00    -0.297 N 
HETATM   14  N2  UNL     1     -14.261 -29.187 -15.084  1.00  0.00    -0.299 N 
ATOM     15  H3  UNL     1     -13.203 -29.421 -13.286  1.00  0.00     0.187 HD
HETATM   16  C7  UNL     1     -15.442 -28.641 -15.379  1.00  0.00     0.063 A 
ATOM     17  H2  UNL     1     -13.628 -29.618 -15.756  1.00  0.00     0.187 HD
HETATM   18  C6  UNL     1     -16.388 -28.341 -16.445  1.00  0.00     0.034 A 
HETATM   19  C24 UNL     1     -15.984 -28.170 -14.198  1.00  0.00     0.049 A 
HETATM   20  C5  UNL     1     -17.437 -27.736 -15.984  1.00  0.00     0.032 A 
HETATM   21  C4  UNL     1     -17.257 -27.583 -14.527  1.00  0.00     0.043 A 
HETATM   22  N1  UNL     1     -18.103 -27.024 -13.730  1.00  0.00    -0.389 N 
ATOM     23  H1  UNL     1     -17.875 -26.972 -12.737  1.00  0.00     0.159 HD
BRANCH  22  24
HETATM   24  C3  UNL     1     -19.351 -26.471 -14.178  1.00  0.00     0.122 C 
BRANCH  24  25
HETATM   25  C2  UNL     1     -19.401 -25.012 -13.859  1.00  0.00     0.051 C 
BRANCH  25  26
HETATM   26  C1  UNL     1     -18.541 -24.197 -14.821  1.00  0.00     0.224 C 
HETATM   27  F1  UNL     1     -17.307 -23.953 -14.291  1.00  0.00    -0.255 F 
ENDBRANCH  25  26
ENDBRANCH  24  25
ENDBRANCH  22  24
ENDBRANCH   1  12
BRANCH   9  28
HETATM   28  C14 UNL     1     -14.728 -23.175 -11.320  1.00  0.00     0.030 C 
BRANCH  28  29
HETATM   29  C15 UNL     1     -14.377 -22.264 -10.182  1.00  0.00     0.094 C 
HETATM   30 BR1  UNL     1     -15.920 -21.262  -9.568  1.00  0.00    -0.096 Br
ENDBRANCH  28  29
BRANCH  28  31
HETATM   31  C16 UNL     1     -13.775 -23.144 -12.458  1.00  0.00     0.040 C 
BRANCH  31  32
HETATM   32  C17 UNL     1     -12.567 -22.299 -12.313  1.00  0.00     0.273 C 
BRANCH  32  33
HETATM   33  N6  UNL     1     -12.178 -21.662 -13.566  1.00  0.00     0.088 N 
HETATM   34  C18 UNL     1     -10.920 -22.083 -14.051  1.00  0.00     0.272 C 
HETATM   35  C19 UNL     1     -10.198 -20.918 -14.607  1.00  0.00     0.032 C 
HETATM   36  C20 UNL     1     -11.103 -19.741 -14.378  1.00  0.00     0.032 C 
HETATM   37  C21 UNL     1     -12.082 -20.251 -13.330  1.00  0.00     0.272 C 
ENDBRANCH  32  33
ENDBRANCH  31  32
ENDBRANCH  28  31
ENDBRANCH   9  28
TORSDOF 9
ENDMDL
