MODEL 1
REMARK VINA RESULT: -8.176826907      0.000      0.000
REMARK  10 active torsions:
REMARK  status: ('A' for Active; 'I' for Inactive)
REMARK    1  A    between atoms: C2_2  and  C3_5 
REMARK    2  A    between atoms: C3_5  and  C4_6 
REMARK    3  A    between atoms: C3_5  and  N1_12 
REMARK    4  A    between atoms: C4_6  and  C5_7 
REMARK       I    between atoms: N1_12  and  C10_14 
REMARK    5  A    between atoms: C10_14  and  C11_16 
REMARK       I    between atoms: N2_19  and  C14_20 
REMARK    6  A    between atoms: C14_20  and  C15_22 
REMARK    7  A    between atoms: N3_24  and  C17_25 
REMARK    8  A    between atoms: C22_30  and  C23_31 
REMARK    9  A    between atoms: C30_39  and  N4_40 
REMARK   10  A    between atoms: N4_40  and  C31_42 
ROOT
HETATM    1  C11 UNL     1     -16.114 -27.474 -13.019  1.00  0.00     0.103 C 
HETATM    2  C12 UNL     1     -16.052 -27.210 -11.546  1.00  0.00     0.036 C 
HETATM    3  C13 UNL     1     -17.042 -26.256 -10.995  1.00  0.00     0.127 C 
HETATM    4  N2  UNL     1     -17.341 -25.208 -11.934  1.00  0.00    -0.350 N 
HETATM    5  C14 UNL     1     -17.387 -23.835 -11.544  1.00  0.00     0.226 C 
HETATM    6  O2  UNL     1     -17.688 -22.985 -12.417  1.00  0.00    -0.273 OA
HETATM    7  C29 UNL     1     -17.597 -25.593 -13.316  1.00  0.00     0.151 C 
HETATM    8  C30 UNL     1     -17.502 -27.075 -13.512  1.00  0.00     0.108 C 
ENDROOT
BRANCH   5   9
HETATM    9  C15 UNL     1     -17.095 -23.437 -10.198  1.00  0.00     0.116 C 
HETATM   10  C16 UNL     1     -17.107 -21.924  -9.983  1.00  0.00     0.288 C 
HETATM   11  N3  UNL     1     -16.374 -21.734  -8.765  1.00  0.00     0.098 N 
HETATM   12  C21 UNL     1     -15.626 -22.911  -8.510  1.00  0.00     0.283 C 
HETATM   13  C22 UNL     1     -15.633 -23.686  -9.776  1.00  0.00     0.061 C 
BRANCH  11  14
HETATM   14  C17 UNL     1     -17.135 -21.211  -7.684  1.00  0.00     0.149 C 
HETATM   15  C18 UNL     1     -18.424 -20.642  -8.240  1.00  0.00     0.048 C 
HETATM   16  C19 UNL     1     -17.492 -22.208  -6.614  1.00  0.00     0.048 C 
HETATM   17  C20 UNL     1     -16.348 -20.051  -7.083  1.00  0.00     0.048 C 
ENDBRANCH  11  14
BRANCH  13  18
HETATM   18  C23 UNL     1     -14.656 -23.218 -10.761  1.00  0.00    -0.051 A 
HETATM   19  C24 UNL     1     -14.470 -23.793 -11.988  1.00  0.00     0.009 A 
HETATM   20  C25 UNL     1     -13.534 -23.352 -12.909  1.00  0.00     0.024 A 
HETATM   21  C26 UNL     1     -12.756 -22.275 -12.562  1.00  0.00     0.034 A 
HETATM   22 CL2  UNL     1     -11.564 -21.706 -13.725  1.00  0.00    -0.084 Cl
HETATM   23  C27 UNL     1     -12.929 -21.682 -11.331  1.00  0.00     0.024 A 
HETATM   24  C28 UNL     1     -13.854 -22.119 -10.420  1.00  0.00     0.009 A 
ENDBRANCH  13  18
ENDBRANCH   5   9
BRANCH   8  25
HETATM   25  N4  UNL     1     -18.434 -27.909 -12.898  1.00  0.00    -0.411 N 
ATOM     26  H4  UNL     1     -18.357 -28.072 -11.895  1.00  0.00     0.154 HD
BRANCH  25  27
HETATM   27  C31 UNL     1     -19.474 -28.537 -13.603  1.00  0.00     0.077 A 
HETATM   28  C32 UNL     1     -19.312 -29.930 -14.082  1.00  0.00     0.027 A 
HETATM   29  C33 UNL     1     -19.279 -28.739 -15.085  1.00  0.00     0.027 A 
ENDBRANCH  25  27
ENDBRANCH   8  25
BRANCH   1  30
HETATM   30  C10 UNL     1     -15.735 -28.850 -13.298  1.00  0.00     0.224 C 
HETATM   31  N1  UNL     1     -14.943 -29.274 -14.397  1.00  0.00    -0.352 N 
ATOM     32  H1  UNL     1     -14.616 -28.571 -15.060  1.00  0.00     0.163 HD
HETATM   33  O1  UNL     1     -16.124 -29.766 -12.519  1.00  0.00    -0.273 OA
BRANCH  31  34
HETATM   34  C3  UNL     1     -14.573 -30.670 -14.626  1.00  0.00     0.139 C 
BRANCH  34  35
HETATM   35  C2  UNL     1     -15.324 -31.239 -15.798  1.00  0.00     0.195 C 
HETATM   36  C1  UNL     1     -16.451 -32.150 -15.366  1.00  0.00     0.072 C 
HETATM   37  F1  UNL     1     -14.619 -31.790 -16.789  1.00  0.00    -0.224 F 
HETATM   38 CL1  UNL     1     -16.216 -29.860 -16.604  1.00  0.00    -0.081 Cl
ENDBRANCH  34  35
BRANCH  34  39
HETATM   39  C4  UNL     1     -13.142 -30.914 -14.524  1.00  0.00     0.034 C 
BRANCH  39  40
HETATM   40  C5  UNL     1     -12.469 -32.129 -14.221  1.00  0.00    -0.013 C 
HETATM   41  C6  UNL     1     -13.072 -33.315 -13.593  1.00  0.00     0.005 C 
HETATM   42  C7  UNL     1     -11.733 -34.015 -13.189  1.00  0.00     0.000 C 
HETATM   43  C8  UNL     1     -10.915 -33.840 -14.479  1.00  0.00     0.000 C 
HETATM   44  C9  UNL     1     -11.667 -32.808 -15.319  1.00  0.00     0.005 C 
ENDBRANCH  39  40
ENDBRANCH  34  39
ENDBRANCH  31  34
ENDBRANCH   1  30
TORSDOF 10
ENDMDL
MODEL 2
REMARK VINA RESULT: -7.909676629      3.228      9.589
REMARK  10 active torsions:
REMARK  status: ('A' for Active; 'I' for Inactive)
REMARK    1  A    between atoms: C2_2  and  C3_5 
REMARK    2  A    between atoms: C3_5  and  C4_6 
REMARK    3  A    between atoms: C3_5  and  N1_12 
REMARK    4  A    between atoms: C4_6  and  C5_7 
REMARK       I    between atoms: N1_12  and  C10_14 
REMARK    5  A    between atoms: C10_14  and  C11_16 
REMARK       I    between atoms: N2_19  and  C14_20 
REMARK    6  A    between atoms: C14_20  and  C15_22 
REMARK    7  A    between atoms: N3_24  and  C17_25 
REMARK    8  A    between atoms: C22_30  and  C23_31 
REMARK    9  A    between atoms: C30_39  and  N4_40 
REMARK   10  A    between atoms: N4_40  and  C31_42 
ROOT
HETATM    1  C11 UNL     1     -17.201 -26.026 -12.800  1.00  0.00     0.103 C 
HETATM    2  C12 UNL     1     -17.973 -25.977 -14.083  1.00  0.00     0.036 C 
HETATM    3  C13 UNL     1     -19.245 -26.734 -14.128  1.00  0.00     0.127 C 
HETATM    4  N2  UNL     1     -19.169 -27.937 -13.343  1.00  0.00    -0.350 N 
HETATM    5  C14 UNL     1     -19.638 -29.193 -13.836  1.00  0.00     0.226 C 
HETATM    6  O2  UNL     1     -19.566 -30.188 -13.077  1.00  0.00    -0.273 OA
HETATM    7  C29 UNL     1     -18.587 -27.838 -12.010  1.00  0.00     0.151 C 
HETATM    8  C30 UNL     1     -18.161 -26.439 -11.688  1.00  0.00     0.108 C 
ENDROOT
BRANCH   5   9
HETATM    9  C15 UNL     1     -20.174 -29.314 -15.161  1.00  0.00     0.116 C 
HETATM   10  C16 UNL     1     -20.526 -30.747 -15.558  1.00  0.00     0.288 C 
HETATM   11  N3  UNL     1     -20.594 -30.711 -16.990  1.00  0.00     0.098 N 
HETATM   12  C21 UNL     1     -19.930 -29.540 -17.436  1.00  0.00     0.283 C 
HETATM   13  C22 UNL     1     -19.143 -29.046 -16.278  1.00  0.00     0.061 C 
BRANCH  11  14
HETATM   14  C17 UNL     1     -21.883 -30.964 -17.534  1.00  0.00     0.149 C 
HETATM   15  C18 UNL     1     -22.665 -31.796 -16.539  1.00  0.00     0.048 C 
HETATM   16  C19 UNL     1     -22.693 -29.736 -17.852  1.00  0.00     0.048 C 
HETATM   17  C20 UNL     1     -21.697 -31.812 -18.788  1.00  0.00     0.048 C 
ENDBRANCH  11  14
BRANCH  13  18
HETATM   18  C23 UNL     1     -17.876 -29.751 -16.080  1.00  0.00    -0.051 A 
HETATM   19  C24 UNL     1     -17.778 -31.087 -15.800  1.00  0.00     0.009 A 
HETATM   20  C25 UNL     1     -16.574 -31.744 -15.602  1.00  0.00     0.024 A 
HETATM   21  C26 UNL     1     -15.422 -31.004 -15.695  1.00  0.00     0.034 A 
HETATM   22 CL2  UNL     1     -13.887 -31.828 -15.444  1.00  0.00    -0.084 Cl
HETATM   23  C27 UNL     1     -15.499 -29.658 -15.977  1.00  0.00     0.024 A 
HETATM   24  C28 UNL     1     -16.690 -29.008 -16.173  1.00  0.00     0.009 A 
ENDBRANCH  13  18
ENDBRANCH   5   9
BRANCH   8  25
HETATM   25  N4  UNL     1     -19.124 -25.441 -11.558  1.00  0.00    -0.411 N 
ATOM     26  H4  UNL     1     -19.584 -25.094 -12.399  1.00  0.00     0.154 HD
BRANCH  25  27
HETATM   27  C31 UNL     1     -19.489 -24.892 -10.317  1.00  0.00     0.077 A 
HETATM   28  C32 UNL     1     -18.771 -23.708  -9.789  1.00  0.00     0.027 A 
HETATM   29  C33 UNL     1     -18.547 -25.115  -9.161  1.00  0.00     0.027 A 
ENDBRANCH  25  27
ENDBRANCH   8  25
BRANCH   1  30
HETATM   30  C10 UNL     1     -16.512 -24.764 -12.580  1.00  0.00     0.224 C 
HETATM   31  N1  UNL     1     -15.261 -24.618 -11.925  1.00  0.00    -0.352 N 
ATOM     32  H1  UNL     1     -14.803 -25.454 -11.563  1.00  0.00     0.163 HD
HETATM   33  O1  UNL     1     -17.041 -23.695 -12.995  1.00  0.00    -0.273 OA
BRANCH  31  34
HETATM   34  C3  UNL     1     -14.598 -23.327 -11.744  1.00  0.00     0.139 C 
BRANCH  34  35
HETATM   35  C2  UNL     1     -14.482 -22.984 -10.284  1.00  0.00     0.195 C 
HETATM   36  C1  UNL     1     -15.468 -21.916  -9.869  1.00  0.00     0.072 C 
HETATM   37  F1  UNL     1     -13.266 -22.728  -9.794  1.00  0.00    -0.224 F 
HETATM   38 CL1  UNL     1     -15.047 -24.438  -9.329  1.00  0.00    -0.081 Cl
ENDBRANCH  34  35
BRANCH  34  39
HETATM   39  C4  UNL     1     -13.438 -23.147 -12.602  1.00  0.00     0.034 C 
BRANCH  39  40
HETATM   40  C5  UNL     1     -12.738 -21.947 -12.906  1.00  0.00    -0.013 C 
HETATM   41  C6  UNL     1     -12.328 -20.919 -11.938  1.00  0.00     0.005 C 
HETATM   42  C7  UNL     1     -12.047 -19.784 -12.977  1.00  0.00     0.000 C 
HETATM   43  C8  UNL     1     -11.259 -20.560 -14.046  1.00  0.00     0.000 C 
HETATM   44  C9  UNL     1     -11.461 -22.040 -13.727  1.00  0.00     0.005 C 
ENDBRANCH  39  40
ENDBRANCH  34  39
ENDBRANCH  31  34
ENDBRANCH   1  30
TORSDOF 10
ENDMDL
MODEL 3
REMARK VINA RESULT: -7.715156920      3.161      9.445
REMARK  10 active torsions:
REMARK  status: ('A' for Active; 'I' for Inactive)
REMARK    1  A    between atoms: C2_2  and  C3_5 
REMARK    2  A    between atoms: C3_5  and  C4_6 
REMARK    3  A    between atoms: C3_5  and  N1_12 
REMARK    4  A    between atoms: C4_6  and  C5_7 
REMARK       I    between atoms: N1_12  and  C10_14 
REMARK    5  A    between atoms: C10_14  and  C11_16 
REMARK       I    between atoms: N2_19  and  C14_20 
REMARK    6  A    between atoms: C14_20  and  C15_22 
REMARK    7  A    between atoms: N3_24  and  C17_25 
REMARK    8  A    between atoms: C22_30  and  C23_31 
REMARK    9  A    between atoms: C30_39  and  N4_40 
REMARK   10  A    between atoms: N4_40  and  C31_42 
ROOT
HETATM    1  C11 UNL     1     -17.229 -25.740 -11.978  1.00  0.00     0.103 C 
HETATM    2  C12 UNL     1     -18.065 -25.719 -13.221  1.00  0.00     0.036 C 
HETATM    3  C13 UNL     1     -19.134 -26.738 -13.327  1.00  0.00     0.127 C 
HETATM    4  N2  UNL     1     -18.744 -27.975 -12.706  1.00  0.00    -0.350 N 
HETATM    5  C14 UNL     1     -18.947 -29.237 -13.342  1.00  0.00     0.226 C 
HETATM    6  O2  UNL     1     -18.608 -30.273 -12.720  1.00  0.00    -0.273 OA
HETATM    7  C29 UNL     1     -18.123 -27.904 -11.388  1.00  0.00     0.151 C 
HETATM    8  C30 UNL     1     -18.006 -26.493 -10.900  1.00  0.00     0.108 C 
ENDROOT
BRANCH   5   9
HETATM    9  C15 UNL     1     -19.516 -29.321 -14.656  1.00  0.00     0.116 C 
HETATM   10  C16 UNL     1     -19.709 -30.751 -15.158  1.00  0.00     0.288 C 
HETATM   11  N3  UNL     1     -19.839 -30.614 -16.579  1.00  0.00     0.098 N 
HETATM   12  C21 UNL     1     -19.339 -29.339 -16.948  1.00  0.00     0.283 C 
HETATM   13  C22 UNL     1     -18.571 -28.843 -15.778  1.00  0.00     0.061 C 
BRANCH  11  14
HETATM   14  C17 UNL     1     -21.109 -30.980 -17.103  1.00  0.00     0.149 C 
HETATM   15  C18 UNL     1     -21.128 -32.481 -17.302  1.00  0.00     0.048 C 
HETATM   16  C19 UNL     1     -22.285 -30.611 -16.239  1.00  0.00     0.048 C 
HETATM   17  C20 UNL     1     -21.243 -30.337 -18.480  1.00  0.00     0.048 C 
ENDBRANCH  11  14
BRANCH  13  18
HETATM   18  C23 UNL     1     -17.222 -29.400 -15.677  1.00  0.00    -0.051 A 
HETATM   19  C24 UNL     1     -16.900 -30.692 -15.994  1.00  0.00     0.009 A 
HETATM   20  C25 UNL     1     -15.622 -31.215 -15.884  1.00  0.00     0.024 A 
HETATM   21  C26 UNL     1     -14.629 -30.382 -15.431  1.00  0.00     0.034 A 
HETATM   22 CL2  UNL     1     -13.002 -31.036 -15.286  1.00  0.00    -0.084 Cl
HETATM   23  C27 UNL     1     -14.933 -29.078 -15.107  1.00  0.00     0.024 A 
HETATM   24  C28 UNL     1     -16.197 -28.561 -15.215  1.00  0.00     0.009 A 
ENDBRANCH  13  18
ENDBRANCH   5   9
BRANCH   8  25
HETATM   25  N4  UNL     1     -19.160 -25.766 -10.615  1.00  0.00    -0.411 N 
ATOM     26  H4  UNL     1     -19.599 -25.233 -11.366  1.00  0.00     0.154 HD
BRANCH  25  27
HETATM   27  C31 UNL     1     -19.745 -25.737  -9.339  1.00  0.00     0.077 A 
HETATM   28  C32 UNL     1     -19.797 -24.468  -8.575  1.00  0.00     0.027 A 
HETATM   29  C33 UNL     1     -18.816 -25.603  -8.158  1.00  0.00     0.027 A 
ENDBRANCH  25  27
ENDBRANCH   8  25
BRANCH   1  30
HETATM   30  C10 UNL     1     -16.830 -24.389 -11.618  1.00  0.00     0.224 C 
HETATM   31  N1  UNL     1     -16.053 -24.041 -10.482  1.00  0.00    -0.352 N 
ATOM     32  H1  UNL     1     -15.754 -24.785  -9.852  1.00  0.00     0.163 HD
HETATM   33  O1  UNL     1     -17.186 -23.426 -12.354  1.00  0.00    -0.273 OA
BRANCH  31  34
HETATM   34  C3  UNL     1     -15.662 -22.666 -10.171  1.00  0.00     0.139 C 
BRANCH  34  35
HETATM   35  C2  UNL     1     -16.424 -22.147  -8.984  1.00  0.00     0.195 C 
HETATM   36  C1  UNL     1     -15.801 -20.895  -8.408  1.00  0.00     0.072 C 
HETATM   37  F1  UNL     1     -16.744 -23.009  -8.015  1.00  0.00    -0.224 F 
HETATM   38 CL1  UNL     1     -18.042 -21.541  -9.588  1.00  0.00    -0.081 Cl
ENDBRANCH  34  35
BRANCH  34  39
HETATM   39  C4  UNL     1     -14.225 -22.445 -10.233  1.00  0.00     0.034 C 
BRANCH  39  40
HETATM   40  C5  UNL     1     -13.393 -22.342 -11.382  1.00  0.00    -0.013 C 
HETATM   41  C6  UNL     1     -13.830 -22.490 -12.778  1.00  0.00     0.005 C 
HETATM   42  C7  UNL     1     -12.408 -22.692 -13.399  1.00  0.00     0.000 C 
HETATM   43  C8  UNL     1     -11.619 -21.584 -12.681  1.00  0.00     0.000 C 
HETATM   44  C9  UNL     1     -12.504 -21.117 -11.526  1.00  0.00     0.005 C 
ENDBRANCH  39  40
ENDBRANCH  34  39
ENDBRANCH  31  34
ENDBRANCH   1  30
TORSDOF 10
ENDMDL
MODEL 4
REMARK VINA RESULT: -7.697231875      1.369      1.711
REMARK  10 active torsions:
REMARK  status: ('A' for Active; 'I' for Inactive)
REMARK    1  A    between atoms: C2_2  and  C3_5 
REMARK    2  A    between atoms: C3_5  and  C4_6 
REMARK    3  A    between atoms: C3_5  and  N1_12 
REMARK    4  A    between atoms: C4_6  and  C5_7 
REMARK       I    between atoms: N1_12  and  C10_14 
REMARK    5  A    between atoms: C10_14  and  C11_16 
REMARK       I    between atoms: N2_19  and  C14_20 
REMARK    6  A    between atoms: C14_20  and  C15_22 
REMARK    7  A    between atoms: N3_24  and  C17_25 
REMARK    8  A    between atoms: C22_30  and  C23_31 
REMARK    9  A    between atoms: C30_39  and  N4_40 
REMARK   10  A    between atoms: N4_40  and  C31_42 
ROOT
HETATM    1  C11 UNL     1     -16.598 -27.659 -13.274  1.00  0.00     0.103 C 
HETATM    2  C12 UNL     1     -16.618 -27.426 -11.794  1.00  0.00     0.036 C 
HETATM    3  C13 UNL     1     -17.503 -26.347 -11.298  1.00  0.00     0.127 C 
HETATM    4  N2  UNL     1     -17.572 -25.254 -12.231  1.00  0.00    -0.350 N 
HETATM    5  C14 UNL     1     -17.453 -23.894 -11.812  1.00  0.00     0.226 C 
HETATM    6  O2  UNL     1     -17.557 -22.997 -12.683  1.00  0.00    -0.273 OA
HETATM    7  C29 UNL     1     -17.768 -25.579 -13.639  1.00  0.00     0.151 C 
HETATM    8  C30 UNL     1     -17.870 -27.056 -13.863  1.00  0.00     0.108 C 
ENDROOT
BRANCH   5   9
HETATM    9  C15 UNL     1     -17.217 -23.561 -10.437  1.00  0.00     0.116 C 
HETATM   10  C16 UNL     1     -17.221 -22.060 -10.154  1.00  0.00     0.288 C 
HETATM   11  N3  UNL     1     -16.541 -21.934  -8.897  1.00  0.00     0.098 N 
HETATM   12  C21 UNL     1     -15.819 -23.132  -8.663  1.00  0.00     0.283 C 
HETATM   13  C22 UNL     1     -15.778 -23.849  -9.963  1.00  0.00     0.061 C 
BRANCH  11  14
HETATM   14  C17 UNL     1     -17.344 -21.450  -7.828  1.00  0.00     0.149 C 
HETATM   15  C18 UNL     1     -16.604 -20.314  -7.153  1.00  0.00     0.048 C 
HETATM   16  C19 UNL     1     -18.704 -20.947  -8.229  1.00  0.00     0.048 C 
HETATM   17  C20 UNL     1     -17.477 -22.575  -6.806  1.00  0.00     0.048 C 
ENDBRANCH  11  14
BRANCH  13  18
HETATM   18  C23 UNL     1     -14.753 -23.350 -10.881  1.00  0.00    -0.051 A 
HETATM   19  C24 UNL     1     -14.485 -23.903 -12.103  1.00  0.00     0.009 A 
HETATM   20  C25 UNL     1     -13.504 -23.433 -12.961  1.00  0.00     0.024 A 
HETATM   21  C26 UNL     1     -12.766 -22.350 -12.552  1.00  0.00     0.034 A 
HETATM   22 CL2  UNL     1     -11.516 -21.744 -13.634  1.00  0.00    -0.084 Cl
HETATM   23  C27 UNL     1     -13.021 -21.778 -11.325  1.00  0.00     0.024 A 
HETATM   24  C28 UNL     1     -13.991 -22.244 -10.477  1.00  0.00     0.009 A 
ENDBRANCH  13  18
ENDBRANCH   5   9
BRANCH   8  25
HETATM   25  N4  UNL     1     -18.958 -27.755 -13.346  1.00  0.00    -0.411 N 
ATOM     26  H4  UNL     1     -18.840 -28.261 -12.468  1.00  0.00     0.154 HD
BRANCH  25  27
HETATM   27  C31 UNL     1     -20.210 -27.794 -13.981  1.00  0.00     0.077 A 
HETATM   28  C32 UNL     1     -21.101 -28.964 -13.796  1.00  0.00     0.027 A 
HETATM   29  C33 UNL     1     -20.362 -28.738 -15.148  1.00  0.00     0.027 A 
ENDBRANCH  25  27
ENDBRANCH   8  25
BRANCH   1  30
HETATM   30  C10 UNL     1     -16.398 -29.071 -13.557  1.00  0.00     0.224 C 
HETATM   31  N1  UNL     1     -16.794 -29.730 -14.751  1.00  0.00    -0.352 N 
ATOM     32  H1  UNL     1     -17.269 -29.186 -15.471  1.00  0.00     0.163 HD
HETATM   33  O1  UNL     1     -15.828 -29.797 -12.695  1.00  0.00    -0.273 OA
BRANCH  31  34
HETATM   34  C3  UNL     1     -16.554 -31.151 -14.998  1.00  0.00     0.139 C 
BRANCH  34  35
HETATM   35  C2  UNL     1     -17.852 -31.902 -15.112  1.00  0.00     0.195 C 
HETATM   36  C1  UNL     1     -17.641 -33.397 -15.196  1.00  0.00     0.072 C 
HETATM   37  F1  UNL     1     -18.737 -31.493 -16.025  1.00  0.00    -0.224 F 
HETATM   38 CL1  UNL     1     -18.740 -31.716 -13.523  1.00  0.00    -0.081 Cl
ENDBRANCH  34  35
BRANCH  34  39
HETATM   39  C4  UNL     1     -15.511 -31.400 -15.980  1.00  0.00     0.034 C 
BRANCH  39  40
HETATM   40  C5  UNL     1     -14.110 -31.526 -15.773  1.00  0.00    -0.013 C 
HETATM   41  C6  UNL     1     -13.421 -31.462 -14.475  1.00  0.00     0.005 C 
HETATM   42  C7  UNL     1     -11.980 -31.234 -15.038  1.00  0.00     0.000 C 
HETATM   43  C8  UNL     1     -11.944 -32.275 -16.170  1.00  0.00     0.000 C 
HETATM   44  C9  UNL     1     -13.391 -32.721 -16.379  1.00  0.00     0.005 C 
ENDBRANCH  39  40
ENDBRANCH  34  39
ENDBRANCH  31  34
ENDBRANCH   1  30
TORSDOF 10
ENDMDL
MODEL 5
REMARK VINA RESULT: -7.661520304      1.822      2.902
REMARK  10 active torsions:
REMARK  status: ('A' for Active; 'I' for Inactive)
REMARK    1  A    between atoms: C2_2  and  C3_5 
REMARK    2  A    between atoms: C3_5  and  C4_6 
REMARK    3  A    between atoms: C3_5  and  N1_12 
REMARK    4  A    between atoms: C4_6  and  C5_7 
REMARK       I    between atoms: N1_12  and  C10_14 
REMARK    5  A    between atoms: C10_14  and  C11_16 
REMARK       I    between atoms: N2_19  and  C14_20 
REMARK    6  A    between atoms: C14_20  and  C15_22 
REMARK    7  A    between atoms: N3_24  and  C17_25 
REMARK    8  A    between atoms: C22_30  and  C23_31 
REMARK    9  A    between atoms: C30_39  and  N4_40 
REMARK   10  A    between atoms: N4_40  and  C31_42 
ROOT
HETATM    1  C11 UNL     1     -16.147 -27.717 -14.335  1.00  0.00     0.103 C 
HETATM    2  C12 UNL     1     -16.072 -28.031 -12.872  1.00  0.00     0.036 C 
HETATM    3  C13 UNL     1     -17.113 -27.432 -12.006  1.00  0.00     0.127 C 
HETATM    4  N2  UNL     1     -17.503 -26.130 -12.475  1.00  0.00    -0.350 N 
HETATM    5  C14 UNL     1     -17.634 -25.016 -11.591  1.00  0.00     0.226 C 
HETATM    6  O2  UNL     1     -18.011 -23.921 -12.075  1.00  0.00    -0.273 OA
HETATM    7  C29 UNL     1     -17.761 -25.975 -13.902  1.00  0.00     0.151 C 
HETATM    8  C30 UNL     1     -17.570 -27.260 -14.647  1.00  0.00     0.108 C 
ENDROOT
BRANCH   5   9
HETATM    9  C15 UNL     1     -17.342 -25.141 -10.193  1.00  0.00     0.116 C 
HETATM   10  C16 UNL     1     -17.612 -23.872  -9.387  1.00  0.00     0.288 C 
HETATM   11  N3  UNL     1     -16.856 -24.050  -8.181  1.00  0.00     0.098 N 
HETATM   12  C21 UNL     1     -15.896 -25.069  -8.407  1.00  0.00     0.283 C 
HETATM   13  C22 UNL     1     -15.836 -25.260  -9.878  1.00  0.00     0.061 C 
BRANCH  11  14
HETATM   14  C17 UNL     1     -17.636 -24.155  -6.996  1.00  0.00     0.149 C 
HETATM   15  C18 UNL     1     -17.527 -22.849  -6.237  1.00  0.00     0.048 C 
HETATM   16  C19 UNL     1     -19.096 -24.445  -7.217  1.00  0.00     0.048 C 
HETATM   17  C20 UNL     1     -17.008 -25.240  -6.126  1.00  0.00     0.048 C 
ENDBRANCH  11  14
BRANCH  13  18
HETATM   18  C23 UNL     1     -15.018 -24.265 -10.571  1.00  0.00    -0.051 A 
HETATM   19  C24 UNL     1     -14.557 -23.114  -9.991  1.00  0.00     0.009 A 
HETATM   20  C25 UNL     1     -13.793 -22.170 -10.658  1.00  0.00     0.024 A 
HETATM   21  C26 UNL     1     -13.485 -22.413 -11.973  1.00  0.00     0.034 A 
HETATM   22 CL2  UNL     1     -12.515 -21.220 -12.830  1.00  0.00    -0.084 Cl
HETATM   23  C27 UNL     1     -13.939 -23.566 -12.575  1.00  0.00     0.024 A 
HETATM   24  C28 UNL     1     -14.695 -24.499 -11.915  1.00  0.00     0.009 A 
ENDBRANCH  13  18
ENDBRANCH   5   9
BRANCH   8  25
HETATM   25  N4  UNL     1     -18.429 -28.329 -14.405  1.00  0.00    -0.411 N 
ATOM     26  H4  UNL     1     -18.199 -28.979 -13.654  1.00  0.00     0.154 HD
BRANCH  25  27
HETATM   27  C31 UNL     1     -19.598 -28.550 -15.151  1.00  0.00     0.077 A 
HETATM   28  C32 UNL     1     -20.326 -29.836 -15.027  1.00  0.00     0.027 A 
HETATM   29  C33 UNL     1     -19.505 -29.512 -16.310  1.00  0.00     0.027 A 
ENDBRANCH  25  27
ENDBRANCH   8  25
BRANCH   1  30
HETATM   30  C10 UNL     1     -15.681 -28.852 -15.116  1.00  0.00     0.224 C 
HETATM   31  N1  UNL     1     -14.809 -29.868 -14.644  1.00  0.00    -0.352 N 
ATOM     32  H1  UNL     1     -14.463 -29.804 -13.687  1.00  0.00     0.163 HD
HETATM   33  O1  UNL     1     -16.066 -28.974 -16.313  1.00  0.00    -0.273 OA
BRANCH  31  34
HETATM   34  C3  UNL     1     -14.383 -31.001 -15.464  1.00  0.00     0.139 C 
BRANCH  34  35
HETATM   35  C2  UNL     1     -13.144 -31.637 -14.897  1.00  0.00     0.195 C 
HETATM   36  C1  UNL     1     -12.280 -32.261 -15.971  1.00  0.00     0.072 C 
HETATM   37  F1  UNL     1     -13.280 -32.462 -13.856  1.00  0.00    -0.224 F 
HETATM   38 CL1  UNL     1     -12.076 -30.295 -14.261  1.00  0.00    -0.081 Cl
ENDBRANCH  34  35
BRANCH  34  39
HETATM   39  C4  UNL     1     -15.481 -31.857 -15.885  1.00  0.00     0.034 C 
BRANCH  39  40
HETATM   40  C5  UNL     1     -16.344 -32.652 -15.081  1.00  0.00    -0.013 C 
HETATM   41  C6  UNL     1     -17.814 -32.595 -15.078  1.00  0.00     0.005 C 
HETATM   42  C7  UNL     1     -18.028 -33.357 -13.729  1.00  0.00     0.000 C 
HETATM   43  C8  UNL     1     -17.046 -34.528 -13.899  1.00  0.00     0.000 C 
HETATM   44  C9  UNL     1     -16.152 -34.161 -15.083  1.00  0.00     0.005 C 
ENDBRANCH  39  40
ENDBRANCH  34  39
ENDBRANCH  31  34
ENDBRANCH   1  30
TORSDOF 10
ENDMDL
