MODEL 1
REMARK VINA RESULT: -10.562211195      0.000      0.000
REMARK  9 active torsions:
REMARK  status: ('A' for Active; 'I' for Inactive)
REMARK    1  A    between atoms: C2_2  and  N1_5 
REMARK    2  A    between atoms: N1_5  and  N2_6 
REMARK    3  A    between atoms: N1_5  and  C13_19 
REMARK       I    between atoms: N2_6  and  C5_8 
REMARK    4  A    between atoms: C5_8  and  C6_10 
REMARK    5  A    between atoms: C11_15  and  C12_16 
REMARK    6  A    between atoms: C13_19  and  O4_20 
REMARK    7  A    between atoms: C13_19  and  C14_22 
REMARK    8  A    between atoms: C17_25  and  C18_26 
REMARK    9  A    between atoms: C20_31  and  N3_32 
ROOT
HETATM    1  N1  UNL     1     -14.416 -12.328  11.883  1.00  0.00    -0.259 N 
ENDROOT
BRANCH   1   2
HETATM    2  C2  UNL     1     -13.674 -12.030  10.625  1.00  0.00     0.045 C 
HETATM    3  C1  UNL     1     -12.374 -12.769  10.524  1.00  0.00     0.039 C 
HETATM    4  C3  UNL     1     -14.511 -12.372   9.422  1.00  0.00     0.039 C 
HETATM    5  C4  UNL     1     -13.384 -10.568  10.534  1.00  0.00     0.039 C 
ENDBRANCH   1   2
BRANCH   1   6
HETATM    6  N2  UNL     1     -14.986 -11.271  12.520  1.00  0.00    -0.261 N 
HETATM    7  C5  UNL     1     -16.049 -11.021  13.381  1.00  0.00     0.271 C 
HETATM    8  O1  UNL     1     -16.842 -11.859  13.813  1.00  0.00    -0.266 OA
ATOM      9  H2  UNL     1     -14.487 -10.408  12.303  1.00  0.00     0.190 HD
BRANCH   7  10
HETATM   10  C6  UNL     1     -16.327  -9.632  13.870  1.00  0.00     0.050 A 
HETATM   11  C7  UNL     1     -17.424  -8.982  13.391  1.00  0.00     0.018 A 
HETATM   12  C8  UNL     1     -17.737  -7.692  13.775  1.00  0.00     0.001 A 
HETATM   13  C9  UNL     1     -16.872  -7.087  14.676  1.00  0.00     0.001 A 
HETATM   14  C10 UNL     1     -15.769  -7.709  15.168  1.00  0.00     0.019 A 
HETATM   15  C11 UNL     1     -15.483  -9.019  14.758  1.00  0.00     0.056 A 
BRANCH  15  16
HETATM   16  C12 UNL     1     -14.289  -9.598  15.302  1.00  0.00     0.210 C 
HETATM   17  O2  UNL     1     -14.312 -10.119  16.461  1.00  0.00    -0.644 OA
HETATM   18  O3  UNL     1     -13.094  -9.600  14.583  1.00  0.00    -0.644 OA
ENDBRANCH  15  16
ENDBRANCH   7  10
ENDBRANCH   1   6
BRANCH   1  19
HETATM   19  C13 UNL     1     -14.457 -13.672  12.260  1.00  0.00     0.170 C 
BRANCH  19  20
HETATM   20  O4  UNL     1     -13.600 -14.050  13.207  1.00  0.00    -0.344 OA
ATOM     21  H4  UNL     1     -12.959 -14.706  12.961  1.00  0.00     0.219 HD
ENDBRANCH  19  20
BRANCH  19  22
HETATM   22  C14 UNL     1     -15.191 -14.829  11.878  1.00  0.00     0.049 A 
HETATM   23  C15 UNL     1     -16.583 -14.726  11.613  1.00  0.00     0.019 A 
HETATM   24  C16 UNL     1     -17.324 -15.789  11.173  1.00  0.00     0.017 A 
HETATM   25  C17 UNL     1     -16.711 -17.011  10.976  1.00  0.00     0.050 A 
HETATM   26  C19 UNL     1     -15.397 -17.142  11.216  1.00  0.00     0.053 A 
HETATM   27  C20 UNL     1     -14.653 -16.057  11.663  1.00  0.00     0.118 A 
BRANCH  25  28
HETATM   28  C18 UNL     1     -17.513 -18.181  10.451  1.00  0.00     0.417 C 
HETATM   29  F1  UNL     1     -18.883 -17.881  10.584  1.00  0.00    -0.166 F 
HETATM   30  F2  UNL     1     -17.256 -19.276  11.211  1.00  0.00    -0.166 F 
HETATM   31  F3  UNL     1     -17.285 -18.405   9.129  1.00  0.00    -0.166 F 
ENDBRANCH  25  28
BRANCH  27  32
HETATM   32  N3  UNL     1     -13.280 -16.302  11.882  1.00  0.00    -0.115 N 
HETATM   33  O5  UNL     1     -12.427 -16.046  10.991  1.00  0.00    -0.532 OA
HETATM   34  O6  UNL     1     -12.843 -16.831  13.042  1.00  0.00    -0.532 OA
ENDBRANCH  27  32
ENDBRANCH  19  22
ENDBRANCH   1  19
TORSDOF 9
ENDMDL
MODEL 2
REMARK VINA RESULT: -10.299942629      0.922      1.463
REMARK  9 active torsions:
REMARK  status: ('A' for Active; 'I' for Inactive)
REMARK    1  A    between atoms: C2_2  and  N1_5 
REMARK    2  A    between atoms: N1_5  and  N2_6 
REMARK    3  A    between atoms: N1_5  and  C13_19 
REMARK       I    between atoms: N2_6  and  C5_8 
REMARK    4  A    between atoms: C5_8  and  C6_10 
REMARK    5  A    between atoms: C11_15  and  C12_16 
REMARK    6  A    between atoms: C13_19  and  O4_20 
REMARK    7  A    between atoms: C13_19  and  C14_22 
REMARK    8  A    between atoms: C17_25  and  C18_26 
REMARK    9  A    between atoms: C20_31  and  N3_32 
ROOT
HETATM    1  N1  UNL     1     -14.348 -12.397  11.882  1.00  0.00    -0.259 N 
ENDROOT
BRANCH   1   2
HETATM    2  C2  UNL     1     -13.616 -12.329  10.585  1.00  0.00     0.045 C 
HETATM    3  C1  UNL     1     -14.290 -13.103   9.493  1.00  0.00     0.039 C 
HETATM    4  C3  UNL     1     -13.468 -10.900  10.134  1.00  0.00     0.039 C 
HETATM    5  C4  UNL     1     -12.232 -12.866  10.748  1.00  0.00     0.039 C 
ENDBRANCH   1   2
BRANCH   1   6
HETATM    6  N2  UNL     1     -14.729 -11.214  12.430  1.00  0.00    -0.261 N 
HETATM    7  C5  UNL     1     -14.167 -10.170  13.156  1.00  0.00     0.271 C 
HETATM    8  O1  UNL     1     -12.994 -10.097  13.528  1.00  0.00    -0.266 OA
ATOM      9  H2  UNL     1     -15.720 -11.040  12.258  1.00  0.00     0.190 HD
BRANCH   7  10
HETATM   10  C6  UNL     1     -14.995  -8.991  13.570  1.00  0.00     0.050 A 
HETATM   11  C7  UNL     1     -15.198  -7.990  12.669  1.00  0.00     0.018 A 
HETATM   12  C8  UNL     1     -15.930  -6.861  12.980  1.00  0.00     0.001 A 
HETATM   13  C9  UNL     1     -16.451  -6.795  14.265  1.00  0.00     0.001 A 
HETATM   14  C10 UNL     1     -16.263  -7.776  15.186  1.00  0.00     0.019 A 
HETATM   15  C11 UNL     1     -15.515  -8.909  14.835  1.00  0.00     0.056 A 
BRANCH  15  16
HETATM   16  C12 UNL     1     -15.341  -9.888  15.868  1.00  0.00     0.210 C 
HETATM   17  O2  UNL     1     -14.232  -9.966  16.484  1.00  0.00    -0.644 OA
HETATM   18  O3  UNL     1     -16.369 -10.767  16.212  1.00  0.00    -0.644 OA
ENDBRANCH  15  16
ENDBRANCH   7  10
ENDBRANCH   1   6
BRANCH   1  19
HETATM   19  C13 UNL     1     -14.574 -13.680  12.384  1.00  0.00     0.170 C 
BRANCH  19  20
HETATM   20  O4  UNL     1     -13.995 -13.975  13.546  1.00  0.00    -0.344 OA
ATOM     21  H4  UNL     1     -13.822 -14.895  13.713  1.00  0.00     0.219 HD
ENDBRANCH  19  20
BRANCH  19  22
HETATM   22  C14 UNL     1     -15.282 -14.841  11.967  1.00  0.00     0.049 A 
HETATM   23  C15 UNL     1     -16.677 -14.763  11.707  1.00  0.00     0.019 A 
HETATM   24  C16 UNL     1     -17.393 -15.829  11.235  1.00  0.00     0.017 A 
HETATM   25  C17 UNL     1     -16.752 -17.029  10.997  1.00  0.00     0.050 A 
HETATM   26  C19 UNL     1     -15.435 -17.136  11.230  1.00  0.00     0.053 A 
HETATM   27  C20 UNL     1     -14.715 -16.048  11.710  1.00  0.00     0.118 A 
BRANCH  25  28
HETATM   28  C18 UNL     1     -17.528 -18.199  10.436  1.00  0.00     0.417 C 
HETATM   29  F1  UNL     1     -18.904 -17.921  10.545  1.00  0.00    -0.166 F 
HETATM   30  F2  UNL     1     -17.271 -19.304  11.181  1.00  0.00    -0.166 F 
HETATM   31  F3  UNL     1     -17.271 -18.398   9.115  1.00  0.00    -0.166 F 
ENDBRANCH  25  28
BRANCH  27  32
HETATM   32  N3  UNL     1     -13.337 -16.268  11.919  1.00  0.00    -0.115 N 
HETATM   33  O5  UNL     1     -12.506 -16.096  10.987  1.00  0.00    -0.532 OA
HETATM   34  O6  UNL     1     -12.869 -16.682  13.113  1.00  0.00    -0.532 OA
ENDBRANCH  27  32
ENDBRANCH  19  22
ENDBRANCH   1  19
TORSDOF 9
ENDMDL
MODEL 3
REMARK VINA RESULT: -10.138730929      1.541      2.811
REMARK  9 active torsions:
REMARK  status: ('A' for Active; 'I' for Inactive)
REMARK    1  A    between atoms: C2_2  and  N1_5 
REMARK    2  A    between atoms: N1_5  and  N2_6 
REMARK    3  A    between atoms: N1_5  and  C13_19 
REMARK       I    between atoms: N2_6  and  C5_8 
REMARK    4  A    between atoms: C5_8  and  C6_10 
REMARK    5  A    between atoms: C11_15  and  C12_16 
REMARK    6  A    between atoms: C13_19  and  O4_20 
REMARK    7  A    between atoms: C13_19  and  C14_22 
REMARK    8  A    between atoms: C17_25  and  C18_26 
REMARK    9  A    between atoms: C20_31  and  N3_32 
ROOT
HETATM    1  N1  UNL     1     -14.125 -12.797  12.012  1.00  0.00    -0.259 N 
ENDROOT
BRANCH   1   2
HETATM    2  C2  UNL     1     -13.258 -12.626  10.811  1.00  0.00     0.045 C 
HETATM    3  C1  UNL     1     -12.492 -13.865  10.461  1.00  0.00     0.039 C 
HETATM    4  C3  UNL     1     -14.080 -12.222   9.616  1.00  0.00     0.039 C 
HETATM    5  C4  UNL     1     -12.277 -11.523  11.040  1.00  0.00     0.039 C 
ENDBRANCH   1   2
BRANCH   1   6
HETATM    6  N2  UNL     1     -14.494 -11.665  12.665  1.00  0.00    -0.261 N 
HETATM    7  C5  UNL     1     -14.458 -11.145  13.954  1.00  0.00     0.271 C 
HETATM    8  O1  UNL     1     -14.014 -11.715  14.952  1.00  0.00    -0.266 OA
ATOM      9  H2  UNL     1     -14.921 -11.000  12.020  1.00  0.00     0.190 HD
BRANCH   7  10
HETATM   10  C6  UNL     1     -14.996  -9.776  14.242  1.00  0.00     0.050 A 
HETATM   11  C7  UNL     1     -15.096  -9.376  15.540  1.00  0.00     0.018 A 
HETATM   12  C8  UNL     1     -15.602  -8.139  15.890  1.00  0.00     0.001 A 
HETATM   13  C9  UNL     1     -16.009  -7.319  14.847  1.00  0.00     0.001 A 
HETATM   14  C10 UNL     1     -15.925  -7.692  13.543  1.00  0.00     0.019 A 
HETATM   15  C11 UNL     1     -15.405  -8.954  13.225  1.00  0.00     0.056 A 
BRANCH  15  16
HETATM   16  C12 UNL     1     -15.372  -9.284  11.829  1.00  0.00     0.210 C 
HETATM   17  O2  UNL     1     -14.369  -8.947  11.125  1.00  0.00    -0.644 OA
HETATM   18  O3  UNL     1     -16.425  -9.967  11.223  1.00  0.00    -0.644 OA
ENDBRANCH  15  16
ENDBRANCH   7  10
ENDBRANCH   1   6
BRANCH   1  19
HETATM   19  C13 UNL     1     -14.478 -14.112  12.322  1.00  0.00     0.170 C 
BRANCH  19  20
HETATM   20  O4  UNL     1     -13.872 -14.658  13.375  1.00  0.00    -0.344 OA
ATOM     21  H4  UNL     1     -14.032 -14.246  14.217  1.00  0.00     0.219 HD
ENDBRANCH  19  20
BRANCH  19  22
HETATM   22  C14 UNL     1     -15.345 -15.103  11.783  1.00  0.00     0.049 A 
HETATM   23  C15 UNL     1     -14.853 -16.413  11.534  1.00  0.00     0.019 A 
HETATM   24  C16 UNL     1     -15.659 -17.423  11.085  1.00  0.00     0.017 A 
HETATM   25  C17 UNL     1     -17.000 -17.177  10.863  1.00  0.00     0.050 A 
HETATM   26  C19 UNL     1     -17.497 -15.952  11.091  1.00  0.00     0.053 A 
HETATM   27  C20 UNL     1     -16.671 -14.931  11.546  1.00  0.00     0.118 A 
BRANCH  25  28
HETATM   28  C18 UNL     1     -17.906 -18.298  10.407  1.00  0.00     0.417 C 
HETATM   29  F1  UNL     1     -17.713 -19.406  11.256  1.00  0.00    -0.166 F 
HETATM   30  F2  UNL     1     -17.554 -18.675   9.152  1.00  0.00    -0.166 F 
HETATM   31  F3  UNL     1     -19.221 -17.961  10.494  1.00  0.00    -0.166 F 
ENDBRANCH  25  28
BRANCH  27  32
HETATM   32  N3  UNL     1     -17.295 -13.682  11.755  1.00  0.00    -0.115 N 
HETATM   33  O5  UNL     1     -17.433 -13.214  12.917  1.00  0.00    -0.532 OA
HETATM   34  O6  UNL     1     -17.777 -12.962  10.723  1.00  0.00    -0.532 OA
ENDBRANCH  27  32
ENDBRANCH  19  22
ENDBRANCH   1  19
TORSDOF 9
ENDMDL
MODEL 4
REMARK VINA RESULT: -10.123652148      1.399      2.247
REMARK  9 active torsions:
REMARK  status: ('A' for Active; 'I' for Inactive)
REMARK    1  A    between atoms: C2_2  and  N1_5 
REMARK    2  A    between atoms: N1_5  and  N2_6 
REMARK    3  A    between atoms: N1_5  and  C13_19 
REMARK       I    between atoms: N2_6  and  C5_8 
REMARK    4  A    between atoms: C5_8  and  C6_10 
REMARK    5  A    between atoms: C11_15  and  C12_16 
REMARK    6  A    between atoms: C13_19  and  O4_20 
REMARK    7  A    between atoms: C13_19  and  C14_22 
REMARK    8  A    between atoms: C17_25  and  C18_26 
REMARK    9  A    between atoms: C20_31  and  N3_32 
ROOT
HETATM    1  N1  UNL     1     -14.342 -12.250  11.800  1.00  0.00    -0.259 N 
ENDROOT
BRANCH   1   2
HETATM    2  C2  UNL     1     -13.563 -12.066  10.542  1.00  0.00     0.045 C 
HETATM    3  C1  UNL     1     -12.407 -13.012  10.426  1.00  0.00     0.039 C 
HETATM    4  C3  UNL     1     -14.449 -12.247   9.339  1.00  0.00     0.039 C 
HETATM    5  C4  UNL     1     -13.031 -10.672  10.468  1.00  0.00     0.039 C 
ENDBRANCH   1   2
BRANCH   1   6
HETATM    6  N2  UNL     1     -14.767 -11.121  12.425  1.00  0.00    -0.261 N 
HETATM    7  C5  UNL     1     -15.769 -10.167  12.289  1.00  0.00     0.271 C 
HETATM    8  O1  UNL     1     -16.627 -10.140  11.404  1.00  0.00    -0.266 OA
ATOM      9  H2  UNL     1     -14.178 -10.912  13.231  1.00  0.00     0.190 HD
BRANCH   7  10
HETATM   10  C6  UNL     1     -15.882  -9.031  13.259  1.00  0.00     0.050 A 
HETATM   11  C7  UNL     1     -15.990  -7.765  12.770  1.00  0.00     0.018 A 
HETATM   12  C8  UNL     1     -16.075  -6.662  13.599  1.00  0.00     0.001 A 
HETATM   13  C9  UNL     1     -16.043  -6.910  14.964  1.00  0.00     0.001 A 
HETATM   14  C10 UNL     1     -15.932  -8.161  15.482  1.00  0.00     0.019 A 
HETATM   15  C11 UNL     1     -15.849  -9.257  14.611  1.00  0.00     0.056 A 
BRANCH  15  16
HETATM   16  C12 UNL     1     -15.710 -10.542  15.233  1.00  0.00     0.210 C 
HETATM   17  O2  UNL     1     -16.735 -11.136  15.690  1.00  0.00    -0.644 OA
HETATM   18  O3  UNL     1     -14.463 -11.157  15.350  1.00  0.00    -0.644 OA
ENDBRANCH  15  16
ENDBRANCH   7  10
ENDBRANCH   1   6
BRANCH   1  19
HETATM   19  C13 UNL     1     -14.563 -13.573  12.188  1.00  0.00     0.170 C 
BRANCH  19  20
HETATM   20  O4  UNL     1     -13.929 -13.985  13.285  1.00  0.00    -0.344 OA
ATOM     21  H4  UNL     1     -13.051 -14.325  13.164  1.00  0.00     0.219 HD
ENDBRANCH  19  20
BRANCH  19  22
HETATM   22  C14 UNL     1     -15.310 -14.681  11.700  1.00  0.00     0.049 A 
HETATM   23  C15 UNL     1     -14.655 -15.915  11.441  1.00  0.00     0.019 A 
HETATM   24  C16 UNL     1     -15.334 -17.033  11.040  1.00  0.00     0.017 A 
HETATM   25  C17 UNL     1     -16.704 -16.975  10.876  1.00  0.00     0.050 A 
HETATM   26  C19 UNL     1     -17.354 -15.825  11.114  1.00  0.00     0.053 A 
HETATM   27  C20 UNL     1     -16.656 -14.694  11.521  1.00  0.00     0.118 A 
BRANCH  25  28
HETATM   28  C18 UNL     1     -17.468 -18.216  10.473  1.00  0.00     0.417 C 
HETATM   29  F1  UNL     1     -18.845 -17.972  10.642  1.00  0.00    -0.166 F 
HETATM   30  F2  UNL     1     -17.127 -19.238  11.299  1.00  0.00    -0.166 F 
HETATM   31  F3  UNL     1     -17.282 -18.529   9.163  1.00  0.00    -0.166 F 
ENDBRANCH  25  28
BRANCH  27  32
HETATM   32  N3  UNL     1     -17.435 -13.539  11.745  1.00  0.00    -0.115 N 
HETATM   33  O5  UNL     1     -18.031 -12.966  10.793  1.00  0.00    -0.532 OA
HETATM   34  O6  UNL     1     -17.553 -13.005  12.976  1.00  0.00    -0.532 OA
ENDBRANCH  27  32
ENDBRANCH  19  22
ENDBRANCH   1  19
TORSDOF 9
ENDMDL
MODEL 5
REMARK VINA RESULT: -10.119913757      1.208      2.214
REMARK  9 active torsions:
REMARK  status: ('A' for Active; 'I' for Inactive)
REMARK    1  A    between atoms: C2_2  and  N1_5 
REMARK    2  A    between atoms: N1_5  and  N2_6 
REMARK    3  A    between atoms: N1_5  and  C13_19 
REMARK       I    between atoms: N2_6  and  C5_8 
REMARK    4  A    between atoms: C5_8  and  C6_10 
REMARK    5  A    between atoms: C11_15  and  C12_16 
REMARK    6  A    between atoms: C13_19  and  O4_20 
REMARK    7  A    between atoms: C13_19  and  C14_22 
REMARK    8  A    between atoms: C17_25  and  C18_26 
REMARK    9  A    between atoms: C20_31  and  N3_32 
ROOT
HETATM    1  N1  UNL     1     -14.340 -12.423  11.908  1.00  0.00    -0.259 N 
ENDROOT
BRANCH   1   2
HETATM    2  C2  UNL     1     -13.476 -12.213  10.711  1.00  0.00     0.045 C 
HETATM    3  C1  UNL     1     -12.347 -13.195  10.625  1.00  0.00     0.039 C 
HETATM    4  C3  UNL     1     -14.289 -12.310   9.448  1.00  0.00     0.039 C 
HETATM    5  C4  UNL     1     -12.895 -10.838  10.733  1.00  0.00     0.039 C 
ENDBRANCH   1   2
BRANCH   1   6
HETATM    6  N2  UNL     1     -14.810 -11.307  12.524  1.00  0.00    -0.261 N 
HETATM    7  C5  UNL     1     -15.715 -10.281  12.277  1.00  0.00     0.271 C 
HETATM    8  O1  UNL     1     -16.392 -10.144  11.256  1.00  0.00    -0.266 OA
ATOM      9  H2  UNL     1     -14.370 -11.187  13.437  1.00  0.00     0.190 HD
BRANCH   7  10
HETATM   10  C6  UNL     1     -15.942  -9.200  13.290  1.00  0.00     0.050 A 
HETATM   11  C7  UNL     1     -16.907  -8.271  13.045  1.00  0.00     0.018 A 
HETATM   12  C8  UNL     1     -17.162  -7.231  13.918  1.00  0.00     0.001 A 
HETATM   13  C9  UNL     1     -16.380  -7.177  15.063  1.00  0.00     0.001 A 
HETATM   14  C10 UNL     1     -15.409  -8.087  15.333  1.00  0.00     0.019 A 
HETATM   15  C11 UNL     1     -15.178  -9.131  14.425  1.00  0.00     0.056 A 
BRANCH  15  16
HETATM   16  C12 UNL     1     -14.120 -10.037  14.769  1.00  0.00     0.210 C 
HETATM   17  O2  UNL     1     -14.373 -11.067  15.467  1.00  0.00    -0.644 OA
HETATM   18  O3  UNL     1     -12.808  -9.807  14.352  1.00  0.00    -0.644 OA
ENDBRANCH  15  16
ENDBRANCH   7  10
ENDBRANCH   1   6
BRANCH   1  19
HETATM   19  C13 UNL     1     -14.584 -13.754  12.254  1.00  0.00     0.170 C 
BRANCH  19  20
HETATM   20  O4  UNL     1     -13.935 -14.220  13.319  1.00  0.00    -0.344 OA
ATOM     21  H4  UNL     1     -13.759 -15.154  13.333  1.00  0.00     0.219 HD
ENDBRANCH  19  20
BRANCH  19  22
HETATM   22  C14 UNL     1     -15.369 -14.825  11.744  1.00  0.00     0.049 A 
HETATM   23  C15 UNL     1     -14.768 -16.092  11.509  1.00  0.00     0.019 A 
HETATM   24  C16 UNL     1     -15.489 -17.176  11.089  1.00  0.00     0.017 A 
HETATM   25  C17 UNL     1     -16.848 -17.051  10.881  1.00  0.00     0.050 A 
HETATM   26  C19 UNL     1     -17.447 -15.870  11.095  1.00  0.00     0.053 A 
HETATM   27  C20 UNL     1     -16.708 -14.773  11.522  1.00  0.00     0.118 A 
BRANCH  25  28
HETATM   28  C18 UNL     1     -17.659 -18.255  10.457  1.00  0.00     0.417 C 
HETATM   29  F1  UNL     1     -17.320 -19.341  11.287  1.00  0.00    -0.166 F 
HETATM   30  F2  UNL     1     -17.328 -18.590   9.184  1.00  0.00    -0.166 F 
HETATM   31  F3  UNL     1     -18.995 -18.049  10.604  1.00  0.00    -0.166 F 
ENDBRANCH  25  28
BRANCH  27  32
HETATM   32  N3  UNL     1     -17.435 -13.580  11.718  1.00  0.00    -0.115 N 
HETATM   33  O5  UNL     1     -17.963 -12.976  10.745  1.00  0.00    -0.532 OA
HETATM   34  O6  UNL     1     -17.575 -13.042  12.945  1.00  0.00    -0.532 OA
ENDBRANCH  27  32
ENDBRANCH  19  22
ENDBRANCH   1  19
TORSDOF 9
ENDMDL
