MODEL 1
REMARK VINA RESULT: -9.693985116      0.000      0.000
REMARK  7 active torsions:
REMARK  status: ('A' for Active; 'I' for Inactive)
REMARK    1  A    between atoms: C5_5  and  O1_6 
REMARK    2  A    between atoms: C19_22  and  O3_23 
REMARK    3  A    between atoms: C19_22  and  C20_25 
REMARK    4  A    between atoms: C20_25  and  C21_28 
REMARK    5  A    between atoms: C21_28  and  O4_29 
REMARK    6  A    between atoms: O4_29  and  C22_30 
REMARK    7  A    between atoms: C22_30  and  C23_31 
ROOT
HETATM    1  C23 UNL     1     -17.235 -17.687   9.943  1.00  0.00     0.150 C 
HETATM    2  C24 UNL     1     -18.131 -16.671  10.469  1.00  0.00     0.061 C 
HETATM    3  N1  UNL     1     -18.829 -15.850  10.886  1.00  0.00    -0.197 NA
ENDROOT
BRANCH   1   4
HETATM    4  C22 UNL     1     -16.233 -18.025  11.038  1.00  0.00     0.181 C 
BRANCH   4   5
HETATM    5  O4  UNL     1     -15.621 -16.901  11.565  1.00  0.00    -0.384 OA
BRANCH   5   6
HETATM    6  C21 UNL     1     -14.242 -16.905  11.421  1.00  0.00     0.250 C 
BRANCH   6   7
HETATM    7  C20 UNL     1     -13.641 -15.592  11.947  1.00  0.00     0.295 C 
HETATM    8  F1  UNL     1     -12.339 -15.882  12.300  1.00  0.00    -0.201 F 
HETATM    9  F2  UNL     1     -14.275 -15.375  13.152  1.00  0.00    -0.201 F 
BRANCH   7  10
HETATM   10  C19 UNL     1     -13.835 -14.472  11.002  1.00  0.00     0.133 C 
HETATM   11  C14 UNL     1     -14.531 -13.242  11.446  1.00  0.00     0.001 C 
HETATM   12  C13 UNL     1     -16.023 -13.348  11.581  1.00  0.00     0.014 C 
HETATM   13  C15 UNL     1     -13.948 -12.620  12.666  1.00  0.00     0.019 C 
HETATM   14  C16 UNL     1     -14.277 -12.353  10.265  1.00  0.00     0.030 C 
HETATM   15  C12 UNL     1     -16.793 -12.696  10.478  1.00  0.00     0.011 C 
HETATM   16  C11 UNL     1     -16.410 -11.280  10.148  1.00  0.00     0.027 C 
HETATM   17  C2  UNL     1     -17.276 -10.279  10.821  1.00  0.00    -0.032 C 
HETATM   18  C10 UNL     1     -14.923 -11.042  10.176  1.00  0.00    -0.024 C 
HETATM   19  C1  UNL     1     -18.665 -10.384  10.152  1.00  0.00     0.016 C 
HETATM   20  C3  UNL     1     -17.551 -10.513  12.272  1.00  0.00     0.012 C 
HETATM   21  C7  UNL     1     -16.703  -8.917  10.645  1.00  0.00     0.004 C 
HETATM   22  C4  UNL     1     -18.501  -9.486  12.796  1.00  0.00     0.032 C 
HETATM   23  C5  UNL     1     -18.190  -8.081  12.484  1.00  0.00     0.118 C 
HETATM   24  C6  UNL     1     -17.579  -7.827  11.140  1.00  0.00     0.037 C 
HETATM   25  C8  UNL     1     -15.408  -8.888  11.454  1.00  0.00     0.088 C 
HETATM   26  C9  UNL     1     -14.466  -9.927  10.976  1.00  0.00     0.152 C 
HETATM   27  O2  UNL     1     -13.312  -9.801  11.280  1.00  0.00    -0.293 OA
HETATM   28  C17 UNL     1     -12.823 -12.472  10.096  1.00  0.00     0.013 C 
HETATM   29  C18 UNL     1     -12.532 -13.913  10.466  1.00  0.00     0.046 C 
BRANCH  23  30
HETATM   30  O1  UNL     1     -17.405  -7.489  13.482  1.00  0.00    -0.396 OA
ATOM     31  H1  UNL     1     -17.207  -6.582  13.283  1.00  0.00     0.210 HD
ENDBRANCH  23  30
BRANCH  10  32
HETATM   32  O3  UNL     1     -14.456 -15.042   9.861  1.00  0.00    -0.383 OA
ATOM     33  H3  UNL     1     -14.221 -15.956   9.754  1.00  0.00     0.210 HD
ENDBRANCH  10  32
ENDBRANCH   7  10
ENDBRANCH   6   7
ENDBRANCH   5   6
ENDBRANCH   4   5
ENDBRANCH   1   4
TORSDOF 7
ENDMDL
MODEL 2
REMARK VINA RESULT: -9.335814194      1.084      1.209
REMARK  7 active torsions:
REMARK  status: ('A' for Active; 'I' for Inactive)
REMARK    1  A    between atoms: C5_5  and  O1_6 
REMARK    2  A    between atoms: C19_22  and  O3_23 
REMARK    3  A    between atoms: C19_22  and  C20_25 
REMARK    4  A    between atoms: C20_25  and  C21_28 
REMARK    5  A    between atoms: C21_28  and  O4_29 
REMARK    6  A    between atoms: O4_29  and  C22_30 
REMARK    7  A    between atoms: C22_30  and  C23_31 
ROOT
HETATM    1  C23 UNL     1     -18.125 -18.027  10.395  1.00  0.00     0.150 C 
HETATM    2  C24 UNL     1     -18.481 -16.628  10.567  1.00  0.00     0.061 C 
HETATM    3  N1  UNL     1     -18.753 -15.511  10.686  1.00  0.00    -0.197 NA
ENDROOT
BRANCH   1   4
HETATM    4  C22 UNL     1     -16.662 -18.178  10.787  1.00  0.00     0.181 C 
BRANCH   4   5
HETATM    5  O4  UNL     1     -16.117 -17.002  11.273  1.00  0.00    -0.384 OA
BRANCH   5   6
HETATM    6  C21 UNL     1     -14.827 -16.764  10.822  1.00  0.00     0.250 C 
BRANCH   6   7
HETATM    7  C20 UNL     1     -14.260 -15.486  11.461  1.00  0.00     0.295 C 
HETATM    8  F1  UNL     1     -12.902 -15.692  11.587  1.00  0.00    -0.201 F 
HETATM    9  F2  UNL     1     -14.726 -15.506  12.757  1.00  0.00    -0.201 F 
BRANCH   7  10
HETATM   10  C19 UNL     1     -14.677 -14.269  10.733  1.00  0.00     0.133 C 
HETATM   11  C14 UNL     1     -14.931 -13.013  11.478  1.00  0.00     0.001 C 
HETATM   12  C13 UNL     1     -16.220 -12.960  12.248  1.00  0.00     0.014 C 
HETATM   13  C15 UNL     1     -13.800 -12.578  12.341  1.00  0.00     0.019 C 
HETATM   14  C16 UNL     1     -15.083 -12.054  10.335  1.00  0.00     0.030 C 
HETATM   15  C12 UNL     1     -17.286 -12.125  11.615  1.00  0.00     0.011 C 
HETATM   16  C11 UNL     1     -16.883 -10.738  11.198  1.00  0.00     0.027 C 
HETATM   17  C2  UNL     1     -17.223  -9.710  12.215  1.00  0.00    -0.032 C 
HETATM   18  C10 UNL     1     -15.510 -10.675  10.582  1.00  0.00    -0.024 C 
HETATM   19  C1  UNL     1     -18.764  -9.593  12.217  1.00  0.00     0.016 C 
HETATM   20  C3  UNL     1     -16.881 -10.045  13.632  1.00  0.00     0.012 C 
HETATM   21  C7  UNL     1     -16.592  -8.413  11.853  1.00  0.00     0.004 C 
HETATM   22  C4  UNL     1     -17.357  -8.969  14.553  1.00  0.00     0.032 C 
HETATM   23  C5  UNL     1     -17.012  -7.586  14.184  1.00  0.00     0.118 C 
HETATM   24  C6  UNL     1     -17.006  -7.280  12.718  1.00  0.00     0.037 C 
HETATM   25  C8  UNL     1     -15.086  -8.607  12.016  1.00  0.00     0.088 C 
HETATM   26  C9  UNL     1     -14.599  -9.698  11.139  1.00  0.00     0.152 C 
HETATM   27  O2  UNL     1     -13.422  -9.734  10.913  1.00  0.00    -0.293 OA
HETATM   28  C17 UNL     1     -13.875 -12.321   9.545  1.00  0.00     0.013 C 
HETATM   29  C18 UNL     1     -13.664 -13.814   9.701  1.00  0.00     0.046 C 
BRANCH  23  30
HETATM   30  O1  UNL     1     -15.799  -7.183  14.758  1.00  0.00    -0.396 OA
ATOM     31  H1  UNL     1     -15.477  -7.819  15.386  1.00  0.00     0.210 HD
ENDBRANCH  23  30
BRANCH  10  32
HETATM   32  O3  UNL     1     -15.801 -14.655   9.959  1.00  0.00    -0.383 OA
ATOM     33  H3  UNL     1     -16.367 -13.916   9.770  1.00  0.00     0.210 HD
ENDBRANCH  10  32
ENDBRANCH   7  10
ENDBRANCH   6   7
ENDBRANCH   5   6
ENDBRANCH   4   5
ENDBRANCH   1   4
TORSDOF 7
ENDMDL
MODEL 3
REMARK VINA RESULT: -9.099577948      2.461      3.194
REMARK  7 active torsions:
REMARK  status: ('A' for Active; 'I' for Inactive)
REMARK    1  A    between atoms: C5_5  and  O1_6 
REMARK    2  A    between atoms: C19_22  and  O3_23 
REMARK    3  A    between atoms: C19_22  and  C20_25 
REMARK    4  A    between atoms: C20_25  and  C21_28 
REMARK    5  A    between atoms: C21_28  and  O4_29 
REMARK    6  A    between atoms: O4_29  and  C22_30 
REMARK    7  A    between atoms: C22_30  and  C23_31 
ROOT
HETATM    1  C23 UNL     1     -12.658 -15.995  13.732  1.00  0.00     0.150 C 
HETATM    2  C24 UNL     1     -11.503 -16.016  14.615  1.00  0.00     0.061 C 
HETATM    3  N1  UNL     1     -10.575 -16.024  15.303  1.00  0.00    -0.197 NA
ENDROOT
BRANCH   1   4
HETATM    4  C22 UNL     1     -12.427 -17.044  12.653  1.00  0.00     0.181 C 
BRANCH   4   5
HETATM    5  O4  UNL     1     -13.470 -17.111  11.745  1.00  0.00    -0.384 OA
BRANCH   5   6
HETATM    6  C21 UNL     1     -13.691 -15.921  11.070  1.00  0.00     0.250 C 
BRANCH   6   7
HETATM    7  C20 UNL     1     -15.198 -15.672  10.893  1.00  0.00     0.295 C 
HETATM    8  F1  UNL     1     -15.781 -15.978  12.105  1.00  0.00    -0.201 F 
HETATM    9  F2  UNL     1     -15.621 -16.678  10.051  1.00  0.00    -0.201 F 
BRANCH   7  10
HETATM   10  C19 UNL     1     -15.479 -14.328  10.347  1.00  0.00     0.133 C 
HETATM   11  C14 UNL     1     -15.469 -13.148  11.243  1.00  0.00     0.001 C 
HETATM   12  C13 UNL     1     -16.663 -13.001  12.142  1.00  0.00     0.014 C 
HETATM   13  C15 UNL     1     -14.214 -12.991  12.028  1.00  0.00     0.019 C 
HETATM   14  C16 UNL     1     -15.565 -12.045  10.231  1.00  0.00     0.030 C 
HETATM   15  C12 UNL     1     -17.635 -11.949  11.714  1.00  0.00     0.011 C 
HETATM   16  C11 UNL     1     -17.056 -10.595  11.409  1.00  0.00     0.027 C 
HETATM   17  C2  UNL     1     -17.144  -9.660  12.560  1.00  0.00    -0.032 C 
HETATM   18  C10 UNL     1     -15.748 -10.659  10.667  1.00  0.00    -0.024 C 
HETATM   19  C1  UNL     1     -18.642  -9.320  12.733  1.00  0.00     0.016 C 
HETATM   20  C3  UNL     1     -16.739 -10.211  13.891  1.00  0.00     0.012 C 
HETATM   21  C7  UNL     1     -16.349  -8.435  12.277  1.00  0.00     0.004 C 
HETATM   22  C4  UNL     1     -16.961  -9.196  14.965  1.00  0.00     0.032 C 
HETATM   23  C5  UNL     1     -16.435  -7.845  14.713  1.00  0.00     0.118 C 
HETATM   24  C6  UNL     1     -16.506  -7.367  13.295  1.00  0.00     0.037 C 
HETATM   25  C8  UNL     1     -14.884  -8.865  12.263  1.00  0.00     0.088 C 
HETATM   26  C9  UNL     1     -14.651  -9.901  11.229  1.00  0.00     0.152 C 
HETATM   27  O2  UNL     1     -13.517 -10.080  10.881  1.00  0.00    -0.293 OA
HETATM   28  C17 UNL     1     -14.485 -12.389   9.298  1.00  0.00     0.013 C 
HETATM   29  C18 UNL     1     -14.498 -13.904   9.271  1.00  0.00     0.046 C 
BRANCH  23  30
HETATM   30  O1  UNL     1     -15.131  -7.696  15.201  1.00  0.00    -0.396 OA
ATOM     31  H1  UNL     1     -14.513  -8.240  14.727  1.00  0.00     0.210 HD
ENDBRANCH  23  30
BRANCH  10  32
HETATM   32  O3  UNL     1     -16.711 -14.449   9.655  1.00  0.00    -0.383 OA
ATOM     33  H3  UNL     1     -16.604 -14.311   8.721  1.00  0.00     0.210 HD
ENDBRANCH  10  32
ENDBRANCH   7  10
ENDBRANCH   6   7
ENDBRANCH   5   6
ENDBRANCH   4   5
ENDBRANCH   1   4
TORSDOF 7
ENDMDL
MODEL 4
REMARK VINA RESULT: -8.972417365      1.740      2.646
REMARK  7 active torsions:
REMARK  status: ('A' for Active; 'I' for Inactive)
REMARK    1  A    between atoms: C5_5  and  O1_6 
REMARK    2  A    between atoms: C19_22  and  O3_23 
REMARK    3  A    between atoms: C19_22  and  C20_25 
REMARK    4  A    between atoms: C20_25  and  C21_28 
REMARK    5  A    between atoms: C21_28  and  O4_29 
REMARK    6  A    between atoms: O4_29  and  C22_30 
REMARK    7  A    between atoms: C22_30  and  C23_31 
ROOT
HETATM    1  C23 UNL     1     -17.089 -18.004  10.455  1.00  0.00     0.150 C 
HETATM    2  C24 UNL     1     -18.058 -16.934  10.623  1.00  0.00     0.061 C 
HETATM    3  N1  UNL     1     -18.819 -16.072  10.743  1.00  0.00    -0.197 NA
ENDROOT
BRANCH   1   4
HETATM    4  C22 UNL     1     -15.798 -17.561  11.129  1.00  0.00     0.181 C 
BRANCH   4   5
HETATM    5  O4  UNL     1     -15.211 -16.480  10.496  1.00  0.00    -0.384 OA
BRANCH   5   6
HETATM    6  C21 UNL     1     -14.067 -16.022  11.131  1.00  0.00     0.250 C 
BRANCH   6   7
HETATM    7  C20 UNL     1     -13.592 -14.702  10.503  1.00  0.00     0.295 C 
HETATM    8  F1  UNL     1     -14.281 -14.574   9.315  1.00  0.00    -0.201 F 
HETATM    9  F2  UNL     1     -12.293 -14.948  10.113  1.00  0.00    -0.201 F 
BRANCH   7  10
HETATM   10  C19 UNL     1     -13.689 -13.569  11.448  1.00  0.00     0.133 C 
HETATM   11  C14 UNL     1     -14.893 -12.707  11.446  1.00  0.00     0.001 C 
HETATM   12  C13 UNL     1     -14.997 -11.730  10.310  1.00  0.00     0.014 C 
HETATM   13  C15 UNL     1     -16.174 -13.449  11.602  1.00  0.00     0.019 C 
HETATM   14  C16 UNL     1     -14.637 -11.893  12.680  1.00  0.00     0.030 C 
HETATM   15  C12 UNL     1     -14.687 -10.314  10.679  1.00  0.00     0.011 C 
HETATM   16  C11 UNL     1     -15.403  -9.772  11.885  1.00  0.00     0.027 C 
HETATM   17  C2  UNL     1     -16.625  -9.005  11.532  1.00  0.00    -0.032 C 
HETATM   18  C10 UNL     1     -15.509 -10.764  13.013  1.00  0.00    -0.024 C 
HETATM   19  C1  UNL     1     -16.141  -7.704  10.852  1.00  0.00     0.016 C 
HETATM   20  C3  UNL     1     -17.528  -9.633  10.518  1.00  0.00     0.012 C 
HETATM   21  C7  UNL     1     -17.405  -8.704  12.762  1.00  0.00     0.004 C 
HETATM   22  C4  UNL     1     -18.663  -8.718  10.193  1.00  0.00     0.032 C 
HETATM   23  C5  UNL     1     -19.389  -8.137  11.334  1.00  0.00     0.118 C 
HETATM   24  C6  UNL     1     -18.559  -7.799  12.535  1.00  0.00     0.037 C 
HETATM   25  C8  UNL     1     -17.943 -10.041  13.268  1.00  0.00     0.088 C 
HETATM   26  C9  UNL     1     -16.832 -10.977  13.559  1.00  0.00     0.152 C 
HETATM   27  O2  UNL     1     -17.079 -11.914  14.266  1.00  0.00    -0.293 OA
HETATM   28  C17 UNL     1     -14.358 -12.929  13.681  1.00  0.00     0.013 C 
HETATM   29  C18 UNL     1     -13.618 -13.997  12.900  1.00  0.00     0.046 C 
BRANCH  23  30
HETATM   30  O1  UNL     1     -20.477  -8.931  11.717  1.00  0.00    -0.396 OA
ATOM     31  H1  UNL     1     -20.873  -9.370  10.973  1.00  0.00     0.210 HD
ENDBRANCH  23  30
BRANCH  10  32
HETATM   32  O3  UNL     1     -12.504 -12.813  11.258  1.00  0.00    -0.383 OA
ATOM     33  H3  UNL     1     -11.981 -13.155  10.542  1.00  0.00     0.210 HD
ENDBRANCH  10  32
ENDBRANCH   7  10
ENDBRANCH   6   7
ENDBRANCH   5   6
ENDBRANCH   4   5
ENDBRANCH   1   4
TORSDOF 7
ENDMDL
MODEL 5
REMARK VINA RESULT: -8.934372691      1.890      2.738
REMARK  7 active torsions:
REMARK  status: ('A' for Active; 'I' for Inactive)
REMARK    1  A    between atoms: C5_5  and  O1_6 
REMARK    2  A    between atoms: C19_22  and  O3_23 
REMARK    3  A    between atoms: C19_22  and  C20_25 
REMARK    4  A    between atoms: C20_25  and  C21_28 
REMARK    5  A    between atoms: C21_28  and  O4_29 
REMARK    6  A    between atoms: O4_29  and  C22_30 
REMARK    7  A    between atoms: C22_30  and  C23_31 
ROOT
HETATM    1  C23 UNL     1     -17.581 -18.308  10.038  1.00  0.00     0.150 C 
HETATM    2  C24 UNL     1     -18.442 -17.196  10.405  1.00  0.00     0.061 C 
HETATM    3  N1  UNL     1     -19.113 -16.299  10.687  1.00  0.00    -0.197 NA
ENDROOT
BRANCH   1   4
HETATM    4  C22 UNL     1     -16.346 -18.243  10.925  1.00  0.00     0.181 C 
BRANCH   4   5
HETATM    5  O4  UNL     1     -15.474 -17.235  10.550  1.00  0.00    -0.384 OA
BRANCH   5   6
HETATM    6  C21 UNL     1     -14.682 -16.774  11.590  1.00  0.00     0.250 C 
BRANCH   6   7
HETATM    7  C20 UNL     1     -14.380 -15.277  11.417  1.00  0.00     0.295 C 
HETATM    8  F1  UNL     1     -13.600 -15.172  10.284  1.00  0.00    -0.201 F 
HETATM    9  F2  UNL     1     -13.518 -14.973  12.449  1.00  0.00    -0.201 F 
BRANCH   7  10
HETATM   10  C19 UNL     1     -15.607 -14.455  11.452  1.00  0.00     0.133 C 
HETATM   11  C14 UNL     1     -15.553 -13.067  11.970  1.00  0.00     0.001 C 
HETATM   12  C13 UNL     1     -15.455 -12.930  13.462  1.00  0.00     0.014 C 
HETATM   13  C15 UNL     1     -14.533 -12.210  11.307  1.00  0.00     0.019 C 
HETATM   14  C16 UNL     1     -16.925 -12.590  11.592  1.00  0.00     0.030 C 
HETATM   15  C12 UNL     1     -16.727 -12.520  14.132  1.00  0.00     0.011 C 
HETATM   16  C11 UNL     1     -17.424 -11.319  13.554  1.00  0.00     0.027 C 
HETATM   17  C2  UNL     1     -17.093 -10.062  14.273  1.00  0.00    -0.032 C 
HETATM   18  C10 UNL     1     -17.402 -11.284  12.049  1.00  0.00    -0.024 C 
HETATM   19  C1  UNL     1     -17.761 -10.165  15.662  1.00  0.00     0.016 C 
HETATM   20  C3  UNL     1     -15.646  -9.838  14.580  1.00  0.00     0.012 C 
HETATM   21  C7  UNL     1     -17.618  -8.894  13.515  1.00  0.00     0.004 C 
HETATM   22  C4  UNL     1     -15.470  -8.587  15.378  1.00  0.00     0.032 C 
HETATM   23  C5  UNL     1     -16.148  -7.382  14.873  1.00  0.00     0.118 C 
HETATM   24  C6  UNL     1     -17.483  -7.602  14.231  1.00  0.00     0.037 C 
HETATM   25  C8  UNL     1     -16.797  -8.811  12.229  1.00  0.00     0.088 C 
HETATM   26  C9  UNL     1     -16.928 -10.060  11.441  1.00  0.00     0.152 C 
HETATM   27  O2  UNL     1     -16.624 -10.008  10.282  1.00  0.00    -0.293 OA
HETATM   28  C17 UNL     1     -16.994 -12.945  10.169  1.00  0.00     0.013 C 
HETATM   29  C18 UNL     1     -16.225 -14.248  10.083  1.00  0.00     0.046 C 
BRANCH  23  30
HETATM   30  O1  UNL     1     -15.324  -6.643  14.015  1.00  0.00    -0.396 OA
ATOM     31  H1  UNL     1     -14.562  -7.141  13.741  1.00  0.00     0.210 HD
ENDBRANCH  23  30
BRANCH  10  32
HETATM   32  O3  UNL     1     -16.569 -15.234  12.145  1.00  0.00    -0.383 OA
ATOM     33  H3  UNL     1     -17.209 -15.608  11.552  1.00  0.00     0.210 HD
ENDBRANCH  10  32
ENDBRANCH   7  10
ENDBRANCH   6   7
ENDBRANCH   5   6
ENDBRANCH   4   5
ENDBRANCH   1   4
TORSDOF 7
ENDMDL
