MODEL 1
REMARK VINA RESULT: -7.847763142      0.000      0.000
REMARK  6 active torsions:
REMARK  status: ('A' for Active; 'I' for Inactive)
REMARK    1  A    between atoms: C2_2  and  C3_3 
REMARK    2  A    between atoms: C3_3  and  C4_4 
REMARK    3  A    between atoms: C4_4  and  O1_5 
REMARK    4  A    between atoms: N1_7  and  O2_9 
REMARK    5  A    between atoms: C7_13  and  C8_14 
REMARK       I    between atoms: C8_14  and  N2_16 
REMARK       I    between atoms: N2_16  and  C9_18 
REMARK    6  A    between atoms: C9_18  and  C10_20 
ROOT
HETATM    1  C1  UNL     1      30.504  18.827  13.208  1.00  0.00     0.027 C 
HETATM    2  C2  UNL     1      29.140  19.405  13.467  1.00  0.00     0.011 C 
HETATM    3  C5  UNL     1      28.041  18.723  12.716  1.00  0.00     0.021 C 
HETATM    4  C6  UNL     1      28.310  18.601  11.256  1.00  0.00     0.016 C 
HETATM    5  C7  UNL     1      28.634  19.854  10.542  1.00  0.00     0.087 C 
HETATM    6  C11 UNL     1      28.215  21.102  11.283  1.00  0.00     0.088 C 
HETATM    7  S1  UNL     1      29.194  21.132  12.833  1.00  0.00    -0.158 SA
ENDROOT
BRANCH   5   8
HETATM    8  C8  UNL     1      27.940  19.918   9.195  1.00  0.00     0.229 C 
HETATM    9  O3  UNL     1      27.269  18.915   8.916  1.00  0.00    -0.273 OA
HETATM   10  N2  UNL     1      28.093  21.055   8.390  1.00  0.00    -0.290 N 
HETATM   11  C9  UNL     1      27.535  21.297   7.136  1.00  0.00     0.332 C 
ATOM     12  H2  UNL     1      28.684  21.795   8.769  1.00  0.00     0.172 HD
HETATM   13  O4  UNL     1      27.816  22.432   6.585  1.00  0.00    -0.263 OA
BRANCH  11  14
HETATM   14  C10 UNL     1      26.672  20.356   6.428  1.00  0.00     0.472 C 
HETATM   15  F1  UNL     1      27.324  19.185   6.080  1.00  0.00    -0.162 F 
HETATM   16  F2  UNL     1      25.506  20.036   7.080  1.00  0.00    -0.162 F 
HETATM   17  F3  UNL     1      26.244  20.996   5.243  1.00  0.00    -0.162 F 
ENDBRANCH  11  14
ENDBRANCH   5   8
BRANCH   2  18
HETATM   18  C3  UNL     1      28.910  19.513  14.931  1.00  0.00     0.106 C 
BRANCH  18  19
HETATM   19  C4  UNL     1      28.955  20.857  15.493  1.00  0.00     0.136 C 
HETATM   20  N1  UNL     1      27.944  21.277  16.156  1.00  0.00    -0.251 N 
ATOM     21  H1  UNL     1      27.130  20.674  16.282  1.00  0.00     0.196 HD
BRANCH  19  22
HETATM   22  O1  UNL     1      30.026  21.732  15.361  1.00  0.00    -0.348 OA
ATOM     23  H1  UNL     1      30.558  21.818  14.579  1.00  0.00     0.219 HD
ENDBRANCH  19  22
BRANCH  20  24
HETATM   24  O2  UNL     1      27.954  22.531  16.694  1.00  0.00    -0.288 OA
ATOM     25  H2  UNL     1      27.787  23.287  16.143  1.00  0.00     0.244 HD
ENDBRANCH  20  24
ENDBRANCH  18  19
ENDBRANCH   2  18
TORSDOF 6
ENDMDL
MODEL 2
REMARK VINA RESULT: -7.810408885      3.820      4.405
REMARK  6 active torsions:
REMARK  status: ('A' for Active; 'I' for Inactive)
REMARK    1  A    between atoms: C2_2  and  C3_3 
REMARK    2  A    between atoms: C3_3  and  C4_4 
REMARK    3  A    between atoms: C4_4  and  O1_5 
REMARK    4  A    between atoms: N1_7  and  O2_9 
REMARK    5  A    between atoms: C7_13  and  C8_14 
REMARK       I    between atoms: C8_14  and  N2_16 
REMARK       I    between atoms: N2_16  and  C9_18 
REMARK    6  A    between atoms: C9_18  and  C10_20 
ROOT
HETATM    1  C1  UNL     1      30.744  20.328  13.446  1.00  0.00     0.027 C 
HETATM    2  C2  UNL     1      29.240  20.305  13.396  1.00  0.00     0.011 C 
HETATM    3  C5  UNL     1      28.644  18.971  13.717  1.00  0.00     0.021 C 
HETATM    4  C6  UNL     1      29.231  17.855  12.922  1.00  0.00     0.016 C 
HETATM    5  C7  UNL     1      29.211  18.016  11.453  1.00  0.00     0.087 C 
HETATM    6  C11 UNL     1      28.223  19.051  10.967  1.00  0.00     0.088 C 
HETATM    7  S1  UNL     1      28.787  20.658  11.648  1.00  0.00    -0.158 SA
ENDROOT
BRANCH   5   8
HETATM    8  C8  UNL     1      28.832  16.722  10.760  1.00  0.00     0.229 C 
HETATM    9  O3  UNL     1      29.759  15.909  10.647  1.00  0.00    -0.273 OA
HETATM   10  N2  UNL     1      27.516  16.535  10.314  1.00  0.00    -0.290 N 
HETATM   11  C9  UNL     1      26.981  15.423   9.667  1.00  0.00     0.332 C 
ATOM     12  H2  UNL     1      26.872  17.307  10.485  1.00  0.00     0.172 HD
HETATM   13  O4  UNL     1      25.728  15.478   9.356  1.00  0.00    -0.263 OA
BRANCH  11  14
HETATM   14  C10 UNL     1      27.746  14.227   9.328  1.00  0.00     0.472 C 
HETATM   15  F1  UNL     1      28.774  14.480   8.434  1.00  0.00    -0.162 F 
HETATM   16  F2  UNL     1      28.255  13.540  10.403  1.00  0.00    -0.162 F 
HETATM   17  F3  UNL     1      26.849  13.316   8.727  1.00  0.00    -0.162 F 
ENDBRANCH  11  14
ENDBRANCH   5   8
BRANCH   2  18
HETATM   18  C3  UNL     1      28.694  21.431  14.196  1.00  0.00     0.106 C 
BRANCH  18  19
HETATM   19  C4  UNL     1      28.897  21.355  15.637  1.00  0.00     0.136 C 
HETATM   20  N1  UNL     1      29.918  21.939  16.143  1.00  0.00    -0.251 N 
ATOM     21  H1  UNL     1      30.569  22.443  15.539  1.00  0.00     0.196 HD
BRANCH  19  22
HETATM   22  O1  UNL     1      28.058  20.686  16.519  1.00  0.00    -0.348 OA
ATOM     23  H1  UNL     1      27.117  20.808  16.565  1.00  0.00     0.219 HD
ENDBRANCH  19  22
BRANCH  20  24
HETATM   24  O2  UNL     1      30.138  21.886  17.489  1.00  0.00    -0.288 OA
ATOM     25  H2  UNL     1      30.697  22.531  17.905  1.00  0.00     0.244 HD
ENDBRANCH  20  24
ENDBRANCH  18  19
ENDBRANCH   2  18
TORSDOF 6
ENDMDL
MODEL 3
REMARK VINA RESULT: -7.803139497      5.375      6.419
REMARK  6 active torsions:
REMARK  status: ('A' for Active; 'I' for Inactive)
REMARK    1  A    between atoms: C2_2  and  C3_3 
REMARK    2  A    between atoms: C3_3  and  C4_4 
REMARK    3  A    between atoms: C4_4  and  O1_5 
REMARK    4  A    between atoms: N1_7  and  O2_9 
REMARK    5  A    between atoms: C7_13  and  C8_14 
REMARK       I    between atoms: C8_14  and  N2_16 
REMARK       I    between atoms: N2_16  and  C9_18 
REMARK    6  A    between atoms: C9_18  and  C10_20 
ROOT
HETATM    1  C1  UNL     1      27.610  12.185   8.116  1.00  0.00     0.027 C 
HETATM    2  C2  UNL     1      28.144  12.836   9.362  1.00  0.00     0.011 C 
HETATM    3  C5  UNL     1      27.192  13.799   9.998  1.00  0.00     0.021 C 
HETATM    4  C6  UNL     1      26.651  14.810   9.047  1.00  0.00     0.016 C 
HETATM    5  C7  UNL     1      27.647  15.596   8.288  1.00  0.00     0.087 C 
HETATM    6  C11 UNL     1      29.030  15.576   8.898  1.00  0.00     0.088 C 
HETATM    7  S1  UNL     1      29.596  13.833   8.829  1.00  0.00    -0.158 SA
ENDROOT
BRANCH   5   8
HETATM    8  C8  UNL     1      27.251  17.057   8.204  1.00  0.00     0.229 C 
HETATM    9  O3  UNL     1      26.792  17.525   9.255  1.00  0.00    -0.273 OA
HETATM   10  N2  UNL     1      27.423  17.753   7.000  1.00  0.00    -0.290 N 
HETATM   11  C9  UNL     1      27.125  19.088   6.733  1.00  0.00     0.332 C 
ATOM     12  H2  UNL     1      27.814  17.218   6.225  1.00  0.00     0.172 HD
HETATM   13  O4  UNL     1      27.379  19.513   5.540  1.00  0.00    -0.263 OA
BRANCH  11  14
HETATM   14  C10 UNL     1      26.551  20.010   7.709  1.00  0.00     0.472 C 
HETATM   15  F1  UNL     1      25.238  19.706   8.030  1.00  0.00    -0.162 F 
HETATM   16  F2  UNL     1      27.270  20.144   8.872  1.00  0.00    -0.162 F 
HETATM   17  F3  UNL     1      26.581  21.299   7.132  1.00  0.00    -0.162 F 
ENDBRANCH  11  14
ENDBRANCH   5   8
BRANCH   2  18
HETATM   18  C3  UNL     1      28.676  11.798  10.283  1.00  0.00     0.106 C 
BRANCH  18  19
HETATM   19  C4  UNL     1      28.650  12.123  11.703  1.00  0.00     0.136 C 
HETATM   20  N1  UNL     1      29.700  12.625  12.235  1.00  0.00    -0.251 N 
ATOM     21  H1  UNL     1      30.531  12.791  11.666  1.00  0.00     0.196 HD
BRANCH  19  22
HETATM   22  O1  UNL     1      27.558  11.924  12.538  1.00  0.00    -0.348 OA
ATOM     23  H1  UNL     1      26.855  12.549  12.665  1.00  0.00     0.219 HD
ENDBRANCH  19  22
BRANCH  20  24
HETATM   24  O2  UNL     1      29.709  12.940  13.563  1.00  0.00    -0.288 OA
ATOM     25  H2  UNL     1      30.386  12.590  14.130  1.00  0.00     0.244 HD
ENDBRANCH  20  24
ENDBRANCH  18  19
ENDBRANCH   2  18
TORSDOF 6
ENDMDL
MODEL 4
REMARK VINA RESULT: -7.762078846      5.304      7.835
REMARK  6 active torsions:
REMARK  status: ('A' for Active; 'I' for Inactive)
REMARK    1  A    between atoms: C2_2  and  C3_3 
REMARK    2  A    between atoms: C3_3  and  C4_4 
REMARK    3  A    between atoms: C4_4  and  O1_5 
REMARK    4  A    between atoms: N1_7  and  O2_9 
REMARK    5  A    between atoms: C7_13  and  C8_14 
REMARK       I    between atoms: C8_14  and  N2_16 
REMARK       I    between atoms: N2_16  and  C9_18 
REMARK    6  A    between atoms: C9_18  and  C10_20 
ROOT
HETATM    1  C1  UNL     1      27.158  14.199   9.288  1.00  0.00     0.027 C 
HETATM    2  C2  UNL     1      27.896  15.212   8.456  1.00  0.00     0.011 C 
HETATM    3  C5  UNL     1      29.180  15.676   9.066  1.00  0.00     0.021 C 
HETATM    4  C6  UNL     1      29.032  16.136  10.476  1.00  0.00     0.016 C 
HETATM    5  C7  UNL     1      28.013  17.178  10.722  1.00  0.00     0.087 C 
HETATM    6  C11 UNL     1      27.596  17.927   9.478  1.00  0.00     0.088 C 
HETATM    7  S1  UNL     1      26.806  16.692   8.376  1.00  0.00    -0.158 SA
ENDROOT
BRANCH   5   8
HETATM    8  C8  UNL     1      28.520  18.230  11.689  1.00  0.00     0.229 C 
HETATM    9  O3  UNL     1      28.989  17.776  12.742  1.00  0.00    -0.273 OA
HETATM   10  N2  UNL     1      28.433  19.586  11.346  1.00  0.00    -0.290 N 
HETATM   11  C9  UNL     1      28.846  20.687  12.094  1.00  0.00     0.332 C 
ATOM     12  H2  UNL     1      28.017  19.792  10.438  1.00  0.00     0.172 HD
HETATM   13  O4  UNL     1      28.669  21.851  11.563  1.00  0.00    -0.263 OA
BRANCH  11  14
HETATM   14  C10 UNL     1      29.454  20.595  13.419  1.00  0.00     0.472 C 
HETATM   15  F1  UNL     1      28.574  20.135  14.384  1.00  0.00    -0.162 F 
HETATM   16  F2  UNL     1      30.605  19.847  13.478  1.00  0.00    -0.162 F 
HETATM   17  F3  UNL     1      29.867  21.897  13.778  1.00  0.00    -0.162 F 
ENDBRANCH  11  14
ENDBRANCH   5   8
BRANCH   2  18
HETATM   18  C3  UNL     1      28.021  14.719   7.060  1.00  0.00     0.106 C 
BRANCH  18  19
HETATM   19  C4  UNL     1      29.226  13.960   6.751  1.00  0.00     0.136 C 
HETATM   20  N1  UNL     1      29.990  14.380   5.813  1.00  0.00    -0.251 N 
ATOM     21  H1  UNL     1      29.750  15.229   5.302  1.00  0.00     0.196 HD
BRANCH  19  22
HETATM   22  O1  UNL     1      29.614  12.796   7.402  1.00  0.00    -0.348 OA
ATOM     23  H1  UNL     1      29.017  12.123   7.707  1.00  0.00     0.219 HD
ENDBRANCH  19  22
BRANCH  20  24
HETATM   24  O2  UNL     1      31.126  13.691   5.498  1.00  0.00    -0.288 OA
ATOM     25  H2  UNL     1      31.977  14.081   5.656  1.00  0.00     0.244 HD
ENDBRANCH  20  24
ENDBRANCH  18  19
ENDBRANCH   2  18
TORSDOF 6
ENDMDL
MODEL 5
REMARK VINA RESULT: -7.757321280      4.863      6.012
REMARK  6 active torsions:
REMARK  status: ('A' for Active; 'I' for Inactive)
REMARK    1  A    between atoms: C2_2  and  C3_3 
REMARK    2  A    between atoms: C3_3  and  C4_4 
REMARK    3  A    between atoms: C4_4  and  O1_5 
REMARK    4  A    between atoms: N1_7  and  O2_9 
REMARK    5  A    between atoms: C7_13  and  C8_14 
REMARK       I    between atoms: C8_14  and  N2_16 
REMARK       I    between atoms: N2_16  and  C9_18 
REMARK    6  A    between atoms: C9_18  and  C10_20 
ROOT
HETATM    1  C1  UNL     1      26.843  13.698  10.027  1.00  0.00     0.027 C 
HETATM    2  C2  UNL     1      28.248  14.125   9.698  1.00  0.00     0.011 C 
HETATM    3  C5  UNL     1      28.627  15.453  10.271  1.00  0.00     0.021 C 
HETATM    4  C6  UNL     1      27.646  16.531   9.962  1.00  0.00     0.016 C 
HETATM    5  C7  UNL     1      27.321  16.733   8.534  1.00  0.00     0.087 C 
HETATM    6  C11 UNL     1      28.339  16.137   7.589  1.00  0.00     0.088 C 
HETATM    7  S1  UNL     1      28.301  14.325   7.870  1.00  0.00    -0.158 SA
ENDROOT
BRANCH   5   8
HETATM    8  C8  UNL     1      27.245  18.207   8.187  1.00  0.00     0.229 C 
HETATM    9  O3  UNL     1      27.275  18.966   9.164  1.00  0.00    -0.273 OA
HETATM   10  N2  UNL     1      27.151  18.598   6.844  1.00  0.00    -0.290 N 
HETATM   11  C9  UNL     1      27.076  19.892   6.333  1.00  0.00     0.332 C 
ATOM     12  H2  UNL     1      27.136  17.844   6.158  1.00  0.00     0.172 HD
HETATM   13  O4  UNL     1      27.004  20.007   5.048  1.00  0.00    -0.263 OA
BRANCH  11  14
HETATM   14  C10 UNL     1      27.074  21.099   7.156  1.00  0.00     0.472 C 
HETATM   15  F1  UNL     1      25.970  21.181   7.988  1.00  0.00    -0.162 F 
HETATM   16  F2  UNL     1      28.208  21.290   7.907  1.00  0.00    -0.162 F 
HETATM   17  F3  UNL     1      27.050  22.202   6.275  1.00  0.00    -0.162 F 
ENDBRANCH  11  14
ENDBRANCH   5   8
BRANCH   2  18
HETATM   18  C3  UNL     1      29.194  13.025  10.017  1.00  0.00     0.106 C 
BRANCH  18  19
HETATM   19  C4  UNL     1      29.158  12.520  11.384  1.00  0.00     0.136 C 
HETATM   20  N1  UNL     1      29.780  13.171  12.293  1.00  0.00    -0.251 N 
ATOM     21  H1  UNL     1      30.287  14.024  12.055  1.00  0.00     0.196 HD
BRANCH  19  22
HETATM   22  O1  UNL     1      28.492  11.368  11.782  1.00  0.00    -0.348 OA
ATOM     23  H1  UNL     1      28.442  10.569  11.270  1.00  0.00     0.219 HD
ENDBRANCH  19  22
BRANCH  20  24
HETATM   24  O2  UNL     1      29.766  12.724  13.583  1.00  0.00    -0.288 OA
ATOM     25  H2  UNL     1      29.505  13.308  14.286  1.00  0.00     0.244 HD
ENDBRANCH  20  24
ENDBRANCH  18  19
ENDBRANCH   2  18
TORSDOF 6
ENDMDL
