MODEL 1
REMARK VINA RESULT: -6.675086237      0.000      0.000
REMARK  10 active torsions:
REMARK  status: ('A' for Active; 'I' for Inactive)
REMARK    1  A    between atoms: N1_2  and  C1_4 
REMARK    2  A    between atoms: C6_9  and  C7_10 
REMARK    3  A    between atoms: C7_10  and  C8_11 
REMARK    4  A    between atoms: C8_11  and  N2_12 
REMARK    5  A    between atoms: C8_11  and  C15_29 
REMARK    6  A    between atoms: N2_12  and  N3_14 
REMARK    7  A    between atoms: N3_14  and  C9_16 
REMARK    8  A    between atoms: C10_17  and  N4_18 
REMARK    9  A    between atoms: C14_25  and  N5_26 
REMARK   10  A    between atoms: C18_35  and  O7_36 
ROOT
HETATM    1  C8  UNL     1     -32.037 -18.741  60.336  1.00  0.00     0.059 C 
ENDROOT
BRANCH   1   2
HETATM    2  C7  UNL     1     -33.024 -19.399  61.119  1.00  0.00     0.042 C 
BRANCH   2   3
HETATM    3  C6  UNL     1     -34.445 -19.043  61.095  1.00  0.00    -0.001 A 
HETATM    4  C1  UNL     1     -34.985 -18.146  61.972  1.00  0.00     0.113 A 
HETATM    5  C2  UNL     1     -36.359 -17.832  61.855  1.00  0.00     0.037 A 
HETATM    6  C3  UNL     1     -37.152 -18.399  60.898  1.00  0.00     0.002 A 
HETATM    7  C4  UNL     1     -36.602 -19.309  60.012  1.00  0.00     0.001 A 
HETATM    8  C5  UNL     1     -35.285 -19.605  60.125  1.00  0.00     0.014 A 
BRANCH   4   9
HETATM    9  N1  UNL     1     -34.269 -17.529  63.018  1.00  0.00    -0.115 N 
HETATM   10  O1  UNL     1     -33.453 -16.620  62.934  1.00  0.00    -0.532 OA
HETATM   11  O2  UNL     1     -34.528 -18.002  64.297  1.00  0.00    -0.532 OA
ENDBRANCH   4   9
ENDBRANCH   2   3
ENDBRANCH   1   2
BRANCH   1  12
HETATM   12  N2  UNL     1     -32.103 -17.402  60.316  1.00  0.00    -0.302 N 
ATOM     13  H2  UNL     1     -31.807 -16.884  61.143  1.00  0.00     0.186 HD
BRANCH  12  14
HETATM   14  N3  UNL     1     -32.548 -16.710  59.237  1.00  0.00    -0.296 N 
ATOM     15  H3  UNL     1     -31.811 -16.369  58.619  1.00  0.00     0.187 HD
BRANCH  14  16
HETATM   16  C9  UNL     1     -33.854 -16.384  58.828  1.00  0.00     0.114 A 
HETATM   17  C10 UNL     1     -34.662 -15.470  59.446  1.00  0.00     0.135 A 
HETATM   18  C11 UNL     1     -35.998 -15.301  59.040  1.00  0.00     0.062 A 
HETATM   19  C12 UNL     1     -36.551 -16.029  58.017  1.00  0.00     0.038 A 
HETATM   20 CL1  UNL     1     -38.218 -15.769  57.550  1.00  0.00    -0.084 Cl
HETATM   21  C13 UNL     1     -35.735 -16.936  57.400  1.00  0.00     0.062 A 
HETATM   22  C14 UNL     1     -34.406 -17.147  57.761  1.00  0.00     0.135 A 
BRANCH  17  23
HETATM   23  N4  UNL     1     -34.241 -14.616  60.477  1.00  0.00    -0.113 N 
HETATM   24  O3  UNL     1     -35.121 -14.220  61.308  1.00  0.00    -0.532 OA
HETATM   25  O4  UNL     1     -32.972 -14.202  60.640  1.00  0.00    -0.532 OA
ENDBRANCH  17  23
BRANCH  22  26
HETATM   26  N5  UNL     1     -33.679 -18.092  57.025  1.00  0.00    -0.113 N 
HETATM   27  O5  UNL     1     -32.567 -18.011  56.517  1.00  0.00    -0.532 OA
HETATM   28  O6  UNL     1     -34.298 -19.358  56.872  1.00  0.00    -0.532 OA
ENDBRANCH  22  26
ENDBRANCH  14  16
ENDBRANCH  12  14
ENDBRANCH   1  12
BRANCH   1  29
HETATM   29  C15 UNL     1     -31.024 -19.241  59.426  1.00  0.00     0.265 C 
HETATM   30  N6  UNL     1     -29.694 -19.192  60.086  1.00  0.00    -0.063 N 
HETATM   31  C16 UNL     1     -28.837 -20.141  59.475  1.00  0.00     0.236 C 
ATOM     32  H62 UNL     1     -29.295 -18.254  60.086  1.00  0.00     0.278 HD
ATOM     33  H61 UNL     1     -29.757 -19.321  61.096  1.00  0.00     0.278 HD
HETATM   34  C17 UNL     1     -29.587 -20.718  58.306  1.00  0.00     0.061 C 
HETATM   35  C18 UNL     1     -31.051 -20.595  58.862  1.00  0.00     0.156 C 
BRANCH  35  36
HETATM   36  O7  UNL     1     -31.871 -20.803  57.748  1.00  0.00    -0.393 OA
ATOM     37  H7  UNL     1     -32.283 -21.656  57.670  1.00  0.00     0.210 HD
ENDBRANCH  35  36
ENDBRANCH   1  29
TORSDOF 10
ENDMDL
MODEL 2
REMARK VINA RESULT: -6.630265997      2.696      4.083
REMARK  10 active torsions:
REMARK  status: ('A' for Active; 'I' for Inactive)
REMARK    1  A    between atoms: N1_2  and  C1_4 
REMARK    2  A    between atoms: C6_9  and  C7_10 
REMARK    3  A    between atoms: C7_10  and  C8_11 
REMARK    4  A    between atoms: C8_11  and  N2_12 
REMARK    5  A    between atoms: C8_11  and  C15_29 
REMARK    6  A    between atoms: N2_12  and  N3_14 
REMARK    7  A    between atoms: N3_14  and  C9_16 
REMARK    8  A    between atoms: C10_17  and  N4_18 
REMARK    9  A    between atoms: C14_25  and  N5_26 
REMARK   10  A    between atoms: C18_35  and  O7_36 
ROOT
HETATM    1  C8  UNL     1     -31.030 -17.462  59.363  1.00  0.00     0.059 C 
ENDROOT
BRANCH   1   2
HETATM    2  C7  UNL     1     -32.283 -16.935  59.774  1.00  0.00     0.042 C 
BRANCH   2   3
HETATM    3  C6  UNL     1     -33.032 -17.438  60.930  1.00  0.00    -0.001 A 
HETATM    4  C1  UNL     1     -33.326 -16.648  62.005  1.00  0.00     0.113 A 
HETATM    5  C2  UNL     1     -34.085 -17.204  63.061  1.00  0.00     0.037 A 
HETATM    6  C3  UNL     1     -34.526 -18.496  63.034  1.00  0.00     0.002 A 
HETATM    7  C4  UNL     1     -34.226 -19.294  61.943  1.00  0.00     0.001 A 
HETATM    8  C5  UNL     1     -33.501 -18.757  60.932  1.00  0.00     0.014 A 
BRANCH   4   9
HETATM    9  N1  UNL     1     -32.893 -15.316  62.154  1.00  0.00    -0.115 N 
HETATM   10  O1  UNL     1     -33.523 -14.292  61.921  1.00  0.00    -0.532 OA
HETATM   11  O2  UNL     1     -31.601 -15.143  62.631  1.00  0.00    -0.532 OA
ENDBRANCH   4   9
ENDBRANCH   2   3
ENDBRANCH   1   2
BRANCH   1  12
HETATM   12  N2  UNL     1     -31.005 -18.034  58.150  1.00  0.00    -0.302 N 
ATOM     13  H2  UNL     1     -30.732 -17.469  57.347  1.00  0.00     0.186 HD
BRANCH  12  14
HETATM   14  N3  UNL     1     -31.328 -19.337  57.953  1.00  0.00    -0.296 N 
ATOM     15  H3  UNL     1     -30.528 -19.967  57.881  1.00  0.00     0.187 HD
BRANCH  14  16
HETATM   16  C9  UNL     1     -32.581 -19.965  57.829  1.00  0.00     0.114 A 
HETATM   17  C10 UNL     1     -33.689 -19.395  57.266  1.00  0.00     0.135 A 
HETATM   18  C11 UNL     1     -34.931 -20.054  57.299  1.00  0.00     0.062 A 
HETATM   19  C12 UNL     1     -35.093 -21.285  57.883  1.00  0.00     0.038 A 
HETATM   20 CL1  UNL     1     -36.663 -22.060  57.886  1.00  0.00    -0.084 Cl
HETATM   21  C13 UNL     1     -33.979 -21.851  58.437  1.00  0.00     0.062 A 
HETATM   22  C14 UNL     1     -32.725 -21.243  58.437  1.00  0.00     0.135 A 
BRANCH  17  23
HETATM   23  N4  UNL     1     -33.686 -18.164  56.592  1.00  0.00    -0.113 N 
HETATM   24  O3  UNL     1     -34.729 -17.440  56.686  1.00  0.00    -0.532 OA
HETATM   25  O4  UNL     1     -32.651 -17.708  55.865  1.00  0.00    -0.532 OA
ENDBRANCH  17  23
BRANCH  22  26
HETATM   26  N5  UNL     1     -31.665 -21.950  59.019  1.00  0.00    -0.113 N 
HETATM   27  O5  UNL     1     -30.967 -22.846  58.561  1.00  0.00    -0.532 OA
HETATM   28  O6  UNL     1     -31.307 -21.546  60.330  1.00  0.00    -0.532 OA
ENDBRANCH  22  26
ENDBRANCH  14  16
ENDBRANCH  12  14
ENDBRANCH   1  12
BRANCH   1  29
HETATM   29  C15 UNL     1     -29.768 -17.626  60.058  1.00  0.00     0.265 C 
HETATM   30  N6  UNL     1     -29.626 -16.566  61.091  1.00  0.00    -0.063 N 
HETATM   31  C16 UNL     1     -28.735 -17.015  62.097  1.00  0.00     0.236 C 
ATOM     32  H62 UNL     1     -29.342 -15.672  60.692  1.00  0.00     0.278 HD
ATOM     33  H61 UNL     1     -30.526 -16.275  61.472  1.00  0.00     0.278 HD
HETATM   34  C17 UNL     1     -28.183 -18.335  61.636  1.00  0.00     0.061 C 
HETATM   35  C18 UNL     1     -29.412 -18.842  60.799  1.00  0.00     0.156 C 
BRANCH  35  36
HETATM   36  O7  UNL     1     -28.914 -19.916  60.054  1.00  0.00    -0.393 OA
ATOM     37  H7  UNL     1     -28.564 -20.653  60.541  1.00  0.00     0.210 HD
ENDBRANCH  35  36
ENDBRANCH   1  29
TORSDOF 10
ENDMDL
MODEL 3
REMARK VINA RESULT: -6.616038954      3.653      5.971
REMARK  10 active torsions:
REMARK  status: ('A' for Active; 'I' for Inactive)
REMARK    1  A    between atoms: N1_2  and  C1_4 
REMARK    2  A    between atoms: C6_9  and  C7_10 
REMARK    3  A    between atoms: C7_10  and  C8_11 
REMARK    4  A    between atoms: C8_11  and  N2_12 
REMARK    5  A    between atoms: C8_11  and  C15_29 
REMARK    6  A    between atoms: N2_12  and  N3_14 
REMARK    7  A    between atoms: N3_14  and  C9_16 
REMARK    8  A    between atoms: C10_17  and  N4_18 
REMARK    9  A    between atoms: C14_25  and  N5_26 
REMARK   10  A    between atoms: C18_35  and  O7_36 
ROOT
HETATM    1  C8  UNL     1     -32.985 -20.496  59.633  1.00  0.00     0.059 C 
ENDROOT
BRANCH   1   2
HETATM    2  C7  UNL     1     -34.070 -19.905  60.335  1.00  0.00     0.042 C 
BRANCH   2   3
HETATM    3  C6  UNL     1     -33.989 -18.600  60.998  1.00  0.00    -0.001 A 
HETATM    4  C1  UNL     1     -33.710 -17.452  60.312  1.00  0.00     0.113 A 
HETATM    5  C2  UNL     1     -33.688 -16.231  61.024  1.00  0.00     0.037 A 
HETATM    6  C3  UNL     1     -33.934 -16.170  62.366  1.00  0.00     0.002 A 
HETATM    7  C4  UNL     1     -34.214 -17.336  63.058  1.00  0.00     0.001 A 
HETATM    8  C5  UNL     1     -34.238 -18.504  62.372  1.00  0.00     0.014 A 
BRANCH   4   9
HETATM    9  N1  UNL     1     -33.407 -17.402  58.937  1.00  0.00    -0.115 N 
HETATM   10  O1  UNL     1     -32.307 -17.498  58.407  1.00  0.00    -0.532 OA
HETATM   11  O2  UNL     1     -34.485 -17.234  58.079  1.00  0.00    -0.532 OA
ENDBRANCH   4   9
ENDBRANCH   2   3
ENDBRANCH   1   2
BRANCH   1  12
HETATM   12  N2  UNL     1     -31.778 -20.365  60.202  1.00  0.00    -0.302 N 
ATOM     13  H2  UNL     1     -31.653 -20.679  61.164  1.00  0.00     0.186 HD
BRANCH  12  14
HETATM   14  N3  UNL     1     -30.717 -19.832  59.546  1.00  0.00    -0.296 N 
ATOM     15  H3  UNL     1     -30.962 -19.240  58.752  1.00  0.00     0.187 HD
BRANCH  14  16
HETATM   16  C9  UNL     1     -29.335 -19.958  59.778  1.00  0.00     0.114 A 
HETATM   17  C10 UNL     1     -28.584 -19.090  60.522  1.00  0.00     0.135 A 
HETATM   18  C11 UNL     1     -27.187 -19.228  60.595  1.00  0.00     0.062 A 
HETATM   19  C12 UNL     1     -26.514 -20.228  59.939  1.00  0.00     0.038 A 
HETATM   20 CL1  UNL     1     -24.773 -20.355  60.074  1.00  0.00    -0.084 Cl
HETATM   21  C13 UNL     1     -27.272 -21.095  59.203  1.00  0.00     0.062 A 
HETATM   22  C14 UNL     1     -28.657 -21.004  59.092  1.00  0.00     0.135 A 
BRANCH  17  23
HETATM   23  N4  UNL     1     -29.120 -18.042  61.288  1.00  0.00    -0.113 N 
HETATM   24  O3  UNL     1     -28.365 -17.511  62.166  1.00  0.00    -0.532 OA
HETATM   25  O4  UNL     1     -30.369 -17.568  61.145  1.00  0.00    -0.532 OA
ENDBRANCH  17  23
BRANCH  22  26
HETATM   26  N5  UNL     1     -29.310 -21.977  58.323  1.00  0.00    -0.113 N 
HETATM   27  O5  UNL     1     -29.248 -22.206  57.122  1.00  0.00    -0.532 OA
HETATM   28  O6  UNL     1     -30.143 -22.870  59.044  1.00  0.00    -0.532 OA
ENDBRANCH  22  26
ENDBRANCH  14  16
ENDBRANCH  12  14
ENDBRANCH   1  12
BRANCH   1  29
HETATM   29  C15 UNL     1     -32.896 -21.118  58.326  1.00  0.00     0.265 C 
HETATM   30  N6  UNL     1     -33.168 -22.574  58.447  1.00  0.00    -0.063 N 
HETATM   31  C16 UNL     1     -33.622 -23.067  57.198  1.00  0.00     0.236 C 
ATOM     32  H62 UNL     1     -32.362 -23.091  58.798  1.00  0.00     0.278 HD
ATOM     33  H61 UNL     1     -33.816 -22.785  59.205  1.00  0.00     0.278 HD
HETATM   34  C17 UNL     1     -33.510 -21.936  56.214  1.00  0.00     0.061 C 
HETATM   35  C18 UNL     1     -33.744 -20.729  57.193  1.00  0.00     0.156 C 
BRANCH  35  36
HETATM   36  O7  UNL     1     -33.351 -19.601  56.464  1.00  0.00    -0.393 OA
ATOM     37  H7  UNL     1     -33.728 -19.496  55.597  1.00  0.00     0.210 HD
ENDBRANCH  35  36
ENDBRANCH   1  29
TORSDOF 10
ENDMDL
MODEL 4
REMARK VINA RESULT: -6.598760299      2.506      4.148
REMARK  10 active torsions:
REMARK  status: ('A' for Active; 'I' for Inactive)
REMARK    1  A    between atoms: N1_2  and  C1_4 
REMARK    2  A    between atoms: C6_9  and  C7_10 
REMARK    3  A    between atoms: C7_10  and  C8_11 
REMARK    4  A    between atoms: C8_11  and  N2_12 
REMARK    5  A    between atoms: C8_11  and  C15_29 
REMARK    6  A    between atoms: N2_12  and  N3_14 
REMARK    7  A    between atoms: N3_14  and  C9_16 
REMARK    8  A    between atoms: C10_17  and  N4_18 
REMARK    9  A    between atoms: C14_25  and  N5_26 
REMARK   10  A    between atoms: C18_35  and  O7_36 
ROOT
HETATM    1  C8  UNL     1     -30.937 -19.162  59.337  1.00  0.00     0.059 C 
ENDROOT
BRANCH   1   2
HETATM    2  C7  UNL     1     -30.314 -17.885  59.308  1.00  0.00     0.042 C 
BRANCH   2   3
HETATM    3  C6  UNL     1     -29.904 -17.158  60.512  1.00  0.00    -0.001 A 
HETATM    4  C1  UNL     1     -28.858 -17.570  61.289  1.00  0.00     0.113 A 
HETATM    5  C2  UNL     1     -28.506 -16.788  62.414  1.00  0.00     0.037 A 
HETATM    6  C3  UNL     1     -29.178 -15.645  62.740  1.00  0.00     0.002 A 
HETATM    7  C4  UNL     1     -30.238 -15.232  61.951  1.00  0.00     0.001 A 
HETATM    8  C5  UNL     1     -30.571 -15.981  60.873  1.00  0.00     0.014 A 
BRANCH   4   9
HETATM    9  N1  UNL     1     -28.119 -18.749  61.067  1.00  0.00    -0.115 N 
HETATM   10  O1  UNL     1     -27.093 -18.879  60.410  1.00  0.00    -0.532 OA
HETATM   11  O2  UNL     1     -28.606 -19.899  61.671  1.00  0.00    -0.532 OA
ENDBRANCH   4   9
ENDBRANCH   2   3
ENDBRANCH   1   2
BRANCH   1  12
HETATM   12  N2  UNL     1     -31.947 -19.301  60.207  1.00  0.00    -0.302 N 
ATOM     13  H2  UNL     1     -31.729 -19.449  61.192  1.00  0.00     0.186 HD
BRANCH  12  14
HETATM   14  N3  UNL     1     -33.249 -19.252  59.827  1.00  0.00    -0.296 N 
ATOM     15  H3  UNL     1     -33.705 -20.162  59.758  1.00  0.00     0.187 HD
BRANCH  14  16
HETATM   16  C9  UNL     1     -34.074 -18.158  59.512  1.00  0.00     0.114 A 
HETATM   17  C10 UNL     1     -34.811 -17.447  60.418  1.00  0.00     0.135 A 
HETATM   18  C11 UNL     1     -35.704 -16.447  59.993  1.00  0.00     0.062 A 
HETATM   19  C12 UNL     1     -35.876 -16.133  58.669  1.00  0.00     0.038 A 
HETATM   20 CL1  UNL     1     -36.996 -14.872  58.200  1.00  0.00    -0.084 Cl
HETATM   21  C13 UNL     1     -35.131 -16.843  57.769  1.00  0.00     0.062 A 
HETATM   22  C14 UNL     1     -34.235 -17.846  58.133  1.00  0.00     0.135 A 
BRANCH  17  23
HETATM   23  N4  UNL     1     -34.721 -17.612  61.809  1.00  0.00    -0.113 N 
HETATM   24  O3  UNL     1     -33.558 -17.603  62.328  1.00  0.00    -0.532 OA
HETATM   25  O4  UNL     1     -35.783 -17.772  62.618  1.00  0.00    -0.532 OA
ENDBRANCH  17  23
BRANCH  22  26
HETATM   26  N5  UNL     1     -33.518 -18.475  57.106  1.00  0.00    -0.113 N 
HETATM   27  O5  UNL     1     -32.748 -18.005  56.278  1.00  0.00    -0.532 OA
HETATM   28  O6  UNL     1     -33.666 -19.883  57.030  1.00  0.00    -0.532 OA
ENDBRANCH  22  26
ENDBRANCH  14  16
ENDBRANCH  12  14
ENDBRANCH   1  12
BRANCH   1  29
HETATM   29  C15 UNL     1     -30.610 -20.419  58.690  1.00  0.00     0.265 C 
HETATM   30  N6  UNL     1     -29.134 -20.582  58.634  1.00  0.00    -0.063 N 
HETATM   31  C16 UNL     1     -28.823 -21.961  58.536  1.00  0.00     0.236 C 
ATOM     32  H62 UNL     1     -28.712 -20.034  57.885  1.00  0.00     0.278 HD
ATOM     33  H61 UNL     1     -28.665 -20.134  59.421  1.00  0.00     0.278 HD
HETATM   34  C17 UNL     1     -30.127 -22.694  58.387  1.00  0.00     0.061 C 
HETATM   35  C18 UNL     1     -31.055 -21.721  59.198  1.00  0.00     0.156 C 
BRANCH  35  36
HETATM   36  O7  UNL     1     -32.356 -22.120  58.872  1.00  0.00    -0.393 OA
ATOM     37  H7  UNL     1     -32.732 -21.757  58.078  1.00  0.00     0.210 HD
ENDBRANCH  35  36
ENDBRANCH   1  29
TORSDOF 10
ENDMDL
MODEL 5
REMARK VINA RESULT: -6.588739419      2.511      4.836
REMARK  10 active torsions:
REMARK  status: ('A' for Active; 'I' for Inactive)
REMARK    1  A    between atoms: N1_2  and  C1_4 
REMARK    2  A    between atoms: C6_9  and  C7_10 
REMARK    3  A    between atoms: C7_10  and  C8_11 
REMARK    4  A    between atoms: C8_11  and  N2_12 
REMARK    5  A    between atoms: C8_11  and  C15_29 
REMARK    6  A    between atoms: N2_12  and  N3_14 
REMARK    7  A    between atoms: N3_14  and  C9_16 
REMARK    8  A    between atoms: C10_17  and  N4_18 
REMARK    9  A    between atoms: C14_25  and  N5_26 
REMARK   10  A    between atoms: C18_35  and  O7_36 
ROOT
HETATM    1  C8  UNL     1     -31.040 -19.086  59.383  1.00  0.00     0.059 C 
ENDROOT
BRANCH   1   2
HETATM    2  C7  UNL     1     -30.395 -17.820  59.360  1.00  0.00     0.042 C 
BRANCH   2   3
HETATM    3  C6  UNL     1     -29.924 -17.130  60.564  1.00  0.00    -0.001 A 
HETATM    4  C1  UNL     1     -28.857 -17.581  61.289  1.00  0.00     0.113 A 
HETATM    5  C2  UNL     1     -28.446 -16.833  62.417  1.00  0.00     0.037 A 
HETATM    6  C3  UNL     1     -29.082 -15.685  62.796  1.00  0.00     0.002 A 
HETATM    7  C4  UNL     1     -30.164 -15.233  62.060  1.00  0.00     0.001 A 
HETATM    8  C5  UNL     1     -30.553 -15.950  60.979  1.00  0.00     0.014 A 
BRANCH   4   9
HETATM    9  N1  UNL     1     -28.151 -18.767  61.009  1.00  0.00    -0.115 N 
HETATM   10  O1  UNL     1     -27.150 -18.899  60.316  1.00  0.00    -0.532 OA
HETATM   11  O2  UNL     1     -28.642 -19.924  61.598  1.00  0.00    -0.532 OA
ENDBRANCH   4   9
ENDBRANCH   2   3
ENDBRANCH   1   2
BRANCH   1  12
HETATM   12  N2  UNL     1     -32.009 -19.233  60.299  1.00  0.00    -0.302 N 
ATOM     13  H2  UNL     1     -31.747 -19.321  61.280  1.00  0.00     0.186 HD
BRANCH  12  14
HETATM   14  N3  UNL     1     -33.324 -19.269  59.968  1.00  0.00    -0.296 N 
ATOM     15  H3  UNL     1     -33.783 -20.163  60.146  1.00  0.00     0.187 HD
BRANCH  14  16
HETATM   16  C9  UNL     1     -34.162 -18.279  59.421  1.00  0.00     0.114 A 
HETATM   17  C10 UNL     1     -34.251 -17.978  58.090  1.00  0.00     0.135 A 
HETATM   18  C11 UNL     1     -35.024 -16.889  57.650  1.00  0.00     0.062 A 
HETATM   19  C12 UNL     1     -35.722 -16.087  58.517  1.00  0.00     0.038 A 
HETATM   20 CL1  UNL     1     -36.674 -14.750  57.909  1.00  0.00    -0.084 Cl
HETATM   21  C13 UNL     1     -35.633 -16.399  59.845  1.00  0.00     0.062 A 
HETATM   22  C14 UNL     1     -34.881 -17.463  60.338  1.00  0.00     0.135 A 
BRANCH  17  23
HETATM   23  N4  UNL     1     -33.637 -18.723  57.072  1.00  0.00    -0.113 N 
HETATM   24  O3  UNL     1     -32.899 -18.093  56.246  1.00  0.00    -0.532 OA
HETATM   25  O4  UNL     1     -33.776 -20.052  56.922  1.00  0.00    -0.532 OA
ENDBRANCH  17  23
BRANCH  22  26
HETATM   26  N5  UNL     1     -34.901 -17.682  61.722  1.00  0.00    -0.113 N 
HETATM   27  O5  UNL     1     -35.837 -17.948  62.466  1.00  0.00    -0.532 OA
HETATM   28  O6  UNL     1     -33.640 -17.630  62.368  1.00  0.00    -0.532 OA
ENDBRANCH  22  26
ENDBRANCH  14  16
ENDBRANCH  12  14
ENDBRANCH   1  12
BRANCH   1  29
HETATM   29  C15 UNL     1     -30.769 -20.329  58.686  1.00  0.00     0.265 C 
HETATM   30  N6  UNL     1     -29.303 -20.490  58.507  1.00  0.00    -0.063 N 
HETATM   31  C16 UNL     1     -29.003 -21.867  58.354  1.00  0.00     0.236 C 
ATOM     32  H62 UNL     1     -28.942 -19.927  57.737  1.00  0.00     0.278 HD
ATOM     33  H61 UNL     1     -28.770 -20.059  59.262  1.00  0.00     0.278 HD
HETATM   34  C17 UNL     1     -30.315 -22.597  58.296  1.00  0.00     0.061 C 
HETATM   35  C18 UNL     1     -31.173 -21.642  59.201  1.00  0.00     0.156 C 
BRANCH  35  36
HETATM   36  O7  UNL     1     -32.497 -22.034  58.973  1.00  0.00    -0.393 OA
ATOM     37  H7  UNL     1     -32.956 -22.443  59.698  1.00  0.00     0.210 HD
ENDBRANCH  35  36
ENDBRANCH   1  29
TORSDOF 10
ENDMDL
