MODEL 1
REMARK VINA RESULT: -6.985438362      0.000      0.000
REMARK  10 active torsions:
REMARK  status: ('A' for Active; 'I' for Inactive)
REMARK    1  A    between atoms: C4_4  and  S1_5 
REMARK    2  A    between atoms: S1_5  and  C5_6 
REMARK    3  A    between atoms: C5_6  and  C6_7 
REMARK    4  A    between atoms: N1_10  and  C9_11 
REMARK    5  A    between atoms: C9_11  and  N2_12 
REMARK    6  A    between atoms: N2_12  and  C10_14 
REMARK    7  A    between atoms: C10_14  and  N3_16 
REMARK    8  A    between atoms: N3_16  and  N4_18 
REMARK    9  A    between atoms: N5_23  and  N6_24 
REMARK   10  A    between atoms: C12_27  and  N7_28 
ROOT
HETATM    1  C6  UNL     1     -34.221 -19.486  58.583  1.00  0.00     0.068 A 
HETATM    2  C7  UNL     1     -34.681 -19.306  59.905  1.00  0.00     0.037 A 
HETATM    3  C8  UNL     1     -33.846 -19.895  61.023  1.00  0.00     0.070 C 
HETATM    4  N1  UNL     1     -35.821 -18.670  59.916  1.00  0.00    -0.308 N 
HETATM    5  C11 UNL     1     -36.160 -18.410  58.665  1.00  0.00     0.201 A 
HETATM    6  S3  UNL     1     -37.496 -17.609  58.180  1.00  0.00    -0.038 SA
HETATM    7  N5  UNL     1     -35.159 -18.916  57.851  1.00  0.00    -0.238 N 
ENDROOT
BRANCH   1   8
HETATM    8  C5  UNL     1     -32.899 -20.088  58.287  1.00  0.00     0.141 C 
BRANCH   8   9
HETATM    9  S1  UNL     1     -31.517 -19.173  58.188  1.00  0.00    -0.121 SA
BRANCH   9  10
HETATM   10  C4  UNL     1     -30.553 -18.405  59.335  1.00  0.00     0.034 A 
HETATM   11  C3  UNL     1     -30.839 -17.109  59.774  1.00  0.00     0.029 A 
HETATM   12  C2  UNL     1     -30.192 -16.515  60.825  1.00  0.00    -0.039 A 
HETATM   13  C1  UNL     1     -30.602 -15.143  61.214  1.00  0.00     0.050 C 
HETATM   14  C14 UNL     1     -29.196 -17.231  61.494  1.00  0.00     0.042 A 
HETATM   15  C13 UNL     1     -28.903 -18.478  61.093  1.00  0.00     0.061 A 
HETATM   16 CL1  UNL     1     -28.420 -16.428  62.862  1.00  0.00    -0.084 Cl
HETATM   17  C12 UNL     1     -29.546 -19.107  60.022  1.00  0.00     0.121 A 
BRANCH  17  18
HETATM   18  N7  UNL     1     -29.156 -20.421  59.745  1.00  0.00    -0.114 N 
HETATM   19  O3  UNL     1     -28.183 -20.824  59.193  1.00  0.00    -0.532 OA
HETATM   20  O4  UNL     1     -29.984 -21.423  60.253  1.00  0.00    -0.532 OA
ENDBRANCH  17  18
ENDBRANCH   9  10
ENDBRANCH   8   9
ENDBRANCH   1   8
BRANCH   7  21
HETATM   21  N6  UNL     1     -35.138 -18.735  56.464  1.00  0.00    -0.336 N 
ATOM     22  H62 UNL     1     -34.401 -18.221  55.980  1.00  0.00     0.177 HD
ATOM     23  H61 UNL     1     -35.786 -19.142  55.788  1.00  0.00     0.177 HD
ENDBRANCH   7  21
BRANCH   4  24
HETATM   24  C9  UNL     1     -36.526 -18.298  61.207  1.00  0.00     0.256 C 
BRANCH  24  25
HETATM   25  N2  UNL     1     -36.014 -17.035  61.549  1.00  0.00    -0.349 N 
ATOM     26  H2  UNL     1     -36.452 -16.261  61.050  1.00  0.00     0.163 HD
BRANCH  25  27
HETATM   27  C10 UNL     1     -35.038 -16.648  62.425  1.00  0.00     0.192 C 
HETATM   28  S2  UNL     1     -34.653 -17.721  63.705  1.00  0.00    -0.039 SA
BRANCH  27  29
HETATM   29  N3  UNL     1     -34.327 -15.444  62.447  1.00  0.00    -0.216 N 
ATOM     30  H3  UNL     1     -33.555 -15.384  63.111  1.00  0.00     0.195 HD
BRANCH  29  31
HETATM   31  N4  UNL     1     -34.555 -14.332  61.672  1.00  0.00    -0.037 N 
HETATM   32  O1  UNL     1     -34.548 -14.393  60.426  1.00  0.00    -0.516 OA
HETATM   33  O2  UNL     1     -34.910 -13.138  62.317  1.00  0.00    -0.516 OA
ENDBRANCH  29  31
ENDBRANCH  27  29
ENDBRANCH  25  27
ENDBRANCH  24  25
ENDBRANCH   4  24
TORSDOF 10
ENDMDL
MODEL 2
REMARK VINA RESULT: -6.923610636      3.145      4.393
REMARK  10 active torsions:
REMARK  status: ('A' for Active; 'I' for Inactive)
REMARK    1  A    between atoms: C4_4  and  S1_5 
REMARK    2  A    between atoms: S1_5  and  C5_6 
REMARK    3  A    between atoms: C5_6  and  C6_7 
REMARK    4  A    between atoms: N1_10  and  C9_11 
REMARK    5  A    between atoms: C9_11  and  N2_12 
REMARK    6  A    between atoms: N2_12  and  C10_14 
REMARK    7  A    between atoms: C10_14  and  N3_16 
REMARK    8  A    between atoms: N3_16  and  N4_18 
REMARK    9  A    between atoms: N5_23  and  N6_24 
REMARK   10  A    between atoms: C12_27  and  N7_28 
ROOT
HETATM    1  C6  UNL     1     -31.452 -17.117  59.729  1.00  0.00     0.068 A 
HETATM    2  C7  UNL     1     -32.442 -16.566  60.571  1.00  0.00     0.037 A 
HETATM    3  C8  UNL     1     -31.998 -16.021  61.911  1.00  0.00     0.070 C 
HETATM    4  N1  UNL     1     -33.624 -16.674  60.026  1.00  0.00    -0.308 N 
HETATM    5  C11 UNL     1     -33.486 -17.273  58.856  1.00  0.00     0.201 A 
HETATM    6  S3  UNL     1     -34.685 -17.605  57.801  1.00  0.00    -0.038 SA
HETATM    7  N5  UNL     1     -32.136 -17.537  58.683  1.00  0.00    -0.238 N 
ENDROOT
BRANCH   1   8
HETATM    8  C5  UNL     1     -30.008 -17.034  60.058  1.00  0.00     0.141 C 
BRANCH   8   9
HETATM    9  S1  UNL     1     -29.174 -18.326  60.685  1.00  0.00    -0.121 SA
BRANCH   9  10
HETATM   10  C4  UNL     1     -28.250 -19.553  59.994  1.00  0.00     0.034 A 
HETATM   11  C3  UNL     1     -26.855 -19.547  60.080  1.00  0.00     0.029 A 
HETATM   12  C2  UNL     1     -26.077 -20.604  59.689  1.00  0.00    -0.039 A 
HETATM   13  C1  UNL     1     -24.606 -20.489  59.853  1.00  0.00     0.050 C 
HETATM   14  C14 UNL     1     -26.699 -21.745  59.178  1.00  0.00     0.042 A 
HETATM   15  C13 UNL     1     -28.038 -21.777  59.085  1.00  0.00     0.061 A 
HETATM   16 CL1  UNL     1     -25.648 -23.090  58.722  1.00  0.00    -0.084 Cl
HETATM   17  C12 UNL     1     -28.856 -20.711  59.475  1.00  0.00     0.121 A 
BRANCH  17  18
HETATM   18  N7  UNL     1     -30.235 -20.905  59.352  1.00  0.00    -0.114 N 
HETATM   19  O3  UNL     1     -30.944 -20.738  58.413  1.00  0.00    -0.532 OA
HETATM   20  O4  UNL     1     -30.877 -21.449  60.466  1.00  0.00    -0.532 OA
ENDBRANCH  17  18
ENDBRANCH   9  10
ENDBRANCH   8   9
ENDBRANCH   1   8
BRANCH   7  21
HETATM   21  N6  UNL     1     -31.609 -18.080  57.506  1.00  0.00    -0.336 N 
ATOM     22  H62 UNL     1     -31.243 -17.509  56.744  1.00  0.00     0.177 HD
ATOM     23  H61 UNL     1     -31.461 -19.070  57.307  1.00  0.00     0.177 HD
ENDBRANCH   7  21
BRANCH   4  24
HETATM   24  C9  UNL     1     -34.873 -16.125  60.690  1.00  0.00     0.256 C 
BRANCH  24  25
HETATM   25  N2  UNL     1     -35.505 -17.245  61.256  1.00  0.00    -0.349 N 
ATOM     26  H2  UNL     1     -36.501 -17.308  61.047  1.00  0.00     0.163 HD
BRANCH  25  27
HETATM   27  C10 UNL     1     -35.037 -18.267  62.034  1.00  0.00     0.192 C 
HETATM   28  S2  UNL     1     -34.743 -17.931  63.689  1.00  0.00    -0.039 SA
BRANCH  27  29
HETATM   29  N3  UNL     1     -34.709 -19.569  61.643  1.00  0.00    -0.216 N 
ATOM     30  H3  UNL     1     -34.140 -20.109  62.293  1.00  0.00     0.195 HD
BRANCH  29  31
HETATM   31  N4  UNL     1     -35.071 -20.200  60.476  1.00  0.00    -0.037 N 
HETATM   32  O1  UNL     1     -36.221 -20.092  60.007  1.00  0.00    -0.516 OA
HETATM   33  O2  UNL     1     -34.078 -20.883  59.760  1.00  0.00    -0.516 OA
ENDBRANCH  29  31
ENDBRANCH  27  29
ENDBRANCH  25  27
ENDBRANCH  24  25
ENDBRANCH   4  24
TORSDOF 10
ENDMDL
MODEL 3
REMARK VINA RESULT: -6.910558408      3.144      4.420
REMARK  10 active torsions:
REMARK  status: ('A' for Active; 'I' for Inactive)
REMARK    1  A    between atoms: C4_4  and  S1_5 
REMARK    2  A    between atoms: S1_5  and  C5_6 
REMARK    3  A    between atoms: C5_6  and  C6_7 
REMARK    4  A    between atoms: N1_10  and  C9_11 
REMARK    5  A    between atoms: C9_11  and  N2_12 
REMARK    6  A    between atoms: N2_12  and  C10_14 
REMARK    7  A    between atoms: C10_14  and  N3_16 
REMARK    8  A    between atoms: N3_16  and  N4_18 
REMARK    9  A    between atoms: N5_23  and  N6_24 
REMARK   10  A    between atoms: C12_27  and  N7_28 
ROOT
HETATM    1  C6  UNL     1     -31.602 -17.089  59.703  1.00  0.00     0.068 A 
HETATM    2  C7  UNL     1     -32.648 -16.534  60.472  1.00  0.00     0.037 A 
HETATM    3  C8  UNL     1     -32.299 -15.992  61.841  1.00  0.00     0.070 C 
HETATM    4  N1  UNL     1     -33.787 -16.635  59.842  1.00  0.00    -0.308 N 
HETATM    5  C11 UNL     1     -33.568 -17.233  58.685  1.00  0.00     0.201 A 
HETATM    6  S3  UNL     1     -34.689 -17.558  57.545  1.00  0.00    -0.038 SA
HETATM    7  N5  UNL     1     -32.211 -17.505  58.609  1.00  0.00    -0.238 N 
ENDROOT
BRANCH   1   8
HETATM    8  C5  UNL     1     -30.186 -17.015  60.136  1.00  0.00     0.141 C 
BRANCH   8   9
HETATM    9  S1  UNL     1     -29.380 -18.335  60.740  1.00  0.00    -0.121 SA
BRANCH   9  10
HETATM   10  C4  UNL     1     -28.451 -19.548  60.032  1.00  0.00     0.034 A 
HETATM   11  C3  UNL     1     -27.057 -19.541  60.125  1.00  0.00     0.029 A 
HETATM   12  C2  UNL     1     -26.275 -20.591  59.719  1.00  0.00    -0.039 A 
HETATM   13  C1  UNL     1     -24.805 -20.477  59.893  1.00  0.00     0.050 C 
HETATM   14  C14 UNL     1     -26.893 -21.723  59.183  1.00  0.00     0.042 A 
HETATM   15  C13 UNL     1     -28.231 -21.755  59.083  1.00  0.00     0.061 A 
HETATM   16 CL1  UNL     1     -25.838 -23.058  58.709  1.00  0.00    -0.084 Cl
HETATM   17  C12 UNL     1     -29.052 -20.697  59.488  1.00  0.00     0.121 A 
BRANCH  17  18
HETATM   18  N7  UNL     1     -30.430 -20.891  59.354  1.00  0.00    -0.114 N 
HETATM   19  O3  UNL     1     -31.131 -20.731  58.407  1.00  0.00    -0.532 OA
HETATM   20  O4  UNL     1     -31.083 -21.425  60.467  1.00  0.00    -0.532 OA
ENDBRANCH  17  18
ENDBRANCH   9  10
ENDBRANCH   8   9
ENDBRANCH   1   8
BRANCH   7  21
HETATM   21  N6  UNL     1     -31.603 -18.050  57.474  1.00  0.00    -0.336 N 
ATOM     22  H62 UNL     1     -31.636 -19.044  57.246  1.00  0.00     0.177 HD
ATOM     23  H61 UNL     1     -31.138 -17.533  56.727  1.00  0.00     0.177 HD
ENDBRANCH   7  21
BRANCH   4  24
HETATM   24  C9  UNL     1     -35.078 -16.078  60.415  1.00  0.00     0.256 C 
BRANCH  24  25
HETATM   25  N2  UNL     1     -35.591 -17.110  61.221  1.00  0.00    -0.349 N 
ATOM     26  H2  UNL     1     -35.344 -17.026  62.207  1.00  0.00     0.163 HD
BRANCH  25  27
HETATM   27  C10 UNL     1     -36.358 -18.203  60.932  1.00  0.00     0.192 C 
HETATM   28  S2  UNL     1     -38.048 -17.964  60.769  1.00  0.00    -0.039 SA
BRANCH  27  29
HETATM   29  N3  UNL     1     -35.948 -19.534  60.796  1.00  0.00    -0.216 N 
ATOM     30  H3  UNL     1     -36.686 -20.235  60.759  1.00  0.00     0.195 HD
BRANCH  29  31
HETATM   31  N4  UNL     1     -34.657 -19.998  60.708  1.00  0.00    -0.037 N 
HETATM   32  O1  UNL     1     -33.785 -19.659  61.532  1.00  0.00    -0.516 OA
HETATM   33  O2  UNL     1     -34.366 -20.956  59.727  1.00  0.00    -0.516 OA
ENDBRANCH  29  31
ENDBRANCH  27  29
ENDBRANCH  25  27
ENDBRANCH  24  25
ENDBRANCH   4  24
TORSDOF 10
ENDMDL
MODEL 4
REMARK VINA RESULT: -6.816542926      3.122      4.396
REMARK  10 active torsions:
REMARK  status: ('A' for Active; 'I' for Inactive)
REMARK    1  A    between atoms: C4_4  and  S1_5 
REMARK    2  A    between atoms: S1_5  and  C5_6 
REMARK    3  A    between atoms: C5_6  and  C6_7 
REMARK    4  A    between atoms: N1_10  and  C9_11 
REMARK    5  A    between atoms: C9_11  and  N2_12 
REMARK    6  A    between atoms: N2_12  and  C10_14 
REMARK    7  A    between atoms: C10_14  and  N3_16 
REMARK    8  A    between atoms: N3_16  and  N4_18 
REMARK    9  A    between atoms: N5_23  and  N6_24 
REMARK   10  A    between atoms: C12_27  and  N7_28 
ROOT
HETATM    1  C6  UNL     1     -32.373 -16.721  59.338  1.00  0.00     0.068 A 
HETATM    2  C7  UNL     1     -33.765 -16.781  59.109  1.00  0.00     0.037 A 
HETATM    3  C8  UNL     1     -34.265 -17.793  58.101  1.00  0.00     0.070 C 
HETATM    4  N1  UNL     1     -34.388 -15.876  59.814  1.00  0.00    -0.308 N 
HETATM    5  C11 UNL     1     -33.489 -15.203  60.510  1.00  0.00     0.201 A 
HETATM    6  S3  UNL     1     -33.798 -13.989  61.555  1.00  0.00    -0.038 SA
HETATM    7  N5  UNL     1     -32.247 -15.738  60.210  1.00  0.00    -0.238 N 
ENDROOT
BRANCH   1   8
HETATM    8  C5  UNL     1     -31.437 -17.704  58.742  1.00  0.00     0.141 C 
BRANCH   8   9
HETATM    9  S1  UNL     1     -30.835 -18.985  59.611  1.00  0.00    -0.121 SA
BRANCH   9  10
HETATM   10  C4  UNL     1     -29.320 -19.715  59.698  1.00  0.00     0.034 A 
HETATM   11  C3  UNL     1     -29.008 -20.835  58.924  1.00  0.00     0.029 A 
HETATM   12  C2  UNL     1     -27.743 -21.353  58.831  1.00  0.00    -0.039 A 
HETATM   13  C1  UNL     1     -27.531 -22.532  57.955  1.00  0.00     0.050 C 
HETATM   14  C14 UNL     1     -26.711 -20.738  59.542  1.00  0.00     0.042 A 
HETATM   15  C13 UNL     1     -26.983 -19.659  60.294  1.00  0.00     0.061 A 
HETATM   16 CL1  UNL     1     -25.095 -21.427  59.358  1.00  0.00    -0.084 Cl
HETATM   17  C12 UNL     1     -28.265 -19.112  60.408  1.00  0.00     0.121 A 
BRANCH  17  18
HETATM   18  N7  UNL     1     -28.387 -17.966  61.199  1.00  0.00    -0.114 N 
HETATM   19  O3  UNL     1     -28.677 -16.856  60.887  1.00  0.00    -0.532 OA
HETATM   20  O4  UNL     1     -28.222 -18.151  62.572  1.00  0.00    -0.532 OA
ENDBRANCH  17  18
ENDBRANCH   9  10
ENDBRANCH   8   9
ENDBRANCH   1   8
BRANCH   7  21
HETATM   21  N6  UNL     1     -31.067 -15.333  60.842  1.00  0.00    -0.336 N 
ATOM     22  H62 UNL     1     -30.388 -15.989  61.229  1.00  0.00     0.177 HD
ATOM     23  H61 UNL     1     -30.718 -14.377  60.922  1.00  0.00     0.177 HD
ENDBRANCH   7  21
BRANCH   4  24
HETATM   24  C9  UNL     1     -35.900 -15.742  59.800  1.00  0.00     0.256 C 
BRANCH  24  25
HETATM   25  N2  UNL     1     -36.336 -16.430  60.946  1.00  0.00    -0.349 N 
ATOM     26  H2  UNL     1     -36.377 -15.852  61.785  1.00  0.00     0.163 HD
BRANCH  25  27
HETATM   27  C10 UNL     1     -36.715 -17.727  61.147  1.00  0.00     0.192 C 
HETATM   28  S2  UNL     1     -38.322 -18.156  60.731  1.00  0.00    -0.039 SA
BRANCH  27  29
HETATM   29  N3  UNL     1     -35.966 -18.768  61.706  1.00  0.00    -0.216 N 
ATOM     30  H3  UNL     1     -36.477 -19.617  61.946  1.00  0.00     0.195 HD
BRANCH  29  31
HETATM   31  N4  UNL     1     -34.616 -18.771  61.966  1.00  0.00    -0.037 N 
HETATM   32  O1  UNL     1     -33.853 -19.602  61.435  1.00  0.00    -0.516 OA
HETATM   33  O2  UNL     1     -34.096 -17.742  62.762  1.00  0.00    -0.516 OA
ENDBRANCH  29  31
ENDBRANCH  27  29
ENDBRANCH  25  27
ENDBRANCH  24  25
ENDBRANCH   4  24
TORSDOF 10
ENDMDL
MODEL 5
REMARK VINA RESULT: -6.728824047      2.686      3.460
REMARK  10 active torsions:
REMARK  status: ('A' for Active; 'I' for Inactive)
REMARK    1  A    between atoms: C4_4  and  S1_5 
REMARK    2  A    between atoms: S1_5  and  C5_6 
REMARK    3  A    between atoms: C5_6  and  C6_7 
REMARK    4  A    between atoms: N1_10  and  C9_11 
REMARK    5  A    between atoms: C9_11  and  N2_12 
REMARK    6  A    between atoms: N2_12  and  C10_14 
REMARK    7  A    between atoms: C10_14  and  N3_16 
REMARK    8  A    between atoms: N3_16  and  N4_18 
REMARK    9  A    between atoms: N5_23  and  N6_24 
REMARK   10  A    between atoms: C12_27  and  N7_28 
ROOT
HETATM    1  C6  UNL     1     -32.999 -19.368  59.329  1.00  0.00     0.068 A 
HETATM    2  C7  UNL     1     -33.562 -18.081  59.468  1.00  0.00     0.037 A 
HETATM    3  C8  UNL     1     -32.626 -16.894  59.382  1.00  0.00     0.070 C 
HETATM    4  N1  UNL     1     -34.844 -18.160  59.698  1.00  0.00    -0.308 N 
HETATM    5  C11 UNL     1     -35.181 -19.438  59.724  1.00  0.00     0.201 A 
HETATM    6  S3  UNL     1     -36.683 -20.029  59.957  1.00  0.00    -0.038 SA
HETATM    7  N5  UNL     1     -34.031 -20.174  59.490  1.00  0.00    -0.238 N 
ENDROOT
BRANCH   1   8
HETATM    8  C5  UNL     1     -31.576 -19.566  58.960  1.00  0.00     0.141 C 
BRANCH   8   9
HETATM    9  S1  UNL     1     -30.443 -20.067  60.065  1.00  0.00    -0.121 SA
BRANCH   9  10
HETATM   10  C4  UNL     1     -28.770 -20.258  60.002  1.00  0.00     0.034 A 
HETATM   11  C3  UNL     1     -28.184 -21.268  59.234  1.00  0.00     0.029 A 
HETATM   12  C2  UNL     1     -26.835 -21.353  59.014  1.00  0.00    -0.039 A 
HETATM   13  C1  UNL     1     -26.333 -22.458  58.159  1.00  0.00     0.050 C 
HETATM   14  C14 UNL     1     -25.998 -20.390  59.582  1.00  0.00     0.042 A 
HETATM   15  C13 UNL     1     -26.536 -19.408  60.323  1.00  0.00     0.061 A 
HETATM   16 CL1  UNL     1     -24.272 -20.529  59.236  1.00  0.00    -0.084 Cl
HETATM   17  C12 UNL     1     -27.909 -19.299  60.565  1.00  0.00     0.121 A 
BRANCH  17  18
HETATM   18  N7  UNL     1     -28.324 -18.203  61.327  1.00  0.00    -0.114 N 
HETATM   19  O3  UNL     1     -28.206 -18.000  62.493  1.00  0.00    -0.532 OA
HETATM   20  O4  UNL     1     -28.893 -17.145  60.616  1.00  0.00    -0.532 OA
ENDBRANCH  17  18
ENDBRANCH   9  10
ENDBRANCH   8   9
ENDBRANCH   1   8
BRANCH   7  21
HETATM   21  N6  UNL     1     -34.029 -21.566  59.351  1.00  0.00    -0.336 N 
ATOM     22  H62 UNL     1     -33.339 -22.069  58.793  1.00  0.00     0.177 HD
ATOM     23  H61 UNL     1     -34.643 -22.225  59.830  1.00  0.00     0.177 HD
ENDBRANCH   7  21
BRANCH   4  24
HETATM   24  C9  UNL     1     -35.717 -16.927  59.844  1.00  0.00     0.256 C 
BRANCH  24  25
HETATM   25  N2  UNL     1     -35.892 -16.769  61.230  1.00  0.00    -0.349 N 
ATOM     26  H2  UNL     1     -36.859 -16.864  61.538  1.00  0.00     0.163 HD
BRANCH  25  27
HETATM   27  C10 UNL     1     -35.010 -16.514  62.242  1.00  0.00     0.192 C 
HETATM   28  S2  UNL     1     -34.728 -17.764  63.381  1.00  0.00    -0.039 SA
BRANCH  27  29
HETATM   29  N3  UNL     1     -34.325 -15.324  62.510  1.00  0.00    -0.216 N 
ATOM     30  H3  UNL     1     -33.646 -15.351  63.270  1.00  0.00     0.195 HD
BRANCH  29  31
HETATM   31  N4  UNL     1     -34.469 -14.121  61.860  1.00  0.00    -0.037 N 
HETATM   32  O1  UNL     1     -34.055 -13.956  60.696  1.00  0.00    -0.516 OA
HETATM   33  O2  UNL     1     -35.195 -13.107  62.501  1.00  0.00    -0.516 OA
ENDBRANCH  29  31
ENDBRANCH  27  29
ENDBRANCH  25  27
ENDBRANCH  24  25
ENDBRANCH   4  24
TORSDOF 10
ENDMDL
