MODEL 1
REMARK VINA RESULT: -6.581153599      0.000      0.000
REMARK  3 active torsions:
REMARK  status: ('A' for Active; 'I' for Inactive)
REMARK       I    between atoms: C2_2  and  N1_4 
REMARK       I    between atoms: N2_6  and  C4_7 
REMARK    1  A    between atoms: C4_7  and  C5_9 
REMARK    2  A    between atoms: C5_9  and  C6_10 
REMARK    3  A    between atoms: C10_14  and  C11_15 
ROOT
HETATM    1  C1  UNL     1      29.020  50.966   0.661  1.00  0.00     0.117 C 
HETATM    2  C2  UNL     1      27.553  50.694   0.680  1.00  0.00     0.217 C 
HETATM    3  O1  UNL     1      27.022  50.626   1.842  1.00  0.00    -0.274 OA
HETATM    4  N1  UNL     1      26.783  50.518  -0.503  1.00  0.00    -0.330 N 
HETATM    5  C3  UNL     1      27.492  50.617  -1.757  1.00  0.00     0.256 C 
HETATM    6  N2  UNL     1      26.622  50.971  -2.856  1.00  0.00    -0.320 N 
HETATM    7  C4  UNL     1      27.238  51.330  -4.078  1.00  0.00     0.222 C 
HETATM    8  O2  UNL     1      26.529  51.645  -5.061  1.00  0.00    -0.273 OA
HETATM    9  C10 UNL     1      25.181  50.979  -2.781  1.00  0.00     0.199 C 
HETATM   10  C12 UNL     1      24.610  50.264  -1.637  1.00  0.00     0.065 C 
HETATM   11  C13 UNL     1      23.290  50.840  -1.268  1.00  0.00    -0.021 C 
HETATM   12  C14 UNL     1      23.301  51.406  -0.079  1.00  0.00    -0.028 C 
HETATM   13  C15 UNL     1      24.654  51.265   0.481  1.00  0.00     0.053 C 
HETATM   14  C16 UNL     1      25.393  50.259  -0.375  1.00  0.00     0.102 C 
ENDROOT
BRANCH   7  15
HETATM   15  C5  UNL     1      28.712  51.351  -4.256  1.00  0.00     0.111 C 
BRANCH  15  16
HETATM   16  C6  UNL     1      29.208  50.108  -4.911  1.00  0.00    -0.043 C 
HETATM   17  C7  UNL     1      30.314  50.438  -5.877  1.00  0.00     0.015 C 
HETATM   18  C8  UNL     1      29.766  49.165  -3.860  1.00  0.00     0.015 C 
HETATM   19  C9  UNL     1      28.137  49.372  -5.675  1.00  0.00     0.015 C 
ENDBRANCH  15  16
ENDBRANCH   7  15
BRANCH   9  20
HETATM   20  C11 UNL     1      24.752  52.397  -2.874  1.00  0.00     0.197 C 
HETATM   21  O3  UNL     1      23.772  52.797  -3.571  1.00  0.00    -0.646 OA
HETATM   22  O4  UNL     1      25.418  53.425  -2.178  1.00  0.00    -0.646 OA
ENDBRANCH   9  20
TORSDOF 3
ENDMDL
MODEL 2
REMARK VINA RESULT: -6.433660199      0.978      1.080
REMARK  3 active torsions:
REMARK  status: ('A' for Active; 'I' for Inactive)
REMARK       I    between atoms: C2_2  and  N1_4 
REMARK       I    between atoms: N2_6  and  C4_7 
REMARK    1  A    between atoms: C4_7  and  C5_9 
REMARK    2  A    between atoms: C5_9  and  C6_10 
REMARK    3  A    between atoms: C10_14  and  C11_15 
ROOT
HETATM    1  C1  UNL     1      28.959  51.095  -0.428  1.00  0.00     0.117 C 
HETATM    2  C2  UNL     1      27.532  50.796  -0.108  1.00  0.00     0.217 C 
HETATM    3  O1  UNL     1      27.254  50.721   1.139  1.00  0.00    -0.274 OA
HETATM    4  N1  UNL     1      26.538  50.604  -1.106  1.00  0.00    -0.330 N 
HETATM    5  C3  UNL     1      26.970  50.714  -2.479  1.00  0.00     0.256 C 
HETATM    6  N2  UNL     1      25.886  51.051  -3.374  1.00  0.00    -0.320 N 
HETATM    7  C4  UNL     1      26.229  51.419  -4.696  1.00  0.00     0.222 C 
HETATM    8  O2  UNL     1      25.326  51.719  -5.510  1.00  0.00    -0.273 OA
HETATM    9  C10 UNL     1      24.491  51.033  -3.002  1.00  0.00     0.199 C 
HETATM   10  C12 UNL     1      24.182  50.310  -1.767  1.00  0.00     0.065 C 
HETATM   11  C13 UNL     1      22.957  50.862  -1.131  1.00  0.00    -0.021 C 
HETATM   12  C14 UNL     1      23.203  51.430   0.031  1.00  0.00    -0.028 C 
HETATM   13  C15 UNL     1      24.645  51.315   0.299  1.00  0.00     0.053 C 
HETATM   14  C16 UNL     1      25.209  50.321  -0.694  1.00  0.00     0.102 C 
ENDROOT
BRANCH   7  15
HETATM   15  C5  UNL     1      27.633  51.467  -5.175  1.00  0.00     0.111 C 
BRANCH  15  16
HETATM   16  C6  UNL     1      27.950  50.323  -6.077  1.00  0.00    -0.043 C 
HETATM   17  C7  UNL     1      29.023  50.717  -7.054  1.00  0.00     0.015 C 
HETATM   18  C8  UNL     1      28.464  49.154  -5.257  1.00  0.00     0.015 C 
HETATM   19  C9  UNL     1      26.760  49.847  -6.870  1.00  0.00     0.015 C 
ENDBRANCH  15  16
ENDBRANCH   7  15
BRANCH   9  20
HETATM   20  C11 UNL     1      24.026  52.443  -3.002  1.00  0.00     0.197 C 
HETATM   21  O3  UNL     1      22.902  52.819  -3.450  1.00  0.00    -0.646 OA
HETATM   22  O4  UNL     1      24.820  53.489  -2.491  1.00  0.00    -0.646 OA
ENDBRANCH   9  20
TORSDOF 3
ENDMDL
MODEL 3
REMARK VINA RESULT: -6.153059641      1.838      5.071
REMARK  3 active torsions:
REMARK  status: ('A' for Active; 'I' for Inactive)
REMARK       I    between atoms: C2_2  and  N1_4 
REMARK       I    between atoms: N2_6  and  C4_7 
REMARK    1  A    between atoms: C4_7  and  C5_9 
REMARK    2  A    between atoms: C5_9  and  C6_10 
REMARK    3  A    between atoms: C10_14  and  C11_15 
ROOT
HETATM    1  C1  UNL     1      27.372  51.223  -3.990  1.00  0.00     0.117 C 
HETATM    2  C2  UNL     1      26.135  51.154  -3.159  1.00  0.00     0.217 C 
HETATM    3  O1  UNL     1      25.045  50.989  -3.809  1.00  0.00    -0.274 OA
HETATM    4  N1  UNL     1      26.148  51.261  -1.741  1.00  0.00    -0.330 N 
HETATM    5  C3  UNL     1      27.437  51.445  -1.117  1.00  0.00     0.256 C 
HETATM    6  N2  UNL     1      27.451  51.008   0.260  1.00  0.00    -0.320 N 
HETATM    7  C4  UNL     1      28.711  50.915   0.896  1.00  0.00     0.222 C 
HETATM    8  O2  UNL     1      28.778  50.542   2.090  1.00  0.00    -0.273 OA
HETATM    9  C10 UNL     1      26.270  50.667   1.016  1.00  0.00     0.199 C 
HETATM   10  C12 UNL     1      25.004  51.122   0.437  1.00  0.00     0.065 C 
HETATM   11  C13 UNL     1      23.890  50.230   0.852  1.00  0.00    -0.021 C 
HETATM   12  C14 UNL     1      23.366  49.571  -0.160  1.00  0.00    -0.028 C 
HETATM   13  C15 UNL     1      24.088  49.961  -1.381  1.00  0.00     0.053 C 
HETATM   14  C16 UNL     1      24.913  51.185  -1.044  1.00  0.00     0.102 C 
ENDROOT
BRANCH   7  15
HETATM   15  C5  UNL     1      29.983  51.245   0.205  1.00  0.00     0.111 C 
BRANCH  15  16
HETATM   16  C6  UNL     1      30.811  52.201   0.995  1.00  0.00    -0.043 C 
HETATM   17  C7  UNL     1      31.813  51.450   1.829  1.00  0.00     0.015 C 
HETATM   18  C8  UNL     1      31.571  53.117   0.053  1.00  0.00     0.015 C 
HETATM   19  C9  UNL     1      29.995  53.064   1.925  1.00  0.00     0.015 C 
ENDBRANCH  15  16
ENDBRANCH   7  15
BRANCH   9  20
HETATM   20  C11 UNL     1      26.323  49.203   1.262  1.00  0.00     0.197 C 
HETATM   21  O3  UNL     1      26.547  48.341   0.361  1.00  0.00    -0.646 OA
HETATM   22  O4  UNL     1      26.121  48.655   2.544  1.00  0.00    -0.646 OA
ENDBRANCH   9  20
TORSDOF 3
ENDMDL
MODEL 4
REMARK VINA RESULT: -6.104429063      0.970      1.659
REMARK  3 active torsions:
REMARK  status: ('A' for Active; 'I' for Inactive)
REMARK       I    between atoms: C2_2  and  N1_4 
REMARK       I    between atoms: N2_6  and  C4_7 
REMARK    1  A    between atoms: C4_7  and  C5_9 
REMARK    2  A    between atoms: C5_9  and  C6_10 
REMARK    3  A    between atoms: C10_14  and  C11_15 
ROOT
HETATM    1  C1  UNL     1      29.053  50.931   0.794  1.00  0.00     0.117 C 
HETATM    2  C2  UNL     1      27.585  50.667   0.787  1.00  0.00     0.217 C 
HETATM    3  O1  UNL     1      27.031  50.614   1.939  1.00  0.00    -0.274 OA
HETATM    4  N1  UNL     1      26.836  50.483  -0.408  1.00  0.00    -0.330 N 
HETATM    5  C3  UNL     1      27.569  50.566  -1.649  1.00  0.00     0.256 C 
HETATM    6  N2  UNL     1      26.723  50.914  -2.768  1.00  0.00    -0.320 N 
HETATM    7  C4  UNL     1      27.364  51.257  -3.981  1.00  0.00     0.222 C 
HETATM    8  O2  UNL     1      26.675  51.566  -4.981  1.00  0.00    -0.273 OA
HETATM    9  C10 UNL     1      25.281  50.930  -2.721  1.00  0.00     0.199 C 
HETATM   10  C12 UNL     1      24.684  50.230  -1.581  1.00  0.00     0.065 C 
HETATM   11  C13 UNL     1      23.361  50.817  -1.243  1.00  0.00    -0.021 C 
HETATM   12  C14 UNL     1      23.352  51.394  -0.060  1.00  0.00    -0.028 C 
HETATM   13  C15 UNL     1      24.693  51.252   0.528  1.00  0.00     0.053 C 
HETATM   14  C16 UNL     1      25.443  50.234  -0.304  1.00  0.00     0.102 C 
ENDROOT
BRANCH   7  15
HETATM   15  C5  UNL     1      28.841  51.269  -4.131  1.00  0.00     0.111 C 
BRANCH  15  16
HETATM   16  C6  UNL     1      29.395  52.650  -4.050  1.00  0.00    -0.043 C 
HETATM   17  C7  UNL     1      30.270  52.786  -2.834  1.00  0.00     0.015 C 
HETATM   18  C8  UNL     1      30.245  52.932  -5.276  1.00  0.00     0.015 C 
HETATM   19  C9  UNL     1      28.329  53.713  -3.969  1.00  0.00     0.015 C 
ENDBRANCH  15  16
ENDBRANCH   7  15
BRANCH   9  20
HETATM   20  C11 UNL     1      24.861  52.350  -2.836  1.00  0.00     0.197 C 
HETATM   21  O3  UNL     1      23.925  52.754  -3.589  1.00  0.00    -0.646 OA
HETATM   22  O4  UNL     1      25.488  53.375  -2.100  1.00  0.00    -0.646 OA
ENDBRANCH   9  20
TORSDOF 3
ENDMDL
MODEL 5
REMARK VINA RESULT: -5.739244781      2.355      5.259
REMARK  3 active torsions:
REMARK  status: ('A' for Active; 'I' for Inactive)
REMARK       I    between atoms: C2_2  and  N1_4 
REMARK       I    between atoms: N2_6  and  C4_7 
REMARK    1  A    between atoms: C4_7  and  C5_9 
REMARK    2  A    between atoms: C5_9  and  C6_10 
REMARK    3  A    between atoms: C10_14  and  C11_15 
ROOT
HETATM    1  C1  UNL     1      28.800  50.196  -3.222  1.00  0.00     0.117 C 
HETATM    2  C2  UNL     1      28.588  51.648  -3.489  1.00  0.00     0.217 C 
HETATM    3  O1  UNL     1      29.544  52.241  -4.098  1.00  0.00    -0.274 OA
HETATM    4  N1  UNL     1      27.409  52.343  -3.100  1.00  0.00    -0.330 N 
HETATM    5  C3  UNL     1      26.397  51.570  -2.420  1.00  0.00     0.256 C 
HETATM    6  N2  UNL     1      25.080  52.151  -2.547  1.00  0.00    -0.320 N 
HETATM    7  C4  UNL     1      23.982  51.362  -2.131  1.00  0.00     0.222 C 
HETATM    8  O2  UNL     1      22.820  51.821  -2.219  1.00  0.00    -0.273 OA
HETATM    9  C10 UNL     1      24.822  53.473  -3.065  1.00  0.00     0.199 C 
HETATM   10  C12 UNL     1      25.989  54.357  -3.134  1.00  0.00     0.065 C 
HETATM   11  C13 UNL     1      25.819  55.363  -4.215  1.00  0.00    -0.021 C 
HETATM   12  C14 UNL     1      26.692  55.210  -5.188  1.00  0.00    -0.028 C 
HETATM   13  C15 UNL     1      27.552  54.065  -4.854  1.00  0.00     0.053 C 
HETATM   14  C16 UNL     1      27.308  53.727  -3.399  1.00  0.00     0.102 C 
ENDROOT
BRANCH   7  15
HETATM   15  C5  UNL     1      24.143  49.992  -1.583  1.00  0.00     0.111 C 
BRANCH  15  16
HETATM   16  C6  UNL     1      24.067  49.978  -0.094  1.00  0.00    -0.043 C 
HETATM   17  C7  UNL     1      22.938  49.093   0.358  1.00  0.00     0.015 C 
HETATM   18  C8  UNL     1      25.360  49.425   0.478  1.00  0.00     0.015 C 
HETATM   19  C9  UNL     1      23.843  51.346   0.501  1.00  0.00     0.015 C 
ENDBRANCH  15  16
ENDBRANCH   7  15
BRANCH   9  20
HETATM   20  C11 UNL     1      24.128  53.299  -4.366  1.00  0.00     0.197 C 
HETATM   21  O3  UNL     1      23.091  53.942  -4.708  1.00  0.00    -0.646 OA
HETATM   22  O4  UNL     1      24.583  52.385  -5.337  1.00  0.00    -0.646 OA
ENDBRANCH   9  20
TORSDOF 3
ENDMDL
