MODEL 1
REMARK VINA RESULT: -7.967789219      0.000      0.000
REMARK  6 active torsions:
REMARK  status: ('A' for Active; 'I' for Inactive)
REMARK    1  A    between atoms: N1_1  and  N2_4 
REMARK       I    between atoms: N2_4  and  C1_6 
REMARK       I    between atoms: C1_6  and  N4_11 
REMARK    2  A    between atoms: N3_7  and  O1_9 
REMARK    3  A    between atoms: N4_11  and  N5_13 
REMARK    4  A    between atoms: C2_15  and  O2_16 
REMARK    5  A    between atoms: C2_15  and  N6_18 
REMARK       I    between atoms: N6_18  and  C3_20 
REMARK    6  A    between atoms: C3_20  and  C4_22 
ROOT
HETATM    1  N5  UNL     1       1.781   6.307  56.435  1.00  0.00    -0.251 N 
ATOM      2  H5  UNL     1       2.323   6.641  55.639  1.00  0.00     0.191 HD
HETATM    3  C2  UNL     1       1.536   5.051  56.544  1.00  0.00     0.239 C 
ENDROOT
BRANCH   1   4
HETATM    4  N4  UNL     1       1.327   7.214  57.369  1.00  0.00    -0.126 N 
HETATM    5  C1  UNL     1       1.731   8.575  57.336  1.00  0.00     0.730 C 
HETATM    6  N2  UNL     1       1.647   9.414  58.475  1.00  0.00    -0.136 N 
HETATM    7  N3  UNL     1       2.186   9.054  56.231  1.00  0.00    -0.096 N 
ATOM      8  H2  UNL     1       1.869   9.004  59.382  1.00  0.00     0.205 HD
ATOM      9  H3  UNL     1       2.472  10.032  56.215  1.00  0.00     0.213 HD
ATOM     10  H4  UNL     1       0.687   6.901  58.100  1.00  0.00     0.206 HD
BRANCH   6  11
HETATM   11  N1  UNL     1       1.286  10.750  58.448  1.00  0.00    -0.331 N 
ATOM     12  H12 UNL     1       0.539  11.033  59.082  1.00  0.00     0.177 HD
ATOM     13  H11 UNL     1       1.710  11.456  57.845  1.00  0.00     0.177 HD
ENDBRANCH   6  11
BRANCH   7  14
HETATM   14  O1  UNL     1       2.308   8.337  55.085  1.00  0.00    -0.276 OA
ATOM     15  H1  UNL     1       2.159   8.692  54.217  1.00  0.00     0.245 HD
ENDBRANCH   7  14
ENDBRANCH   1   4
BRANCH   3  16
HETATM   16  O2  UNL     1       0.788   4.637  57.655  1.00  0.00    -0.331 OA
ATOM     17  H2  UNL     1       0.021   5.152  57.878  1.00  0.00     0.221 HD
ENDBRANCH   3  16
BRANCH   3  18
HETATM   18  N6  UNL     1       2.002   4.130  55.585  1.00  0.00    -0.286 N 
HETATM   19  C3  UNL     1       1.146   3.198  54.941  1.00  0.00     0.282 C 
HETATM   20  O3  UNL     1      -0.069   3.207  55.248  1.00  0.00    -0.265 OA
ATOM     21  H6  UNL     1       2.993   4.133  55.344  1.00  0.00     0.172 HD
BRANCH  19  22
HETATM   22  C4  UNL     1       1.636   2.248  53.950  1.00  0.00     0.142 A 
HETATM   23  C5  UNL     1       0.948   1.161  53.458  1.00  0.00     0.045 A 
HETATM   24  C6  UNL     1       1.775   0.537  52.546  1.00  0.00     0.027 A 
HETATM   25  C7  UNL     1       2.933   1.273  52.523  1.00  0.00     0.143 A 
HETATM   26  O4  UNL     1       2.801   2.283  53.377  1.00  0.00    -0.317 OA
ENDBRANCH  19  22
ENDBRANCH   3  18
TORSDOF 6
ENDMDL
MODEL 2
REMARK VINA RESULT: -7.800868036      2.524      3.008
REMARK  6 active torsions:
REMARK  status: ('A' for Active; 'I' for Inactive)
REMARK    1  A    between atoms: N1_1  and  N2_4 
REMARK       I    between atoms: N2_4  and  C1_6 
REMARK       I    between atoms: C1_6  and  N4_11 
REMARK    2  A    between atoms: N3_7  and  O1_9 
REMARK    3  A    between atoms: N4_11  and  N5_13 
REMARK    4  A    between atoms: C2_15  and  O2_16 
REMARK    5  A    between atoms: C2_15  and  N6_18 
REMARK       I    between atoms: N6_18  and  C3_20 
REMARK    6  A    between atoms: C3_20  and  C4_22 
ROOT
HETATM    1  N5  UNL     1       1.581   6.219  56.135  1.00  0.00    -0.251 N 
ATOM      2  H5  UNL     1       0.630   6.120  56.489  1.00  0.00     0.191 HD
HETATM    3  C2  UNL     1       2.177   5.192  55.645  1.00  0.00     0.239 C 
ENDROOT
BRANCH   1   4
HETATM    4  N4  UNL     1       2.196   7.452  56.193  1.00  0.00    -0.126 N 
HETATM    5  C1  UNL     1       1.494   8.609  56.621  1.00  0.00     0.730 C 
HETATM    6  N2  UNL     1       1.932   9.918  56.297  1.00  0.00    -0.136 N 
HETATM    7  N3  UNL     1       0.429   8.456  57.327  1.00  0.00    -0.096 N 
ATOM      8  H2  UNL     1       2.324  10.069  55.368  1.00  0.00     0.205 HD
ATOM      9  H3  UNL     1      -0.068   9.292  57.632  1.00  0.00     0.213 HD
ATOM     10  H4  UNL     1       3.176   7.534  55.922  1.00  0.00     0.206 HD
BRANCH   6  11
HETATM   11  N1  UNL     1       1.865  11.007  57.149  1.00  0.00    -0.331 N 
ATOM     12  H12 UNL     1       2.597  11.079  57.855  1.00  0.00     0.177 HD
ATOM     13  H11 UNL     1       1.143  11.728  57.117  1.00  0.00     0.177 HD
ENDBRANCH   6  11
BRANCH   7  14
HETATM   14  O1  UNL     1      -0.074   7.249  57.691  1.00  0.00    -0.276 OA
ATOM     15  H1  UNL     1       0.353   6.654  58.296  1.00  0.00     0.245 HD
ENDBRANCH   7  14
ENDBRANCH   1   4
BRANCH   3  16
HETATM   16  O2  UNL     1       3.483   5.376  55.168  1.00  0.00    -0.331 OA
ATOM     17  H2  UNL     1       4.143   5.637  55.799  1.00  0.00     0.221 HD
ENDBRANCH   3  16
BRANCH   3  18
HETATM   18  N6  UNL     1       1.542   3.936  55.590  1.00  0.00    -0.286 N 
HETATM   19  C3  UNL     1       0.721   3.448  56.640  1.00  0.00     0.282 C 
HETATM   20  O3  UNL     1       0.565   4.175  57.650  1.00  0.00    -0.265 OA
ATOM     21  H6  UNL     1       1.677   3.355  54.763  1.00  0.00     0.172 HD
BRANCH  19  22
HETATM   22  C4  UNL     1       0.067   2.147  56.577  1.00  0.00     0.142 A 
HETATM   23  C5  UNL     1       0.402   1.033  57.314  1.00  0.00     0.045 A 
HETATM   24  C6  UNL     1      -0.467   0.026  56.945  1.00  0.00     0.027 A 
HETATM   25  C7  UNL     1      -1.296   0.573  55.997  1.00  0.00     0.143 A 
HETATM   26  O4  UNL     1      -0.938   1.839  55.813  1.00  0.00    -0.317 OA
ENDBRANCH  19  22
ENDBRANCH   3  18
TORSDOF 6
ENDMDL
MODEL 3
REMARK VINA RESULT: -7.624904420      1.866      2.971
REMARK  6 active torsions:
REMARK  status: ('A' for Active; 'I' for Inactive)
REMARK    1  A    between atoms: N1_1  and  N2_4 
REMARK       I    between atoms: N2_4  and  C1_6 
REMARK       I    between atoms: C1_6  and  N4_11 
REMARK    2  A    between atoms: N3_7  and  O1_9 
REMARK    3  A    between atoms: N4_11  and  N5_13 
REMARK    4  A    between atoms: C2_15  and  O2_16 
REMARK    5  A    between atoms: C2_15  and  N6_18 
REMARK       I    between atoms: N6_18  and  C3_20 
REMARK    6  A    between atoms: C3_20  and  C4_22 
ROOT
HETATM    1  N5  UNL     1       1.917   7.935  57.524  1.00  0.00    -0.251 N 
ATOM      2  H5  UNL     1       1.876   7.029  57.989  1.00  0.00     0.191 HD
HETATM    3  C2  UNL     1       2.304   7.995  56.300  1.00  0.00     0.239 C 
ENDROOT
BRANCH   1   4
HETATM    4  N4  UNL     1       1.555   9.067  58.223  1.00  0.00    -0.126 N 
HETATM    5  C1  UNL     1       0.224   9.560  58.195  1.00  0.00     0.730 C 
HETATM    6  N2  UNL     1      -0.090  10.903  58.525  1.00  0.00    -0.136 N 
HETATM    7  N3  UNL     1      -0.722   8.754  57.861  1.00  0.00    -0.096 N 
ATOM      8  H2  UNL     1       0.560  11.628  58.220  1.00  0.00     0.205 HD
ATOM      9  H3  UNL     1      -1.676   9.115  57.846  1.00  0.00     0.213 HD
ATOM     10  H4  UNL     1       2.259   9.562  58.771  1.00  0.00     0.206 HD
BRANCH   6  11
HETATM   11  N1  UNL     1      -1.212  11.302  59.228  1.00  0.00    -0.331 N 
ATOM     12  H12 UNL     1      -1.891  10.575  59.453  1.00  0.00     0.177 HD
ATOM     13  H11 UNL     1      -1.401  12.258  59.530  1.00  0.00     0.177 HD
ENDBRANCH   6  11
BRANCH   7  14
HETATM   14  O1  UNL     1      -0.530   7.453  57.528  1.00  0.00    -0.276 OA
ATOM     15  H1  UNL     1      -0.151   7.164  56.706  1.00  0.00     0.245 HD
ENDBRANCH   7  14
ENDBRANCH   1   4
BRANCH   3  16
HETATM   16  O2  UNL     1       2.342   9.262  55.701  1.00  0.00    -0.331 OA
ATOM     17  H2  UNL     1       3.183   9.701  55.668  1.00  0.00     0.221 HD
ENDBRANCH   3  16
BRANCH   3  18
HETATM   18  N6  UNL     1       2.672   6.833  55.593  1.00  0.00    -0.286 N 
HETATM   19  C3  UNL     1       2.050   5.576  55.812  1.00  0.00     0.282 C 
HETATM   20  O3  UNL     1       1.139   5.513  56.672  1.00  0.00    -0.265 OA
ATOM     21  H6  UNL     1       3.414   6.898  54.897  1.00  0.00     0.172 HD
BRANCH  19  22
HETATM   22  C4  UNL     1       2.436   4.378  55.077  1.00  0.00     0.142 A 
HETATM   23  C5  UNL     1       2.636   4.288  53.718  1.00  0.00     0.045 A 
HETATM   24  C6  UNL     1       2.990   2.982  53.446  1.00  0.00     0.027 A 
HETATM   25  C7  UNL     1       2.989   2.332  54.654  1.00  0.00     0.143 A 
HETATM   26  O4  UNL     1       2.654   3.207  55.597  1.00  0.00    -0.317 OA
ENDBRANCH  19  22
ENDBRANCH   3  18
TORSDOF 6
ENDMDL
MODEL 4
REMARK VINA RESULT: -7.239818288      1.652      2.241
REMARK  6 active torsions:
REMARK  status: ('A' for Active; 'I' for Inactive)
REMARK    1  A    between atoms: N1_1  and  N2_4 
REMARK       I    between atoms: N2_4  and  C1_6 
REMARK       I    between atoms: C1_6  and  N4_11 
REMARK    2  A    between atoms: N3_7  and  O1_9 
REMARK    3  A    between atoms: N4_11  and  N5_13 
REMARK    4  A    between atoms: C2_15  and  O2_16 
REMARK    5  A    between atoms: C2_15  and  N6_18 
REMARK       I    between atoms: N6_18  and  C3_20 
REMARK    6  A    between atoms: C3_20  and  C4_22 
ROOT
HETATM    1  N5  UNL     1       1.503   6.706  57.390  1.00  0.00    -0.251 N 
ATOM      2  H5  UNL     1       0.720   6.400  57.967  1.00  0.00     0.191 HD
HETATM    3  C2  UNL     1       1.945   5.926  56.469  1.00  0.00     0.239 C 
ENDROOT
BRANCH   1   4
HETATM    4  N4  UNL     1       2.063   7.945  57.617  1.00  0.00    -0.126 N 
HETATM    5  C1  UNL     1       1.305   9.136  57.469  1.00  0.00     0.730 C 
HETATM    6  N2  UNL     1       1.919  10.399  57.271  1.00  0.00    -0.136 N 
HETATM    7  N3  UNL     1       0.022   9.058  57.518  1.00  0.00    -0.096 N 
ATOM      8  H2  UNL     1       2.748  10.434  56.679  1.00  0.00     0.205 HD
ATOM      9  H3  UNL     1      -0.514   9.920  57.413  1.00  0.00     0.213 HD
ATOM     10  H4  UNL     1       3.042   8.007  57.897  1.00  0.00     0.206 HD
BRANCH   6  11
HETATM   11  N1  UNL     1       1.474  11.588  57.823  1.00  0.00    -0.331 N 
ATOM     12  H12 UNL     1       2.137  12.364  57.828  1.00  0.00     0.177 HD
ATOM     13  H11 UNL     1       0.544  11.736  58.216  1.00  0.00     0.177 HD
ENDBRANCH   6  11
BRANCH   7  14
HETATM   14  O1  UNL     1      -0.663   7.901  57.702  1.00  0.00    -0.276 OA
ATOM     15  H1  UNL     1      -0.537   7.321  58.444  1.00  0.00     0.245 HD
ENDBRANCH   7  14
ENDBRANCH   1   4
BRANCH   3  16
HETATM   16  O2  UNL     1       3.022   6.389  55.700  1.00  0.00    -0.331 OA
ATOM     17  H2  UNL     1       3.890   6.309  56.076  1.00  0.00     0.221 HD
ENDBRANCH   3  16
BRANCH   3  18
HETATM   18  N6  UNL     1       1.368   4.661  56.244  1.00  0.00    -0.286 N 
HETATM   19  C3  UNL     1       1.541   3.948  55.028  1.00  0.00     0.282 C 
HETATM   20  O3  UNL     1       2.235   4.478  54.129  1.00  0.00    -0.265 OA
ATOM     21  H6  UNL     1       0.805   4.241  56.983  1.00  0.00     0.172 HD
BRANCH  19  22
HETATM   22  C4  UNL     1       0.940   2.639  54.802  1.00  0.00     0.142 A 
HETATM   23  C5  UNL     1       0.865   1.978  53.596  1.00  0.00     0.045 A 
HETATM   24  C6  UNL     1       0.223   0.779  53.831  1.00  0.00     0.027 A 
HETATM   25  C7  UNL     1      -0.064   0.762  55.173  1.00  0.00     0.143 A 
HETATM   26  O4  UNL     1       0.384   1.893  55.708  1.00  0.00    -0.317 OA
ENDBRANCH  19  22
ENDBRANCH   3  18
TORSDOF 6
ENDMDL
MODEL 5
REMARK VINA RESULT: -6.989843259      3.344      4.364
REMARK  6 active torsions:
REMARK  status: ('A' for Active; 'I' for Inactive)
REMARK    1  A    between atoms: N1_1  and  N2_4 
REMARK       I    between atoms: N2_4  and  C1_6 
REMARK       I    between atoms: C1_6  and  N4_11 
REMARK    2  A    between atoms: N3_7  and  O1_9 
REMARK    3  A    between atoms: N4_11  and  N5_13 
REMARK    4  A    between atoms: C2_15  and  O2_16 
REMARK    5  A    between atoms: C2_15  and  N6_18 
REMARK       I    between atoms: N6_18  and  C3_20 
REMARK    6  A    between atoms: C3_20  and  C4_22 
ROOT
HETATM    1  N5  UNL     1      -0.181   3.544  58.356  1.00  0.00    -0.251 N 
ATOM      2  H5  UNL     1      -0.356   2.550  58.208  1.00  0.00     0.191 HD
HETATM    3  C2  UNL     1       0.616   4.165  57.563  1.00  0.00     0.239 C 
ENDROOT
BRANCH   1   4
HETATM    4  N4  UNL     1      -0.805   4.189  59.402  1.00  0.00    -0.126 N 
HETATM    5  C1  UNL     1      -2.220   4.220  59.514  1.00  0.00     0.730 C 
HETATM    6  N2  UNL     1      -2.893   5.195  60.292  1.00  0.00    -0.136 N 
HETATM    7  N3  UNL     1      -2.905   3.329  58.886  1.00  0.00    -0.096 N 
ATOM      8  H2  UNL     1      -2.520   6.144  60.286  1.00  0.00     0.205 HD
ATOM      9  H3  UNL     1      -3.921   3.358  58.973  1.00  0.00     0.213 HD
ATOM     10  H4  UNL     1      -0.238   4.654  60.112  1.00  0.00     0.206 HD
BRANCH   6  11
HETATM   11  N1  UNL     1      -4.020   4.954  61.059  1.00  0.00    -0.331 N 
ATOM     12  H12 UNL     1      -4.686   4.275  60.689  1.00  0.00     0.177 HD
ATOM     13  H11 UNL     1      -4.224   5.402  61.952  1.00  0.00     0.177 HD
ENDBRANCH   6  11
BRANCH   7  14
HETATM   14  O1  UNL     1      -2.360   2.355  58.115  1.00  0.00    -0.276 OA
ATOM     15  H1  UNL     1      -2.780   1.985  57.348  1.00  0.00     0.245 HD
ENDBRANCH   7  14
ENDBRANCH   1   4
BRANCH   3  16
HETATM   16  O2  UNL     1       0.825   5.530  57.803  1.00  0.00    -0.331 OA
ATOM     17  H2  UNL     1       1.247   6.032  57.116  1.00  0.00     0.221 HD
ENDBRANCH   3  16
BRANCH   3  18
HETATM   18  N6  UNL     1       1.251   3.498  56.496  1.00  0.00    -0.286 N 
HETATM   19  C3  UNL     1       0.532   2.746  55.530  1.00  0.00     0.282 C 
HETATM   20  O3  UNL     1      -0.714   2.680  55.644  1.00  0.00    -0.265 OA
ATOM     21  H6  UNL     1       2.266   3.559  56.414  1.00  0.00     0.172 HD
BRANCH  19  22
HETATM   22  C4  UNL     1       1.196   2.058  54.429  1.00  0.00     0.142 A 
HETATM   23  C5  UNL     1       0.635   1.098  53.616  1.00  0.00     0.045 A 
HETATM   24  C6  UNL     1       1.605   0.717  52.711  1.00  0.00     0.027 A 
HETATM   25  C7  UNL     1       2.717   1.464  53.013  1.00  0.00     0.143 A 
HETATM   26  O4  UNL     1       2.422   2.249  54.044  1.00  0.00    -0.317 OA
ENDBRANCH  19  22
ENDBRANCH   3  18
TORSDOF 6
ENDMDL
