MODEL 1
REMARK VINA RESULT: -6.417814954      0.000      0.000
REMARK  11 active torsions:
REMARK  status: ('A' for Active; 'I' for Inactive)
REMARK    1  A    between atoms: N1_2  and  C2_3 
REMARK    2  A    between atoms: N1_2  and  C19_25 
REMARK    3  A    between atoms: C2_3  and  C3_4 
REMARK    4  A    between atoms: C3_4  and  O1_5 
REMARK    5  A    between atoms: O1_5  and  C4_6 
REMARK    6  A    between atoms: C7_9  and  O2_10 
REMARK    7  A    between atoms: C8_12  and  C9_13 
REMARK    8  A    between atoms: C9_13  and  C10_14 
REMARK    9  A    between atoms: C10_14  and  C11_15 
REMARK   10  A    between atoms: C17_21  and  C18_22 
REMARK   11  A    between atoms: C18_22  and  O3_23 
ROOT
HETATM    1  C4  UNL     1      -9.159  48.452   1.329  1.00  0.00     0.128 C 
HETATM    2  C5  UNL     1      -9.571  49.375   0.189  1.00  0.00     0.035 C 
HETATM    3  C6  UNL     1     -10.776  50.163   0.632  1.00  0.00     0.034 C 
HETATM    4  C7  UNL     1     -11.973  49.266   0.875  1.00  0.00     0.122 C 
HETATM    5  C8  UNL     1     -11.488  47.815   0.955  1.00  0.00     0.023 C 
HETATM    6  C17 UNL     1     -10.358  47.715   1.920  1.00  0.00     0.045 C 
ENDROOT
BRANCH   1   7
HETATM    7  O1  UNL     1      -8.232  47.533   0.920  1.00  0.00    -0.384 OA
BRANCH   7   8
HETATM    8  C3  UNL     1      -7.046  47.467   1.574  1.00  0.00     0.198 C 
BRANCH   8   9
HETATM    9  C2  UNL     1      -6.923  46.399   2.630  1.00  0.00     0.301 C 
BRANCH   9  10
HETATM   10  N1  UNL     1      -6.237  45.278   2.018  1.00  0.00     0.115 N 
HETATM   11  C1  UNL     1      -5.196  44.784   2.912  1.00  0.00     0.313 C 
BRANCH  10  12
HETATM   12  C19 UNL     1      -7.127  44.175   1.739  1.00  0.00     0.358 C 
HETATM   13  C20 UNL     1      -6.491  42.838   1.877  1.00  0.00     0.066 C 
HETATM   14  C21 UNL     1      -7.257  42.022   0.858  1.00  0.00     0.030 C 
HETATM   15  C22 UNL     1      -7.664  43.069  -0.136  1.00  0.00     0.170 C 
HETATM   16  O4  UNL     1      -7.648  44.286   0.480  1.00  0.00    -0.357 OA
ENDBRANCH  10  12
ENDBRANCH   9  10
ENDBRANCH   8   9
ENDBRANCH   7   8
ENDBRANCH   1   7
BRANCH   6  17
HETATM   17  C18 UNL     1     -10.652  48.164   3.312  1.00  0.00     0.171 C 
BRANCH  17  18
HETATM   18  O3  UNL     1      -9.826  47.637   4.285  1.00  0.00    -0.400 OA
ATOM     19  H3  UNL     1      -9.832  48.100   5.114  1.00  0.00     0.209 HD
ENDBRANCH  17  18
ENDBRANCH   6  17
BRANCH   5  20
HETATM   20  C9  UNL     1     -12.657  46.947   1.225  1.00  0.00     0.008 C 
BRANCH  20  21
HETATM   21  C10 UNL     1     -12.485  45.517   0.798  1.00  0.00     0.005 C 
BRANCH  21  22
HETATM   22  C11 UNL     1     -11.980  45.407  -0.642  1.00  0.00    -0.014 C 
HETATM   23  C12 UNL     1     -10.987  44.298  -0.670  1.00  0.00     0.004 C 
HETATM   24  C13 UNL     1     -10.738  43.683  -2.007  1.00  0.00     0.000 C 
HETATM   25  C14 UNL     1     -12.098  43.234  -2.556  1.00  0.00     0.000 C 
HETATM   26  C15 UNL     1     -12.860  44.514  -2.831  1.00  0.00     0.000 C 
HETATM   27  C16 UNL     1     -13.182  45.180  -1.530  1.00  0.00     0.004 C 
ENDBRANCH  21  22
ENDBRANCH  20  21
ENDBRANCH   5  20
BRANCH   4  28
HETATM   28  O2  UNL     1     -12.853  49.405  -0.190  1.00  0.00    -0.395 OA
ATOM     29  H2  UNL     1     -12.351  49.410  -0.998  1.00  0.00     0.210 HD
ENDBRANCH   4  28
TORSDOF 11
ENDMDL
MODEL 2
REMARK VINA RESULT: -6.305070956      2.200      5.850
REMARK  11 active torsions:
REMARK  status: ('A' for Active; 'I' for Inactive)
REMARK    1  A    between atoms: N1_2  and  C2_3 
REMARK    2  A    between atoms: N1_2  and  C19_25 
REMARK    3  A    between atoms: C2_3  and  C3_4 
REMARK    4  A    between atoms: C3_4  and  O1_5 
REMARK    5  A    between atoms: O1_5  and  C4_6 
REMARK    6  A    between atoms: C7_9  and  O2_10 
REMARK    7  A    between atoms: C8_12  and  C9_13 
REMARK    8  A    between atoms: C9_13  and  C10_14 
REMARK    9  A    between atoms: C10_14  and  C11_15 
REMARK   10  A    between atoms: C17_21  and  C18_22 
REMARK   11  A    between atoms: C18_22  and  O3_23 
ROOT
HETATM    1  C4  UNL     1     -11.368  48.600   0.791  1.00  0.00     0.128 C 
HETATM    2  C5  UNL     1     -11.251  48.379   2.293  1.00  0.00     0.035 C 
HETATM    3  C6  UNL     1     -10.038  49.123   2.786  1.00  0.00     0.034 C 
HETATM    4  C7  UNL     1      -8.759  48.562   2.197  1.00  0.00     0.122 C 
HETATM    5  C8  UNL     1      -9.122  47.665   1.009  1.00  0.00     0.023 C 
HETATM    6  C17 UNL     1     -10.030  48.398   0.084  1.00  0.00     0.045 C 
ENDROOT
BRANCH   1   7
HETATM    7  O1  UNL     1     -12.294  47.762   0.232  1.00  0.00    -0.384 OA
BRANCH   7   8
HETATM    8  C3  UNL     1     -12.742  46.708   0.957  1.00  0.00     0.198 C 
BRANCH   8   9
HETATM    9  C2  UNL     1     -12.510  45.341   0.365  1.00  0.00     0.301 C 
BRANCH   9  10
HETATM   10  N1  UNL     1     -12.588  45.486  -1.075  1.00  0.00     0.115 N 
HETATM   11  C1  UNL     1     -11.381  44.950  -1.695  1.00  0.00     0.313 C 
BRANCH  10  12
HETATM   12  C19 UNL     1     -13.714  44.781  -1.640  1.00  0.00     0.358 C 
HETATM   13  C20 UNL     1     -13.672  44.666  -3.122  1.00  0.00     0.066 C 
HETATM   14  C21 UNL     1     -15.144  44.653  -3.475  1.00  0.00     0.030 C 
HETATM   15  C22 UNL     1     -15.743  45.430  -2.339  1.00  0.00     0.170 C 
HETATM   16  O4  UNL     1     -14.887  45.382  -1.278  1.00  0.00    -0.357 OA
ENDBRANCH  10  12
ENDBRANCH   9  10
ENDBRANCH   8   9
ENDBRANCH   7   8
ENDBRANCH   1   7
BRANCH   6  17
HETATM   17  C18 UNL     1      -9.499  49.677  -0.470  1.00  0.00     0.171 C 
BRANCH  17  18
HETATM   18  O3  UNL     1      -9.221  49.661  -1.822  1.00  0.00    -0.400 OA
ATOM     19  H3  UNL     1      -8.313  49.825  -2.050  1.00  0.00     0.209 HD
ENDBRANCH  17  18
ENDBRANCH   6  17
BRANCH   5  20
HETATM   20  C9  UNL     1      -7.867  47.146   0.418  1.00  0.00     0.008 C 
BRANCH  20  21
HETATM   21  C10 UNL     1      -8.028  45.883  -0.379  1.00  0.00     0.005 C 
BRANCH  21  22
HETATM   22  C11 UNL     1      -8.331  44.678   0.513  1.00  0.00    -0.014 C 
HETATM   23  C12 UNL     1      -8.201  43.464  -0.338  1.00  0.00     0.004 C 
HETATM   24  C13 UNL     1      -7.959  42.183   0.389  1.00  0.00     0.000 C 
HETATM   25  C14 UNL     1      -6.716  42.392   1.264  1.00  0.00     0.000 C 
HETATM   26  C15 UNL     1      -7.137  43.390   2.324  1.00  0.00     0.000 C 
HETATM   27  C16 UNL     1      -7.368  44.721   1.678  1.00  0.00     0.004 C 
ENDBRANCH  21  22
ENDBRANCH  20  21
ENDBRANCH   5  20
BRANCH   4  28
HETATM   28  O2  UNL     1      -8.117  47.809   3.171  1.00  0.00    -0.395 OA
ATOM     29  H2  UNL     1      -7.185  47.810   2.987  1.00  0.00     0.210 HD
ENDBRANCH   4  28
TORSDOF 11
ENDMDL
MODEL 3
REMARK VINA RESULT: -6.304487309      1.047      1.832
REMARK  11 active torsions:
REMARK  status: ('A' for Active; 'I' for Inactive)
REMARK    1  A    between atoms: N1_2  and  C2_3 
REMARK    2  A    between atoms: N1_2  and  C19_25 
REMARK    3  A    between atoms: C2_3  and  C3_4 
REMARK    4  A    between atoms: C3_4  and  O1_5 
REMARK    5  A    between atoms: O1_5  and  C4_6 
REMARK    6  A    between atoms: C7_9  and  O2_10 
REMARK    7  A    between atoms: C8_12  and  C9_13 
REMARK    8  A    between atoms: C9_13  and  C10_14 
REMARK    9  A    between atoms: C10_14  and  C11_15 
REMARK   10  A    between atoms: C17_21  and  C18_22 
REMARK   11  A    between atoms: C18_22  and  O3_23 
ROOT
HETATM    1  C4  UNL     1      -9.021  47.994   1.387  1.00  0.00     0.128 C 
HETATM    2  C5  UNL     1      -9.333  49.052   0.336  1.00  0.00     0.035 C 
HETATM    3  C6  UNL     1     -10.454  49.915   0.853  1.00  0.00     0.034 C 
HETATM    4  C7  UNL     1     -11.737  49.125   1.021  1.00  0.00     0.122 C 
HETATM    5  C8  UNL     1     -11.400  47.631   0.968  1.00  0.00     0.023 C 
HETATM    6  C17 UNL     1     -10.291  47.331   1.915  1.00  0.00     0.045 C 
ENDROOT
BRANCH   1   7
HETATM    7  O1  UNL     1      -8.189  47.027   0.893  1.00  0.00    -0.384 OA
BRANCH   7   8
HETATM    8  C3  UNL     1      -8.216  45.794   1.456  1.00  0.00     0.198 C 
BRANCH   8   9
HETATM    9  C2  UNL     1      -7.352  44.743   0.808  1.00  0.00     0.301 C 
BRANCH   9  10
HETATM   10  N1  UNL     1      -7.551  43.515   1.552  1.00  0.00     0.115 N 
HETATM   11  C1  UNL     1      -7.716  42.397   0.629  1.00  0.00     0.313 C 
BRANCH  10  12
HETATM   12  C19 UNL     1      -6.435  43.205   2.413  1.00  0.00     0.358 C 
HETATM   13  C20 UNL     1      -6.766  43.230   3.863  1.00  0.00     0.066 C 
HETATM   14  C21 UNL     1      -5.450  43.657   4.476  1.00  0.00     0.030 C 
HETATM   15  C22 UNL     1      -4.833  44.452   3.364  1.00  0.00     0.170 C 
HETATM   16  O4  UNL     1      -5.399  44.066   2.184  1.00  0.00    -0.357 OA
ENDBRANCH  10  12
ENDBRANCH   9  10
ENDBRANCH   8   9
ENDBRANCH   7   8
ENDBRANCH   1   7
BRANCH   6  17
HETATM   17  C18 UNL     1     -10.544  47.681   3.343  1.00  0.00     0.171 C 
BRANCH  17  18
HETATM   18  O3  UNL     1      -9.429  47.660   4.159  1.00  0.00    -0.400 OA
ATOM     19  H3  UNL     1      -9.545  48.061   5.012  1.00  0.00     0.209 HD
ENDBRANCH  17  18
ENDBRANCH   6  17
BRANCH   5  20
HETATM   20  C9  UNL     1     -12.652  46.865   1.165  1.00  0.00     0.008 C 
BRANCH  20  21
HETATM   21  C10 UNL     1     -12.594  45.441   0.690  1.00  0.00     0.005 C 
BRANCH  21  22
HETATM   22  C11 UNL     1     -11.875  45.315  -0.654  1.00  0.00    -0.014 C 
HETATM   23  C12 UNL     1     -10.848  44.249  -0.499  1.00  0.00     0.004 C 
HETATM   24  C13 UNL     1     -10.378  43.611  -1.764  1.00  0.00     0.000 C 
HETATM   25  C14 UNL     1     -11.622  43.090  -2.494  1.00  0.00     0.000 C 
HETATM   26  C15 UNL     1     -12.383  44.329  -2.920  1.00  0.00     0.000 C 
HETATM   27  C16 UNL     1     -12.922  45.014  -1.703  1.00  0.00     0.004 C 
ENDBRANCH  21  22
ENDBRANCH  20  21
ENDBRANCH   5  20
BRANCH   4  28
HETATM   28  O2  UNL     1     -12.593  49.447  -0.023  1.00  0.00    -0.395 OA
ATOM     29  H2  UNL     1     -13.488  49.319   0.270  1.00  0.00     0.210 HD
ENDBRANCH   4  28
TORSDOF 11
ENDMDL
MODEL 4
REMARK VINA RESULT: -6.252719424      2.390      6.469
REMARK  11 active torsions:
REMARK  status: ('A' for Active; 'I' for Inactive)
REMARK    1  A    between atoms: N1_2  and  C2_3 
REMARK    2  A    between atoms: N1_2  and  C19_25 
REMARK    3  A    between atoms: C2_3  and  C3_4 
REMARK    4  A    between atoms: C3_4  and  O1_5 
REMARK    5  A    between atoms: O1_5  and  C4_6 
REMARK    6  A    between atoms: C7_9  and  O2_10 
REMARK    7  A    between atoms: C8_12  and  C9_13 
REMARK    8  A    between atoms: C9_13  and  C10_14 
REMARK    9  A    between atoms: C10_14  and  C11_15 
REMARK   10  A    between atoms: C17_21  and  C18_22 
REMARK   11  A    between atoms: C18_22  and  O3_23 
ROOT
HETATM    1  C4  UNL     1      -7.706  43.464   0.788  1.00  0.00     0.128 C 
HETATM    2  C5  UNL     1      -6.559  42.744   1.486  1.00  0.00     0.035 C 
HETATM    3  C6  UNL     1      -6.601  43.098   2.949  1.00  0.00     0.034 C 
HETATM    4  C7  UNL     1      -6.345  44.575   3.175  1.00  0.00     0.122 C 
HETATM    5  C8  UNL     1      -6.493  45.306   1.837  1.00  0.00     0.023 C 
HETATM    6  C17 UNL     1      -7.785  44.932   1.199  1.00  0.00     0.045 C 
ENDROOT
BRANCH   1   7
HETATM    7  O1  UNL     1      -7.589  43.391  -0.573  1.00  0.00    -0.384 OA
BRANCH   7   8
HETATM    8  C3  UNL     1      -8.462  44.089  -1.341  1.00  0.00     0.198 C 
BRANCH   8   9
HETATM    9  C2  UNL     1      -9.736  43.378  -1.720  1.00  0.00     0.301 C 
BRANCH   9  10
HETATM   10  N1  UNL     1     -10.820  44.067  -1.048  1.00  0.00     0.115 N 
HETATM   11  C1  UNL     1     -10.573  45.505  -1.053  1.00  0.00     0.313 C 
BRANCH  10  12
HETATM   12  C19 UNL     1     -12.095  43.845  -1.689  1.00  0.00     0.358 C 
HETATM   13  C20 UNL     1     -12.137  44.273  -3.112  1.00  0.00     0.066 C 
HETATM   14  C21 UNL     1     -13.588  44.671  -3.276  1.00  0.00     0.030 C 
HETATM   15  C22 UNL     1     -13.956  45.079  -1.879  1.00  0.00     0.170 C 
HETATM   16  O4  UNL     1     -13.092  44.485  -1.008  1.00  0.00    -0.357 OA
ENDBRANCH  10  12
ENDBRANCH   9  10
ENDBRANCH   8   9
ENDBRANCH   7   8
ENDBRANCH   1   7
BRANCH   6  17
HETATM   17  C18 UNL     1      -9.011  45.216   2.000  1.00  0.00     0.171 C 
BRANCH  17  18
HETATM   18  O3  UNL     1      -9.878  44.151   2.145  1.00  0.00    -0.400 OA
ATOM     19  H3  UNL     1     -10.744  44.282   1.778  1.00  0.00     0.209 HD
ENDBRANCH  17  18
ENDBRANCH   6  17
BRANCH   5  20
HETATM   20  C9  UNL     1      -6.274  46.753   2.070  1.00  0.00     0.008 C 
BRANCH  20  21
HETATM   21  C10 UNL     1      -5.762  47.507   0.877  1.00  0.00     0.005 C 
BRANCH  21  22
HETATM   22  C11 UNL     1      -6.716  48.625   0.454  1.00  0.00    -0.014 C 
HETATM   23  C12 UNL     1      -7.520  48.102  -0.685  1.00  0.00     0.004 C 
HETATM   24  C13 UNL     1      -8.819  48.794  -0.935  1.00  0.00     0.000 C 
HETATM   25  C14 UNL     1      -9.610  48.752   0.378  1.00  0.00     0.000 C 
HETATM   26  C15 UNL     1      -8.848  49.648   1.333  1.00  0.00     0.000 C 
HETATM   27  C16 UNL     1      -7.538  49.005   1.665  1.00  0.00     0.004 C 
ENDBRANCH  21  22
ENDBRANCH  20  21
ENDBRANCH   5  20
BRANCH   4  28
HETATM   28  O2  UNL     1      -5.050  44.731   3.652  1.00  0.00    -0.395 OA
ATOM     29  H2  UNL     1      -5.073  45.312   4.403  1.00  0.00     0.210 HD
ENDBRANCH   4  28
TORSDOF 11
ENDMDL
MODEL 5
REMARK VINA RESULT: -6.225368432      1.390      1.915
REMARK  11 active torsions:
REMARK  status: ('A' for Active; 'I' for Inactive)
REMARK    1  A    between atoms: N1_2  and  C2_3 
REMARK    2  A    between atoms: N1_2  and  C19_25 
REMARK    3  A    between atoms: C2_3  and  C3_4 
REMARK    4  A    between atoms: C3_4  and  O1_5 
REMARK    5  A    between atoms: O1_5  and  C4_6 
REMARK    6  A    between atoms: C7_9  and  O2_10 
REMARK    7  A    between atoms: C8_12  and  C9_13 
REMARK    8  A    between atoms: C9_13  and  C10_14 
REMARK    9  A    between atoms: C10_14  and  C11_15 
REMARK   10  A    between atoms: C17_21  and  C18_22 
REMARK   11  A    between atoms: C18_22  and  O3_23 
ROOT
HETATM    1  C4  UNL     1      -7.654  48.256   1.966  1.00  0.00     0.128 C 
HETATM    2  C5  UNL     1      -7.140  49.043   0.767  1.00  0.00     0.035 C 
HETATM    3  C6  UNL     1      -8.265  49.901   0.250  1.00  0.00     0.034 C 
HETATM    4  C7  UNL     1      -9.410  49.061  -0.282  1.00  0.00     0.122 C 
HETATM    5  C8  UNL     1      -9.228  47.621   0.209  1.00  0.00     0.023 C 
HETATM    6  C17 UNL     1      -9.011  47.616   1.682  1.00  0.00     0.045 C 
ENDROOT
BRANCH   1   7
HETATM    7  O1  UNL     1      -6.772  47.277   2.338  1.00  0.00    -0.384 OA
BRANCH   7   8
HETATM    8  C3  UNL     1      -6.881  46.737   3.576  1.00  0.00     0.198 C 
BRANCH   8   9
HETATM    9  C2  UNL     1      -6.384  45.323   3.736  1.00  0.00     0.301 C 
BRANCH   9  10
HETATM   10  N1  UNL     1      -6.070  44.834   2.408  1.00  0.00     0.115 N 
HETATM   11  C1  UNL     1      -4.831  44.064   2.442  1.00  0.00     0.313 C 
BRANCH  10  12
HETATM   12  C19 UNL     1      -7.101  43.971   1.881  1.00  0.00     0.358 C 
HETATM   13  C20 UNL     1      -6.709  42.538   1.809  1.00  0.00     0.066 C 
HETATM   14  C21 UNL     1      -7.507  42.057   0.615  1.00  0.00     0.030 C 
HETATM   15  C22 UNL     1      -7.646  43.314  -0.192  1.00  0.00     0.170 C 
HETATM   16  O4  UNL     1      -7.483  44.386   0.636  1.00  0.00    -0.357 OA
ENDBRANCH  10  12
ENDBRANCH   9  10
ENDBRANCH   8   9
ENDBRANCH   7   8
ENDBRANCH   1   7
BRANCH   6  17
HETATM   17  C18 UNL     1     -10.094  48.233   2.502  1.00  0.00     0.171 C 
BRANCH  17  18
HETATM   18  O3  UNL     1     -10.634  47.414   3.474  1.00  0.00    -0.400 OA
ATOM     19  H3  UNL     1     -11.215  47.845   4.089  1.00  0.00     0.209 HD
ENDBRANCH  17  18
ENDBRANCH   6  17
BRANCH   5  20
HETATM   20  C9  UNL     1     -10.367  46.814  -0.286  1.00  0.00     0.008 C 
BRANCH  20  21
HETATM   21  C10 UNL     1     -10.539  45.490   0.403  1.00  0.00     0.005 C 
BRANCH  21  22
HETATM   22  C11 UNL     1     -11.574  44.610  -0.300  1.00  0.00    -0.014 C 
HETATM   23  C12 UNL     1     -12.665  45.510  -0.765  1.00  0.00     0.004 C 
HETATM   24  C13 UNL     1     -13.510  44.985  -1.878  1.00  0.00     0.000 C 
HETATM   25  C14 UNL     1     -12.562  44.611  -3.024  1.00  0.00     0.000 C 
HETATM   26  C15 UNL     1     -11.771  43.423  -2.517  1.00  0.00     0.000 C 
HETATM   27  C16 UNL     1     -10.865  43.873  -1.413  1.00  0.00     0.004 C 
ENDBRANCH  21  22
ENDBRANCH  20  21
ENDBRANCH   5  20
BRANCH   4  28
HETATM   28  O2  UNL     1      -9.371  49.089  -1.669  1.00  0.00    -0.395 OA
ATOM     29  H2  UNL     1      -8.643  48.553  -1.962  1.00  0.00     0.210 HD
ENDBRANCH   4  28
TORSDOF 11
ENDMDL
