MODEL 1
REMARK VINA RESULT: -7.503978439      0.000      0.000
REMARK  7 active torsions:
REMARK  status: ('A' for Active; 'I' for Inactive)
REMARK    1  A    between atoms: O1_2  and  C2_3 
REMARK    2  A    between atoms: C7_8  and  O2_9 
REMARK    3  A    between atoms: N1_16  and  C14_17 
REMARK    4  A    between atoms: C14_17  and  C15_18 
REMARK    5  A    between atoms: C15_18  and  C16_19 
REMARK    6  A    between atoms: C17_20  and  C18_21 
REMARK    7  A    between atoms: C18_21  and  C19_22 
ROOT
HETATM    1  C2  UNL     1     -14.089  45.503  -1.984  1.00  0.00     0.102 A 
HETATM    2  C3  UNL     1     -13.987  46.828  -1.626  1.00  0.00     0.047 A 
HETATM    3  C4  UNL     1     -12.767  47.329  -1.218  1.00  0.00    -0.047 A 
HETATM    4  C5  UNL     1     -11.637  46.544  -1.155  1.00  0.00    -0.023 A 
HETATM    5  C6  UNL     1     -11.772  45.212  -1.523  1.00  0.00     0.049 A 
HETATM    6  C7  UNL     1     -12.959  44.683  -1.929  1.00  0.00     0.102 A 
HETATM    7  C9  UNL     1     -10.536  47.386  -0.684  1.00  0.00     0.074 C 
HETATM    8  C10 UNL     1     -10.914  48.760  -1.092  1.00  0.00     0.038 C 
HETATM    9  C11 UNL     1     -12.422  48.734  -0.790  1.00  0.00     0.042 C 
HETATM   10  C12 UNL     1     -10.502  47.344   0.848  1.00  0.00     0.049 C 
HETATM   11  C13 UNL     1      -9.480  46.214   1.036  1.00  0.00     0.112 C 
HETATM   12  N1  UNL     1      -8.488  46.630   0.046  1.00  0.00    -0.230 NA
HETATM   13  N5  UNL     1      -9.240  46.959  -1.102  1.00  0.00    -0.149 NA
ENDROOT
BRANCH  12  14
HETATM   14  C14 UNL     1      -7.540  45.570  -0.249  1.00  0.00     0.136 C 
BRANCH  14  15
HETATM   15  C15 UNL     1      -8.003  44.827  -1.434  1.00  0.00    -0.011 C 
BRANCH  15  16
HETATM   16  C16 UNL     1      -7.983  43.376  -1.538  1.00  0.00    -0.003 C 
HETATM   17  C17 UNL     1      -8.013  42.376  -0.512  1.00  0.00     0.003 C 
BRANCH  17  18
HETATM   18  C18 UNL     1      -7.068  42.012   0.506  1.00  0.00     0.050 C 
BRANCH  18  19
HETATM   19  C19 UNL     1      -6.636  42.809   1.629  1.00  0.00     0.121 A 
HETATM   20  N2  UNL     1      -5.369  43.308   1.815  1.00  0.00    -0.330 N 
HETATM   21  C20 UNL     1      -5.336  44.068   2.899  1.00  0.00     0.093 A 
ATOM     22  H2  UNL     1      -4.571  43.121   1.208  1.00  0.00     0.168 HD
HETATM   23  C21 UNL     1      -4.224  44.830   3.529  1.00  0.00     0.090 C 
HETATM   24  N3  UNL     1      -6.580  44.050   3.403  1.00  0.00    -0.288 N 
HETATM   25  N4  UNL     1      -7.360  43.317   2.672  1.00  0.00    -0.284 N 
ATOM     26  H3  UNL     1      -6.873  44.546   4.245  1.00  0.00     0.188 HD
ATOM     27  H4  UNL     1      -8.350  43.146   2.846  1.00  0.00     0.188 HD
ENDBRANCH  18  19
ENDBRANCH  17  18
ENDBRANCH  15  16
ENDBRANCH  14  15
ENDBRANCH  12  14
BRANCH   6  28
HETATM   28  O2  UNL     1     -13.063  43.350  -2.289  1.00  0.00    -0.353 OA
HETATM   29  C8  UNL     1     -11.906  42.641  -2.658  1.00  0.00     0.210 C 
ENDBRANCH   6  28
BRANCH   1  30
HETATM   30  O1  UNL     1     -15.262  44.922  -2.401  1.00  0.00    -0.353 OA
HETATM   31  C1  UNL     1     -15.823  45.184  -3.675  1.00  0.00     0.210 C 
ENDBRANCH   1  30
TORSDOF 7
ENDMDL
MODEL 2
REMARK VINA RESULT: -7.460244202      3.491      7.973
REMARK  7 active torsions:
REMARK  status: ('A' for Active; 'I' for Inactive)
REMARK    1  A    between atoms: O1_2  and  C2_3 
REMARK    2  A    between atoms: C7_8  and  O2_9 
REMARK    3  A    between atoms: N1_16  and  C14_17 
REMARK    4  A    between atoms: C14_17  and  C15_18 
REMARK    5  A    between atoms: C15_18  and  C16_19 
REMARK    6  A    between atoms: C17_20  and  C18_21 
REMARK    7  A    between atoms: C18_21  and  C19_22 
ROOT
HETATM    1  C2  UNL     1      -5.381  44.155   3.020  1.00  0.00     0.102 A 
HETATM    2  C3  UNL     1      -5.755  43.071   2.257  1.00  0.00     0.047 A 
HETATM    3  C4  UNL     1      -6.705  43.233   1.269  1.00  0.00    -0.047 A 
HETATM    4  C5  UNL     1      -7.300  44.449   1.016  1.00  0.00    -0.023 A 
HETATM    5  C6  UNL     1      -6.902  45.522   1.802  1.00  0.00     0.049 A 
HETATM    6  C7  UNL     1      -5.968  45.400   2.785  1.00  0.00     0.102 A 
HETATM    7  C9  UNL     1      -8.251  44.260  -0.080  1.00  0.00     0.074 C 
HETATM    8  C10 UNL     1      -7.723  43.101  -0.839  1.00  0.00     0.038 C 
HETATM    9  C11 UNL     1      -7.259  42.200   0.318  1.00  0.00     0.042 C 
HETATM   10  C12 UNL     1      -9.609  43.856   0.508  1.00  0.00     0.049 C 
HETATM   11  C13 UNL     1     -10.258  45.245   0.592  1.00  0.00     0.112 C 
HETATM   12  N1  UNL     1      -9.874  45.762  -0.722  1.00  0.00    -0.230 NA
HETATM   13  N5  UNL     1      -8.508  45.431  -0.854  1.00  0.00    -0.149 NA
ENDROOT
BRANCH  12  14
HETATM   14  C14 UNL     1     -10.065  47.198  -0.814  1.00  0.00     0.136 C 
BRANCH  14  15
HETATM   15  C15 UNL     1     -11.165  47.595   0.083  1.00  0.00    -0.011 C 
BRANCH  15  16
HETATM   16  C16 UNL     1     -12.379  48.257  -0.369  1.00  0.00    -0.003 C 
HETATM   17  C17 UNL     1     -13.644  47.704  -0.754  1.00  0.00     0.003 C 
BRANCH  17  18
HETATM   18  C18 UNL     1     -14.039  46.886  -1.866  1.00  0.00     0.050 C 
BRANCH  18  19
HETATM   19  C19 UNL     1     -13.570  45.561  -2.192  1.00  0.00     0.121 A 
HETATM   20  N2  UNL     1     -12.268  45.222  -2.478  1.00  0.00    -0.330 N 
HETATM   21  C20 UNL     1     -12.168  43.912  -2.646  1.00  0.00     0.093 A 
ATOM     22  H2  UNL     1     -11.494  45.882  -2.552  1.00  0.00     0.168 HD
HETATM   23  C21 UNL     1     -10.997  43.052  -2.965  1.00  0.00     0.090 C 
HETATM   24  N3  UNL     1     -13.404  43.419  -2.468  1.00  0.00    -0.288 N 
HETATM   25  N4  UNL     1     -14.242  44.371  -2.200  1.00  0.00    -0.284 N 
ATOM     26  H3  UNL     1     -13.650  42.432  -2.534  1.00  0.00     0.188 HD
ATOM     27  H4  UNL     1     -15.240  44.251  -2.025  1.00  0.00     0.188 HD
ENDBRANCH  18  19
ENDBRANCH  17  18
ENDBRANCH  15  16
ENDBRANCH  14  15
ENDBRANCH  12  14
BRANCH   6  28
HETATM   28  O2  UNL     1      -5.591  46.490   3.553  1.00  0.00    -0.353 OA
HETATM   29  C8  UNL     1      -6.529  47.088   4.412  1.00  0.00     0.210 C 
ENDBRANCH   6  28
BRANCH   1  30
HETATM   30  O1  UNL     1      -4.444  44.084   4.022  1.00  0.00    -0.353 OA
HETATM   31  C1  UNL     1      -4.797  43.816   5.367  1.00  0.00     0.210 C 
ENDBRANCH   1  30
TORSDOF 7
ENDMDL
MODEL 3
REMARK VINA RESULT: -7.409554573      4.272      9.369
REMARK  7 active torsions:
REMARK  status: ('A' for Active; 'I' for Inactive)
REMARK    1  A    between atoms: O1_2  and  C2_3 
REMARK    2  A    between atoms: C7_8  and  O2_9 
REMARK    3  A    between atoms: N1_16  and  C14_17 
REMARK    4  A    between atoms: C14_17  and  C15_18 
REMARK    5  A    between atoms: C15_18  and  C16_19 
REMARK    6  A    between atoms: C17_20  and  C18_21 
REMARK    7  A    between atoms: C18_21  and  C19_22 
ROOT
HETATM    1  C2  UNL     1      -5.156  44.638   1.913  1.00  0.00     0.102 A 
HETATM    2  C3  UNL     1      -5.479  43.347   1.562  1.00  0.00     0.047 A 
HETATM    3  C4  UNL     1      -6.628  43.108   0.836  1.00  0.00    -0.047 A 
HETATM    4  C5  UNL     1      -7.472  44.124   0.444  1.00  0.00    -0.023 A 
HETATM    5  C6  UNL     1      -7.119  45.415   0.813  1.00  0.00     0.049 A 
HETATM    6  C7  UNL     1      -5.994  45.688   1.530  1.00  0.00     0.102 A 
HETATM    7  C9  UNL     1      -8.581  43.521  -0.297  1.00  0.00     0.074 C 
HETATM    8  C10 UNL     1      -8.022  42.264  -0.850  1.00  0.00     0.038 C 
HETATM    9  C11 UNL     1      -7.172  41.790   0.341  1.00  0.00     0.042 C 
HETATM   10  C12 UNL     1      -9.691  43.146   0.693  1.00  0.00     0.049 C 
HETATM   11  C13 UNL     1     -10.547  44.415   0.588  1.00  0.00     0.112 C 
HETATM   12  N1  UNL     1     -10.545  44.578  -0.866  1.00  0.00    -0.230 NA
HETATM   13  N5  UNL     1      -9.200  44.385  -1.248  1.00  0.00    -0.149 NA
ENDROOT
BRANCH  12  14
HETATM   14  C14 UNL     1     -11.008  45.896  -1.263  1.00  0.00     0.136 C 
BRANCH  14  15
HETATM   15  C15 UNL     1     -12.270  45.758  -2.010  1.00  0.00    -0.011 C 
BRANCH  15  16
HETATM   16  C16 UNL     1     -12.880  44.478  -2.338  1.00  0.00    -0.003 C 
HETATM   17  C17 UNL     1     -13.840  44.144  -3.348  1.00  0.00     0.003 C 
BRANCH  17  18
HETATM   18  C18 UNL     1     -15.221  44.500  -3.519  1.00  0.00     0.050 C 
BRANCH  18  19
HETATM   19  C19 UNL     1     -15.882  44.890  -4.740  1.00  0.00     0.121 A 
HETATM   20  N2  UNL     1     -16.926  45.780  -4.836  1.00  0.00    -0.330 N 
HETATM   21  C20 UNL     1     -17.236  45.979  -6.108  1.00  0.00     0.093 A 
ATOM     22  H2  UNL     1     -17.392  46.222  -4.044  1.00  0.00     0.168 HD
HETATM   23  C21 UNL     1     -18.274  46.836  -6.741  1.00  0.00     0.090 C 
HETATM   24  N3  UNL     1     -16.393  45.215  -6.820  1.00  0.00    -0.288 N 
HETATM   25  N4  UNL     1     -15.589  44.567  -6.036  1.00  0.00    -0.284 N 
ATOM     26  H3  UNL     1     -16.385  45.152  -7.838  1.00  0.00     0.188 HD
ATOM     27  H4  UNL     1     -14.858  43.923  -6.337  1.00  0.00     0.188 HD
ENDBRANCH  18  19
ENDBRANCH  17  18
ENDBRANCH  15  16
ENDBRANCH  14  15
ENDBRANCH  12  14
BRANCH   6  28
HETATM   28  O2  UNL     1      -5.668  46.987   1.883  1.00  0.00    -0.353 OA
HETATM   29  C8  UNL     1      -6.483  47.682   2.794  1.00  0.00     0.210 C 
ENDBRANCH   6  28
BRANCH   1  30
HETATM   30  O1  UNL     1      -4.034  44.966   2.634  1.00  0.00    -0.353 OA
HETATM   31  C1  UNL     1      -4.001  44.904   4.049  1.00  0.00     0.210 C 
ENDBRANCH   1  30
TORSDOF 7
ENDMDL
MODEL 4
REMARK VINA RESULT: -7.274741380      2.557      4.222
REMARK  7 active torsions:
REMARK  status: ('A' for Active; 'I' for Inactive)
REMARK    1  A    between atoms: O1_2  and  C2_3 
REMARK    2  A    between atoms: C7_8  and  O2_9 
REMARK    3  A    between atoms: N1_16  and  C14_17 
REMARK    4  A    between atoms: C14_17  and  C15_18 
REMARK    5  A    between atoms: C15_18  and  C16_19 
REMARK    6  A    between atoms: C17_20  and  C18_21 
REMARK    7  A    between atoms: C18_21  and  C19_22 
ROOT
HETATM    1  C2  UNL     1     -12.099  49.116  -1.821  1.00  0.00     0.102 A 
HETATM    2  C3  UNL     1     -13.023  48.373  -1.122  1.00  0.00     0.047 A 
HETATM    3  C4  UNL     1     -12.712  47.080  -0.751  1.00  0.00    -0.047 A 
HETATM    4  C5  UNL     1     -11.501  46.500  -1.058  1.00  0.00    -0.023 A 
HETATM    5  C6  UNL     1     -10.592  47.275  -1.764  1.00  0.00     0.049 A 
HETATM    6  C7  UNL     1     -10.863  48.554  -2.147  1.00  0.00     0.102 A 
HETATM    7  C9  UNL     1     -11.512  45.137  -0.525  1.00  0.00     0.074 C 
HETATM    8  C10 UNL     1     -12.465  45.187   0.610  1.00  0.00     0.038 C 
HETATM    9  C11 UNL     1     -13.557  46.092   0.015  1.00  0.00     0.042 C 
HETATM   10  C12 UNL     1     -12.094  44.195  -1.585  1.00  0.00     0.049 C 
HETATM   11  C13 UNL     1     -10.785  43.734  -2.243  1.00  0.00     0.112 C 
HETATM   12  N1  UNL     1      -9.994  43.484  -1.038  1.00  0.00    -0.230 NA
HETATM   13  N5  UNL     1     -10.223  44.609  -0.217  1.00  0.00    -0.149 NA
ENDROOT
BRANCH  12  14
HETATM   14  C14 UNL     1      -8.580  43.347  -1.338  1.00  0.00     0.136 C 
BRANCH  14  15
HETATM   15  C15 UNL     1      -8.040  42.196  -0.593  1.00  0.00    -0.011 C 
BRANCH  15  16
HETATM   16  C16 UNL     1      -6.994  42.302   0.413  1.00  0.00    -0.003 C 
HETATM   17  C17 UNL     1      -6.807  43.271   1.453  1.00  0.00     0.003 C 
BRANCH  17  18
HETATM   18  C18 UNL     1      -6.496  44.672   1.419  1.00  0.00     0.050 C 
BRANCH  18  19
HETATM   19  C19 UNL     1      -7.296  45.762   1.923  1.00  0.00     0.121 A 
HETATM   20  N2  UNL     1      -8.345  46.356   1.262  1.00  0.00    -0.330 N 
HETATM   21  C20 UNL     1      -8.917  47.262   2.042  1.00  0.00     0.093 A 
ATOM     22  H2  UNL     1      -8.641  46.132   0.312  1.00  0.00     0.168 HD
HETATM   23  C21 UNL     1     -10.073  48.167   1.807  1.00  0.00     0.090 C 
HETATM   24  N3  UNL     1      -8.230  47.245   3.195  1.00  0.00    -0.288 N 
HETATM   25  N4  UNL     1      -7.273  46.371   3.146  1.00  0.00    -0.284 N 
ATOM     26  H3  UNL     1      -8.432  47.839   3.999  1.00  0.00     0.188 HD
ATOM     27  H4  UNL     1      -6.613  46.172   3.897  1.00  0.00     0.188 HD
ENDBRANCH  18  19
ENDBRANCH  17  18
ENDBRANCH  15  16
ENDBRANCH  14  15
ENDBRANCH  12  14
BRANCH   6  28
HETATM   28  O2  UNL     1      -9.934  49.303  -2.850  1.00  0.00    -0.353 OA
HETATM   29  C8  UNL     1      -8.874  49.917  -2.160  1.00  0.00     0.210 C 
ENDBRANCH   6  28
BRANCH   1  30
HETATM   30  O1  UNL     1     -12.324  50.409  -2.229  1.00  0.00    -0.353 OA
HETATM   31  C1  UNL     1     -12.216  51.509  -1.344  1.00  0.00     0.210 C 
ENDBRANCH   1  30
TORSDOF 7
ENDMDL
MODEL 5
REMARK VINA RESULT: -7.241688005      3.373      6.178
REMARK  7 active torsions:
REMARK  status: ('A' for Active; 'I' for Inactive)
REMARK    1  A    between atoms: O1_2  and  C2_3 
REMARK    2  A    between atoms: C7_8  and  O2_9 
REMARK    3  A    between atoms: N1_16  and  C14_17 
REMARK    4  A    between atoms: C14_17  and  C15_18 
REMARK    5  A    between atoms: C15_18  and  C16_19 
REMARK    6  A    between atoms: C17_20  and  C18_21 
REMARK    7  A    between atoms: C18_21  and  C19_22 
ROOT
HETATM    1  C2  UNL     1      -8.130  43.606  -0.913  1.00  0.00     0.102 A 
HETATM    2  C3  UNL     1      -9.049  42.966  -1.714  1.00  0.00     0.047 A 
HETATM    3  C4  UNL     1     -10.206  43.624  -2.078  1.00  0.00    -0.047 A 
HETATM    4  C5  UNL     1     -10.481  44.908  -1.664  1.00  0.00    -0.023 A 
HETATM    5  C6  UNL     1      -9.535  45.526  -0.857  1.00  0.00     0.049 A 
HETATM    6  C7  UNL     1      -8.382  44.909  -0.478  1.00  0.00     0.102 A 
HETATM    7  C9  UNL     1     -11.778  45.289  -2.223  1.00  0.00     0.074 C 
HETATM    8  C10 UNL     1     -11.917  44.461  -3.445  1.00  0.00     0.038 C 
HETATM    9  C11 UNL     1     -11.339  43.127  -2.943  1.00  0.00     0.042 C 
HETATM   10  C12 UNL     1     -12.881  44.869  -1.244  1.00  0.00     0.049 C 
HETATM   11  C13 UNL     1     -13.031  46.186  -0.470  1.00  0.00     0.112 C 
HETATM   12  N1  UNL     1     -13.024  47.120  -1.596  1.00  0.00    -0.230 NA
HETATM   13  N5  UNL     1     -11.957  46.692  -2.413  1.00  0.00    -0.149 NA
ENDROOT
BRANCH  12  14
HETATM   14  C14 UNL     1     -12.820  48.490  -1.160  1.00  0.00     0.136 C 
BRANCH  14  15
HETATM   15  C15 UNL     1     -11.961  48.490   0.038  1.00  0.00    -0.011 C 
BRANCH  15  16
HETATM   16  C16 UNL     1     -10.721  49.243   0.144  1.00  0.00    -0.003 C 
HETATM   17  C17 UNL     1      -9.718  49.515  -0.844  1.00  0.00     0.003 C 
BRANCH  17  18
HETATM   18  C18 UNL     1      -8.788  48.664  -1.532  1.00  0.00     0.050 C 
BRANCH  18  19
HETATM   19  C19 UNL     1      -7.402  48.935  -1.825  1.00  0.00     0.121 A 
HETATM   20  N2  UNL     1      -6.324  48.302  -1.252  1.00  0.00    -0.330 N 
HETATM   21  C20 UNL     1      -5.200  48.727  -1.808  1.00  0.00     0.093 A 
ATOM     22  H2  UNL     1      -6.382  47.607  -0.507  1.00  0.00     0.168 HD
HETATM   23  C21 UNL     1      -3.782  48.361  -1.553  1.00  0.00     0.090 C 
HETATM   24  N3  UNL     1      -5.562  49.631  -2.732  1.00  0.00    -0.288 N 
HETATM   25  N4  UNL     1      -6.851  49.768  -2.758  1.00  0.00    -0.284 N 
ATOM     26  H3  UNL     1      -4.912  50.140  -3.331  1.00  0.00     0.188 HD
ATOM     27  H4  UNL     1      -7.369  50.396  -3.374  1.00  0.00     0.188 HD
ENDBRANCH  18  19
ENDBRANCH  17  18
ENDBRANCH  15  16
ENDBRANCH  14  15
ENDBRANCH  12  14
BRANCH   6  28
HETATM   28  O2  UNL     1      -7.458  45.552   0.329  1.00  0.00    -0.353 OA
HETATM   29  C8  UNL     1      -7.907  46.362   1.387  1.00  0.00     0.210 C 
ENDBRANCH   6  28
BRANCH   1  30
HETATM   30  O1  UNL     1      -6.954  43.028  -0.503  1.00  0.00    -0.353 OA
HETATM   31  C1  UNL     1      -6.855  42.288   0.701  1.00  0.00     0.210 C 
ENDBRANCH   1  30
TORSDOF 7
ENDMDL
