MODEL 1
REMARK VINA RESULT: -6.987095005      0.000      0.000
REMARK  8 active torsions:
REMARK  status: ('A' for Active; 'I' for Inactive)
REMARK    1  A    between atoms: C2_2  and  O1_3 
REMARK    2  A    between atoms: O1_3  and  C3_4 
REMARK    3  A    between atoms: C8_9  and  O2_10 
REMARK    4  A    between atoms: O2_10  and  C9_11 
REMARK    5  A    between atoms: C12_17  and  C14_19 
REMARK    6  A    between atoms: C14_19  and  N2_20 
REMARK    7  A    between atoms: N2_20  and  C15_22 
REMARK    8  A    between atoms: C15_22  and  C16_23 
ROOT
HETATM    1  C3  UNL     1      -7.879  43.983  -0.086  1.00  0.00     0.102 A 
HETATM    2  C4  UNL     1      -8.567  43.447  -1.136  1.00  0.00     0.047 A 
HETATM    3  C5  UNL     1      -9.853  43.890  -1.489  1.00  0.00    -0.047 A 
HETATM    4  C6  UNL     1     -10.372  44.885  -0.720  1.00  0.00    -0.024 A 
HETATM    5  C7  UNL     1      -9.695  45.452   0.357  1.00  0.00     0.049 A 
HETATM    6  C8  UNL     1      -8.442  45.009   0.688  1.00  0.00     0.102 A 
HETATM    7  C11 UNL     1     -11.672  45.568  -0.837  1.00  0.00     0.272 C 
HETATM    8  N1  UNL     1     -12.772  44.715  -1.225  1.00  0.00    -0.061 N 
ATOM      9  H11 UNL     1     -13.661  45.200  -1.105  1.00  0.00     0.278 HD
ATOM     10  H12 UNL     1     -12.896  43.960  -0.551  1.00  0.00     0.278 HD
HETATM   11  C12 UNL     1     -12.660  44.196  -2.539  1.00  0.00     0.138 C 
HETATM   12  C13 UNL     1     -12.148  45.221  -3.535  1.00  0.00     0.048 C 
HETATM   13  C22 UNL     1     -11.865  42.937  -2.643  1.00  0.00     0.045 C 
HETATM   14  C23 UNL     1     -10.385  43.173  -2.651  1.00  0.00     0.042 C 
ENDROOT
BRANCH  11  15
HETATM   15  C14 UNL     1     -14.097  43.856  -3.019  1.00  0.00     0.157 C 
BRANCH  15  16
HETATM   16  N2  UNL     1     -15.059  44.620  -2.316  1.00  0.00    -0.399 N 
ATOM     17  H2  UNL     1     -14.802  45.163  -1.492  1.00  0.00     0.158 HD
BRANCH  16  18
HETATM   18  C15 UNL     1     -16.362  44.602  -2.787  1.00  0.00     0.060 C 
BRANCH  18  19
HETATM   19  C16 UNL     1     -16.716  45.428  -3.970  1.00  0.00     0.027 C 
HETATM   20  C17 UNL     1     -16.714  44.751  -5.283  1.00  0.00     0.040 C 
HETATM   21  C18 UNL     1     -17.908  45.218  -6.112  1.00  0.00     0.272 C 
HETATM   22  N3  UNL     1     -18.140  46.624  -6.052  1.00  0.00     0.084 N 
HETATM   23  C19 UNL     1     -19.215  46.956  -6.967  1.00  0.00     0.309 C 
HETATM   24  C20 UNL     1     -18.422  47.102  -4.713  1.00  0.00     0.272 C 
HETATM   25  C21 UNL     1     -18.063  46.082  -3.659  1.00  0.00     0.040 C 
ENDBRANCH  18  19
ENDBRANCH  16  18
ENDBRANCH  15  16
ENDBRANCH  11  15
BRANCH   6  26
HETATM   26  O2  UNL     1      -7.677  45.493   1.726  1.00  0.00    -0.349 OA
BRANCH  26  27
HETATM   27  C9  UNL     1      -7.147  46.780   1.715  1.00  0.00     0.171 C 
HETATM   28  C10 UNL     1      -5.844  46.945   0.996  1.00  0.00     0.034 C 
ENDBRANCH  26  27
ENDBRANCH   6  26
BRANCH   1  29
HETATM   29  O1  UNL     1      -6.604  43.541   0.257  1.00  0.00    -0.349 OA
BRANCH  29  30
HETATM   30  C2  UNL     1      -6.397  42.500   1.191  1.00  0.00     0.171 C 
HETATM   31  C1  UNL     1      -5.491  43.029   2.278  1.00  0.00     0.034 C 
ENDBRANCH  29  30
ENDBRANCH   1  29
TORSDOF 8
ENDMDL
MODEL 2
REMARK VINA RESULT: -6.913323126      3.625      9.683
REMARK  8 active torsions:
REMARK  status: ('A' for Active; 'I' for Inactive)
REMARK    1  A    between atoms: C2_2  and  O1_3 
REMARK    2  A    between atoms: O1_3  and  C3_4 
REMARK    3  A    between atoms: C8_9  and  O2_10 
REMARK    4  A    between atoms: O2_10  and  C9_11 
REMARK    5  A    between atoms: C12_17  and  C14_19 
REMARK    6  A    between atoms: C14_19  and  N2_20 
REMARK    7  A    between atoms: N2_20  and  C15_22 
REMARK    8  A    between atoms: C15_22  and  C16_23 
ROOT
HETATM    1  C3  UNL     1     -12.826  45.773  -1.377  1.00  0.00     0.102 A 
HETATM    2  C4  UNL     1     -11.753  45.681  -0.539  1.00  0.00     0.047 A 
HETATM    3  C5  UNL     1     -10.678  44.812  -0.795  1.00  0.00    -0.047 A 
HETATM    4  C6  UNL     1     -10.773  44.065  -1.929  1.00  0.00    -0.024 A 
HETATM    5  C7  UNL     1     -11.855  44.136  -2.803  1.00  0.00     0.049 A 
HETATM    6  C8  UNL     1     -12.894  44.989  -2.539  1.00  0.00     0.102 A 
HETATM    7  C11 UNL     1      -9.821  43.084  -2.478  1.00  0.00     0.272 C 
HETATM    8  N1  UNL     1      -9.152  42.270  -1.490  1.00  0.00    -0.061 N 
ATOM      9  H11 UNL     1      -8.658  41.497  -1.937  1.00  0.00     0.278 HD
ATOM     10  H12 UNL     1      -9.830  41.745  -0.939  1.00  0.00     0.278 HD
HETATM   11  C12 UNL     1      -8.278  42.997  -0.644  1.00  0.00     0.138 C 
HETATM   12  C13 UNL     1      -7.471  44.044  -1.391  1.00  0.00     0.048 C 
HETATM   13  C22 UNL     1      -8.936  43.608   0.549  1.00  0.00     0.045 C 
HETATM   14  C23 UNL     1      -9.642  44.894   0.238  1.00  0.00     0.042 C 
ENDROOT
BRANCH  11  15
HETATM   15  C14 UNL     1      -7.224  41.992  -0.104  1.00  0.00     0.157 C 
BRANCH  15  16
HETATM   16  N2  UNL     1      -6.871  42.299   1.232  1.00  0.00    -0.399 N 
ATOM     17  H2  UNL     1      -7.534  42.169   1.996  1.00  0.00     0.158 HD
BRANCH  16  18
HETATM   18  C15 UNL     1      -5.593  42.782   1.463  1.00  0.00     0.060 C 
BRANCH  18  19
HETATM   19  C16 UNL     1      -5.411  43.945   2.370  1.00  0.00     0.027 C 
HETATM   20  C17 UNL     1      -5.865  45.260   1.871  1.00  0.00     0.040 C 
HETATM   21  C18 UNL     1      -6.557  46.031   2.991  1.00  0.00     0.272 C 
HETATM   22  N3  UNL     1      -5.885  45.956   4.247  1.00  0.00     0.084 N 
HETATM   23  C19 UNL     1      -6.568  46.820   5.191  1.00  0.00     0.309 C 
HETATM   24  C20 UNL     1      -5.774  44.604   4.757  1.00  0.00     0.272 C 
HETATM   25  C21 UNL     1      -6.072  43.571   3.697  1.00  0.00     0.040 C 
ENDBRANCH  18  19
ENDBRANCH  16  18
ENDBRANCH  15  16
ENDBRANCH  11  15
BRANCH   6  26
HETATM   26  O2  UNL     1     -14.012  45.148  -3.328  1.00  0.00    -0.349 OA
BRANCH  26  27
HETATM   27  C9  UNL     1     -15.037  44.208  -3.351  1.00  0.00     0.171 C 
HETATM   28  C10 UNL     1     -16.038  44.358  -4.455  1.00  0.00     0.034 C 
ENDBRANCH  26  27
ENDBRANCH   6  26
BRANCH   1  29
HETATM   29  O1  UNL     1     -13.885  46.637  -1.118  1.00  0.00    -0.349 OA
BRANCH  29  30
HETATM   30  C2  UNL     1     -13.693  47.894  -0.497  1.00  0.00     0.171 C 
HETATM   31  C1  UNL     1     -13.130  48.839  -1.532  1.00  0.00     0.034 C 
ENDBRANCH  29  30
ENDBRANCH   1  29
TORSDOF 8
ENDMDL
MODEL 3
REMARK VINA RESULT: -6.873766516      3.690      9.624
REMARK  8 active torsions:
REMARK  status: ('A' for Active; 'I' for Inactive)
REMARK    1  A    between atoms: C2_2  and  O1_3 
REMARK    2  A    between atoms: O1_3  and  C3_4 
REMARK    3  A    between atoms: C8_9  and  O2_10 
REMARK    4  A    between atoms: O2_10  and  C9_11 
REMARK    5  A    between atoms: C12_17  and  C14_19 
REMARK    6  A    between atoms: C14_19  and  N2_20 
REMARK    7  A    between atoms: N2_20  and  C15_22 
REMARK    8  A    between atoms: C15_22  and  C16_23 
ROOT
HETATM    1  C3  UNL     1     -13.805  45.560  -2.428  1.00  0.00     0.102 A 
HETATM    2  C4  UNL     1     -13.011  44.454  -2.523  1.00  0.00     0.047 A 
HETATM    3  C5  UNL     1     -11.782  44.358  -1.848  1.00  0.00    -0.047 A 
HETATM    4  C6  UNL     1     -11.429  45.435  -1.095  1.00  0.00    -0.024 A 
HETATM    5  C7  UNL     1     -12.217  46.578  -0.978  1.00  0.00     0.049 A 
HETATM    6  C8  UNL     1     -13.413  46.655  -1.642  1.00  0.00     0.102 A 
HETATM    7  C11 UNL     1     -10.227  45.637  -0.268  1.00  0.00     0.272 C 
HETATM    8  N1  UNL     1      -9.010  45.093  -0.824  1.00  0.00    -0.061 N 
ATOM      9  H11 UNL     1      -8.198  45.427  -0.304  1.00  0.00     0.278 HD
ATOM     10  H12 UNL     1      -8.814  45.509  -1.734  1.00  0.00     0.278 HD
HETATM   11  C12 UNL     1      -9.001  43.678  -0.910  1.00  0.00     0.138 C 
HETATM   12  C13 UNL     1      -9.604  43.011   0.312  1.00  0.00     0.048 C 
HETATM   13  C22 UNL     1      -9.617  43.129  -2.153  1.00  0.00     0.045 C 
HETATM   14  C23 UNL     1     -11.114  43.077  -2.096  1.00  0.00     0.042 C 
ENDROOT
BRANCH  11  15
HETATM   15  C14 UNL     1      -7.514  43.232  -0.916  1.00  0.00     0.157 C 
BRANCH  15  16
HETATM   16  N2  UNL     1      -7.230  42.403   0.197  1.00  0.00    -0.399 N 
ATOM     17  H2  UNL     1      -7.773  41.559   0.378  1.00  0.00     0.158 HD
BRANCH  16  18
HETATM   18  C15 UNL     1      -6.189  42.782   1.030  1.00  0.00     0.060 C 
BRANCH  18  19
HETATM   19  C16 UNL     1      -6.489  43.586   2.244  1.00  0.00     0.027 C 
HETATM   20  C17 UNL     1      -6.105  43.002   3.545  1.00  0.00     0.040 C 
HETATM   21  C18 UNL     1      -5.517  44.082   4.448  1.00  0.00     0.272 C 
HETATM   22  N3  UNL     1      -6.236  45.313   4.421  1.00  0.00     0.084 N 
HETATM   23  C19 UNL     1      -5.656  46.211   5.402  1.00  0.00     0.309 C 
HETATM   24  C20 UNL     1      -6.277  45.925   3.108  1.00  0.00     0.272 C 
HETATM   25  C21 UNL     1      -5.862  44.963   2.020  1.00  0.00     0.040 C 
ENDBRANCH  18  19
ENDBRANCH  16  18
ENDBRANCH  15  16
ENDBRANCH  11  15
BRANCH   6  26
HETATM   26  O2  UNL     1     -14.276  47.729  -1.601  1.00  0.00    -0.349 OA
BRANCH  26  27
HETATM   27  C9  UNL     1     -13.818  49.041  -1.554  1.00  0.00     0.171 C 
HETATM   28  C10 UNL     1     -14.809  50.095  -1.941  1.00  0.00     0.034 C 
ENDBRANCH  26  27
ENDBRANCH   6  26
BRANCH   1  29
HETATM   29  O1  UNL     1     -15.022  45.648  -3.096  1.00  0.00    -0.349 OA
BRANCH  29  30
HETATM   30  C2  UNL     1     -15.783  44.501  -3.423  1.00  0.00     0.171 C 
HETATM   31  C1  UNL     1     -15.984  44.493  -4.920  1.00  0.00     0.034 C 
ENDBRANCH  29  30
ENDBRANCH   1  29
TORSDOF 8
ENDMDL
MODEL 4
REMARK VINA RESULT: -6.824981358      3.728      9.894
REMARK  8 active torsions:
REMARK  status: ('A' for Active; 'I' for Inactive)
REMARK    1  A    between atoms: C2_2  and  O1_3 
REMARK    2  A    between atoms: O1_3  and  C3_4 
REMARK    3  A    between atoms: C8_9  and  O2_10 
REMARK    4  A    between atoms: O2_10  and  C9_11 
REMARK    5  A    between atoms: C12_17  and  C14_19 
REMARK    6  A    between atoms: C14_19  and  N2_20 
REMARK    7  A    between atoms: N2_20  and  C15_22 
REMARK    8  A    between atoms: C15_22  and  C16_23 
ROOT
HETATM    1  C3  UNL     1     -12.142  47.171  -1.759  1.00  0.00     0.102 A 
HETATM    2  C4  UNL     1     -10.849  47.057  -1.336  1.00  0.00     0.047 A 
HETATM    3  C5  UNL     1     -10.248  45.809  -1.100  1.00  0.00    -0.047 A 
HETATM    4  C6  UNL     1     -11.032  44.719  -1.317  1.00  0.00    -0.024 A 
HETATM    5  C7  UNL     1     -12.355  44.802  -1.747  1.00  0.00     0.049 A 
HETATM    6  C8  UNL     1     -12.926  46.027  -1.974  1.00  0.00     0.102 A 
HETATM    7  C11 UNL     1     -10.700  43.291  -1.176  1.00  0.00     0.272 C 
HETATM    8  N1  UNL     1      -9.838  42.977  -0.059  1.00  0.00    -0.061 N 
ATOM      9  H11 UNL     1      -9.801  41.969   0.092  1.00  0.00     0.278 HD
ATOM     10  H12 UNL     1     -10.268  43.267   0.818  1.00  0.00     0.278 HD
HETATM   11  C12 UNL     1      -8.531  43.513  -0.175  1.00  0.00     0.138 C 
HETATM   12  C13 UNL     1      -7.971  43.398  -1.581  1.00  0.00     0.048 C 
HETATM   13  C22 UNL     1      -8.388  44.912   0.324  1.00  0.00     0.045 C 
HETATM   14  C23 UNL     1      -8.855  45.940  -0.663  1.00  0.00     0.042 C 
ENDROOT
BRANCH  11  15
HETATM   15  C14 UNL     1      -7.598  42.631   0.699  1.00  0.00     0.157 C 
BRANCH  15  16
HETATM   16  N2  UNL     1      -6.241  42.987   0.508  1.00  0.00    -0.399 N 
ATOM     17  H2  UNL     1      -5.871  43.176  -0.423  1.00  0.00     0.158 HD
BRANCH  16  18
HETATM   18  C15 UNL     1      -5.435  43.070   1.633  1.00  0.00     0.060 C 
BRANCH  18  19
HETATM   19  C16 UNL     1      -5.941  43.781   2.836  1.00  0.00     0.027 C 
HETATM   20  C17 UNL     1      -5.596  43.199   4.150  1.00  0.00     0.040 C 
HETATM   21  C18 UNL     1      -5.235  44.310   5.132  1.00  0.00     0.272 C 
HETATM   22  N3  UNL     1      -6.104  45.439   5.075  1.00  0.00     0.084 N 
HETATM   23  C19 UNL     1      -5.734  46.364   6.129  1.00  0.00     0.309 C 
HETATM   24  C20 UNL     1      -6.112  46.091   3.781  1.00  0.00     0.272 C 
HETATM   25  C21 UNL     1      -5.483  45.234   2.709  1.00  0.00     0.040 C 
ENDBRANCH  18  19
ENDBRANCH  16  18
ENDBRANCH  15  16
ENDBRANCH  11  15
BRANCH   6  26
HETATM   26  O2  UNL     1     -14.219  46.233  -2.402  1.00  0.00    -0.349 OA
BRANCH  26  27
HETATM   27  C9  UNL     1     -15.096  45.179  -2.632  1.00  0.00     0.171 C 
HETATM   28  C10 UNL     1     -15.235  44.742  -4.058  1.00  0.00     0.034 C 
ENDBRANCH  26  27
ENDBRANCH   6  26
BRANCH   1  29
HETATM   29  O1  UNL     1     -12.730  48.409  -1.993  1.00  0.00    -0.349 OA
BRANCH  29  30
HETATM   30  C2  UNL     1     -12.484  49.526  -1.160  1.00  0.00     0.171 C 
HETATM   31  C1  UNL     1     -11.824  50.593  -2.003  1.00  0.00     0.034 C 
ENDBRANCH  29  30
ENDBRANCH   1  29
TORSDOF 8
ENDMDL
MODEL 5
REMARK VINA RESULT: -6.674325673      4.008     10.039
REMARK  8 active torsions:
REMARK  status: ('A' for Active; 'I' for Inactive)
REMARK    1  A    between atoms: C2_2  and  O1_3 
REMARK    2  A    between atoms: O1_3  and  C3_4 
REMARK    3  A    between atoms: C8_9  and  O2_10 
REMARK    4  A    between atoms: O2_10  and  C9_11 
REMARK    5  A    between atoms: C12_17  and  C14_19 
REMARK    6  A    between atoms: C14_19  and  N2_20 
REMARK    7  A    between atoms: N2_20  and  C15_22 
REMARK    8  A    between atoms: C15_22  and  C16_23 
ROOT
HETATM    1  C3  UNL     1     -12.322  44.764  -2.125  1.00  0.00     0.102 A 
HETATM    2  C4  UNL     1     -11.149  44.139  -2.434  1.00  0.00     0.047 A 
HETATM    3  C5  UNL     1     -10.196  43.814  -1.454  1.00  0.00    -0.047 A 
HETATM    4  C6  UNL     1     -10.512  44.160  -0.176  1.00  0.00    -0.024 A 
HETATM    5  C7  UNL     1     -11.701  44.798   0.171  1.00  0.00     0.049 A 
HETATM    6  C8  UNL     1     -12.620  45.108  -0.797  1.00  0.00     0.102 A 
HETATM    7  C11 UNL     1      -9.743  43.949   1.062  1.00  0.00     0.272 C 
HETATM    8  N1  UNL     1      -8.314  44.107   0.922  1.00  0.00    -0.061 N 
ATOM      9  H11 UNL     1      -7.865  44.135   1.838  1.00  0.00     0.278 HD
ATOM     10  H12 UNL     1      -8.088  45.045   0.592  1.00  0.00     0.278 HD
HETATM   11  C12 UNL     1      -7.706  43.128   0.097  1.00  0.00     0.138 C 
HETATM   12  C13 UNL     1      -8.264  41.736   0.328  1.00  0.00     0.048 C 
HETATM   13  C22 UNL     1      -7.716  43.452  -1.360  1.00  0.00     0.045 C 
HETATM   14  C23 UNL     1      -9.024  43.142  -2.023  1.00  0.00     0.042 C 
ENDROOT
BRANCH  11  15
HETATM   15  C14 UNL     1      -6.215  43.037   0.522  1.00  0.00     0.157 C 
BRANCH  15  16
HETATM   16  N2  UNL     1      -6.100  42.729   1.900  1.00  0.00    -0.399 N 
ATOM     17  H2  UNL     1      -6.628  41.962   2.315  1.00  0.00     0.158 HD
BRANCH  16  18
HETATM   18  C15 UNL     1      -5.244  43.509   2.662  1.00  0.00     0.060 C 
BRANCH  18  19
HETATM   19  C16 UNL     1      -5.737  44.088   3.939  1.00  0.00     0.027 C 
HETATM   20  C17 UNL     1      -4.971  43.764   5.160  1.00  0.00     0.040 C 
HETATM   21  C18 UNL     1      -4.853  45.001   6.045  1.00  0.00     0.272 C 
HETATM   22  N3  UNL     1      -6.062  45.750   6.158  1.00  0.00     0.084 N 
HETATM   23  C19 UNL     1      -5.856  46.823   7.112  1.00  0.00     0.309 C 
HETATM   24  C20 UNL     1      -6.541  46.260   4.889  1.00  0.00     0.272 C 
HETATM   25  C21 UNL     1      -5.859  45.596   3.716  1.00  0.00     0.040 C 
ENDBRANCH  18  19
ENDBRANCH  16  18
ENDBRANCH  15  16
ENDBRANCH  11  15
BRANCH   6  26
HETATM   26  O2  UNL     1     -13.827  45.733  -0.575  1.00  0.00    -0.349 OA
BRANCH  26  27
HETATM   27  C9  UNL     1     -13.909  47.079  -0.234  1.00  0.00     0.171 C 
HETATM   28  C10 UNL     1     -13.743  48.052  -1.360  1.00  0.00     0.034 C 
ENDBRANCH  26  27
ENDBRANCH   6  26
BRANCH   1  29
HETATM   29  O1  UNL     1     -13.263  45.080  -3.100  1.00  0.00    -0.349 OA
BRANCH  29  30
HETATM   30  C2  UNL     1     -14.115  44.103  -3.666  1.00  0.00     0.171 C 
HETATM   31  C1  UNL     1     -15.536  44.466  -3.304  1.00  0.00     0.034 C 
ENDBRANCH  29  30
ENDBRANCH   1  29
TORSDOF 8
ENDMDL
