MODEL 1
REMARK VINA RESULT: -7.315856853      0.000      0.000
REMARK  9 active torsions:
REMARK  status: ('A' for Active; 'I' for Inactive)
REMARK    1  A    between atoms: C2_2  and  C3_3 
REMARK    2  A    between atoms: C3_3  and  N1_4 
REMARK    3  A    between atoms: C4_5  and  C5_6 
REMARK    4  A    between atoms: C5_6  and  C6_7 
REMARK    5  A    between atoms: C9_11  and  C10_12 
REMARK    6  A    between atoms: C13_15  and  N3_16 
REMARK    7  A    between atoms: N3_16  and  C14_18 
REMARK    8  A    between atoms: C14_18  and  C15_19 
REMARK    9  A    between atoms: C15_19  and  C16_20 
ROOT
HETATM    1  C6  UNL     1      -8.425  42.244  -0.996  1.00  0.00    -0.010 C 
HETATM    2  C7  UNL     1      -7.750  41.684  -0.022  1.00  0.00     0.090 C 
HETATM    3  C8  UNL     1      -6.720  42.411   0.653  1.00  0.00     0.087 C 
HETATM    4  N2  UNL     1      -5.880  42.989   1.200  1.00  0.00    -0.192 NA
ENDROOT
BRANCH   1   5
HETATM    5  C5  UNL     1      -8.187  43.609  -1.454  1.00  0.00     0.085 C 
BRANCH   5   6
HETATM    6  C4  UNL     1      -9.277  44.575  -1.139  1.00  0.00     0.024 A 
HETATM    7  N1  UNL     1      -9.196  45.471  -0.134  1.00  0.00    -0.335 N 
HETATM    8  C22 UNL     1     -10.363  46.143  -0.153  1.00  0.00     0.123 A 
HETATM    9  C12 UNL     1     -11.181  45.697  -1.142  1.00  0.00     0.060 A 
HETATM   10  N7  UNL     1     -10.764  47.135   0.655  1.00  0.00    -0.338 N 
HETATM   11  C9  UNL     1     -10.490  44.669  -1.802  1.00  0.00    -0.018 A 
HETATM   12  C13 UNL     1     -12.424  46.295  -1.286  1.00  0.00     0.116 A 
HETATM   13  N6  UNL     1     -12.790  47.282  -0.460  1.00  0.00    -0.338 N 
HETATM   14  C21 UNL     1     -11.958  47.720   0.531  1.00  0.00     0.183 A 
ATOM     15  H6  UNL     1     -13.706  47.715  -0.573  1.00  0.00     0.168 HD
ATOM     16  H7  UNL     1     -10.134  47.455   1.390  1.00  0.00     0.168 HD
BRANCH   7  17
HETATM   17  C3  UNL     1      -8.111  45.708   0.791  1.00  0.00     0.130 C 
BRANCH  17  18
HETATM   18  C2  UNL     1      -7.090  46.704   0.248  1.00  0.00     0.016 C 
HETATM   19  C1  UNL     1      -5.913  46.702   1.202  1.00  0.00     0.006 C 
ENDBRANCH  17  18
ENDBRANCH   7  17
BRANCH  11  20
HETATM   20  C10 UNL     1     -11.007  43.928  -2.940  1.00  0.00     0.037 C 
HETATM   21  C11 UNL     1     -11.795  42.701  -2.599  1.00  0.00     0.010 C 
ENDBRANCH  11  20
BRANCH  12  22
HETATM   22  N3  UNL     1     -13.235  45.923  -2.212  1.00  0.00    -0.375 N 
ATOM     23  H3  UNL     1     -12.955  46.153  -3.165  1.00  0.00     0.161 HD
BRANCH  22  24
HETATM   24  C14 UNL     1     -14.464  45.237  -2.079  1.00  0.00     0.127 C 
BRANCH  24  25
HETATM   25  C15 UNL     1     -14.859  44.604  -3.423  1.00  0.00     0.078 C 
BRANCH  25  26
HETATM   26  C16 UNL     1     -16.209  45.144  -3.827  1.00  0.00     0.034 A 
HETATM   27  N4  UNL     1     -17.158  45.564  -2.988  1.00  0.00    -0.348 N 
HETATM   28  C17 UNL     1     -18.243  45.969  -3.691  1.00  0.00     0.077 A 
ATOM     29  H4  UNL     1     -17.078  45.577  -1.971  1.00  0.00     0.167 HD
HETATM   30  C18 UNL     1     -19.498  46.497  -3.091  1.00  0.00     0.089 C 
HETATM   31  N5  UNL     1     -17.946  45.792  -4.994  1.00  0.00    -0.348 N 
HETATM   32  C19 UNL     1     -16.699  45.286  -5.099  1.00  0.00     0.029 A 
ATOM     33  H5  UNL     1     -18.566  46.007  -5.775  1.00  0.00     0.167 HD
HETATM   34  C20 UNL     1     -15.949  44.933  -6.337  1.00  0.00     0.070 C 
ENDBRANCH  25  26
ENDBRANCH  24  25
ENDBRANCH  22  24
ENDBRANCH  12  22
ENDBRANCH   5   6
ENDBRANCH   1   5
TORSDOF 9
ENDMDL
MODEL 2
REMARK VINA RESULT: -6.969484918      2.647      9.192
REMARK  9 active torsions:
REMARK  status: ('A' for Active; 'I' for Inactive)
REMARK    1  A    between atoms: C2_2  and  C3_3 
REMARK    2  A    between atoms: C3_3  and  N1_4 
REMARK    3  A    between atoms: C4_5  and  C5_6 
REMARK    4  A    between atoms: C5_6  and  C6_7 
REMARK    5  A    between atoms: C9_11  and  C10_12 
REMARK    6  A    between atoms: C13_15  and  N3_16 
REMARK    7  A    between atoms: N3_16  and  C14_18 
REMARK    8  A    between atoms: C14_18  and  C15_19 
REMARK    9  A    between atoms: C15_19  and  C16_20 
ROOT
HETATM    1  C6  UNL     1     -10.979  43.823  -2.922  1.00  0.00    -0.010 C 
HETATM    2  C7  UNL     1     -12.026  44.113  -3.656  1.00  0.00     0.090 C 
HETATM    3  C8  UNL     1     -13.343  44.006  -3.108  1.00  0.00     0.087 C 
HETATM    4  N2  UNL     1     -14.413  43.915  -2.677  1.00  0.00    -0.192 NA
ENDROOT
BRANCH   1   5
HETATM    5  C5  UNL     1     -11.071  43.382  -1.533  1.00  0.00     0.085 C 
BRANCH   5   6
HETATM    6  C4  UNL     1     -10.468  44.313  -0.538  1.00  0.00     0.024 A 
HETATM    7  N1  UNL     1     -11.204  45.135   0.239  1.00  0.00    -0.335 N 
HETATM    8  C22 UNL     1     -10.316  45.821   0.982  1.00  0.00     0.123 A 
HETATM    9  C12 UNL     1      -9.038  45.458   0.698  1.00  0.00     0.060 A 
HETATM   10  N7  UNL     1     -10.557  46.763   1.907  1.00  0.00    -0.338 N 
HETATM   11  C9  UNL     1      -9.114  44.470  -0.296  1.00  0.00    -0.018 A 
HETATM   12  C13 UNL     1      -8.009  46.083   1.386  1.00  0.00     0.116 A 
HETATM   13  N6  UNL     1      -8.289  47.018   2.301  1.00  0.00    -0.338 N 
HETATM   14  C21 UNL     1      -9.578  47.375   2.577  1.00  0.00     0.183 A 
ATOM     15  H6  UNL     1      -7.525  47.473   2.801  1.00  0.00     0.168 HD
ATOM     16  H7  UNL     1     -11.524  47.020   2.105  1.00  0.00     0.168 HD
BRANCH   7  17
HETATM   17  C3  UNL     1     -12.640  45.283   0.305  1.00  0.00     0.130 C 
BRANCH  17  18
HETATM   18  C2  UNL     1     -13.091  46.715   0.029  1.00  0.00     0.016 C 
HETATM   19  C1  UNL     1     -12.684  47.045  -1.393  1.00  0.00     0.006 C 
ENDBRANCH  17  18
ENDBRANCH   7  17
BRANCH  11  20
HETATM   20  C10 UNL     1      -7.964  43.797  -0.877  1.00  0.00     0.037 C 
HETATM   21  C11 UNL     1      -7.700  42.419  -0.355  1.00  0.00     0.010 C 
ENDBRANCH  11  20
BRANCH  12  22
HETATM   22  N3  UNL     1      -6.781  45.770   1.168  1.00  0.00    -0.375 N 
ATOM     23  H3  UNL     1      -6.617  45.130   0.392  1.00  0.00     0.161 HD
BRANCH  22  24
HETATM   24  C14 UNL     1      -5.629  46.200   1.866  1.00  0.00     0.127 C 
BRANCH  24  25
HETATM   25  C15 UNL     1      -4.615  45.048   1.964  1.00  0.00     0.078 C 
BRANCH  25  26
HETATM   26  C16 UNL     1      -4.645  44.504   3.371  1.00  0.00     0.034 A 
HETATM   27  N4  UNL     1      -3.804  44.845   4.350  1.00  0.00    -0.348 N 
HETATM   28  C17 UNL     1      -4.109  44.155   5.476  1.00  0.00     0.077 A 
ATOM     29  H4  UNL     1      -3.046  45.522   4.264  1.00  0.00     0.167 HD
HETATM   30  C18 UNL     1      -3.384  44.271   6.770  1.00  0.00     0.089 C 
HETATM   31  N5  UNL     1      -5.165  43.373   5.174  1.00  0.00    -0.348 N 
HETATM   32  C19 UNL     1      -5.510  43.573   3.884  1.00  0.00     0.029 A 
ATOM     33  H5  UNL     1      -5.629  42.732   5.818  1.00  0.00     0.167 HD
HETATM   34  C20 UNL     1      -6.614  42.933   3.115  1.00  0.00     0.070 C 
ENDBRANCH  25  26
ENDBRANCH  24  25
ENDBRANCH  22  24
ENDBRANCH  12  22
ENDBRANCH   5   6
ENDBRANCH   1   5
TORSDOF 9
ENDMDL
MODEL 3
REMARK VINA RESULT: -6.826739907      2.696      7.718
REMARK  9 active torsions:
REMARK  status: ('A' for Active; 'I' for Inactive)
REMARK    1  A    between atoms: C2_2  and  C3_3 
REMARK    2  A    between atoms: C3_3  and  N1_4 
REMARK    3  A    between atoms: C4_5  and  C5_6 
REMARK    4  A    between atoms: C5_6  and  C6_7 
REMARK    5  A    between atoms: C9_11  and  C10_12 
REMARK    6  A    between atoms: C13_15  and  N3_16 
REMARK    7  A    between atoms: N3_16  and  C14_18 
REMARK    8  A    between atoms: C14_18  and  C15_19 
REMARK    9  A    between atoms: C15_19  and  C16_20 
ROOT
HETATM    1  C6  UNL     1     -11.394  43.835  -3.173  1.00  0.00    -0.010 C 
HETATM    2  C7  UNL     1     -12.565  44.108  -3.695  1.00  0.00     0.090 C 
HETATM    3  C8  UNL     1     -13.699  44.324  -2.851  1.00  0.00     0.087 C 
HETATM    4  N2  UNL     1     -14.624  44.493  -2.176  1.00  0.00    -0.192 NA
ENDROOT
BRANCH   1   5
HETATM    5  C5  UNL     1     -11.162  43.734  -1.735  1.00  0.00     0.085 C 
BRANCH   5   6
HETATM    6  C4  UNL     1     -10.219  44.745  -1.179  1.00  0.00     0.024 A 
HETATM    7  N1  UNL     1      -8.898  44.515  -1.036  1.00  0.00    -0.335 N 
HETATM    8  C22 UNL     1      -8.392  45.639  -0.493  1.00  0.00     0.123 A 
HETATM    9  C12 UNL     1      -9.356  46.575  -0.289  1.00  0.00     0.060 A 
HETATM   10  N7  UNL     1      -7.120  45.901  -0.158  1.00  0.00    -0.338 N 
HETATM   11  C9  UNL     1     -10.562  46.010  -0.732  1.00  0.00    -0.018 A 
HETATM   12  C13 UNL     1      -8.985  47.790   0.267  1.00  0.00     0.116 A 
HETATM   13  N6  UNL     1      -7.706  48.014   0.589  1.00  0.00    -0.338 N 
HETATM   14  C21 UNL     1      -6.747  47.064   0.380  1.00  0.00     0.183 A 
ATOM     15  H6  UNL     1      -7.443  48.910   0.998  1.00  0.00     0.168 HD
ATOM     16  H7  UNL     1      -6.412  45.185  -0.320  1.00  0.00     0.168 HD
BRANCH   7  17
HETATM   17  C3  UNL     1      -8.135  43.337  -1.379  1.00  0.00     0.130 C 
BRANCH  17  18
HETATM   18  C2  UNL     1      -8.185  42.272  -0.285  1.00  0.00     0.016 C 
HETATM   19  C1  UNL     1      -6.869  42.338   0.463  1.00  0.00     0.006 C 
ENDBRANCH  17  18
ENDBRANCH   7  17
BRANCH  11  20
HETATM   20  C10 UNL     1     -11.847  46.689  -0.706  1.00  0.00     0.037 C 
HETATM   21  C11 UNL     1     -12.163  47.506  -1.921  1.00  0.00     0.010 C 
ENDBRANCH  11  20
BRANCH  12  22
HETATM   22  N3  UNL     1      -9.852  48.717   0.470  1.00  0.00    -0.375 N 
ATOM     23  H3  UNL     1     -10.295  49.101  -0.364  1.00  0.00     0.161 HD
BRANCH  22  24
HETATM   24  C14 UNL     1     -10.270  49.272   1.702  1.00  0.00     0.127 C 
BRANCH  24  25
HETATM   25  C15 UNL     1     -10.839  48.168   2.608  1.00  0.00     0.078 C 
BRANCH  25  26
HETATM   26  C16 UNL     1     -10.005  48.104   3.863  1.00  0.00     0.034 A 
HETATM   27  N4  UNL     1      -8.776  47.590   3.951  1.00  0.00    -0.348 N 
HETATM   28  C17 UNL     1      -8.330  47.683   5.227  1.00  0.00     0.077 A 
ATOM     29  H4  UNL     1      -8.251  47.187   3.174  1.00  0.00     0.167 HD
HETATM   30  C18 UNL     1      -7.004  47.210   5.704  1.00  0.00     0.089 C 
HETATM   31  N5  UNL     1      -9.315  48.271   5.936  1.00  0.00    -0.348 N 
HETATM   32  C19 UNL     1     -10.354  48.537   5.116  1.00  0.00     0.029 A 
ATOM     33  H5  UNL     1      -9.280  48.481   6.934  1.00  0.00     0.167 HD
HETATM   34  C20 UNL     1     -11.654  49.182   5.454  1.00  0.00     0.070 C 
ENDBRANCH  25  26
ENDBRANCH  24  25
ENDBRANCH  22  24
ENDBRANCH  12  22
ENDBRANCH   5   6
ENDBRANCH   1   5
TORSDOF 9
ENDMDL
MODEL 4
REMARK VINA RESULT: -6.797289761      3.072      9.540
REMARK  9 active torsions:
REMARK  status: ('A' for Active; 'I' for Inactive)
REMARK    1  A    between atoms: C2_2  and  C3_3 
REMARK    2  A    between atoms: C3_3  and  N1_4 
REMARK    3  A    between atoms: C4_5  and  C5_6 
REMARK    4  A    between atoms: C5_6  and  C6_7 
REMARK    5  A    between atoms: C9_11  and  C10_12 
REMARK    6  A    between atoms: C13_15  and  N3_16 
REMARK    7  A    between atoms: N3_16  and  C14_18 
REMARK    8  A    between atoms: C14_18  and  C15_19 
REMARK    9  A    between atoms: C15_19  and  C16_20 
ROOT
HETATM    1  C6  UNL     1     -10.773  43.772  -2.975  1.00  0.00    -0.010 C 
HETATM    2  C7  UNL     1     -11.847  44.087  -3.658  1.00  0.00     0.090 C 
HETATM    3  C8  UNL     1     -13.143  43.958  -3.065  1.00  0.00     0.087 C 
HETATM    4  N2  UNL     1     -14.195  43.848  -2.597  1.00  0.00    -0.192 NA
ENDROOT
BRANCH   1   5
HETATM    5  C5  UNL     1     -10.813  43.281  -1.601  1.00  0.00     0.085 C 
BRANCH   5   6
HETATM    6  C4  UNL     1     -10.057  44.108  -0.617  1.00  0.00     0.024 A 
HETATM    7  N1  UNL     1     -10.609  45.142   0.050  1.00  0.00    -0.335 N 
HETATM    8  C22 UNL     1      -9.624  45.643   0.820  1.00  0.00     0.123 A 
HETATM    9  C12 UNL     1      -8.464  44.955   0.658  1.00  0.00     0.060 A 
HETATM   10  N7  UNL     1      -9.677  46.682   1.666  1.00  0.00    -0.338 N 
HETATM   11  C9  UNL     1      -8.724  43.943  -0.279  1.00  0.00    -0.018 A 
HETATM   12  C13 UNL     1      -7.355  45.357   1.388  1.00  0.00     0.116 A 
HETATM   13  N6  UNL     1      -7.447  46.398   2.222  1.00  0.00    -0.338 N 
HETATM   14  C21 UNL     1      -8.619  47.083   2.374  1.00  0.00     0.183 A 
ATOM     15  H6  UNL     1      -6.625  46.687   2.753  1.00  0.00     0.168 HD
ATOM     16  H7  UNL     1     -10.558  47.184   1.772  1.00  0.00     0.168 HD
BRANCH   7  17
HETATM   17  C3  UNL     1     -11.963  45.644  -0.005  1.00  0.00     0.130 C 
BRANCH  17  18
HETATM   18  C2  UNL     1     -12.110  46.817  -0.973  1.00  0.00     0.016 C 
HETATM   19  C1  UNL     1     -13.592  47.093  -1.118  1.00  0.00     0.006 C 
ENDBRANCH  17  18
ENDBRANCH   7  17
BRANCH  11  20
HETATM   20  C10 UNL     1      -7.747  42.965  -0.727  1.00  0.00     0.037 C 
HETATM   21  C11 UNL     1      -7.753  41.668   0.021  1.00  0.00     0.010 C 
ENDBRANCH  11  20
BRANCH  12  22
HETATM   22  N3  UNL     1      -6.234  44.735   1.286  1.00  0.00    -0.375 N 
ATOM     23  H3  UNL     1      -5.919  44.542   0.335  1.00  0.00     0.161 HD
BRANCH  22  24
HETATM   24  C14 UNL     1      -5.384  44.284   2.321  1.00  0.00     0.127 C 
BRANCH  24  25
HETATM   25  C15 UNL     1      -6.220  43.674   3.458  1.00  0.00     0.078 C 
BRANCH  25  26
HETATM   26  C16 UNL     1      -5.479  43.876   4.757  1.00  0.00     0.034 A 
HETATM   27  N4  UNL     1      -4.690  42.975   5.346  1.00  0.00    -0.348 N 
HETATM   28  C17 UNL     1      -4.199  43.484   6.503  1.00  0.00     0.077 A 
ATOM     29  H4  UNL     1      -4.487  42.045   4.981  1.00  0.00     0.167 HD
HETATM   30  C18 UNL     1      -3.286  42.765   7.430  1.00  0.00     0.089 C 
HETATM   31  N5  UNL     1      -4.703  44.729   6.620  1.00  0.00    -0.348 N 
HETATM   32  C19 UNL     1      -5.493  44.990   5.557  1.00  0.00     0.029 A 
ATOM     33  H5  UNL     1      -4.517  45.371   7.391  1.00  0.00     0.167 HD
HETATM   34  C20 UNL     1      -6.256  46.234   5.257  1.00  0.00     0.070 C 
ENDBRANCH  25  26
ENDBRANCH  24  25
ENDBRANCH  22  24
ENDBRANCH  12  22
ENDBRANCH   5   6
ENDBRANCH   1   5
TORSDOF 9
ENDMDL
MODEL 5
REMARK VINA RESULT: -6.785731035      2.282      5.047
REMARK  9 active torsions:
REMARK  status: ('A' for Active; 'I' for Inactive)
REMARK    1  A    between atoms: C2_2  and  C3_3 
REMARK    2  A    between atoms: C3_3  and  N1_4 
REMARK    3  A    between atoms: C4_5  and  C5_6 
REMARK    4  A    between atoms: C5_6  and  C6_7 
REMARK    5  A    between atoms: C9_11  and  C10_12 
REMARK    6  A    between atoms: C13_15  and  N3_16 
REMARK    7  A    between atoms: N3_16  and  C14_18 
REMARK    8  A    between atoms: C14_18  and  C15_19 
REMARK    9  A    between atoms: C15_19  and  C16_20 
ROOT
HETATM    1  C6  UNL     1      -6.932  47.460   2.989  1.00  0.00    -0.010 C 
HETATM    2  C7  UNL     1      -6.336  47.694   4.133  1.00  0.00     0.090 C 
HETATM    3  C8  UNL     1      -4.921  47.522   4.257  1.00  0.00     0.087 C 
HETATM    4  N2  UNL     1      -3.778  47.377   4.369  1.00  0.00    -0.192 NA
ENDROOT
BRANCH   1   5
HETATM    5  C5  UNL     1      -6.224  47.020   1.791  1.00  0.00     0.085 C 
BRANCH   5   6
HETATM    6  C4  UNL     1      -6.744  45.764   1.181  1.00  0.00     0.024 A 
HETATM    7  N1  UNL     1      -6.303  44.539   1.534  1.00  0.00    -0.335 N 
HETATM    8  C22 UNL     1      -6.986  43.673   0.762  1.00  0.00     0.123 A 
HETATM    9  C12 UNL     1      -7.847  44.315  -0.071  1.00  0.00     0.060 A 
HETATM   10  N7  UNL     1      -6.900  42.334   0.738  1.00  0.00    -0.338 N 
HETATM   11  C9  UNL     1      -7.705  45.687   0.187  1.00  0.00    -0.018 A 
HETATM   12  C13 UNL     1      -8.622  43.550  -0.930  1.00  0.00     0.116 A 
HETATM   13  N6  UNL     1      -8.508  42.218  -0.926  1.00  0.00    -0.338 N 
HETATM   14  C21 UNL     1      -7.637  41.585  -0.084  1.00  0.00     0.183 A 
ATOM     15  H6  UNL     1      -9.081  41.664  -1.562  1.00  0.00     0.168 HD
ATOM     16  H7  UNL     1      -6.248  41.873   1.372  1.00  0.00     0.168 HD
BRANCH   7  17
HETATM   17  C3  UNL     1      -5.317  44.176   2.526  1.00  0.00     0.130 C 
BRANCH  17  18
HETATM   18  C2  UNL     1      -5.948  43.805   3.866  1.00  0.00     0.016 C 
HETATM   19  C1  UNL     1      -4.856  43.888   4.912  1.00  0.00     0.006 C 
ENDBRANCH  17  18
ENDBRANCH   7  17
BRANCH  11  20
HETATM   20  C10 UNL     1      -8.461  46.732  -0.483  1.00  0.00     0.037 C 
HETATM   21  C11 UNL     1      -9.630  47.266   0.285  1.00  0.00     0.010 C 
ENDBRANCH  11  20
BRANCH  12  22
HETATM   22  N3  UNL     1      -9.463  44.103  -1.731  1.00  0.00    -0.375 N 
ATOM     23  H3  UNL     1      -9.102  44.874  -2.291  1.00  0.00     0.161 HD
BRANCH  22  24
HETATM   24  C14 UNL     1     -10.824  43.778  -1.934  1.00  0.00     0.127 C 
BRANCH  24  25
HETATM   25  C15 UNL     1     -11.709  44.628  -1.007  1.00  0.00     0.078 C 
BRANCH  25  26
HETATM   26  C16 UNL     1     -12.980  44.972  -1.745  1.00  0.00     0.034 A 
HETATM   27  N4  UNL     1     -13.695  44.126  -2.491  1.00  0.00    -0.348 N 
HETATM   28  C17 UNL     1     -14.765  44.773  -3.016  1.00  0.00     0.077 A 
ATOM     29  H4  UNL     1     -13.470  43.143  -2.643  1.00  0.00     0.167 HD
HETATM   30  C18 UNL     1     -15.783  44.151  -3.903  1.00  0.00     0.089 C 
HETATM   31  N5  UNL     1     -14.699  46.045  -2.577  1.00  0.00    -0.348 N 
HETATM   32  C19 UNL     1     -13.609  46.189  -1.793  1.00  0.00     0.029 A 
ATOM     33  H5  UNL     1     -15.368  46.783  -2.801  1.00  0.00     0.167 HD
HETATM   34  C20 UNL     1     -13.135  47.413  -1.088  1.00  0.00     0.070 C 
ENDBRANCH  25  26
ENDBRANCH  24  25
ENDBRANCH  22  24
ENDBRANCH  12  22
ENDBRANCH   5   6
ENDBRANCH   1   5
TORSDOF 9
ENDMDL
