MODEL 1
REMARK VINA RESULT: -6.815039981      0.000      0.000
REMARK  10 active torsions:
REMARK  status: ('A' for Active; 'I' for Inactive)
REMARK    1  A    between atoms: C2_2  and  C3_3 
REMARK    2  A    between atoms: C3_3  and  C5_5 
REMARK    3  A    between atoms: C3_3  and  N1_8 
REMARK    4  A    between atoms: C5_5  and  O1_6 
REMARK       I    between atoms: N1_8  and  C6_10 
REMARK    5  A    between atoms: C6_10  and  C7_12 
REMARK    6  A    between atoms: C7_12  and  C8_13 
REMARK    7  A    between atoms: C14_19  and  C15_20 
REMARK    8  A    between atoms: C15_20  and  C16_21 
REMARK    9  A    between atoms: C16_21  and  C17_22 
REMARK   10  A    between atoms: C20_26  and  C21_27 
ROOT
HETATM    1  C8  UNL     1      -8.948  44.225  -1.391  1.00  0.00    -0.000 C 
HETATM    2  C9  UNL     1      -8.392  45.578  -0.867  1.00  0.00     0.006 C 
HETATM    3  C10 UNL     1      -9.372  46.677  -0.915  1.00  0.00     0.014 C 
HETATM    4  C11 UNL     1      -9.954  46.863   0.444  1.00  0.00    -0.015 C 
HETATM    5  C12 UNL     1      -8.976  47.568   1.361  1.00  0.00     0.020 C 
HETATM    6  C13 UNL     1     -11.296  47.530   0.363  1.00  0.00    -0.061 C 
HETATM    7  C14 UNL     1     -11.778  48.738   0.190  1.00  0.00    -0.022 C 
HETATM    8  C19 UNL     1     -11.909  46.186   0.568  1.00  0.00     0.082 C 
HETATM    9  S1  UNL     1     -12.423  45.502  -0.993  1.00  0.00    -0.143 SA
HETATM   10  C20 UNL     1     -11.491  43.997  -1.359  1.00  0.00     0.153 C 
HETATM   11  C22 UNL     1     -10.187  43.854  -0.666  1.00  0.00     0.015 C 
HETATM   12  C23 UNL     1     -10.177  44.359   0.738  1.00  0.00     0.013 C 
HETATM   13  C24 UNL     1     -10.599  45.704   1.061  1.00  0.00     0.016 C 
ENDROOT
BRANCH   1  14
HETATM   14  C7  UNL     1      -7.783  43.311  -1.220  1.00  0.00     0.108 C 
BRANCH  14  15
HETATM   15  C6  UNL     1      -7.176  43.170   0.086  1.00  0.00     0.218 C 
HETATM   16  N1  UNL     1      -6.770  44.317   0.872  1.00  0.00    -0.347 N 
ATOM     17  H1  UNL     1      -6.921  45.247   0.482  1.00  0.00     0.163 HD
HETATM   18  O2  UNL     1      -6.950  42.068   0.649  1.00  0.00    -0.274 OA
BRANCH  16  19
HETATM   19  C3  UNL     1      -6.168  44.213   2.168  1.00  0.00     0.068 C 
HETATM   20  C4  UNL     1      -6.217  45.586   2.809  1.00  0.00     0.045 C 
BRANCH  19  21
HETATM   21  C2  UNL     1      -4.714  43.918   1.956  1.00  0.00    -0.004 C 
HETATM   22  C1  UNL     1      -3.774  44.841   1.955  1.00  0.00     0.009 C 
ENDBRANCH  19  21
BRANCH  19  23
HETATM   23  C5  UNL     1      -6.786  43.165   3.028  1.00  0.00     0.199 C 
BRANCH  23  24
HETATM   24  O1  UNL     1      -5.933  42.996   4.144  1.00  0.00    -0.398 OA
ATOM     25  H1  UNL     1      -6.063  42.109   4.459  1.00  0.00     0.209 HD
ENDBRANCH  23  24
ENDBRANCH  19  23
ENDBRANCH  16  19
ENDBRANCH  14  15
ENDBRANCH   1  14
BRANCH  10  26
HETATM   26  C21 UNL     1     -11.489  43.834  -2.823  1.00  0.00     0.187 C 
HETATM   27  O3  UNL     1     -11.399  42.683  -3.380  1.00  0.00    -0.647 OA
HETATM   28  O4  UNL     1     -11.585  44.901  -3.729  1.00  0.00    -0.647 OA
ENDBRANCH  10  26
BRANCH   7  29
HETATM   29  C15 UNL     1     -10.933  49.944  -0.001  1.00  0.00     0.027 C 
BRANCH  29  30
HETATM   30  C16 UNL     1     -10.910  50.242  -1.482  1.00  0.00     0.003 C 
BRANCH  30  31
HETATM   31  C17 UNL     1      -9.563  50.134  -2.113  1.00  0.00    -0.004 C 
HETATM   32  C18 UNL     1      -8.407  50.294  -1.158  1.00  0.00     0.005 C 
ENDBRANCH  30  31
ENDBRANCH  29  30
ENDBRANCH   7  29
TORSDOF 10
ENDMDL
MODEL 2
REMARK VINA RESULT: -6.788765941      2.749      6.101
REMARK  10 active torsions:
REMARK  status: ('A' for Active; 'I' for Inactive)
REMARK    1  A    between atoms: C2_2  and  C3_3 
REMARK    2  A    between atoms: C3_3  and  C5_5 
REMARK    3  A    between atoms: C3_3  and  N1_8 
REMARK    4  A    between atoms: C5_5  and  O1_6 
REMARK       I    between atoms: N1_8  and  C6_10 
REMARK    5  A    between atoms: C6_10  and  C7_12 
REMARK    6  A    between atoms: C7_12  and  C8_13 
REMARK    7  A    between atoms: C14_19  and  C15_20 
REMARK    8  A    between atoms: C15_20  and  C16_21 
REMARK    9  A    between atoms: C16_21  and  C17_22 
REMARK   10  A    between atoms: C20_26  and  C21_27 
ROOT
HETATM    1  C8  UNL     1     -12.047  45.563  -0.314  1.00  0.00    -0.000 C 
HETATM    2  C9  UNL     1     -11.008  45.403   0.832  1.00  0.00     0.006 C 
HETATM    3  C10 UNL     1     -10.089  44.268   0.640  1.00  0.00     0.014 C 
HETATM    4  C11 UNL     1      -8.798  44.778   0.100  1.00  0.00    -0.015 C 
HETATM    5  C12 UNL     1      -7.985  45.454   1.185  1.00  0.00     0.020 C 
HETATM    6  C13 UNL     1      -8.056  43.693  -0.624  1.00  0.00    -0.061 C 
HETATM    7  C14 UNL     1      -7.312  42.652  -0.329  1.00  0.00    -0.022 C 
HETATM    8  C19 UNL     1      -8.533  44.301  -1.900  1.00  0.00     0.082 C 
HETATM    9  S1  UNL     1      -9.947  43.412  -2.512  1.00  0.00    -0.143 SA
HETATM   10  C20 UNL     1     -11.404  44.483  -2.537  1.00  0.00     0.153 C 
HETATM   11  C22 UNL     1     -11.364  45.654  -1.627  1.00  0.00     0.015 C 
HETATM   12  C23 UNL     1     -10.024  46.298  -1.509  1.00  0.00     0.013 C 
HETATM   13  C24 UNL     1      -8.848  45.538  -1.150  1.00  0.00     0.016 C 
ENDROOT
BRANCH   1  14
HETATM   14  C7  UNL     1     -12.818  46.764   0.116  1.00  0.00     0.108 C 
BRANCH  14  15
HETATM   15  C6  UNL     1     -12.152  48.046   0.190  1.00  0.00     0.218 C 
HETATM   16  N1  UNL     1     -11.260  48.387   1.279  1.00  0.00    -0.347 N 
ATOM     17  H1  UNL     1     -11.104  47.694   2.010  1.00  0.00     0.163 HD
HETATM   18  O2  UNL     1     -12.281  48.964  -0.661  1.00  0.00    -0.274 OA
BRANCH  16  19
HETATM   19  C3  UNL     1     -10.585  49.646   1.381  1.00  0.00     0.068 C 
HETATM   20  C4  UNL     1      -9.920  49.923   0.046  1.00  0.00     0.045 C 
BRANCH  19  21
HETATM   21  C2  UNL     1      -9.464  49.467   2.360  1.00  0.00    -0.004 C 
HETATM   22  C1  UNL     1      -9.318  48.398   3.116  1.00  0.00     0.009 C 
ENDBRANCH  19  21
BRANCH  19  23
HETATM   23  C5  UNL     1     -11.471  50.763   1.814  1.00  0.00     0.199 C 
BRANCH  23  24
HETATM   24  O1  UNL     1     -11.773  51.518   0.656  1.00  0.00    -0.398 OA
ATOM     25  H1  UNL     1     -12.437  52.151   0.905  1.00  0.00     0.209 HD
ENDBRANCH  23  24
ENDBRANCH  19  23
ENDBRANCH  16  19
ENDBRANCH  14  15
ENDBRANCH   1  14
BRANCH  10  26
HETATM   26  C21 UNL     1     -12.586  43.609  -2.448  1.00  0.00     0.187 C 
HETATM   27  O3  UNL     1     -12.487  42.350  -2.229  1.00  0.00    -0.647 OA
HETATM   28  O4  UNL     1     -13.907  44.062  -2.589  1.00  0.00    -0.647 OA
ENDBRANCH  10  26
BRANCH   7  29
HETATM   29  C15 UNL     1      -6.978  42.245   1.059  1.00  0.00     0.027 C 
BRANCH  29  30
HETATM   30  C16 UNL     1      -5.573  42.724   1.338  1.00  0.00     0.003 C 
BRANCH  30  31
HETATM   31  C17 UNL     1      -5.405  43.419   2.648  1.00  0.00    -0.004 C 
HETATM   32  C18 UNL     1      -6.518  43.173   3.636  1.00  0.00     0.005 C 
ENDBRANCH  30  31
ENDBRANCH  29  30
ENDBRANCH   7  29
TORSDOF 10
ENDMDL
MODEL 3
REMARK VINA RESULT: -6.651660981      2.385      4.486
REMARK  10 active torsions:
REMARK  status: ('A' for Active; 'I' for Inactive)
REMARK    1  A    between atoms: C2_2  and  C3_3 
REMARK    2  A    between atoms: C3_3  and  C5_5 
REMARK    3  A    between atoms: C3_3  and  N1_8 
REMARK    4  A    between atoms: C5_5  and  O1_6 
REMARK       I    between atoms: N1_8  and  C6_10 
REMARK    5  A    between atoms: C6_10  and  C7_12 
REMARK    6  A    between atoms: C7_12  and  C8_13 
REMARK    7  A    between atoms: C14_19  and  C15_20 
REMARK    8  A    between atoms: C15_20  and  C16_21 
REMARK    9  A    between atoms: C16_21  and  C17_22 
REMARK   10  A    between atoms: C20_26  and  C21_27 
ROOT
HETATM    1  C8  UNL     1      -7.134  46.354  -0.001  1.00  0.00    -0.000 C 
HETATM    2  C9  UNL     1      -8.219  47.042  -0.876  1.00  0.00     0.006 C 
HETATM    3  C10 UNL     1      -9.336  46.152  -1.237  1.00  0.00     0.014 C 
HETATM    4  C11 UNL     1     -10.484  46.427  -0.329  1.00  0.00    -0.015 C 
HETATM    5  C12 UNL     1     -11.183  47.715  -0.712  1.00  0.00     0.020 C 
HETATM    6  C13 UNL     1     -11.401  45.241  -0.253  1.00  0.00    -0.061 C 
HETATM    7  C14 UNL     1     -12.344  44.686  -0.979  1.00  0.00    -0.022 C 
HETATM    8  C19 UNL     1     -10.774  44.916   1.061  1.00  0.00     0.082 C 
HETATM    9  S1  UNL     1      -9.543  43.648   0.855  1.00  0.00    -0.143 SA
HETATM   10  C20 UNL     1      -7.905  44.284   1.280  1.00  0.00     0.153 C 
HETATM   11  C22 UNL     1      -7.743  45.758   1.212  1.00  0.00     0.015 C 
HETATM   12  C23 UNL     1      -8.934  46.531   1.668  1.00  0.00     0.013 C 
HETATM   13  C24 UNL     1     -10.247  46.298   1.110  1.00  0.00     0.016 C 
ENDROOT
BRANCH   1  14
HETATM   14  C7  UNL     1      -6.156  47.457   0.223  1.00  0.00     0.108 C 
BRANCH  14  15
HETATM   15  C6  UNL     1      -4.902  47.171   0.886  1.00  0.00     0.218 C 
HETATM   16  N1  UNL     1      -4.799  46.189   1.944  1.00  0.00    -0.347 N 
ATOM     17  H1  UNL     1      -5.644  45.690   2.223  1.00  0.00     0.163 HD
HETATM   18  O2  UNL     1      -3.810  47.734   0.613  1.00  0.00    -0.274 OA
BRANCH  16  19
HETATM   19  C3  UNL     1      -3.574  45.881   2.620  1.00  0.00     0.068 C 
HETATM   20  C4  UNL     1      -2.711  45.079   1.666  1.00  0.00     0.045 C 
BRANCH  19  21
HETATM   21  C2  UNL     1      -3.912  44.945   3.741  1.00  0.00    -0.004 C 
HETATM   22  C1  UNL     1      -5.145  44.659   4.107  1.00  0.00     0.009 C 
ENDBRANCH  19  21
BRANCH  19  23
HETATM   23  C5  UNL     1      -2.868  47.082   3.148  1.00  0.00     0.199 C 
BRANCH  23  24
HETATM   24  O1  UNL     1      -1.629  47.160   2.469  1.00  0.00    -0.398 OA
ATOM     25  H1  UNL     1      -0.954  46.937   3.100  1.00  0.00     0.209 HD
ENDBRANCH  23  24
ENDBRANCH  19  23
ENDBRANCH  16  19
ENDBRANCH  14  15
ENDBRANCH   1  14
BRANCH  10  26
HETATM   26  C21 UNL     1      -6.921  43.471   0.546  1.00  0.00     0.187 C 
HETATM   27  O3  UNL     1      -5.756  43.220   1.020  1.00  0.00    -0.647 OA
HETATM   28  O4  UNL     1      -7.158  42.903  -0.715  1.00  0.00    -0.647 OA
ENDBRANCH  10  26
BRANCH   7  29
HETATM   29  C15 UNL     1     -12.795  45.218  -2.290  1.00  0.00     0.027 C 
BRANCH  29  30
HETATM   30  C16 UNL     1     -12.011  44.492  -3.358  1.00  0.00     0.003 C 
BRANCH  30  31
HETATM   31  C17 UNL     1     -11.584  43.113  -2.984  1.00  0.00    -0.004 C 
HETATM   32  C18 UNL     1     -10.090  42.918  -2.906  1.00  0.00     0.005 C 
ENDBRANCH  30  31
ENDBRANCH  29  30
ENDBRANCH   7  29
TORSDOF 10
ENDMDL
MODEL 4
REMARK VINA RESULT: -6.638920019      2.746      6.517
REMARK  10 active torsions:
REMARK  status: ('A' for Active; 'I' for Inactive)
REMARK    1  A    between atoms: C2_2  and  C3_3 
REMARK    2  A    between atoms: C3_3  and  C5_5 
REMARK    3  A    between atoms: C3_3  and  N1_8 
REMARK    4  A    between atoms: C5_5  and  O1_6 
REMARK       I    between atoms: N1_8  and  C6_10 
REMARK    5  A    between atoms: C6_10  and  C7_12 
REMARK    6  A    between atoms: C7_12  and  C8_13 
REMARK    7  A    between atoms: C14_19  and  C15_20 
REMARK    8  A    between atoms: C15_20  and  C16_21 
REMARK    9  A    between atoms: C16_21  and  C17_22 
REMARK   10  A    between atoms: C20_26  and  C21_27 
ROOT
HETATM    1  C8  UNL     1     -11.921  45.827  -0.222  1.00  0.00    -0.000 C 
HETATM    2  C9  UNL     1     -10.873  45.641   0.911  1.00  0.00     0.006 C 
HETATM    3  C10 UNL     1     -10.008  44.463   0.726  1.00  0.00     0.014 C 
HETATM    4  C11 UNL     1      -8.705  44.906   0.158  1.00  0.00    -0.015 C 
HETATM    5  C12 UNL     1      -7.846  45.563   1.219  1.00  0.00     0.020 C 
HETATM    6  C13 UNL     1      -8.023  43.777  -0.558  1.00  0.00    -0.061 C 
HETATM    7  C14 UNL     1      -7.321  42.709  -0.256  1.00  0.00    -0.022 C 
HETATM    8  C19 UNL     1      -8.492  44.384  -1.837  1.00  0.00     0.082 C 
HETATM    9  S1  UNL     1      -9.953  43.549  -2.413  1.00  0.00    -0.143 SA
HETATM   10  C20 UNL     1     -11.361  44.683  -2.435  1.00  0.00     0.153 C 
HETATM   11  C22 UNL     1     -11.256  45.867  -1.546  1.00  0.00     0.015 C 
HETATM   12  C23 UNL     1      -9.887  46.452  -1.459  1.00  0.00     0.013 C 
HETATM   13  C24 UNL     1      -8.740  45.646  -1.104  1.00  0.00     0.016 C 
ENDROOT
BRANCH   1  14
HETATM   14  C7  UNL     1     -12.632  47.068   0.199  1.00  0.00     0.108 C 
BRANCH  14  15
HETATM   15  C6  UNL     1     -11.956  48.344   0.094  1.00  0.00     0.218 C 
HETATM   16  N1  UNL     1     -12.163  49.232  -1.031  1.00  0.00    -0.347 N 
ATOM     17  H1  UNL     1     -12.805  48.938  -1.766  1.00  0.00     0.163 HD
HETATM   18  O2  UNL     1     -11.148  48.792   0.947  1.00  0.00    -0.274 OA
BRANCH  16  19
HETATM   19  C3  UNL     1     -11.511  50.501  -1.165  1.00  0.00     0.068 C 
HETATM   20  C4  UNL     1     -12.107  51.198  -2.373  1.00  0.00     0.045 C 
BRANCH  19  21
HETATM   21  C2  UNL     1     -10.082  50.227  -1.522  1.00  0.00    -0.004 C 
HETATM   22  C1  UNL     1      -9.594  50.360  -2.739  1.00  0.00     0.009 C 
ENDBRANCH  19  21
BRANCH  19  23
HETATM   23  C5  UNL     1     -11.584  51.340   0.064  1.00  0.00     0.199 C 
BRANCH  23  24
HETATM   24  O1  UNL     1     -10.257  51.500   0.529  1.00  0.00    -0.398 OA
ATOM     25  H1  UNL     1      -9.823  52.092  -0.074  1.00  0.00     0.209 HD
ENDBRANCH  23  24
ENDBRANCH  19  23
ENDBRANCH  16  19
ENDBRANCH  14  15
ENDBRANCH   1  14
BRANCH  10  26
HETATM   26  C21 UNL     1     -12.579  43.864  -2.313  1.00  0.00     0.187 C 
HETATM   27  O3  UNL     1     -12.535  42.586  -2.224  1.00  0.00    -0.647 OA
HETATM   28  O4  UNL     1     -13.879  44.394  -2.282  1.00  0.00    -0.647 OA
ENDBRANCH  10  26
BRANCH   7  29
HETATM   29  C15 UNL     1      -6.984  42.311   1.134  1.00  0.00     0.027 C 
BRANCH  29  30
HETATM   30  C16 UNL     1      -5.556  42.733   1.385  1.00  0.00     0.003 C 
BRANCH  30  31
HETATM   31  C17 UNL     1      -5.343  43.465   2.667  1.00  0.00    -0.004 C 
HETATM   32  C18 UNL     1      -6.421  43.248   3.700  1.00  0.00     0.005 C 
ENDBRANCH  30  31
ENDBRANCH  29  30
ENDBRANCH   7  29
TORSDOF 10
ENDMDL
MODEL 5
REMARK VINA RESULT: -6.631350999      0.828      1.355
REMARK  10 active torsions:
REMARK  status: ('A' for Active; 'I' for Inactive)
REMARK    1  A    between atoms: C2_2  and  C3_3 
REMARK    2  A    between atoms: C3_3  and  C5_5 
REMARK    3  A    between atoms: C3_3  and  N1_8 
REMARK    4  A    between atoms: C5_5  and  O1_6 
REMARK       I    between atoms: N1_8  and  C6_10 
REMARK    5  A    between atoms: C6_10  and  C7_12 
REMARK    6  A    between atoms: C7_12  and  C8_13 
REMARK    7  A    between atoms: C14_19  and  C15_20 
REMARK    8  A    between atoms: C15_20  and  C16_21 
REMARK    9  A    between atoms: C16_21  and  C17_22 
REMARK   10  A    between atoms: C20_26  and  C21_27 
ROOT
HETATM    1  C8  UNL     1      -8.941  44.245  -1.393  1.00  0.00    -0.000 C 
HETATM    2  C9  UNL     1      -8.361  45.593  -0.881  1.00  0.00     0.006 C 
HETATM    3  C10 UNL     1      -9.326  46.705  -0.927  1.00  0.00     0.014 C 
HETATM    4  C11 UNL     1      -9.894  46.907   0.435  1.00  0.00    -0.015 C 
HETATM    5  C12 UNL     1      -8.899  47.602   1.341  1.00  0.00     0.020 C 
HETATM    6  C13 UNL     1     -11.227  47.592   0.361  1.00  0.00    -0.061 C 
HETATM    7  C14 UNL     1     -11.693  48.807   0.185  1.00  0.00    -0.022 C 
HETATM    8  C19 UNL     1     -11.858  46.259   0.577  1.00  0.00     0.082 C 
HETATM    9  S1  UNL     1     -12.393  45.575  -0.975  1.00  0.00    -0.143 SA
HETATM   10  C20 UNL     1     -11.487  44.054  -1.341  1.00  0.00     0.153 C 
HETATM   11  C22 UNL     1     -10.179  43.896  -0.657  1.00  0.00     0.015 C 
HETATM   12  C23 UNL     1     -10.151  44.408   0.744  1.00  0.00     0.013 C 
HETATM   13  C24 UNL     1     -10.552  45.760   1.064  1.00  0.00     0.016 C 
ENDROOT
BRANCH   1  14
HETATM   14  C7  UNL     1      -7.787  43.315  -1.226  1.00  0.00     0.108 C 
BRANCH  14  15
HETATM   15  C6  UNL     1      -7.176  43.168   0.077  1.00  0.00     0.218 C 
HETATM   16  N1  UNL     1      -6.766  44.311   0.866  1.00  0.00    -0.347 N 
ATOM     17  H1  UNL     1      -6.917  45.243   0.480  1.00  0.00     0.163 HD
HETATM   18  O2  UNL     1      -6.949  42.064   0.635  1.00  0.00    -0.274 OA
BRANCH  16  19
HETATM   19  C3  UNL     1      -6.159  44.202   2.159  1.00  0.00     0.068 C 
HETATM   20  C4  UNL     1      -6.196  45.575   2.803  1.00  0.00     0.045 C 
BRANCH  19  21
HETATM   21  C2  UNL     1      -4.708  43.899   1.941  1.00  0.00    -0.004 C 
HETATM   22  C1  UNL     1      -3.759  44.813   1.960  1.00  0.00     0.009 C 
ENDBRANCH  19  21
BRANCH  19  23
HETATM   23  C5  UNL     1      -6.780  43.157   3.021  1.00  0.00     0.199 C 
BRANCH  23  24
HETATM   24  O1  UNL     1      -5.938  43.001   4.147  1.00  0.00    -0.398 OA
ATOM     25  H1  UNL     1      -5.806  42.068   4.265  1.00  0.00     0.209 HD
ENDBRANCH  23  24
ENDBRANCH  19  23
ENDBRANCH  16  19
ENDBRANCH  14  15
ENDBRANCH   1  14
BRANCH  10  26
HETATM   26  C21 UNL     1     -11.498  43.883  -2.804  1.00  0.00     0.187 C 
HETATM   27  O3  UNL     1     -11.414  42.729  -3.356  1.00  0.00    -0.647 OA
HETATM   28  O4  UNL     1     -11.601  44.946  -3.715  1.00  0.00    -0.647 OA
ENDBRANCH  10  26
BRANCH   7  29
HETATM   29  C15 UNL     1     -10.831  49.999  -0.019  1.00  0.00     0.027 C 
BRANCH  29  30
HETATM   30  C16 UNL     1     -11.171  50.986   1.073  1.00  0.00     0.003 C 
BRANCH  30  31
HETATM   31  C17 UNL     1     -11.428  50.369   2.406  1.00  0.00    -0.004 C 
HETATM   32  C18 UNL     1     -10.259  50.419   3.358  1.00  0.00     0.005 C 
ENDBRANCH  30  31
ENDBRANCH  29  30
ENDBRANCH   7  29
TORSDOF 10
ENDMDL
