MODEL 1
REMARK VINA RESULT: -7.075247751      0.000      0.000
REMARK  13 active torsions:
REMARK  status: ('A' for Active; 'I' for Inactive)
REMARK    1  A    between atoms: C2_2  and  O1_3 
REMARK    2  A    between atoms: O1_3  and  C3_4 
REMARK    3  A    between atoms: C3_4  and  C4_6 
REMARK    4  A    between atoms: C4_6  and  N1_7 
REMARK    5  A    between atoms: C4_6  and  C24_38 
REMARK       I    between atoms: N1_7  and  C5_9 
REMARK    6  A    between atoms: C5_9  and  C6_11 
REMARK    7  A    between atoms: C6_11  and  C7_12 
REMARK    8  A    between atoms: C6_11  and  N2_16 
REMARK    9  A    between atoms: C7_12  and  C8_13 
REMARK       I    between atoms: N2_16  and  C11_18 
REMARK   10  A    between atoms: C11_18  and  C12_20 
REMARK       I    between atoms: N3_26  and  C18_27 
REMARK   11  A    between atoms: C18_27  and  C19_29 
REMARK   12  A    between atoms: C19_29  and  N4_30 
REMARK   13  A    between atoms: C19_29  and  C20_34 
ROOT
HETATM    1  N2  UNL     1       7.321  35.353   1.170  1.00  0.00    -0.346 N 
ATOM      2  H2  UNL     1       7.661  36.123   1.745  1.00  0.00     0.163 HD
HETATM    3  C11 UNL     1       6.717  35.696  -0.046  1.00  0.00     0.241 C 
HETATM    4  O4  UNL     1       6.293  34.789  -0.806  1.00  0.00    -0.271 OA
ENDROOT
BRANCH   1   5
HETATM    5  C6  UNL     1       7.512  34.033   1.689  1.00  0.00     0.177 C 
BRANCH   5   6
HETATM    6  C5  UNL     1       8.979  33.715   1.802  1.00  0.00     0.241 C 
HETATM    7  N1  UNL     1       9.631  33.110   0.724  1.00  0.00    -0.345 N 
ATOM      8  H1  UNL     1       9.083  32.905  -0.112  1.00  0.00     0.163 HD
HETATM    9  O3  UNL     1       9.588  33.992   2.843  1.00  0.00    -0.271 OA
BRANCH   7  10
HETATM   10  C4  UNL     1      11.046  32.753   0.720  1.00  0.00     0.187 C 
BRANCH  10  11
HETATM   11  C3  UNL     1      11.224  31.290   0.542  1.00  0.00     0.282 C 
HETATM   12  O2  UNL     1      11.464  30.823  -0.597  1.00  0.00    -0.263 OA
BRANCH  11  13
HETATM   13  O1  UNL     1      11.131  30.422   1.608  1.00  0.00    -0.320 OA
BRANCH  13  14
HETATM   14  C2  UNL     1      11.304  30.869   2.939  1.00  0.00     0.174 C 
HETATM   15  C1  UNL     1      10.038  30.569   3.705  1.00  0.00     0.034 C 
ENDBRANCH  13  14
ENDBRANCH  11  13
ENDBRANCH  10  11
BRANCH  10  16
HETATM   16  C24 UNL     1      11.684  33.454  -0.439  1.00  0.00     0.010 C 
HETATM   17  C25 UNL     1      13.009  34.059  -0.054  1.00  0.00     0.012 C 
HETATM   18  C26 UNL     1      10.799  34.433  -1.144  1.00  0.00     0.012 C 
ENDBRANCH  10  16
ENDBRANCH   7  10
ENDBRANCH   5   6
BRANCH   5  19
HETATM   19  C7  UNL     1       6.792  33.712   2.960  1.00  0.00     0.038 C 
BRANCH  19  20
HETATM   20  C8  UNL     1       5.794  32.601   2.887  1.00  0.00    -0.020 C 
HETATM   21  C9  UNL     1       6.325  31.228   2.664  1.00  0.00     0.009 C 
HETATM   22  C10 UNL     1       4.771  32.854   1.781  1.00  0.00     0.009 C 
ENDBRANCH  19  20
ENDBRANCH   5  19
ENDBRANCH   1   5
BRANCH   3  23
HETATM   23  C12 UNL     1       6.520  37.083  -0.542  1.00  0.00     0.179 C 
HETATM   24  C13 UNL     1       5.084  37.184  -1.067  1.00  0.00     0.035 C 
HETATM   25  C14 UNL     1       4.850  38.542  -1.697  1.00  0.00     0.008 C 
HETATM   26  C15 UNL     1       5.716  38.626  -2.915  1.00  0.00    -0.000 C 
HETATM   27  C16 UNL     1       4.866  38.430  -4.153  1.00  0.00     0.011 C 
HETATM   28  C17 UNL     1       6.801  37.552  -2.925  1.00  0.00     0.131 C 
HETATM   29  N3  UNL     1       7.408  37.484  -1.579  1.00  0.00    -0.337 N 
HETATM   30  C18 UNL     1       8.769  37.829  -1.478  1.00  0.00     0.252 C 
HETATM   31  O5  UNL     1       9.382  38.102  -2.571  1.00  0.00    -0.271 OA
BRANCH  30  32
HETATM   32  C19 UNL     1       9.572  37.909  -0.246  1.00  0.00     0.282 C 
BRANCH  32  33
HETATM   33  N4  UNL     1      10.987  38.000  -0.706  1.00  0.00    -0.066 N 
ATOM     34  H43 UNL     1      11.386  37.105  -0.988  1.00  0.00     0.275 HD
ATOM     35  H42 UNL     1      11.098  38.468  -1.606  1.00  0.00     0.275 HD
ATOM     36  H41 UNL     1      11.489  38.453   0.057  1.00  0.00     0.275 HD
ENDBRANCH  32  33
BRANCH  32  37
HETATM   37  C20 UNL     1       9.389  39.214   0.504  1.00  0.00    -0.014 C 
HETATM   38  C21 UNL     1       8.472  40.194  -0.110  1.00  0.00     0.017 C 
HETATM   39  C22 UNL     1      10.738  39.896   0.726  1.00  0.00     0.017 C 
HETATM   40  C23 UNL     1       8.843  38.855   1.885  1.00  0.00     0.017 C 
ENDBRANCH  32  37
ENDBRANCH  30  32
ENDBRANCH   3  23
TORSDOF 13
ENDMDL
MODEL 2
REMARK VINA RESULT: -6.786923791      1.923      7.511
REMARK  13 active torsions:
REMARK  status: ('A' for Active; 'I' for Inactive)
REMARK    1  A    between atoms: C2_2  and  O1_3 
REMARK    2  A    between atoms: O1_3  and  C3_4 
REMARK    3  A    between atoms: C3_4  and  C4_6 
REMARK    4  A    between atoms: C4_6  and  N1_7 
REMARK    5  A    between atoms: C4_6  and  C24_38 
REMARK       I    between atoms: N1_7  and  C5_9 
REMARK    6  A    between atoms: C5_9  and  C6_11 
REMARK    7  A    between atoms: C6_11  and  C7_12 
REMARK    8  A    between atoms: C6_11  and  N2_16 
REMARK    9  A    between atoms: C7_12  and  C8_13 
REMARK       I    between atoms: N2_16  and  C11_18 
REMARK   10  A    between atoms: C11_18  and  C12_20 
REMARK       I    between atoms: N3_26  and  C18_27 
REMARK   11  A    between atoms: C18_27  and  C19_29 
REMARK   12  A    between atoms: C19_29  and  N4_30 
REMARK   13  A    between atoms: C19_29  and  C20_34 
ROOT
HETATM    1  N2  UNL     1       8.303  34.336   1.439  1.00  0.00    -0.346 N 
ATOM      2  H2  UNL     1       8.825  34.602   0.604  1.00  0.00     0.163 HD
HETATM    3  C11 UNL     1       9.054  33.902   2.537  1.00  0.00     0.241 C 
HETATM    4  O4  UNL     1       8.468  33.575   3.601  1.00  0.00    -0.271 OA
ENDROOT
BRANCH   1   5
HETATM    5  C6  UNL     1       6.878  34.445   1.365  1.00  0.00     0.177 C 
BRANCH   5   6
HETATM    6  C5  UNL     1       6.473  35.842   0.979  1.00  0.00     0.241 C 
HETATM    7  N1  UNL     1       6.860  36.345  -0.267  1.00  0.00    -0.345 N 
ATOM      8  H1  UNL     1       7.407  35.739  -0.878  1.00  0.00     0.163 HD
HETATM    9  O3  UNL     1       5.806  36.527   1.764  1.00  0.00    -0.271 OA
BRANCH   7  10
HETATM   10  C4  UNL     1       6.528  37.683  -0.748  1.00  0.00     0.187 C 
BRANCH  10  11
HETATM   11  C3  UNL     1       7.699  38.313  -1.409  1.00  0.00     0.282 C 
HETATM   12  O2  UNL     1       7.532  39.291  -2.177  1.00  0.00    -0.263 OA
BRANCH  11  13
HETATM   13  O1  UNL     1       8.978  37.847  -1.200  1.00  0.00    -0.320 OA
BRANCH  13  14
HETATM   14  C2  UNL     1       9.697  37.184  -2.221  1.00  0.00     0.174 C 
HETATM   15  C1  UNL     1      10.185  35.863  -1.673  1.00  0.00     0.034 C 
ENDBRANCH  13  14
ENDBRANCH  11  13
ENDBRANCH  10  11
BRANCH  10  16
HETATM   16  C24 UNL     1       5.432  37.541  -1.756  1.00  0.00     0.010 C 
HETATM   17  C25 UNL     1       4.074  37.618  -1.107  1.00  0.00     0.012 C 
HETATM   18  C26 UNL     1       5.559  36.354  -2.658  1.00  0.00     0.012 C 
ENDBRANCH  10  16
ENDBRANCH   7  10
ENDBRANCH   5   6
BRANCH   5  19
HETATM   19  C7  UNL     1       6.180  33.429   0.517  1.00  0.00     0.038 C 
BRANCH  19  20
HETATM   20  C8  UNL     1       4.996  32.758   1.137  1.00  0.00    -0.020 C 
HETATM   21  C9  UNL     1       3.671  33.410   0.945  1.00  0.00     0.009 C 
HETATM   22  C10 UNL     1       5.184  32.596   2.645  1.00  0.00     0.009 C 
ENDBRANCH  19  20
ENDBRANCH   5  19
ENDBRANCH   1   5
BRANCH   3  23
HETATM   23  C12 UNL     1      10.535  33.784   2.568  1.00  0.00     0.179 C 
HETATM   24  C13 UNL     1      11.109  35.009   1.846  1.00  0.00     0.035 C 
HETATM   25  C14 UNL     1      12.616  34.895   1.737  1.00  0.00     0.008 C 
HETATM   26  C15 UNL     1      12.914  33.738   0.836  1.00  0.00    -0.000 C 
HETATM   27  C16 UNL     1      13.328  34.252  -0.527  1.00  0.00     0.011 C 
HETATM   28  C17 UNL     1      11.699  32.834   0.640  1.00  0.00     0.131 C 
HETATM   29  N3  UNL     1      11.059  32.613   1.953  1.00  0.00    -0.337 N 
HETATM   30  C18 UNL     1      11.053  31.293   2.443  1.00  0.00     0.252 C 
HETATM   31  O5  UNL     1      11.537  30.387   1.676  1.00  0.00    -0.271 OA
BRANCH  30  32
HETATM   32  C19 UNL     1      10.545  30.836   3.748  1.00  0.00     0.282 C 
BRANCH  32  33
HETATM   33  N4  UNL     1       9.160  30.354   3.482  1.00  0.00    -0.066 N 
ATOM     34  H43 UNL     1       8.750  30.733   2.629  1.00  0.00     0.275 HD
ATOM     35  H42 UNL     1       9.110  29.372   3.212  1.00  0.00     0.275 HD
ATOM     36  H41 UNL     1       8.632  30.577   4.326  1.00  0.00     0.275 HD
ENDBRANCH  32  33
BRANCH  32  37
HETATM   37  C20 UNL     1      11.235  29.583   4.253  1.00  0.00    -0.014 C 
HETATM   38  C21 UNL     1      12.708  29.574   4.170  1.00  0.00     0.017 C 
HETATM   39  C22 UNL     1      10.706  28.351   3.519  1.00  0.00     0.017 C 
HETATM   40  C23 UNL     1      10.843  29.425   5.721  1.00  0.00     0.017 C 
ENDBRANCH  32  37
ENDBRANCH  30  32
ENDBRANCH   3  23
TORSDOF 13
ENDMDL
MODEL 3
REMARK VINA RESULT: -6.680966748      1.394      2.333
REMARK  13 active torsions:
REMARK  status: ('A' for Active; 'I' for Inactive)
REMARK    1  A    between atoms: C2_2  and  O1_3 
REMARK    2  A    between atoms: O1_3  and  C3_4 
REMARK    3  A    between atoms: C3_4  and  C4_6 
REMARK    4  A    between atoms: C4_6  and  N1_7 
REMARK    5  A    between atoms: C4_6  and  C24_38 
REMARK       I    between atoms: N1_7  and  C5_9 
REMARK    6  A    between atoms: C5_9  and  C6_11 
REMARK    7  A    between atoms: C6_11  and  C7_12 
REMARK    8  A    between atoms: C6_11  and  N2_16 
REMARK    9  A    between atoms: C7_12  and  C8_13 
REMARK       I    between atoms: N2_16  and  C11_18 
REMARK   10  A    between atoms: C11_18  and  C12_20 
REMARK       I    between atoms: N3_26  and  C18_27 
REMARK   11  A    between atoms: C18_27  and  C19_29 
REMARK   12  A    between atoms: C19_29  and  N4_30 
REMARK   13  A    between atoms: C19_29  and  C20_34 
ROOT
HETATM    1  N2  UNL     1       6.646  35.898   0.602  1.00  0.00    -0.346 N 
ATOM      2  H2  UNL     1       7.174  36.499   1.235  1.00  0.00     0.163 HD
HETATM    3  C11 UNL     1       6.071  36.515  -0.515  1.00  0.00     0.241 C 
HETATM    4  O4  UNL     1       5.422  35.824  -1.341  1.00  0.00    -0.271 OA
ENDROOT
BRANCH   1   5
HETATM    5  C6  UNL     1       6.572  34.511   0.947  1.00  0.00     0.177 C 
BRANCH   5   6
HETATM    6  C5  UNL     1       7.798  33.780   0.470  1.00  0.00     0.241 C 
HETATM    7  N1  UNL     1       8.841  33.538   1.369  1.00  0.00    -0.345 N 
ATOM      8  H1  UNL     1       8.732  33.868   2.328  1.00  0.00     0.163 HD
HETATM    9  O3  UNL     1       7.868  33.402  -0.706  1.00  0.00    -0.271 OA
BRANCH   7  10
HETATM   10  C4  UNL     1      10.076  32.843   1.020  1.00  0.00     0.187 C 
BRANCH  10  11
HETATM   11  C3  UNL     1      10.980  33.726   0.240  1.00  0.00     0.282 C 
HETATM   12  O2  UNL     1      11.666  33.249  -0.695  1.00  0.00    -0.263 OA
BRANCH  11  13
HETATM   13  O1  UNL     1      11.084  35.071   0.520  1.00  0.00    -0.320 OA
BRANCH  13  14
HETATM   14  C2  UNL     1      12.144  35.579   1.308  1.00  0.00     0.174 C 
HETATM   15  C1  UNL     1      11.548  36.246   2.525  1.00  0.00     0.034 C 
ENDBRANCH  13  14
ENDBRANCH  11  13
ENDBRANCH  10  11
BRANCH  10  16
HETATM   16  C24 UNL     1      10.760  32.471   2.298  1.00  0.00     0.010 C 
HETATM   17  C25 UNL     1      11.191  31.027   2.292  1.00  0.00     0.012 C 
HETATM   18  C26 UNL     1      10.007  32.831   3.540  1.00  0.00     0.012 C 
ENDBRANCH  10  16
ENDBRANCH   7  10
ENDBRANCH   5   6
BRANCH   5  19
HETATM   19  C7  UNL     1       6.285  34.202   2.382  1.00  0.00     0.038 C 
BRANCH  19  20
HETATM   20  C8  UNL     1       5.345  33.066   2.634  1.00  0.00    -0.020 C 
HETATM   21  C9  UNL     1       5.938  31.704   2.725  1.00  0.00     0.009 C 
HETATM   22  C10 UNL     1       4.266  32.997   1.555  1.00  0.00     0.009 C 
ENDBRANCH  19  20
ENDBRANCH   5  19
ENDBRANCH   1   5
BRANCH   3  23
HETATM   23  C12 UNL     1       6.155  37.965  -0.830  1.00  0.00     0.179 C 
HETATM   24  C13 UNL     1       4.773  38.410  -1.322  1.00  0.00     0.035 C 
HETATM   25  C14 UNL     1       4.817  39.856  -1.773  1.00  0.00     0.008 C 
HETATM   26  C15 UNL     1       5.699  39.922  -2.980  1.00  0.00    -0.000 C 
HETATM   27  C16 UNL     1       4.845  40.054  -4.223  1.00  0.00     0.011 C 
HETATM   28  C17 UNL     1       6.554  38.667  -3.138  1.00  0.00     0.131 C 
HETATM   29  N3  UNL     1       7.118  38.312  -1.818  1.00  0.00    -0.337 N 
HETATM   30  C18 UNL     1       8.519  38.370  -1.690  1.00  0.00     0.252 C 
HETATM   31  O5  UNL     1       9.188  38.653  -2.746  1.00  0.00    -0.271 OA
BRANCH  30  32
HETATM   32  C19 UNL     1       9.305  38.135  -0.467  1.00  0.00     0.282 C 
BRANCH  32  33
HETATM   33  N4  UNL     1      10.709  37.954  -0.933  1.00  0.00    -0.066 N 
ATOM     34  H43 UNL     1      10.783  37.556  -1.869  1.00  0.00     0.275 HD
ATOM     35  H42 UNL     1      11.192  38.829  -1.137  1.00  0.00     0.275 HD
ATOM     36  H41 UNL     1      11.161  37.394  -0.211  1.00  0.00     0.275 HD
ENDBRANCH  32  33
BRANCH  32  37
HETATM   37  C20 UNL     1       9.412  39.360   0.420  1.00  0.00    -0.014 C 
HETATM   38  C21 UNL     1       8.688  40.561  -0.040  1.00  0.00     0.017 C 
HETATM   39  C22 UNL     1      10.877  39.738   0.634  1.00  0.00     0.017 C 
HETATM   40  C23 UNL     1       8.853  38.966   1.786  1.00  0.00     0.017 C 
ENDBRANCH  32  37
ENDBRANCH  30  32
ENDBRANCH   3  23
TORSDOF 13
ENDMDL
MODEL 4
REMARK VINA RESULT: -6.518731433      2.026      7.953
REMARK  13 active torsions:
REMARK  status: ('A' for Active; 'I' for Inactive)
REMARK    1  A    between atoms: C2_2  and  O1_3 
REMARK    2  A    between atoms: O1_3  and  C3_4 
REMARK    3  A    between atoms: C3_4  and  C4_6 
REMARK    4  A    between atoms: C4_6  and  N1_7 
REMARK    5  A    between atoms: C4_6  and  C24_38 
REMARK       I    between atoms: N1_7  and  C5_9 
REMARK    6  A    between atoms: C5_9  and  C6_11 
REMARK    7  A    between atoms: C6_11  and  C7_12 
REMARK    8  A    between atoms: C6_11  and  N2_16 
REMARK    9  A    between atoms: C7_12  and  C8_13 
REMARK       I    between atoms: N2_16  and  C11_18 
REMARK   10  A    between atoms: C11_18  and  C12_20 
REMARK       I    between atoms: N3_26  and  C18_27 
REMARK   11  A    between atoms: C18_27  and  C19_29 
REMARK   12  A    between atoms: C19_29  and  N4_30 
REMARK   13  A    between atoms: C19_29  and  C20_34 
ROOT
HETATM    1  N2  UNL     1       8.917  35.051   1.304  1.00  0.00    -0.346 N 
ATOM      2  H2  UNL     1       9.533  35.411   0.575  1.00  0.00     0.163 HD
HETATM    3  C11 UNL     1       9.514  34.274   2.304  1.00  0.00     0.241 C 
HETATM    4  O4  UNL     1       8.808  33.815   3.238  1.00  0.00    -0.271 OA
ENDROOT
BRANCH   1   5
HETATM    5  C6  UNL     1       7.532  35.393   1.197  1.00  0.00     0.177 C 
BRANCH   5   6
HETATM    6  C5  UNL     1       7.358  36.664   0.410  1.00  0.00     0.241 C 
HETATM    7  N1  UNL     1       6.742  36.611  -0.844  1.00  0.00    -0.345 N 
ATOM      8  H1  UNL     1       6.426  35.702  -1.183  1.00  0.00     0.163 HD
HETATM    9  O3  UNL     1       7.761  37.735   0.878  1.00  0.00    -0.271 OA
BRANCH   7  10
HETATM   10  C4  UNL     1       6.523  37.775  -1.697  1.00  0.00     0.187 C 
BRANCH  10  11
HETATM   11  C3  UNL     1       6.982  37.509  -3.084  1.00  0.00     0.282 C 
HETATM   12  O2  UNL     1       8.204  37.558  -3.359  1.00  0.00    -0.263 OA
BRANCH  11  13
HETATM   13  O1  UNL     1       6.089  37.207  -4.089  1.00  0.00    -0.320 OA
BRANCH  13  14
HETATM   14  C2  UNL     1       5.982  38.013  -5.246  1.00  0.00     0.174 C 
HETATM   15  C1  UNL     1       4.544  38.456  -5.380  1.00  0.00     0.034 C 
ENDBRANCH  13  14
ENDBRANCH  11  13
ENDBRANCH  10  11
BRANCH  10  16
HETATM   16  C24 UNL     1       5.051  38.042  -1.726  1.00  0.00     0.010 C 
HETATM   17  C25 UNL     1       4.748  39.492  -1.449  1.00  0.00     0.012 C 
HETATM   18  C26 UNL     1       4.230  37.122  -0.877  1.00  0.00     0.012 C 
ENDBRANCH  10  16
ENDBRANCH   7  10
ENDBRANCH   5   6
BRANCH   5  19
HETATM   19  C7  UNL     1       6.622  34.319   0.691  1.00  0.00     0.038 C 
BRANCH  19  20
HETATM   20  C8  UNL     1       5.504  33.922   1.601  1.00  0.00    -0.020 C 
HETATM   21  C9  UNL     1       5.664  32.647   2.354  1.00  0.00     0.009 C 
HETATM   22  C10 UNL     1       4.186  33.808   0.835  1.00  0.00     0.009 C 
ENDBRANCH  19  20
ENDBRANCH   5  19
ENDBRANCH   1   5
BRANCH   3  23
HETATM   23  C12 UNL     1      10.957  33.925   2.369  1.00  0.00     0.179 C 
HETATM   24  C13 UNL     1      11.736  35.068   1.708  1.00  0.00     0.035 C 
HETATM   25  C14 UNL     1      13.210  34.723   1.634  1.00  0.00     0.008 C 
HETATM   26  C15 UNL     1      13.353  33.563   0.698  1.00  0.00    -0.000 C 
HETATM   27  C16 UNL     1      13.884  34.052  -0.633  1.00  0.00     0.011 C 
HETATM   28  C17 UNL     1      12.019  32.868   0.436  1.00  0.00     0.131 C 
HETATM   29  N3  UNL     1      11.311  32.707   1.724  1.00  0.00    -0.337 N 
HETATM   30  C18 UNL     1      11.084  31.389   2.163  1.00  0.00     0.252 C 
HETATM   31  O5  UNL     1      11.445  30.444   1.375  1.00  0.00    -0.271 OA
BRANCH  30  32
HETATM   32  C19 UNL     1      10.470  30.974   3.437  1.00  0.00     0.282 C 
BRANCH  32  33
HETATM   33  N4  UNL     1       9.121  30.457   3.071  1.00  0.00    -0.066 N 
ATOM     34  H43 UNL     1       8.770  30.816   2.184  1.00  0.00     0.275 HD
ATOM     35  H42 UNL     1       9.115  29.471   2.810  1.00  0.00     0.275 HD
ATOM     36  H41 UNL     1       8.525  30.676   3.869  1.00  0.00     0.275 HD
ENDBRANCH  32  33
BRANCH  32  37
HETATM   37  C20 UNL     1      11.131  29.755   4.051  1.00  0.00    -0.014 C 
HETATM   38  C21 UNL     1      12.605  29.708   3.976  1.00  0.00     0.017 C 
HETATM   39  C22 UNL     1      10.579  28.476   3.423  1.00  0.00     0.017 C 
HETATM   40  C23 UNL     1      10.731  29.732   5.524  1.00  0.00     0.017 C 
ENDBRANCH  32  37
ENDBRANCH  30  32
ENDBRANCH   3  23
TORSDOF 13
ENDMDL
MODEL 5
REMARK VINA RESULT: -6.514719541      0.985      1.350
REMARK  13 active torsions:
REMARK  status: ('A' for Active; 'I' for Inactive)
REMARK    1  A    between atoms: C2_2  and  O1_3 
REMARK    2  A    between atoms: O1_3  and  C3_4 
REMARK    3  A    between atoms: C3_4  and  C4_6 
REMARK    4  A    between atoms: C4_6  and  N1_7 
REMARK    5  A    between atoms: C4_6  and  C24_38 
REMARK       I    between atoms: N1_7  and  C5_9 
REMARK    6  A    between atoms: C5_9  and  C6_11 
REMARK    7  A    between atoms: C6_11  and  C7_12 
REMARK    8  A    between atoms: C6_11  and  N2_16 
REMARK    9  A    between atoms: C7_12  and  C8_13 
REMARK       I    between atoms: N2_16  and  C11_18 
REMARK   10  A    between atoms: C11_18  and  C12_20 
REMARK       I    between atoms: N3_26  and  C18_27 
REMARK   11  A    between atoms: C18_27  and  C19_29 
REMARK   12  A    between atoms: C19_29  and  N4_30 
REMARK   13  A    between atoms: C19_29  and  C20_34 
ROOT
HETATM    1  N2  UNL     1       7.363  35.278   1.329  1.00  0.00    -0.346 N 
ATOM      2  H2  UNL     1       7.685  36.073   1.881  1.00  0.00     0.163 HD
HETATM    3  C11 UNL     1       6.747  35.571   0.106  1.00  0.00     0.241 C 
HETATM    4  O4  UNL     1       6.344  34.632  -0.627  1.00  0.00    -0.271 OA
ENDROOT
BRANCH   1   5
HETATM    5  C6  UNL     1       7.590  33.979   1.884  1.00  0.00     0.177 C 
BRANCH   5   6
HETATM    6  C5  UNL     1       9.057  33.758   2.136  1.00  0.00     0.241 C 
HETATM    7  N1  UNL     1       9.561  32.455   2.132  1.00  0.00    -0.345 N 
ATOM      8  H1  UNL     1       8.910  31.690   1.954  1.00  0.00     0.163 HD
HETATM    9  O3  UNL     1       9.796  34.728   2.343  1.00  0.00    -0.271 OA
BRANCH   7  10
HETATM   10  C4  UNL     1      10.963  32.120   2.367  1.00  0.00     0.187 C 
BRANCH  10  11
HETATM   11  C3  UNL     1      11.085  30.824   3.082  1.00  0.00     0.282 C 
HETATM   12  O2  UNL     1      11.401  29.788   2.450  1.00  0.00    -0.263 OA
BRANCH  11  13
HETATM   13  O1  UNL     1      10.859  30.730   4.438  1.00  0.00    -0.320 OA
BRANCH  13  14
HETATM   14  C2  UNL     1      10.885  29.483   5.105  1.00  0.00     0.174 C 
HETATM   15  C1  UNL     1      11.744  29.627   6.339  1.00  0.00     0.034 C 
ENDBRANCH  13  14
ENDBRANCH  11  13
ENDBRANCH  10  11
BRANCH  10  16
HETATM   16  C24 UNL     1      11.625  31.989   1.031  1.00  0.00     0.010 C 
HETATM   17  C25 UNL     1      12.655  33.068   0.819  1.00  0.00     0.012 C 
HETATM   18  C26 UNL     1      10.683  31.873  -0.126  1.00  0.00     0.012 C 
ENDBRANCH  10  16
ENDBRANCH   7  10
ENDBRANCH   5   6
BRANCH   5  19
HETATM   19  C7  UNL     1       6.778  33.624   3.089  1.00  0.00     0.038 C 
BRANCH  19  20
HETATM   20  C8  UNL     1       5.773  32.532   2.906  1.00  0.00    -0.020 C 
HETATM   21  C9  UNL     1       6.294  31.189   2.530  1.00  0.00     0.009 C 
HETATM   22  C10 UNL     1       4.740  32.908   1.845  1.00  0.00     0.009 C 
ENDBRANCH  19  20
ENDBRANCH   5  19
ENDBRANCH   1   5
BRANCH   3  23
HETATM   23  C12 UNL     1       6.513  36.937  -0.428  1.00  0.00     0.179 C 
HETATM   24  C13 UNL     1       5.068  36.990  -0.939  1.00  0.00     0.035 C 
HETATM   25  C14 UNL     1       4.796  38.323  -1.606  1.00  0.00     0.008 C 
HETATM   26  C15 UNL     1       5.646  38.390  -2.836  1.00  0.00    -0.000 C 
HETATM   27  C16 UNL     1       4.787  38.139  -4.058  1.00  0.00     0.011 C 
HETATM   28  C17 UNL     1       6.755  37.341  -2.827  1.00  0.00     0.131 C 
HETATM   29  N3  UNL     1       7.379  37.327  -1.487  1.00  0.00    -0.337 N 
HETATM   30  C18 UNL     1       8.733  37.706  -1.413  1.00  0.00     0.252 C 
HETATM   31  O5  UNL     1       9.327  37.959  -2.521  1.00  0.00    -0.271 OA
BRANCH  30  32
HETATM   32  C19 UNL     1       9.548  37.840  -0.194  1.00  0.00     0.282 C 
BRANCH  32  33
HETATM   33  N4  UNL     1      10.955  37.945  -0.673  1.00  0.00    -0.066 N 
ATOM     34  H43 UNL     1      11.348  37.060  -0.991  1.00  0.00     0.275 HD
ATOM     35  H42 UNL     1      11.053  38.443  -1.558  1.00  0.00     0.275 HD
ATOM     36  H41 UNL     1      11.470  38.371   0.098  1.00  0.00     0.275 HD
ENDBRANCH  32  33
BRANCH  32  37
HETATM   37  C20 UNL     1       9.346  39.164   0.518  1.00  0.00    -0.014 C 
HETATM   38  C21 UNL     1       8.408  40.108  -0.119  1.00  0.00     0.017 C 
HETATM   39  C22 UNL     1      10.685  39.876   0.709  1.00  0.00     0.017 C 
HETATM   40  C23 UNL     1       8.816  38.838   1.913  1.00  0.00     0.017 C 
ENDBRANCH  32  37
ENDBRANCH  30  32
ENDBRANCH   3  23
TORSDOF 13
ENDMDL
