MODEL 1
REMARK VINA RESULT: -6.051018984      0.000      0.000
REMARK  10 active torsions:
REMARK  status: ('A' for Active; 'I' for Inactive)
REMARK    1  A    between atoms: C2_2  and  C3_3 
REMARK    2  A    between atoms: C3_3  and  C4_4 
REMARK    3  A    between atoms: C4_4  and  N1_5 
REMARK    4  A    between atoms: C4_4  and  C16_22 
REMARK       I    between atoms: N1_5  and  C5_7 
REMARK    5  A    between atoms: C5_7  and  C6_9 
REMARK       I    between atoms: N2_13  and  C10_14 
REMARK    6  A    between atoms: C10_14  and  C11_16 
REMARK    7  A    between atoms: C11_16  and  C12_17 
REMARK    8  A    between atoms: C11_16  and  C14_19 
REMARK    9  A    between atoms: C14_19  and  C15_20 
REMARK       I    between atoms: C16_22  and  N3_24 
REMARK   10  A    between atoms: N3_24  and  C17_26 
ROOT
HETATM    1  N1  UNL     1      70.928  49.575   1.951  1.00  0.00    -0.346 N 
ATOM      2  H1  UNL     1      69.982  49.940   1.841  1.00  0.00     0.163 HD
HETATM    3  C5  UNL     1      72.009  50.485   1.856  1.00  0.00     0.241 C 
HETATM    4  O1  UNL     1      73.152  50.033   1.991  1.00  0.00    -0.271 OA
ENDROOT
BRANCH   3   5
HETATM    5  C6  UNL     1      71.768  51.904   1.606  1.00  0.00     0.179 C 
HETATM    6  C7  UNL     1      73.114  52.568   1.338  1.00  0.00     0.037 C 
HETATM    7  C8  UNL     1      73.101  52.905  -0.118  1.00  0.00     0.022 C 
HETATM    8  C9  UNL     1      71.963  52.068  -0.664  1.00  0.00     0.127 C 
HETATM    9  N2  UNL     1      70.992  52.168   0.396  1.00  0.00    -0.338 N 
HETATM   10  C10 UNL     1      69.631  52.441   0.353  1.00  0.00     0.224 C 
HETATM   11  O2  UNL     1      68.975  52.443   1.464  1.00  0.00    -0.273 OA
BRANCH  10  12
HETATM   12  C11 UNL     1      68.801  52.744  -0.835  1.00  0.00     0.078 C 
BRANCH  12  13
HETATM   13  C12 UNL     1      68.669  51.523  -1.668  1.00  0.00     0.009 C 
HETATM   14  C13 UNL     1      67.628  51.635  -2.754  1.00  0.00     0.006 C 
ENDBRANCH  12  13
BRANCH  12  15
HETATM   15  C14 UNL     1      69.292  53.948  -1.582  1.00  0.00     0.025 C 
BRANCH  15  16
HETATM   16  C15 UNL     1      68.453  55.171  -1.430  1.00  0.00     0.087 C 
HETATM   17  S1  UNL     1      67.284  55.412  -2.788  1.00  0.00    -0.098 SA
ENDBRANCH  15  16
ENDBRANCH  12  15
ENDBRANCH  10  12
ENDBRANCH   3   5
BRANCH   1  18
HETATM   18  C4  UNL     1      71.088  48.149   2.197  1.00  0.00     0.180 C 
BRANCH  18  19
HETATM   19  C3  UNL     1      70.008  47.390   1.403  1.00  0.00     0.061 C 
BRANCH  19  20
HETATM   20  C2  UNL     1      69.329  48.307   0.456  1.00  0.00    -0.034 C 
HETATM   21  C1  UNL     1      68.071  48.183   0.108  1.00  0.00     0.007 C 
ENDBRANCH  19  20
ENDBRANCH  18  19
BRANCH  18  22
HETATM   22  C16 UNL     1      70.784  47.893   3.620  1.00  0.00     0.241 C 
HETATM   23  O3  UNL     1      69.625  48.043   4.076  1.00  0.00    -0.271 OA
HETATM   24  N3  UNL     1      71.798  47.461   4.554  1.00  0.00    -0.355 N 
ATOM     25  H3  UNL     1      72.756  47.327   4.229  1.00  0.00     0.162 HD
BRANCH  24  26
HETATM   26  C17 UNL     1      71.477  47.213   5.940  1.00  0.00     0.084 A 
HETATM   27  C18 UNL     1      71.548  45.877   6.551  1.00  0.00     0.027 A 
HETATM   28  C19 UNL     1      72.674  46.835   6.828  1.00  0.00     0.027 A 
ENDBRANCH  24  26
ENDBRANCH  18  22
ENDBRANCH   1  18
TORSDOF 10
ENDMDL
MODEL 2
REMARK VINA RESULT: -5.938683979      1.968      3.507
REMARK  10 active torsions:
REMARK  status: ('A' for Active; 'I' for Inactive)
REMARK    1  A    between atoms: C2_2  and  C3_3 
REMARK    2  A    between atoms: C3_3  and  C4_4 
REMARK    3  A    between atoms: C4_4  and  N1_5 
REMARK    4  A    between atoms: C4_4  and  C16_22 
REMARK       I    between atoms: N1_5  and  C5_7 
REMARK    5  A    between atoms: C5_7  and  C6_9 
REMARK       I    between atoms: N2_13  and  C10_14 
REMARK    6  A    between atoms: C10_14  and  C11_16 
REMARK    7  A    between atoms: C11_16  and  C12_17 
REMARK    8  A    between atoms: C11_16  and  C14_19 
REMARK    9  A    between atoms: C14_19  and  C15_20 
REMARK       I    between atoms: C16_22  and  N3_24 
REMARK   10  A    between atoms: N3_24  and  C17_26 
ROOT
HETATM    1  N1  UNL     1      71.623  52.012   1.561  1.00  0.00    -0.346 N 
ATOM      2  H1  UNL     1      71.185  51.374   0.895  1.00  0.00     0.163 HD
HETATM    3  C5  UNL     1      70.991  53.255   1.807  1.00  0.00     0.241 C 
HETATM    4  O1  UNL     1      71.529  54.021   2.616  1.00  0.00    -0.271 OA
ENDROOT
BRANCH   3   5
HETATM    5  C6  UNL     1      69.750  53.609   1.122  1.00  0.00     0.179 C 
HETATM    6  C7  UNL     1      69.855  55.066   0.684  1.00  0.00     0.037 C 
HETATM    7  C8  UNL     1      69.983  55.019  -0.804  1.00  0.00     0.022 C 
HETATM    8  C9  UNL     1      70.351  53.577  -1.083  1.00  0.00     0.127 C 
HETATM    9  N2  UNL     1      69.533  52.876  -0.125  1.00  0.00    -0.338 N 
HETATM   10  C10 UNL     1      68.715  51.764  -0.275  1.00  0.00     0.224 C 
HETATM   11  O2  UNL     1      68.104  51.312   0.767  1.00  0.00    -0.273 OA
BRANCH  10  12
HETATM   12  C11 UNL     1      68.435  51.003  -1.514  1.00  0.00     0.078 C 
BRANCH  12  13
HETATM   13  C12 UNL     1      69.570  50.090  -1.799  1.00  0.00     0.009 C 
HETATM   14  C13 UNL     1      69.851  49.103  -0.694  1.00  0.00     0.006 C 
ENDBRANCH  12  13
BRANCH  12  15
HETATM   15  C14 UNL     1      68.061  51.895  -2.660  1.00  0.00     0.025 C 
BRANCH  15  16
HETATM   16  C15 UNL     1      66.903  52.800  -2.406  1.00  0.00     0.087 C 
HETATM   17  S1  UNL     1      67.164  54.484  -3.008  1.00  0.00    -0.098 SA
ENDBRANCH  15  16
ENDBRANCH  12  15
ENDBRANCH  10  12
ENDBRANCH   3   5
BRANCH   1  18
HETATM   18  C4  UNL     1      72.858  51.589   2.203  1.00  0.00     0.180 C 
BRANCH  18  19
HETATM   19  C3  UNL     1      73.945  51.435   1.122  1.00  0.00     0.061 C 
BRANCH  19  20
HETATM   20  C2  UNL     1      73.322  51.295  -0.215  1.00  0.00    -0.034 C 
HETATM   21  C1  UNL     1      73.713  50.416  -1.105  1.00  0.00     0.007 C 
ENDBRANCH  19  20
ENDBRANCH  18  19
BRANCH  18  22
HETATM   22  C16 UNL     1      72.649  50.231   2.749  1.00  0.00     0.241 C 
HETATM   23  O3  UNL     1      73.578  49.606   3.313  1.00  0.00    -0.271 OA
HETATM   24  N3  UNL     1      71.374  49.560   2.662  1.00  0.00    -0.355 N 
ATOM     25  H3  UNL     1      70.588  50.029   2.210  1.00  0.00     0.162 HD
BRANCH  24  26
HETATM   26  C17 UNL     1      71.192  48.234   3.206  1.00  0.00     0.084 A 
HETATM   27  C18 UNL     1      69.920  47.775   3.785  1.00  0.00     0.027 A 
HETATM   28  C19 UNL     1      70.261  47.319   2.393  1.00  0.00     0.027 A 
ENDBRANCH  24  26
ENDBRANCH  18  22
ENDBRANCH   1  18
TORSDOF 10
ENDMDL
MODEL 3
REMARK VINA RESULT: -5.894931707      2.397      4.103
REMARK  10 active torsions:
REMARK  status: ('A' for Active; 'I' for Inactive)
REMARK    1  A    between atoms: C2_2  and  C3_3 
REMARK    2  A    between atoms: C3_3  and  C4_4 
REMARK    3  A    between atoms: C4_4  and  N1_5 
REMARK    4  A    between atoms: C4_4  and  C16_22 
REMARK       I    between atoms: N1_5  and  C5_7 
REMARK    5  A    between atoms: C5_7  and  C6_9 
REMARK       I    between atoms: N2_13  and  C10_14 
REMARK    6  A    between atoms: C10_14  and  C11_16 
REMARK    7  A    between atoms: C11_16  and  C12_17 
REMARK    8  A    between atoms: C11_16  and  C14_19 
REMARK    9  A    between atoms: C14_19  and  C15_20 
REMARK       I    between atoms: C16_22  and  N3_24 
REMARK   10  A    between atoms: N3_24  and  C17_26 
ROOT
HETATM    1  N1  UNL     1      71.437  51.954   1.741  1.00  0.00    -0.346 N 
ATOM      2  H1  UNL     1      70.993  51.332   1.065  1.00  0.00     0.163 HD
HETATM    3  C5  UNL     1      70.924  53.267   1.874  1.00  0.00     0.241 C 
HETATM    4  O1  UNL     1      71.469  54.014   2.696  1.00  0.00    -0.271 OA
ENDROOT
BRANCH   3   5
HETATM    5  C6  UNL     1      69.794  53.712   1.063  1.00  0.00     0.179 C 
HETATM    6  C7  UNL     1      70.008  55.184   0.728  1.00  0.00     0.037 C 
HETATM    7  C8  UNL     1      70.319  55.211  -0.733  1.00  0.00     0.022 C 
HETATM    8  C9  UNL     1      70.665  53.771  -1.048  1.00  0.00     0.127 C 
HETATM    9  N2  UNL     1      69.707  53.057  -0.241  1.00  0.00    -0.338 N 
HETATM   10  C10 UNL     1      68.873  51.993  -0.556  1.00  0.00     0.224 C 
HETATM   11  O2  UNL     1      68.120  51.513   0.375  1.00  0.00    -0.273 OA
BRANCH  10  12
HETATM   12  C11 UNL     1      68.722  51.312  -1.862  1.00  0.00     0.078 C 
BRANCH  12  13
HETATM   13  C12 UNL     1      67.518  51.836  -2.554  1.00  0.00     0.009 C 
HETATM   14  C13 UNL     1      67.739  53.157  -3.247  1.00  0.00     0.006 C 
ENDBRANCH  12  13
BRANCH  12  15
HETATM   15  C14 UNL     1      68.755  49.818  -1.734  1.00  0.00     0.025 C 
BRANCH  15  16
HETATM   16  C15 UNL     1      69.897  49.277  -0.941  1.00  0.00     0.087 C 
HETATM   17  S1  UNL     1      69.378  48.307   0.494  1.00  0.00    -0.098 SA
ENDBRANCH  15  16
ENDBRANCH  12  15
ENDBRANCH  10  12
ENDBRANCH   3   5
BRANCH   1  18
HETATM   18  C4  UNL     1      72.558  51.438   2.512  1.00  0.00     0.180 C 
BRANCH  18  19
HETATM   19  C3  UNL     1      73.851  51.649   1.699  1.00  0.00     0.061 C 
BRANCH  19  20
HETATM   20  C2  UNL     1      74.789  52.520   2.447  1.00  0.00    -0.034 C 
HETATM   21  C1  UNL     1      74.656  52.798   3.720  1.00  0.00     0.007 C 
ENDBRANCH  19  20
ENDBRANCH  18  19
BRANCH  18  22
HETATM   22  C16 UNL     1      72.400  49.974   2.628  1.00  0.00     0.241 C 
HETATM   23  O3  UNL     1      72.769  49.204   1.710  1.00  0.00    -0.271 OA
HETATM   24  N3  UNL     1      71.816  49.357   3.796  1.00  0.00    -0.355 N 
ATOM     25  H3  UNL     1      71.499  49.944   4.569  1.00  0.00     0.162 HD
BRANCH  24  26
HETATM   26  C17 UNL     1      71.675  47.923   3.889  1.00  0.00     0.084 A 
HETATM   27  C18 UNL     1      71.380  47.229   5.152  1.00  0.00     0.027 A 
HETATM   28  C19 UNL     1      70.248  47.428   4.181  1.00  0.00     0.027 A 
ENDBRANCH  24  26
ENDBRANCH  18  22
ENDBRANCH   1  18
TORSDOF 10
ENDMDL
MODEL 4
REMARK VINA RESULT: -5.793367710      2.533      3.988
REMARK  10 active torsions:
REMARK  status: ('A' for Active; 'I' for Inactive)
REMARK    1  A    between atoms: C2_2  and  C3_3 
REMARK    2  A    between atoms: C3_3  and  C4_4 
REMARK    3  A    between atoms: C4_4  and  N1_5 
REMARK    4  A    between atoms: C4_4  and  C16_22 
REMARK       I    between atoms: N1_5  and  C5_7 
REMARK    5  A    between atoms: C5_7  and  C6_9 
REMARK       I    between atoms: N2_13  and  C10_14 
REMARK    6  A    between atoms: C10_14  and  C11_16 
REMARK    7  A    between atoms: C11_16  and  C12_17 
REMARK    8  A    between atoms: C11_16  and  C14_19 
REMARK    9  A    between atoms: C14_19  and  C15_20 
REMARK       I    between atoms: C16_22  and  N3_24 
REMARK   10  A    between atoms: N3_24  and  C17_26 
ROOT
HETATM    1  N1  UNL     1      71.441  52.304   1.612  1.00  0.00    -0.346 N 
ATOM      2  H1  UNL     1      70.930  51.560   1.136  1.00  0.00     0.163 HD
HETATM    3  C5  UNL     1      70.850  53.590   1.663  1.00  0.00     0.241 C 
HETATM    4  O1  UNL     1      71.477  54.486   2.242  1.00  0.00    -0.271 OA
ENDROOT
BRANCH   3   5
HETATM    5  C6  UNL     1      69.548  53.837   1.049  1.00  0.00     0.179 C 
HETATM    6  C7  UNL     1      69.409  55.340   0.834  1.00  0.00     0.037 C 
HETATM    7  C8  UNL     1      69.494  55.533  -0.645  1.00  0.00     0.022 C 
HETATM    8  C9  UNL     1      70.075  54.225  -1.140  1.00  0.00     0.127 C 
HETATM    9  N2  UNL     1      69.408  53.270  -0.291  1.00  0.00    -0.338 N 
HETATM   10  C10 UNL     1      68.770  52.076  -0.599  1.00  0.00     0.224 C 
HETATM   11  O2  UNL     1      68.272  51.383   0.369  1.00  0.00    -0.273 OA
BRANCH  10  12
HETATM   12  C11 UNL     1      68.573  51.469  -1.935  1.00  0.00     0.078 C 
BRANCH  12  13
HETATM   13  C12 UNL     1      67.401  52.099  -2.593  1.00  0.00     0.009 C 
HETATM   14  C13 UNL     1      67.755  53.259  -3.490  1.00  0.00     0.006 C 
ENDBRANCH  12  13
BRANCH  12  15
HETATM   15  C14 UNL     1      68.515  49.972  -1.880  1.00  0.00     0.025 C 
BRANCH  15  16
HETATM   16  C15 UNL     1      69.688  49.318  -1.230  1.00  0.00     0.087 C 
HETATM   17  S1  UNL     1      69.245  48.322   0.213  1.00  0.00    -0.098 SA
ENDBRANCH  15  16
ENDBRANCH  12  15
ENDBRANCH  10  12
ENDBRANCH   3   5
BRANCH   1  18
HETATM   18  C4  UNL     1      72.732  51.980   2.199  1.00  0.00     0.180 C 
BRANCH  18  19
HETATM   19  C3  UNL     1      73.656  51.446   1.087  1.00  0.00     0.061 C 
BRANCH  19  20
HETATM   20  C2  UNL     1      72.932  51.404  -0.205  1.00  0.00    -0.034 C 
HETATM   21  C1  UNL     1      73.229  50.572  -1.173  1.00  0.00     0.007 C 
ENDBRANCH  19  20
ENDBRANCH  18  19
BRANCH  18  22
HETATM   22  C16 UNL     1      72.542  50.850   3.131  1.00  0.00     0.241 C 
HETATM   23  O3  UNL     1      73.101  50.830   4.253  1.00  0.00    -0.271 OA
HETATM   24  N3  UNL     1      71.708  49.718   2.801  1.00  0.00    -0.355 N 
ATOM     25  H3  UNL     1      71.234  49.689   1.898  1.00  0.00     0.162 HD
BRANCH  24  26
HETATM   26  C17 UNL     1      71.534  48.626   3.730  1.00  0.00     0.084 A 
HETATM   27  C18 UNL     1      70.303  47.824   3.800  1.00  0.00     0.027 A 
HETATM   28  C19 UNL     1      71.488  47.228   3.090  1.00  0.00     0.027 A 
ENDBRANCH  24  26
ENDBRANCH  18  22
ENDBRANCH   1  18
TORSDOF 10
ENDMDL
MODEL 5
REMARK VINA RESULT: -5.782736325      3.929      6.773
REMARK  10 active torsions:
REMARK  status: ('A' for Active; 'I' for Inactive)
REMARK    1  A    between atoms: C2_2  and  C3_3 
REMARK    2  A    between atoms: C3_3  and  C4_4 
REMARK    3  A    between atoms: C4_4  and  N1_5 
REMARK    4  A    between atoms: C4_4  and  C16_22 
REMARK       I    between atoms: N1_5  and  C5_7 
REMARK    5  A    between atoms: C5_7  and  C6_9 
REMARK       I    between atoms: N2_13  and  C10_14 
REMARK    6  A    between atoms: C10_14  and  C11_16 
REMARK    7  A    between atoms: C11_16  and  C12_17 
REMARK    8  A    between atoms: C11_16  and  C14_19 
REMARK    9  A    between atoms: C14_19  and  C15_20 
REMARK       I    between atoms: C16_22  and  N3_24 
REMARK   10  A    between atoms: N3_24  and  C17_26 
ROOT
HETATM    1  N1  UNL     1      70.869  54.667  -0.365  1.00  0.00    -0.346 N 
ATOM      2  H1  UNL     1      70.965  53.664  -0.202  1.00  0.00     0.163 HD
HETATM    3  C5  UNL     1      69.600  55.159  -0.757  1.00  0.00     0.241 C 
HETATM    4  O1  UNL     1      69.493  56.376  -0.953  1.00  0.00    -0.271 OA
ENDROOT
BRANCH   3   5
HETATM    5  C6  UNL     1      68.468  54.251  -0.922  1.00  0.00     0.179 C 
HETATM    6  C7  UNL     1      67.699  54.682  -2.167  1.00  0.00     0.037 C 
HETATM    7  C8  UNL     1      67.959  53.611  -3.177  1.00  0.00     0.022 C 
HETATM    8  C9  UNL     1      69.153  52.873  -2.610  1.00  0.00     0.127 C 
HETATM    9  N2  UNL     1      68.853  52.869  -1.201  1.00  0.00    -0.338 N 
HETATM   10  C10 UNL     1      68.900  51.841  -0.268  1.00  0.00     0.224 C 
HETATM   11  O2  UNL     1      68.603  52.116   0.957  1.00  0.00    -0.273 OA
BRANCH  10  12
HETATM   12  C11 UNL     1      69.252  50.421  -0.497  1.00  0.00     0.078 C 
BRANCH  12  13
HETATM   13  C12 UNL     1      68.525  49.570   0.478  1.00  0.00     0.009 C 
HETATM   14  C13 UNL     1      68.146  48.213  -0.059  1.00  0.00     0.006 C 
ENDBRANCH  12  13
BRANCH  12  15
HETATM   15  C14 UNL     1      70.734  50.197  -0.523  1.00  0.00     0.025 C 
BRANCH  15  16
HETATM   16  C15 UNL     1      71.333  49.783   0.779  1.00  0.00     0.087 C 
HETATM   17  S1  UNL     1      72.082  51.153   1.691  1.00  0.00    -0.098 SA
ENDBRANCH  15  16
ENDBRANCH  12  15
ENDBRANCH  10  12
ENDBRANCH   3   5
BRANCH   1  18
HETATM   18  C4  UNL     1      72.043  55.506  -0.181  1.00  0.00     0.180 C 
BRANCH  18  19
HETATM   19  C3  UNL     1      73.227  54.865  -0.930  1.00  0.00     0.061 C 
BRANCH  19  20
HETATM   20  C2  UNL     1      72.899  53.471  -1.311  1.00  0.00    -0.034 C 
HETATM   21  C1  UNL     1      73.783  52.504  -1.340  1.00  0.00     0.007 C 
ENDBRANCH  19  20
ENDBRANCH  18  19
BRANCH  18  22
HETATM   22  C16 UNL     1      72.414  55.467   1.249  1.00  0.00     0.241 C 
HETATM   23  O3  UNL     1      71.748  54.801   2.077  1.00  0.00    -0.271 OA
HETATM   24  N3  UNL     1      73.554  56.190   1.764  1.00  0.00    -0.355 N 
ATOM     25  H3  UNL     1      74.124  56.747   1.128  1.00  0.00     0.162 HD
BRANCH  24  26
HETATM   26  C17 UNL     1      73.899  56.135   3.165  1.00  0.00     0.084 A 
HETATM   27  C18 UNL     1      75.281  56.262   3.653  1.00  0.00     0.027 A 
HETATM   28  C19 UNL     1      74.384  57.464   3.769  1.00  0.00     0.027 A 
ENDBRANCH  24  26
ENDBRANCH  18  22
ENDBRANCH   1  18
TORSDOF 10
ENDMDL
