MODEL 1
REMARK VINA RESULT: -7.933473416      0.000      0.000
REMARK  1 active torsions:
REMARK  status: ('A' for Active; 'I' for Inactive)
REMARK    1  A    between atoms: N1_14  and  O5_16 
ROOT
HETATM    1  O1  UNL     1      33.810  45.433   5.114  1.00  0.00    -0.261 OA
HETATM    2  C1  UNL     1      34.193  45.306   6.316  1.00  0.00     0.297 C 
HETATM    3  O2  UNL     1      35.007  44.257   6.610  1.00  0.00    -0.317 OA
HETATM    4  C2  UNL     1      36.134  44.191   7.417  1.00  0.00     0.205 C 
HETATM    5  C3  UNL     1      37.405  43.884   6.660  1.00  0.00     0.194 C 
HETATM    6  O3  UNL     1      38.033  45.044   6.254  1.00  0.00    -0.387 OA
HETATM    7  C4  UNL     1      39.269  45.210   6.876  1.00  0.00     0.193 C 
HETATM    8  C5  UNL     1      40.100  46.238   6.165  1.00  0.00     0.193 C 
HETATM    9  O4  UNL     1      39.330  47.353   5.924  1.00  0.00    -0.389 OA
HETATM   10  C6  UNL     1      39.880  48.527   6.397  1.00  0.00     0.168 C 
HETATM   11  C7  UNL     1      39.502  49.696   5.515  1.00  0.00     0.032 C 
HETATM   12  C8  UNL     1      38.016  49.952   5.526  1.00  0.00     0.056 C 
HETATM   13  C9  UNL     1      37.538  50.483   6.823  1.00  0.00     0.010 C 
HETATM   14  N1  UNL     1      38.021  51.591   7.240  1.00  0.00    -0.277 N 
ATOM     15  H1  UNL     1      38.718  52.091   6.688  1.00  0.00     0.193 HD
HETATM   16  C10 UNL     1      36.535  49.758   7.613  1.00  0.00     0.056 C 
HETATM   17  C11 UNL     1      35.392  49.240   6.755  1.00  0.00     0.032 C 
HETATM   18  C12 UNL     1      35.467  47.713   6.632  1.00  0.00     0.170 C 
HETATM   19  O6  UNL     1      34.792  47.097   7.641  1.00  0.00    -0.366 OA
HETATM   20  C13 UNL     1      33.699  46.334   7.279  1.00  0.00     0.166 C 
HETATM   21  C14 UNL     1      32.696  47.234   6.689  1.00  0.00     0.021 C 
HETATM   22  C15 UNL     1      31.517  46.754   5.940  1.00  0.00    -0.002 C 
HETATM   23  C16 UNL     1      30.431  46.111   6.448  1.00  0.00     0.010 C 
HETATM   24  C17 UNL     1      29.716  45.551   7.585  1.00  0.00     0.193 C 
HETATM   25  F1  UNL     1      28.893  46.527   8.165  1.00  0.00    -0.245 F 
HETATM   26  C18 UNL     1      30.590  44.994   8.750  1.00  0.00     0.041 C 
HETATM   27  C19 UNL     1      31.880  45.433   8.429  1.00  0.00     0.007 C 
HETATM   28  C20 UNL     1      33.267  45.619   8.602  1.00  0.00     0.053 C 
ENDROOT
BRANCH  14  29
HETATM   29  O5  UNL     1      37.592  52.096   8.436  1.00  0.00    -0.290 OA
ATOM     30  H5  UNL     1      37.308  51.496   9.115  1.00  0.00     0.244 HD
ENDBRANCH  14  29
TORSDOF 1
ENDMDL
MODEL 2
REMARK VINA RESULT: -7.747383644      3.735      6.931
REMARK  1 active torsions:
REMARK  status: ('A' for Active; 'I' for Inactive)
REMARK    1  A    between atoms: N1_14  and  O5_16 
ROOT
HETATM    1  O1  UNL     1      34.800  46.029   9.493  1.00  0.00    -0.261 OA
HETATM    2  C1  UNL     1      34.406  45.380   8.478  1.00  0.00     0.297 C 
HETATM    3  O2  UNL     1      33.452  44.429   8.671  1.00  0.00    -0.317 OA
HETATM    4  C2  UNL     1      32.329  44.116   7.919  1.00  0.00     0.205 C 
HETATM    5  C3  UNL     1      31.025  44.375   8.639  1.00  0.00     0.194 C 
HETATM    6  O3  UNL     1      30.567  45.652   8.389  1.00  0.00    -0.387 OA
HETATM    7  C4  UNL     1      29.368  45.644   7.680  1.00  0.00     0.193 C 
HETATM    8  C5  UNL     1      28.689  46.981   7.745  1.00  0.00     0.193 C 
HETATM    9  O4  UNL     1      29.608  47.968   7.471  1.00  0.00    -0.389 OA
HETATM   10  C6  UNL     1      29.229  48.819   6.453  1.00  0.00     0.168 C 
HETATM   11  C7  UNL     1      29.767  50.213   6.684  1.00  0.00     0.032 C 
HETATM   12  C8  UNL     1      31.274  50.248   6.656  1.00  0.00     0.056 C 
HETATM   13  C9  UNL     1      31.825  50.015   5.301  1.00  0.00     0.010 C 
HETATM   14  N1  UNL     1      31.503  50.828   4.368  1.00  0.00    -0.277 N 
ATOM     15  H1  UNL     1      30.883  51.615   4.559  1.00  0.00     0.193 HD
HETATM   16  C10 UNL     1      32.717  48.881   5.031  1.00  0.00     0.056 C 
HETATM   17  C11 UNL     1      33.774  48.713   6.111  1.00  0.00     0.032 C 
HETATM   18  C12 UNL     1      33.484  47.461   6.951  1.00  0.00     0.170 C 
HETATM   19  O6  UNL     1      34.067  46.354   6.415  1.00  0.00    -0.366 OA
HETATM   20  C13 UNL     1      35.041  45.738   7.176  1.00  0.00     0.166 C 
HETATM   21  C14 UNL     1      36.160  46.681   7.326  1.00  0.00     0.021 C 
HETATM   22  C15 UNL     1      37.259  46.487   8.295  1.00  0.00    -0.002 C 
HETATM   23  C16 UNL     1      38.243  45.551   8.239  1.00  0.00     0.010 C 
HETATM   24  C17 UNL     1      38.874  44.424   7.566  1.00  0.00     0.193 C 
HETATM   25  F1  UNL     1      39.828  44.884   6.647  1.00  0.00    -0.245 F 
HETATM   26  C18 UNL     1      37.933  43.482   6.757  1.00  0.00     0.041 C 
HETATM   27  C19 UNL     1      36.717  44.176   6.735  1.00  0.00     0.007 C 
HETATM   28  C20 UNL     1      35.370  44.422   6.397  1.00  0.00     0.053 C 
ENDROOT
BRANCH  14  29
HETATM   29  O5  UNL     1      32.002  50.629   3.111  1.00  0.00    -0.290 OA
ATOM     30  H5  UNL     1      32.184  49.743   2.821  1.00  0.00     0.244 HD
ENDBRANCH  14  29
TORSDOF 1
ENDMDL
MODEL 3
REMARK VINA RESULT: -7.719288286      4.077      7.970
REMARK  1 active torsions:
REMARK  status: ('A' for Active; 'I' for Inactive)
REMARK    1  A    between atoms: N1_14  and  O5_16 
ROOT
HETATM    1  O1  UNL     1      35.724  45.553   5.476  1.00  0.00    -0.261 OA
HETATM    2  C1  UNL     1      35.783  46.116   6.611  1.00  0.00     0.297 C 
HETATM    3  O2  UNL     1      35.626  47.467   6.652  1.00  0.00    -0.317 OA
HETATM    4  C2  UNL     1      34.913  48.263   7.537  1.00  0.00     0.205 C 
HETATM    5  C3  UNL     1      33.750  48.988   6.899  1.00  0.00     0.194 C 
HETATM    6  O3  UNL     1      32.593  48.239   6.982  1.00  0.00    -0.387 OA
HETATM    7  C4  UNL     1      31.634  48.854   7.783  1.00  0.00     0.193 C 
HETATM    8  C5  UNL     1      30.277  48.251   7.566  1.00  0.00     0.193 C 
HETATM    9  O4  UNL     1      30.382  46.879   7.602  1.00  0.00    -0.389 OA
HETATM   10  C6  UNL     1      29.528  46.275   8.501  1.00  0.00     0.168 C 
HETATM   11  C7  UNL     1      29.097  44.911   8.008  1.00  0.00     0.032 C 
HETATM   12  C8  UNL     1      30.261  43.958   7.902  1.00  0.00     0.056 C 
HETATM   13  C9  UNL     1      30.795  43.561   9.225  1.00  0.00     0.010 C 
HETATM   14  N1  UNL     1      30.012  42.966  10.042  1.00  0.00    -0.277 N 
ATOM     15  H1  UNL     1      29.044  42.772   9.783  1.00  0.00     0.193 HD
HETATM   16  C10 UNL     1      32.189  43.842   9.593  1.00  0.00     0.056 C 
HETATM   17  C11 UNL     1      33.157  43.515   8.468  1.00  0.00     0.032 C 
HETATM   18  C12 UNL     1      33.727  44.806   7.864  1.00  0.00     0.170 C 
HETATM   19  O6  UNL     1      34.852  45.208   8.516  1.00  0.00    -0.366 OA
HETATM   20  C13 UNL     1      36.022  45.222   7.782  1.00  0.00     0.166 C 
HETATM   21  C14 UNL     1      36.324  43.836   7.389  1.00  0.00     0.021 C 
HETATM   22  C15 UNL     1      37.338  43.484   6.373  1.00  0.00    -0.002 C 
HETATM   23  C16 UNL     1      38.688  43.594   6.493  1.00  0.00     0.010 C 
HETATM   24  C17 UNL     1      39.858  43.958   7.278  1.00  0.00     0.193 C 
HETATM   25  F1  UNL     1      40.296  42.857   8.029  1.00  0.00    -0.245 F 
HETATM   26  C18 UNL     1      39.675  45.118   8.304  1.00  0.00     0.041 C 
HETATM   27  C19 UNL     1      38.290  45.323   8.319  1.00  0.00     0.007 C 
HETATM   28  C20 UNL     1      37.069  45.897   8.727  1.00  0.00     0.053 C 
ENDROOT
BRANCH  14  29
HETATM   29  O5  UNL     1      30.488  42.593  11.268  1.00  0.00    -0.290 OA
ATOM     30  H5  UNL     1      29.933  42.080  11.843  1.00  0.00     0.244 HD
ENDBRANCH  14  29
TORSDOF 1
ENDMDL
MODEL 4
REMARK VINA RESULT: -7.703408987      4.070      6.105
REMARK  1 active torsions:
REMARK  status: ('A' for Active; 'I' for Inactive)
REMARK    1  A    between atoms: N1_14  and  O5_16 
ROOT
HETATM    1  O1  UNL     1      32.453  48.721   8.453  1.00  0.00    -0.261 OA
HETATM    2  C1  UNL     1      31.579  48.712   7.533  1.00  0.00     0.297 C 
HETATM    3  O2  UNL     1      30.637  49.692   7.553  1.00  0.00    -0.317 OA
HETATM    4  C2  UNL     1      30.103  50.448   6.519  1.00  0.00     0.205 C 
HETATM    5  C3  UNL     1      30.431  51.920   6.611  1.00  0.00     0.194 C 
HETATM    6  O3  UNL     1      31.596  52.213   5.932  1.00  0.00    -0.387 OA
HETATM    7  C4  UNL     1      31.365  53.046   4.840  1.00  0.00     0.193 C 
HETATM    8  C5  UNL     1      32.642  53.661   4.346  1.00  0.00     0.193 C 
HETATM    9  O4  UNL     1      33.601  52.681   4.233  1.00  0.00    -0.389 OA
HETATM   10  C6  UNL     1      34.191  52.615   2.987  1.00  0.00     0.168 C 
HETATM   11  C7  UNL     1      35.633  52.170   3.094  1.00  0.00     0.032 C 
HETATM   12  C8  UNL     1      35.750  50.768   3.634  1.00  0.00     0.056 C 
HETATM   13  C9  UNL     1      35.268  49.745   2.679  1.00  0.00     0.010 C 
HETATM   14  N1  UNL     1      35.843  49.660   1.539  1.00  0.00    -0.277 N 
ATOM     15  H1  UNL     1      36.614  50.285   1.302  1.00  0.00     0.193 HD
HETATM   16  C10 UNL     1      34.158  48.849   3.026  1.00  0.00     0.056 C 
HETATM   17  C11 UNL     1      34.287  48.293   4.435  1.00  0.00     0.032 C 
HETATM   18  C12 UNL     1      33.229  48.918   5.354  1.00  0.00     0.170 C 
HETATM   19  O6  UNL     1      32.070  48.204   5.338  1.00  0.00    -0.366 OA
HETATM   20  C13 UNL     1      31.689  47.615   6.528  1.00  0.00     0.166 C 
HETATM   21  C14 UNL     1      32.709  46.615   6.882  1.00  0.00     0.021 C 
HETATM   22  C15 UNL     1      32.792  45.979   8.213  1.00  0.00    -0.002 C 
HETATM   23  C16 UNL     1      31.926  45.074   8.743  1.00  0.00     0.010 C 
HETATM   24  C17 UNL     1      30.722  44.265   8.627  1.00  0.00     0.193 C 
HETATM   25  F1  UNL     1      31.032  43.018   8.064  1.00  0.00    -0.245 F 
HETATM   26  C18 UNL     1      29.574  44.847   7.749  1.00  0.00     0.041 C 
HETATM   27  C19 UNL     1      30.173  45.942   7.113  1.00  0.00     0.007 C 
HETATM   28  C20 UNL     1      30.260  47.048   6.243  1.00  0.00     0.053 C 
ENDROOT
BRANCH  14  29
HETATM   29  O5  UNL     1      35.410  48.722   0.644  1.00  0.00    -0.290 OA
ATOM     30  H5  UNL     1      34.571  48.844   0.216  1.00  0.00     0.244 HD
ENDBRANCH  14  29
TORSDOF 1
ENDMDL
MODEL 5
REMARK VINA RESULT: -7.692567161      3.797      7.766
REMARK  1 active torsions:
REMARK  status: ('A' for Active; 'I' for Inactive)
REMARK    1  A    between atoms: N1_14  and  O5_16 
ROOT
HETATM    1  O1  UNL     1      34.288  47.726   4.928  1.00  0.00    -0.261 OA
HETATM    2  C1  UNL     1      34.197  48.040   6.154  1.00  0.00     0.297 C 
HETATM    3  O2  UNL     1      33.064  48.676   6.557  1.00  0.00    -0.317 OA
HETATM    4  C2  UNL     1      32.291  48.500   7.695  1.00  0.00     0.205 C 
HETATM    5  C3  UNL     1      30.898  47.986   7.410  1.00  0.00     0.194 C 
HETATM    6  O3  UNL     1      30.863  46.606   7.439  1.00  0.00    -0.387 OA
HETATM    7  C4  UNL     1      30.071  46.129   8.481  1.00  0.00     0.193 C 
HETATM    8  C5  UNL     1      29.727  44.682   8.282  1.00  0.00     0.193 C 
HETATM    9  O4  UNL     1      30.869  43.987   7.953  1.00  0.00    -0.389 OA
HETATM   10  C6  UNL     1      31.117  42.900   8.765  1.00  0.00     0.168 C 
HETATM   11  C7  UNL     1      31.807  41.795   7.996  1.00  0.00     0.032 C 
HETATM   12  C8  UNL     1      33.171  42.215   7.510  1.00  0.00     0.056 C 
HETATM   13  C9  UNL     1      34.148  42.366   8.613  1.00  0.00     0.010 C 
HETATM   14  N1  UNL     1      34.406  41.346   9.339  1.00  0.00    -0.277 N 
ATOM     15  H1  UNL     1      33.946  40.453   9.158  1.00  0.00     0.193 HD
HETATM   16  C10 UNL     1      34.807  43.653   8.868  1.00  0.00     0.056 C 
HETATM   17  C11 UNL     1      35.287  44.317   7.588  1.00  0.00     0.032 C 
HETATM   18  C12 UNL     1      34.426  45.546   7.269  1.00  0.00     0.170 C 
HETATM   19  O6  UNL     1      34.920  46.668   7.861  1.00  0.00    -0.366 OA
HETATM   20  C13 UNL     1      35.356  47.672   7.019  1.00  0.00     0.166 C 
HETATM   21  C14 UNL     1      36.499  47.153   6.252  1.00  0.00     0.021 C 
HETATM   22  C15 UNL     1      37.055  47.834   5.064  1.00  0.00    -0.002 C 
HETATM   23  C16 UNL     1      37.755  49.000   5.043  1.00  0.00     0.010 C 
HETATM   24  C17 UNL     1      38.340  50.131   5.748  1.00  0.00     0.193 C 
HETATM   25  F1  UNL     1      39.655  49.831   6.133  1.00  0.00    -0.245 F 
HETATM   26  C18 UNL     1      37.617  50.591   7.050  1.00  0.00     0.041 C 
HETATM   27  C19 UNL     1      36.689  49.568   7.285  1.00  0.00     0.007 C 
HETATM   28  C20 UNL     1      35.674  48.872   7.971  1.00  0.00     0.053 C 
ENDROOT
BRANCH  14  29
HETATM   29  O5  UNL     1      35.305  41.467  10.362  1.00  0.00    -0.290 OA
ATOM     30  H5  UNL     1      34.988  41.677  11.232  1.00  0.00     0.244 HD
ENDBRANCH  14  29
TORSDOF 1
ENDMDL
