MODEL 1
REMARK VINA RESULT: -8.572432264      0.000      0.000
REMARK  0 active torsions:
REMARK  status: ('A' for Active; 'I' for Inactive)
ROOT
HETATM    1  C1  UNL     1     -33.681 -13.888  59.768  1.00  0.00     0.015 C 
HETATM    2  C2  UNL     1     -34.716 -14.935  60.123  1.00  0.00     0.047 C 
HETATM    3  C3  UNL     1     -35.685 -14.881  58.975  1.00  0.00     0.182 C 
HETATM    4  O1  UNL     1     -36.940 -14.263  59.258  1.00  0.00    -0.309 OA
HETATM    5  C4  UNL     1     -37.656 -15.424  59.252  1.00  0.00     0.296 C 
HETATM    6  O2  UNL     1     -38.801 -15.793  59.553  1.00  0.00    -0.262 OA
HETATM    7  C5  UNL     1     -36.433 -16.109  58.704  1.00  0.00     0.173 C 
HETATM    8  C6  UNL     1     -36.711 -16.330  57.203  1.00  0.00     0.060 C 
HETATM    9  O3  UNL     1     -36.036 -17.240  59.242  1.00  0.00    -0.351 OA
HETATM   10  C7  UNL     1     -35.287 -17.303  60.401  1.00  0.00     0.104 C 
HETATM   11  C8  UNL     1     -36.359 -16.938  61.465  1.00  0.00     0.053 C 
HETATM   12  C9  UNL     1     -34.957 -18.718  60.568  1.00  0.00     0.011 C 
HETATM   13  C10 UNL     1     -33.633 -19.237  60.924  1.00  0.00     0.007 C 
HETATM   14  C11 UNL     1     -32.481 -19.185  60.035  1.00  0.00     0.179 C 
HETATM   15  O4  UNL     1     -31.410 -18.470  60.636  1.00  0.00    -0.365 OA
HETATM   16  C12 UNL     1     -31.950 -17.278  61.084  1.00  0.00     0.221 A 
HETATM   17  C13 UNL     1     -31.001 -16.069  60.986  1.00  0.00     0.089 A 
HETATM   18  C14 UNL     1     -30.899 -15.239  62.252  1.00  0.00     0.048 C 
HETATM   19  C15 UNL     1     -29.594 -16.380  60.555  1.00  0.00     0.048 C 
HETATM   20  O5  UNL     1     -31.896 -15.673  60.029  1.00  0.00    -0.338 OA
HETATM   21  C16 UNL     1     -32.879 -16.690  60.075  1.00  0.00     0.221 A 
HETATM   22  O6  UNL     1     -32.969 -17.275  58.858  1.00  0.00    -0.338 OA
HETATM   23  C17 UNL     1     -32.642 -18.569  58.673  1.00  0.00     0.087 C 
HETATM   24  C18 UNL     1     -31.261 -18.659  58.001  1.00  0.00     0.049 C 
HETATM   25  C19 UNL     1     -33.519 -19.380  57.752  1.00  0.00     0.049 C 
HETATM   26  C20 UNL     1     -34.222 -16.264  60.552  1.00  0.00     0.136 C 
HETATM   27 CL1  UNL     1     -34.075 -16.162  62.366  1.00  0.00    -0.109 Cl
ENDROOT
TORSDOF 0
ENDMDL
MODEL 2
REMARK VINA RESULT: -7.474658885      1.753      5.036
REMARK  0 active torsions:
REMARK  status: ('A' for Active; 'I' for Inactive)
ROOT
HETATM    1  C1  UNL     1     -31.786 -18.408  59.003  1.00  0.00     0.015 C 
HETATM    2  C2  UNL     1     -32.454 -17.693  60.159  1.00  0.00     0.047 C 
HETATM    3  C3  UNL     1     -31.749 -16.367  60.212  1.00  0.00     0.182 C 
HETATM    4  O1  UNL     1     -30.830 -16.201  61.293  1.00  0.00    -0.309 OA
HETATM    5  C4  UNL     1     -31.615 -15.331  61.992  1.00  0.00     0.296 C 
HETATM    6  O2  UNL     1     -31.623 -14.811  63.118  1.00  0.00    -0.262 OA
HETATM    7  C5  UNL     1     -32.509 -15.254  60.784  1.00  0.00     0.173 C 
HETATM    8  C6  UNL     1     -32.196 -13.900  60.115  1.00  0.00     0.060 C 
HETATM    9  O3  UNL     1     -33.808 -15.371  60.939  1.00  0.00    -0.351 OA
HETATM   10  C7  UNL     1     -34.447 -16.590  61.065  1.00  0.00     0.104 C 
HETATM   11  C8  UNL     1     -34.034 -16.991  62.509  1.00  0.00     0.053 C 
HETATM   12  C9  UNL     1     -35.875 -16.275  61.082  1.00  0.00     0.011 C 
HETATM   13  C10 UNL     1     -36.904 -16.993  60.325  1.00  0.00     0.007 C 
HETATM   14  C11 UNL     1     -37.021 -16.942  58.874  1.00  0.00     0.179 C 
HETATM   15  O4  UNL     1     -36.924 -18.244  58.313  1.00  0.00    -0.365 OA
HETATM   16  C12 UNL     1     -35.790 -18.814  58.863  1.00  0.00     0.221 A 
HETATM   17  C13 UNL     1     -35.017 -19.747  57.912  1.00  0.00     0.089 A 
HETATM   18  C14 UNL     1     -34.658 -21.097  58.502  1.00  0.00     0.048 C 
HETATM   19  C15 UNL     1     -35.673 -20.011  56.585  1.00  0.00     0.048 C 
HETATM   20  O5  UNL     1     -34.084 -18.747  57.982  1.00  0.00    -0.338 OA
HETATM   21  C16 UNL     1     -34.659 -17.841  58.905  1.00  0.00     0.221 A 
HETATM   22  O6  UNL     1     -34.817 -16.639  58.306  1.00  0.00    -0.338 OA
HETATM   23  C17 UNL     1     -36.039 -16.112  58.095  1.00  0.00     0.087 C 
HETATM   24  C18 UNL     1     -36.422 -16.278  56.614  1.00  0.00     0.049 C 
HETATM   25  C19 UNL     1     -36.202 -14.629  58.321  1.00  0.00     0.049 C 
HETATM   26  C20 UNL     1     -33.935 -17.693  60.196  1.00  0.00     0.136 C 
HETATM   27 CL1  UNL     1     -34.393 -19.163  61.173  1.00  0.00    -0.109 Cl
ENDROOT
TORSDOF 0
ENDMDL
MODEL 3
REMARK VINA RESULT: -7.338036979      1.736      5.384
REMARK  0 active torsions:
REMARK  status: ('A' for Active; 'I' for Inactive)
ROOT
HETATM    1  C1  UNL     1     -34.769 -18.389  57.139  1.00  0.00     0.015 C 
HETATM    2  C2  UNL     1     -34.273 -18.872  58.486  1.00  0.00     0.047 C 
HETATM    3  C3  UNL     1     -32.821 -19.175  58.243  1.00  0.00     0.182 C 
HETATM    4  O1  UNL     1     -32.483 -20.560  58.181  1.00  0.00    -0.309 OA
HETATM    5  C4  UNL     1     -31.849 -20.589  59.388  1.00  0.00     0.296 C 
HETATM    6  O2  UNL     1     -31.386 -21.445  60.157  1.00  0.00    -0.262 OA
HETATM    7  C5  UNL     1     -31.940 -19.087  59.409  1.00  0.00     0.173 C 
HETATM    8  C6  UNL     1     -30.527 -18.574  59.062  1.00  0.00     0.060 C 
HETATM    9  O3  UNL     1     -32.365 -18.485  60.496  1.00  0.00    -0.351 OA
HETATM   10  C7  UNL     1     -33.703 -18.355  60.814  1.00  0.00     0.104 C 
HETATM   11  C8  UNL     1     -34.048 -19.809  61.240  1.00  0.00     0.053 C 
HETATM   12  C9  UNL     1     -33.734 -17.520  62.014  1.00  0.00     0.011 C 
HETATM   13  C10 UNL     1     -34.646 -16.394  62.233  1.00  0.00     0.007 C 
HETATM   14  C11 UNL     1     -34.572 -15.141  61.496  1.00  0.00     0.179 C 
HETATM   15  O4  UNL     1     -35.793 -14.879  60.818  1.00  0.00    -0.365 OA
HETATM   16  C12 UNL     1     -36.100 -16.035  60.124  1.00  0.00     0.221 A 
HETATM   17  C13 UNL     1     -36.790 -15.802  58.767  1.00  0.00     0.089 A 
HETATM   18  C14 UNL     1     -38.038 -16.632  58.539  1.00  0.00     0.048 C 
HETATM   19  C15 UNL     1     -37.153 -14.376  58.458  1.00  0.00     0.048 C 
HETATM   20  O5  UNL     1     -35.602 -16.283  58.285  1.00  0.00    -0.338 OA
HETATM   21  C16 UNL     1     -34.891 -16.609  59.465  1.00  0.00     0.221 A 
HETATM   22  O6  UNL     1     -33.738 -15.902  59.496  1.00  0.00    -0.338 OA
HETATM   23  C17 UNL     1     -33.506 -14.977  60.448  1.00  0.00     0.087 C 
HETATM   24  C18 UNL     1     -33.705 -13.570  59.857  1.00  0.00     0.049 C 
HETATM   25  C19 UNL     1     -32.112 -14.908  61.022  1.00  0.00     0.049 C 
HETATM   26  C20 UNL     1     -34.623 -18.058  59.673  1.00  0.00     0.136 C 
HETATM   27 CL1  UNL     1     -36.194 -18.750  60.288  1.00  0.00    -0.109 Cl
ENDROOT
TORSDOF 0
ENDMDL
MODEL 4
REMARK VINA RESULT: -7.329920777      2.438      4.550
REMARK  0 active torsions:
REMARK  status: ('A' for Active; 'I' for Inactive)
ROOT
HETATM    1  C1  UNL     1     -32.405 -20.893  59.530  1.00  0.00     0.015 C 
HETATM    2  C2  UNL     1     -33.550 -20.293  58.741  1.00  0.00     0.047 C 
HETATM    3  C3  UNL     1     -34.723 -21.162  59.099  1.00  0.00     0.182 C 
HETATM    4  O1  UNL     1     -35.153 -22.067  58.082  1.00  0.00    -0.309 OA
HETATM    5  C4  UNL     1     -36.295 -21.383  57.781  1.00  0.00     0.296 C 
HETATM    6  O2  UNL     1     -37.174 -21.413  56.907  1.00  0.00    -0.262 OA
HETATM    7  C5  UNL     1     -36.043 -20.537  58.999  1.00  0.00     0.173 C 
HETATM    8  C6  UNL     1     -37.033 -21.037  60.072  1.00  0.00     0.060 C 
HETATM    9  O3  UNL     1     -36.133 -19.230  58.903  1.00  0.00    -0.351 OA
HETATM   10  C7  UNL     1     -35.116 -18.437  58.408  1.00  0.00     0.104 C 
HETATM   11  C8  UNL     1     -35.203 -18.758  56.890  1.00  0.00     0.053 C 
HETATM   12  C9  UNL     1     -35.574 -17.061  58.599  1.00  0.00     0.011 C 
HETATM   13  C10 UNL     1     -34.756 -15.968  59.131  1.00  0.00     0.007 C 
HETATM   14  C11 UNL     1     -34.307 -15.894  60.514  1.00  0.00     0.179 C 
HETATM   15  O4  UNL     1     -32.889 -15.838  60.584  1.00  0.00    -0.365 OA
HETATM   16  C12 UNL     1     -32.426 -16.875  59.795  1.00  0.00     0.221 A 
HETATM   17  C13 UNL     1     -31.139 -17.545  60.311  1.00  0.00     0.089 A 
HETATM   18  C14 UNL     1     -30.049 -17.713  59.269  1.00  0.00     0.048 C 
HETATM   19  C15 UNL     1     -30.501 -16.894  61.508  1.00  0.00     0.048 C 
HETATM   20  O5  UNL     1     -31.989 -18.597  60.527  1.00  0.00    -0.338 OA
HETATM   21  C16 UNL     1     -33.219 -18.120  60.014  1.00  0.00     0.221 A 
HETATM   22  O6  UNL     1     -34.144 -18.133  61.000  1.00  0.00    -0.338 OA
HETATM   23  C17 UNL     1     -34.697 -16.994  61.462  1.00  0.00     0.087 C 
HETATM   24  C18 UNL     1     -34.066 -16.630  62.818  1.00  0.00     0.049 C 
HETATM   25  C19 UNL     1     -36.174 -17.017  61.773  1.00  0.00     0.049 C 
HETATM   26  C20 UNL     1     -33.728 -18.824  58.807  1.00  0.00     0.136 C 
HETATM   27 CL1  UNL     1     -32.755 -18.157  57.417  1.00  0.00    -0.109 Cl
ENDROOT
TORSDOF 0
ENDMDL
MODEL 5
REMARK VINA RESULT: -7.185138109      2.226      5.031
REMARK  0 active torsions:
REMARK  status: ('A' for Active; 'I' for Inactive)
ROOT
HETATM    1  C1  UNL     1     -35.262 -17.954  62.556  1.00  0.00     0.015 C 
HETATM    2  C2  UNL     1     -34.756 -17.051  61.450  1.00  0.00     0.047 C 
HETATM    3  C3  UNL     1     -33.286 -16.927  61.736  1.00  0.00     0.182 C 
HETATM    4  O1  UNL     1     -32.866 -15.673  62.272  1.00  0.00    -0.309 OA
HETATM    5  C4  UNL     1     -32.246 -15.250  61.132  1.00  0.00     0.296 C 
HETATM    6  O2  UNL     1     -31.745 -14.202  60.700  1.00  0.00    -0.262 OA
HETATM    7  C5  UNL     1     -32.427 -16.641  60.586  1.00  0.00     0.173 C 
HETATM    8  C6  UNL     1     -31.042 -17.314  60.682  1.00  0.00     0.060 C 
HETATM    9  O3  UNL     1     -32.901 -16.796  59.371  1.00  0.00    -0.351 OA
HETATM   10  C7  UNL     1     -34.249 -16.737  59.072  1.00  0.00     0.104 C 
HETATM   11  C8  UNL     1     -34.512 -15.211  59.199  1.00  0.00     0.053 C 
HETATM   12  C9  UNL     1     -34.344 -17.089  57.657  1.00  0.00     0.011 C 
HETATM   13  C10 UNL     1     -35.324 -18.018  57.084  1.00  0.00     0.007 C 
HETATM   14  C11 UNL     1     -35.315 -19.453  57.329  1.00  0.00     0.179 C 
HETATM   15  O4  UNL     1     -36.540 -19.875  57.911  1.00  0.00    -0.365 OA
HETATM   16  C12 UNL     1     -36.769 -19.027  58.979  1.00  0.00     0.221 A 
HETATM   17  C13 UNL     1     -37.453 -19.691  60.188  1.00  0.00     0.089 A 
HETATM   18  C14 UNL     1     -38.647 -18.933  60.736  1.00  0.00     0.048 C 
HETATM   19  C15 UNL     1     -37.895 -21.113  59.985  1.00  0.00     0.048 C 
HETATM   20  O5  UNL     1     -36.232 -19.472  60.769  1.00  0.00    -0.338 OA
HETATM   21  C16 UNL     1     -35.519 -18.785  59.757  1.00  0.00     0.221 A 
HETATM   22  O6  UNL     1     -34.410 -19.493  59.440  1.00  0.00    -0.338 OA
HETATM   23  C17 UNL     1     -34.246 -20.031  58.215  1.00  0.00     0.087 C 
HETATM   24  C18 UNL     1     -34.520 -21.544  58.278  1.00  0.00     0.049 C 
HETATM   25  C19 UNL     1     -32.867 -19.962  57.608  1.00  0.00     0.049 C 
HETATM   26  C20 UNL     1     -35.169 -17.373  60.064  1.00  0.00     0.136 C 
HETATM   27 CL1  UNL     1     -36.704 -16.429  59.787  1.00  0.00    -0.109 Cl
ENDROOT
TORSDOF 0
ENDMDL
