MODEL 1
REMARK VINA RESULT: -5.563881884      0.000      0.000
REMARK  2 active torsions:
REMARK  status: ('A' for Active; 'I' for Inactive)
REMARK    1  A    between atoms: O1_1  and  C1_3 
REMARK    2  A    between atoms: C5_7  and  O2_8 
ROOT
HETATM    1  C1  UNL     1      -5.434  15.532  13.048  1.00  0.00     0.118 C 
HETATM    2  C2  UNL     1      -5.446  14.070  13.333  1.00  0.00     0.032 C 
HETATM    3  C3  UNL     1      -3.999  13.619  13.503  1.00  0.00     0.010 C 
HETATM    4  C4  UNL     1      -3.590  14.211  14.831  1.00  0.00     0.018 C 
HETATM    5  C5  UNL     1      -2.176  13.795  15.119  1.00  0.00     0.122 C 
HETATM    6  C6  UNL     1      -1.397  14.799  14.288  1.00  0.00     0.032 C 
HETATM    7  C7  UNL     1      -2.111  16.087  14.675  1.00  0.00     0.007 C 
HETATM    8  C8  UNL     1      -3.593  15.694  14.774  1.00  0.00    -0.006 C 
HETATM    9  C9  UNL     1      -4.382  16.324  13.701  1.00  0.00     0.037 C 
ENDROOT
BRANCH   1  10
HETATM   10  O1  UNL     1      -5.329  15.677  11.644  1.00  0.00    -0.396 OA
ATOM     11  H1  UNL     1      -4.969  14.865  11.309  1.00  0.00     0.210 HD
ENDBRANCH   1  10
BRANCH   5  12
HETATM   12  O2  UNL     1      -1.967  12.497  14.747  1.00  0.00    -0.395 OA
ATOM     13  H2  UNL     1      -2.182  12.370  13.831  1.00  0.00     0.210 HD
ENDBRANCH   5  12
TORSDOF 2
ENDMDL
MODEL 2
REMARK VINA RESULT: -5.559677823      1.706      2.334
REMARK  2 active torsions:
REMARK  status: ('A' for Active; 'I' for Inactive)
REMARK    1  A    between atoms: O1_1  and  C1_3 
REMARK    2  A    between atoms: C5_7  and  O2_8 
ROOT
HETATM    1  C1  UNL     1      -5.647  15.426  10.928  1.00  0.00     0.118 C 
HETATM    2  C2  UNL     1      -6.304  14.093  11.037  1.00  0.00     0.032 C 
HETATM    3  C3  UNL     1      -5.395  13.196  11.870  1.00  0.00     0.010 C 
HETATM    4  C4  UNL     1      -5.530  13.746  13.270  1.00  0.00     0.018 C 
HETATM    5  C5  UNL     1      -4.694  12.904  14.192  1.00  0.00     0.122 C 
HETATM    6  C6  UNL     1      -3.313  13.491  13.957  1.00  0.00     0.032 C 
HETATM    7  C7  UNL     1      -3.629  14.978  14.046  1.00  0.00     0.007 C 
HETATM    8  C8  UNL     1      -4.991  15.127  13.352  1.00  0.00    -0.006 C 
HETATM    9  C9  UNL     1      -4.864  15.874  12.088  1.00  0.00     0.037 C 
ENDROOT
BRANCH   1  10
HETATM   10  O1  UNL     1      -4.812  15.381   9.786  1.00  0.00    -0.396 OA
ATOM     11  H1  UNL     1      -4.664  16.279   9.517  1.00  0.00     0.210 HD
ENDBRANCH   1  10
BRANCH   5  12
HETATM   12  O2  UNL     1      -4.790  11.582  13.862  1.00  0.00    -0.395 OA
ATOM     13  H2  UNL     1      -4.522  11.033  14.589  1.00  0.00     0.210 HD
ENDBRANCH   5  12
TORSDOF 2
ENDMDL
MODEL 3
REMARK VINA RESULT: -5.519989712      7.826      9.345
REMARK  2 active torsions:
REMARK  status: ('A' for Active; 'I' for Inactive)
REMARK    1  A    between atoms: O1_1  and  C1_3 
REMARK    2  A    between atoms: C5_7  and  O2_8 
ROOT
HETATM    1  C1  UNL     1      -6.954   8.236  11.226  1.00  0.00     0.118 C 
HETATM    2  C2  UNL     1      -7.220   8.052   9.771  1.00  0.00     0.032 C 
HETATM    3  C3  UNL     1      -8.726   8.155   9.558  1.00  0.00     0.010 C 
HETATM    4  C4  UNL     1      -9.021   9.621   9.765  1.00  0.00     0.018 C 
HETATM    5  C5  UNL     1     -10.490   9.845   9.542  1.00  0.00     0.122 C 
HETATM    6  C6  UNL     1     -11.062   9.411  10.879  1.00  0.00     0.032 C 
HETATM    7  C7  UNL     1     -10.120  10.138  11.829  1.00  0.00     0.007 C 
HETATM    8  C8  UNL     1      -8.738  10.027  11.164  1.00  0.00    -0.006 C 
HETATM    9  C9  UNL     1      -7.841   9.160  11.948  1.00  0.00     0.037 C 
ENDROOT
BRANCH   1  10
HETATM   10  O1  UNL     1      -7.025   6.955  11.822  1.00  0.00    -0.396 OA
ATOM     11  H1  UNL     1      -7.581   6.422  11.266  1.00  0.00     0.210 HD
ENDBRANCH   1  10
BRANCH   5  12
HETATM   12  O2  UNL     1     -10.939   9.101   8.487  1.00  0.00    -0.395 OA
ATOM     13  H2  UNL     1     -11.742   8.648   8.712  1.00  0.00     0.210 HD
ENDBRANCH   5  12
TORSDOF 2
ENDMDL
MODEL 4
REMARK VINA RESULT: -5.501782691      2.185      5.096
REMARK  2 active torsions:
REMARK  status: ('A' for Active; 'I' for Inactive)
REMARK    1  A    between atoms: O1_1  and  C1_3 
REMARK    2  A    between atoms: C5_7  and  O2_8 
ROOT
HETATM    1  C1  UNL     1      -4.469  13.305  14.013  1.00  0.00     0.118 C 
HETATM    2  C2  UNL     1      -4.702  14.698  13.537  1.00  0.00     0.032 C 
HETATM    3  C3  UNL     1      -5.611  14.624  12.315  1.00  0.00     0.010 C 
HETATM    4  C4  UNL     1      -6.955  14.242  12.887  1.00  0.00     0.018 C 
HETATM    5  C5  UNL     1      -7.947  14.175  11.761  1.00  0.00     0.122 C 
HETATM    6  C6  UNL     1      -7.656  12.798  11.191  1.00  0.00     0.032 C 
HETATM    7  C7  UNL     1      -7.610  11.976  12.472  1.00  0.00     0.007 C 
HETATM    8  C8  UNL     1      -6.908  12.887  13.492  1.00  0.00    -0.006 C 
HETATM    9  C9  UNL     1      -5.581  12.357  13.853  1.00  0.00     0.037 C 
ENDROOT
BRANCH   1  10
HETATM   10  O1  UNL     1      -3.334  12.819  13.322  1.00  0.00    -0.396 OA
ATOM     11  H1  UNL     1      -3.479  12.990  12.399  1.00  0.00     0.210 HD
ENDBRANCH   1  10
BRANCH   5  12
HETATM   12  O2  UNL     1      -7.740  15.190  10.871  1.00  0.00    -0.395 OA
ATOM     13  H2  UNL     1      -7.652  14.852   9.988  1.00  0.00     0.210 HD
ENDBRANCH   5  12
TORSDOF 2
ENDMDL
MODEL 5
REMARK VINA RESULT: -5.481983130      1.437      3.863
REMARK  2 active torsions:
REMARK  status: ('A' for Active; 'I' for Inactive)
REMARK    1  A    between atoms: O1_1  and  C1_3 
REMARK    2  A    between atoms: C5_7  and  O2_8 
ROOT
HETATM    1  C1  UNL     1      -1.998  13.143  14.901  1.00  0.00     0.118 C 
HETATM    2  C2  UNL     1      -1.235  14.391  15.185  1.00  0.00     0.032 C 
HETATM    3  C3  UNL     1      -1.758  15.476  14.250  1.00  0.00     0.010 C 
HETATM    4  C4  UNL     1      -3.129  15.794  14.797  1.00  0.00     0.018 C 
HETATM    5  C5  UNL     1      -3.729  16.891  13.963  1.00  0.00     0.122 C 
HETATM    6  C6  UNL     1      -4.247  16.105  12.771  1.00  0.00     0.032 C 
HETATM    7  C7  UNL     1      -4.948  14.957  13.485  1.00  0.00     0.007 C 
HETATM    8  C8  UNL     1      -4.034  14.625  14.675  1.00  0.00    -0.006 C 
HETATM    9  C9  UNL     1      -3.405  13.302  14.508  1.00  0.00     0.037 C 
ENDROOT
BRANCH   1  10
HETATM   10  O1  UNL     1      -1.299  12.458  13.878  1.00  0.00    -0.396 OA
ATOM     11  H1  UNL     1      -1.828  12.524  13.091  1.00  0.00     0.210 HD
ENDBRANCH   1  10
BRANCH   5  12
HETATM   12  O2  UNL     1      -2.785  17.822  13.635  1.00  0.00    -0.395 OA
ATOM     13  H2  UNL     1      -3.134  18.701  13.724  1.00  0.00     0.210 HD
ENDBRANCH   5  12
TORSDOF 2
ENDMDL
