MODEL 1
REMARK VINA RESULT: -5.717268146      0.000      0.000
REMARK  2 active torsions:
REMARK  status: ('A' for Active; 'I' for Inactive)
REMARK    1  A    between atoms: C3_7  and  N2_8 
REMARK    2  A    between atoms: N2_8  and  C4_10 
ROOT
HETATM    1  N2  UNL     1     -15.566  13.181   5.394  1.00  0.00    -0.343 N 
ATOM      2  H2  UNL     1     -15.378  12.760   6.304  1.00  0.00     0.163 HD
ENDROOT
BRANCH   1   3
HETATM    3  C3  UNL     1     -15.729  14.607   5.283  1.00  0.00     0.287 C 
HETATM    4  N1  UNL     1     -14.496  15.337   5.367  1.00  0.00    -0.053 N 
HETATM    5  C2  UNL     1     -14.979  16.707   5.327  1.00  0.00     0.251 C 
ATOM      6  H12 UNL     1     -13.798  15.098   4.662  1.00  0.00     0.279 HD
ATOM      7  H11 UNL     1     -13.903  15.104   6.163  1.00  0.00     0.279 HD
HETATM    8  C1  UNL     1     -16.132  16.672   6.300  1.00  0.00     0.088 C 
HETATM    9  S1  UNL     1     -15.552  17.293   7.903  1.00  0.00    -0.090 SA
HETATM   10  C7  UNL     1     -16.544  15.208   6.389  1.00  0.00     0.072 C 
ENDBRANCH   1   3
BRANCH   1  11
HETATM   11  C4  UNL     1     -15.660  12.424   4.333  1.00  0.00     0.147 A 
HETATM   12  N3  UNL     1     -16.326  11.277   4.201  1.00  0.00    -0.344 N 
HETATM   13  C5  UNL     1     -16.300  10.665   3.057  1.00  0.00     0.121 A 
ATOM     14  H3  UNL     1     -16.847  10.887   4.986  1.00  0.00     0.167 HD
HETATM   15  C6  UNL     1     -15.586  11.227   2.032  1.00  0.00     0.093 A 
HETATM   16 CL1  UNL     1     -15.362  10.641   0.378  1.00  0.00    -0.075 Cl
HETATM   17  S2  UNL     1     -14.970  12.650   2.787  1.00  0.00    -0.041 SA
ENDBRANCH   1  11
TORSDOF 2
ENDMDL
MODEL 2
REMARK VINA RESULT: -5.568015374      3.305      6.036
REMARK  2 active torsions:
REMARK  status: ('A' for Active; 'I' for Inactive)
REMARK    1  A    between atoms: C3_7  and  N2_8 
REMARK    2  A    between atoms: N2_8  and  C4_10 
ROOT
HETATM    1  N2  UNL     1     -14.645  13.486   5.353  1.00  0.00    -0.343 N 
ATOM      2  H2  UNL     1     -13.755  12.999   5.452  1.00  0.00     0.163 HD
ENDROOT
BRANCH   1   3
HETATM    3  C3  UNL     1     -15.644  12.980   4.448  1.00  0.00     0.287 C 
HETATM    4  N1  UNL     1     -15.980  11.603   4.672  1.00  0.00    -0.053 N 
HETATM    5  C2  UNL     1     -16.904  11.360   3.577  1.00  0.00     0.251 C 
ATOM      6  H12 UNL     1     -16.336  11.385   5.603  1.00  0.00     0.279 HD
ATOM      7  H11 UNL     1     -15.188  10.963   4.727  1.00  0.00     0.279 HD
HETATM    8  C1  UNL     1     -16.190  11.987   2.405  1.00  0.00     0.088 C 
HETATM    9  S1  UNL     1     -15.319  10.681   1.496  1.00  0.00    -0.090 SA
HETATM   10  C7  UNL     1     -15.214  12.986   3.012  1.00  0.00     0.072 C 
ENDBRANCH   1   3
BRANCH   1  11
HETATM   11  C4  UNL     1     -14.876  14.569   6.048  1.00  0.00     0.147 A 
HETATM   12  N3  UNL     1     -14.362  14.908   7.231  1.00  0.00    -0.344 N 
HETATM   13  C5  UNL     1     -14.716  16.036   7.768  1.00  0.00     0.121 A 
ATOM     14  H3  UNL     1     -13.702  14.292   7.706  1.00  0.00     0.167 HD
HETATM   15  C6  UNL     1     -15.605  16.830   7.093  1.00  0.00     0.093 A 
HETATM   16 CL1  UNL     1     -16.270  18.401   7.558  1.00  0.00    -0.075 Cl
HETATM   17  S2  UNL     1     -15.896  15.888   5.678  1.00  0.00    -0.041 SA
ENDBRANCH   1  11
TORSDOF 2
ENDMDL
MODEL 3
REMARK VINA RESULT: -5.507867966      4.256      6.585
REMARK  2 active torsions:
REMARK  status: ('A' for Active; 'I' for Inactive)
REMARK    1  A    between atoms: C3_7  and  N2_8 
REMARK    2  A    between atoms: N2_8  and  C4_10 
ROOT
HETATM    1  N2  UNL     1     -14.818  15.751   6.326  1.00  0.00    -0.343 N 
ATOM      2  H2  UNL     1     -14.821  16.523   5.661  1.00  0.00     0.163 HD
ENDROOT
BRANCH   1   3
HETATM    3  C3  UNL     1     -15.028  14.404   5.863  1.00  0.00     0.287 C 
HETATM    4  N1  UNL     1     -13.817  13.718   5.514  1.00  0.00    -0.053 N 
HETATM    5  C2  UNL     1     -14.343  12.464   5.003  1.00  0.00     0.251 C 
ATOM      6  H12 UNL     1     -13.130  13.632   6.264  1.00  0.00     0.279 HD
ATOM      7  H11 UNL     1     -13.195  14.223   4.881  1.00  0.00     0.279 HD
HETATM    8  C1  UNL     1     -15.467  12.925   4.109  1.00  0.00     0.088 C 
HETATM    9  S1  UNL     1     -14.864  12.963   2.398  1.00  0.00    -0.090 SA
HETATM   10  C7  UNL     1     -15.831  14.320   4.600  1.00  0.00     0.072 C 
ENDBRANCH   1   3
BRANCH   1  11
HETATM   11  C4  UNL     1     -14.624  15.986   7.597  1.00  0.00     0.147 A 
HETATM   12  N3  UNL     1     -15.124  15.320   8.640  1.00  0.00    -0.344 N 
HETATM   13  C5  UNL     1     -14.814  15.708   9.838  1.00  0.00     0.121 A 
ATOM     14  H3  UNL     1     -15.739  14.519   8.496  1.00  0.00     0.167 HD
HETATM   15  C6  UNL     1     -13.984  16.790   9.980  1.00  0.00     0.093 A 
HETATM   16 CL1  UNL     1     -13.388  17.548  11.462  1.00  0.00    -0.075 Cl
HETATM   17  S2  UNL     1     -13.683  17.205   8.334  1.00  0.00    -0.041 SA
ENDBRANCH   1  11
TORSDOF 2
ENDMDL
MODEL 4
REMARK VINA RESULT: -5.491403711      3.581      6.097
REMARK  2 active torsions:
REMARK  status: ('A' for Active; 'I' for Inactive)
REMARK    1  A    between atoms: C3_7  and  N2_8 
REMARK    2  A    between atoms: N2_8  and  C4_10 
ROOT
HETATM    1  N2  UNL     1     -15.943  14.044   5.986  1.00  0.00    -0.343 N 
ATOM      2  H2  UNL     1     -16.621  13.456   6.469  1.00  0.00     0.163 HD
ENDROOT
BRANCH   1   3
HETATM    3  C3  UNL     1     -15.477  13.674   4.675  1.00  0.00     0.287 C 
HETATM    4  N1  UNL     1     -16.473  13.803   3.651  1.00  0.00    -0.053 N 
HETATM    5  C2  UNL     1     -15.760  13.278   2.499  1.00  0.00     0.251 C 
ATOM      6  H12 UNL     1     -16.864  14.738   3.535  1.00  0.00     0.279 HD
ATOM      7  H11 UNL     1     -17.369  13.357   3.853  1.00  0.00     0.279 HD
HETATM    8  C1  UNL     1     -15.123  12.028   3.056  1.00  0.00     0.088 C 
HETATM    9  S1  UNL     1     -16.164  10.607   2.618  1.00  0.00    -0.090 SA
HETATM   10  C7  UNL     1     -15.073  12.234   4.564  1.00  0.00     0.072 C 
ENDBRANCH   1   3
BRANCH   1  11
HETATM   11  C4  UNL     1     -15.499  15.132   6.559  1.00  0.00     0.147 A 
HETATM   12  N3  UNL     1     -14.625  15.231   7.562  1.00  0.00    -0.344 N 
HETATM   13  C5  UNL     1     -14.305  16.410   7.999  1.00  0.00     0.121 A 
ATOM     14  H3  UNL     1     -14.215  14.395   7.977  1.00  0.00     0.167 HD
HETATM   15  C6  UNL     1     -14.882  17.505   7.409  1.00  0.00     0.093 A 
HETATM   16 CL1  UNL     1     -14.652  19.219   7.778  1.00  0.00    -0.075 Cl
HETATM   17  S2  UNL     1     -15.885  16.760   6.220  1.00  0.00    -0.041 SA
ENDBRANCH   1  11
TORSDOF 2
ENDMDL
MODEL 5
REMARK VINA RESULT: -5.398608390      1.267      1.416
REMARK  2 active torsions:
REMARK  status: ('A' for Active; 'I' for Inactive)
REMARK    1  A    between atoms: C3_7  and  N2_8 
REMARK    2  A    between atoms: N2_8  and  C4_10 
ROOT
HETATM    1  N2  UNL     1     -17.114  13.997   4.755  1.00  0.00    -0.343 N 
ATOM      2  H2  UNL     1     -18.096  14.251   4.856  1.00  0.00     0.163 HD
ENDROOT
BRANCH   1   3
HETATM    3  C3  UNL     1     -16.113  14.681   5.530  1.00  0.00     0.287 C 
HETATM    4  N1  UNL     1     -16.481  14.879   6.903  1.00  0.00    -0.053 N 
HETATM    5  C2  UNL     1     -15.354  15.659   7.385  1.00  0.00     0.251 C 
ATOM      6  H12 UNL     1     -16.682  14.029   7.429  1.00  0.00     0.279 HD
ATOM      7  H11 UNL     1     -17.399  15.297   7.054  1.00  0.00     0.279 HD
HETATM    8  C1  UNL     1     -15.176  16.683   6.291  1.00  0.00     0.088 C 
HETATM    9  S1  UNL     1     -16.003  18.216   6.797  1.00  0.00    -0.090 SA
HETATM   10  C7  UNL     1     -15.836  16.078   5.058  1.00  0.00     0.072 C 
ENDBRANCH   1   3
BRANCH   1  11
HETATM   11  C4  UNL     1     -16.768  13.051   3.923  1.00  0.00     0.147 A 
HETATM   12  N3  UNL     1     -17.032  11.746   4.009  1.00  0.00    -0.344 N 
HETATM   13  C5  UNL     1     -16.599  10.956   3.075  1.00  0.00     0.121 A 
ATOM     14  H3  UNL     1     -17.564  11.376   4.796  1.00  0.00     0.167 HD
HETATM   15  C6  UNL     1     -15.887  11.499   2.038  1.00  0.00     0.093 A 
HETATM   16 CL1  UNL     1     -15.175  10.694   0.634  1.00  0.00    -0.075 Cl
HETATM   17  S2  UNL     1     -15.876  13.168   2.471  1.00  0.00    -0.041 SA
ENDBRANCH   1  11
TORSDOF 2
ENDMDL
