MODEL 1
REMARK VINA RESULT: -6.906382685      0.000      0.000
REMARK  4 active torsions:
REMARK  status: ('A' for Active; 'I' for Inactive)
REMARK    1  A    between atoms: N1_1  and  C1_4 
REMARK    2  A    between atoms: C2_5  and  C3_6 
REMARK    3  A    between atoms: C4_8  and  O1_9 
REMARK    4  A    between atoms: C5_11  and  O2_12 
ROOT
HETATM    1  C1  UNL     1     -15.716  16.606   5.747  1.00  0.00     0.112 A 
HETATM    2  C2  UNL     1     -15.742  16.260   4.388  1.00  0.00     0.035 A 
HETATM    3  C4  UNL     1     -15.001  16.956   3.464  1.00  0.00     0.112 A 
HETATM    4  C5  UNL     1     -14.228  18.018   3.945  1.00  0.00     0.123 A 
HETATM    5  C6  UNL     1     -14.241  18.308   5.270  1.00  0.00     0.054 A 
HETATM    6  N2  UNL     1     -14.969  17.624   6.179  1.00  0.00    -0.329 N 
HETATM    7  C7  UNL     1     -14.757  18.188   7.508  1.00  0.00     0.092 C 
HETATM    8  C8  UNL     1     -15.334  19.574   7.629  1.00  0.00     0.026 C 
HETATM    9  C9  UNL     1     -14.571  20.322   6.528  1.00  0.00     0.013 C 
HETATM   10  C10 UNL     1     -13.525  19.377   6.065  1.00  0.00     0.041 C 
HETATM   11  C11 UNL     1     -13.268  18.557   7.341  1.00  0.00     0.036 C 
ENDROOT
BRANCH   1  12
HETATM   12  N1  UNL     1     -16.446  15.885   6.519  1.00  0.00    -0.385 N 
ATOM     13  H12 UNL     1     -16.077  15.347   7.303  1.00  0.00     0.157 HD
ATOM     14  H11 UNL     1     -17.443  15.876   6.302  1.00  0.00     0.157 HD
ENDBRANCH   1  12
BRANCH   2  15
HETATM   15  C3  UNL     1     -16.580  15.125   3.936  1.00  0.00     0.160 C 
HETATM   16 CL1  UNL     1     -18.192  15.790   3.540  1.00  0.00    -0.125 Cl
ENDBRANCH   2  15
BRANCH   3  17
HETATM   17  O1  UNL     1     -14.970  16.682   2.106  1.00  0.00    -0.357 OA
ATOM     18  H1  UNL     1     -14.281  16.958   1.513  1.00  0.00     0.217 HD
ENDBRANCH   3  17
BRANCH   4  19
HETATM   19  O2  UNL     1     -13.447  18.778   3.088  1.00  0.00    -0.356 OA
ATOM     20  H2  UNL     1     -12.998  19.557   3.396  1.00  0.00     0.218 HD
ENDBRANCH   4  19
TORSDOF 4
ENDMDL
MODEL 2
REMARK VINA RESULT: -6.799178823      1.175      1.175
REMARK  4 active torsions:
REMARK  status: ('A' for Active; 'I' for Inactive)
REMARK    1  A    between atoms: N1_1  and  C1_4 
REMARK    2  A    between atoms: C2_5  and  C3_6 
REMARK    3  A    between atoms: C4_8  and  O1_9 
REMARK    4  A    between atoms: C5_11  and  O2_12 
ROOT
HETATM    1  C1  UNL     1     -15.258  16.272   5.614  1.00  0.00     0.112 A 
HETATM    2  C2  UNL     1     -15.197  15.953   4.249  1.00  0.00     0.035 A 
HETATM    3  C4  UNL     1     -14.570  16.783   3.354  1.00  0.00     0.112 A 
HETATM    4  C5  UNL     1     -14.003  17.955   3.869  1.00  0.00     0.123 A 
HETATM    5  C6  UNL     1     -14.092  18.213   5.197  1.00  0.00     0.054 A 
HETATM    6  N2  UNL     1     -14.709  17.395   6.079  1.00  0.00    -0.329 N 
HETATM    7  C7  UNL     1     -14.624  17.961   7.421  1.00  0.00     0.092 C 
HETATM    8  C8  UNL     1     -15.435  19.224   7.549  1.00  0.00     0.026 C 
HETATM    9  C9  UNL     1     -14.793  20.114   6.478  1.00  0.00     0.013 C 
HETATM   10  C10 UNL     1     -13.590  19.374   6.025  1.00  0.00     0.041 C 
HETATM   11  C11 UNL     1     -13.219  18.587   7.293  1.00  0.00     0.036 C 
ENDROOT
BRANCH   1  12
HETATM   12  N1  UNL     1     -15.867  15.420   6.358  1.00  0.00    -0.385 N 
ATOM     13  H12 UNL     1     -16.716  14.931   6.074  1.00  0.00     0.157 HD
ATOM     14  H11 UNL     1     -15.448  15.252   7.272  1.00  0.00     0.157 HD
ENDBRANCH   1  12
BRANCH   2  15
HETATM   15  C3  UNL     1     -15.815  14.698   3.761  1.00  0.00     0.160 C 
HETATM   16 CL1  UNL     1     -14.508  13.485   3.635  1.00  0.00    -0.125 Cl
ENDBRANCH   2  15
BRANCH   3  17
HETATM   17  O1  UNL     1     -14.464  16.545   1.993  1.00  0.00    -0.357 OA
ATOM     18  H1  UNL     1     -14.660  17.180   1.314  1.00  0.00     0.217 HD
ENDBRANCH   3  17
BRANCH   4  19
HETATM   19  O2  UNL     1     -13.349  18.855   3.042  1.00  0.00    -0.356 OA
ATOM     20  H2  UNL     1     -12.403  18.936   3.058  1.00  0.00     0.218 HD
ENDBRANCH   4  19
TORSDOF 4
ENDMDL
MODEL 3
REMARK VINA RESULT: -6.776602916      2.398      2.854
REMARK  4 active torsions:
REMARK  status: ('A' for Active; 'I' for Inactive)
REMARK    1  A    between atoms: N1_1  and  C1_4 
REMARK    2  A    between atoms: C2_5  and  C3_6 
REMARK    3  A    between atoms: C4_8  and  O1_9 
REMARK    4  A    between atoms: C5_11  and  O2_12 
ROOT
HETATM    1  C1  UNL     1     -16.523  17.541   5.211  1.00  0.00     0.112 A 
HETATM    2  C2  UNL     1     -16.670  16.148   5.115  1.00  0.00     0.035 A 
HETATM    3  C4  UNL     1     -15.991  15.303   5.958  1.00  0.00     0.112 A 
HETATM    4  C5  UNL     1     -15.152  15.898   6.907  1.00  0.00     0.123 A 
HETATM    5  C6  UNL     1     -15.049  17.250   6.955  1.00  0.00     0.054 A 
HETATM    6  N2  UNL     1     -15.717  18.081   6.125  1.00  0.00    -0.329 N 
HETATM    7  C7  UNL     1     -15.385  19.467   6.443  1.00  0.00     0.092 C 
HETATM    8  C8  UNL     1     -13.951  19.789   6.116  1.00  0.00     0.026 C 
HETATM    9  C9  UNL     1     -13.200  18.775   6.988  1.00  0.00     0.013 C 
HETATM   10  C10 UNL     1     -14.237  18.158   7.851  1.00  0.00     0.041 C 
HETATM   11  C11 UNL     1     -15.256  19.303   7.972  1.00  0.00     0.036 C 
ENDROOT
BRANCH   1  12
HETATM   12  N1  UNL     1     -17.208  18.231   4.372  1.00  0.00    -0.385 N 
ATOM     13  H12 UNL     1     -18.065  17.895   3.933  1.00  0.00     0.157 HD
ATOM     14  H11 UNL     1     -16.841  19.159   4.160  1.00  0.00     0.157 HD
ENDBRANCH   1  12
BRANCH   2  15
HETATM   15  C3  UNL     1     -17.573  15.576   4.089  1.00  0.00     0.160 C 
HETATM   16 CL1  UNL     1     -16.558  15.143   2.682  1.00  0.00    -0.125 Cl
ENDBRANCH   2  15
BRANCH   3  17
HETATM   17  O1  UNL     1     -16.078  13.921   5.931  1.00  0.00    -0.357 OA
ATOM     18  H1  UNL     1     -16.636  13.423   5.346  1.00  0.00     0.217 HD
ENDBRANCH   3  17
BRANCH   4  19
HETATM   19  O2  UNL     1     -14.427  15.127   7.802  1.00  0.00    -0.356 OA
ATOM     20  H2  UNL     1     -14.713  14.253   8.039  1.00  0.00     0.218 HD
ENDBRANCH   4  19
TORSDOF 4
ENDMDL
MODEL 4
REMARK VINA RESULT: -6.687829168      4.330      7.334
REMARK  4 active torsions:
REMARK  status: ('A' for Active; 'I' for Inactive)
REMARK    1  A    between atoms: N1_1  and  C1_4 
REMARK    2  A    between atoms: C2_5  and  C3_6 
REMARK    3  A    between atoms: C4_8  and  O1_9 
REMARK    4  A    between atoms: C5_11  and  O2_12 
ROOT
HETATM    1  C1  UNL     1     -16.162  13.907   2.011  1.00  0.00     0.112 A 
HETATM    2  C2  UNL     1     -16.156  14.388   3.329  1.00  0.00     0.035 A 
HETATM    3  C4  UNL     1     -16.070  13.530   4.397  1.00  0.00     0.112 A 
HETATM    4  C5  UNL     1     -15.992  12.163   4.105  1.00  0.00     0.123 A 
HETATM    5  C6  UNL     1     -16.003  11.754   2.812  1.00  0.00     0.054 A 
HETATM    6  N2  UNL     1     -16.087  12.599   1.761  1.00  0.00    -0.329 N 
HETATM    7  C7  UNL     1     -16.071  11.840   0.514  1.00  0.00     0.092 C 
HETATM    8  C8  UNL     1     -17.317  11.011   0.346  1.00  0.00     0.026 C 
HETATM    9  C9  UNL     1     -17.267  10.121   1.595  1.00  0.00     0.013 C 
HETATM   10  C10 UNL     1     -15.936  10.373   2.201  1.00  0.00     0.041 C 
HETATM   11  C11 UNL     1     -15.098  10.729   0.962  1.00  0.00     0.036 C 
ENDROOT
BRANCH   1  12
HETATM   12  N1  UNL     1     -16.244  14.802   1.093  1.00  0.00    -0.385 N 
ATOM     13  H12 UNL     1     -16.887  15.592   1.132  1.00  0.00     0.157 HD
ATOM     14  H11 UNL     1     -15.614  14.679   0.300  1.00  0.00     0.157 HD
ENDBRANCH   1  12
BRANCH   2  15
HETATM   15  C3  UNL     1     -16.240  15.846   3.578  1.00  0.00     0.160 C 
HETATM   16 CL1  UNL     1     -17.945  16.210   3.977  1.00  0.00    -0.125 Cl
ENDBRANCH   2  15
BRANCH   3  17
HETATM   17  O1  UNL     1     -16.058  13.919   5.727  1.00  0.00    -0.357 OA
ATOM     18  H1  UNL     1     -16.038  13.324   6.467  1.00  0.00     0.217 HD
ENDBRANCH   3  17
BRANCH   4  19
HETATM   19  O2  UNL     1     -15.903  11.221   5.118  1.00  0.00    -0.356 OA
ATOM     20  H2  UNL     1     -16.552  11.182   5.809  1.00  0.00     0.218 HD
ENDBRANCH   4  19
TORSDOF 4
ENDMDL
MODEL 5
REMARK VINA RESULT: -6.403963361      3.730      6.867
REMARK  4 active torsions:
REMARK  status: ('A' for Active; 'I' for Inactive)
REMARK    1  A    between atoms: N1_1  and  C1_4 
REMARK    2  A    between atoms: C2_5  and  C3_6 
REMARK    3  A    between atoms: C4_8  and  O1_9 
REMARK    4  A    between atoms: C5_11  and  O2_12 
ROOT
HETATM    1  C1  UNL     1     -16.263  13.406   3.423  1.00  0.00     0.112 A 
HETATM    2  C2  UNL     1     -16.177  14.742   3.006  1.00  0.00     0.035 A 
HETATM    3  C4  UNL     1     -16.269  15.079   1.678  1.00  0.00     0.112 A 
HETATM    4  C5  UNL     1     -16.450  14.028   0.771  1.00  0.00     0.123 A 
HETATM    5  C6  UNL     1     -16.526  12.754   1.230  1.00  0.00     0.054 A 
HETATM    6  N2  UNL     1     -16.436  12.423   2.537  1.00  0.00    -0.329 N 
HETATM    7  C7  UNL     1     -16.560  10.977   2.690  1.00  0.00     0.092 C 
HETATM    8  C8  UNL     1     -15.379  10.248   2.104  1.00  0.00     0.026 C 
HETATM    9  C9  UNL     1     -15.430  10.705   0.641  1.00  0.00     0.013 C 
HETATM   10  C10 UNL     1     -16.711  11.440   0.505  1.00  0.00     0.041 C 
HETATM   11  C11 UNL     1     -17.582  10.736   1.559  1.00  0.00     0.036 C 
ENDROOT
BRANCH   1  12
HETATM   12  N1  UNL     1     -16.166  13.211   4.689  1.00  0.00    -0.385 N 
ATOM     13  H12 UNL     1     -16.955  12.949   5.280  1.00  0.00     0.157 HD
ATOM     14  H11 UNL     1     -15.234  13.334   5.084  1.00  0.00     0.157 HD
ENDBRANCH   1  12
BRANCH   2  15
HETATM   15  C3  UNL     1     -15.986  15.813   4.011  1.00  0.00     0.160 C 
HETATM   16 CL1  UNL     1     -17.597  16.517   4.339  1.00  0.00    -0.125 Cl
ENDBRANCH   2  15
BRANCH   3  17
HETATM   17  O1  UNL     1     -16.194  16.370   1.181  1.00  0.00    -0.357 OA
ATOM     18  H1  UNL     1     -16.140  17.154   1.713  1.00  0.00     0.217 HD
ENDBRANCH   3  17
BRANCH   4  19
HETATM   19  O2  UNL     1     -16.554  14.269  -0.590  1.00  0.00    -0.356 OA
ATOM     20  H2  UNL     1     -15.840  14.062  -1.180  1.00  0.00     0.218 HD
ENDBRANCH   4  19
TORSDOF 4
ENDMDL
