MODEL 1
REMARK VINA RESULT: -6.518362094      0.000      0.000
REMARK  10 active torsions:
REMARK  status: ('A' for Active; 'I' for Inactive)
REMARK    1  A    between atoms: C3_4  and  C4_5 
REMARK    2  A    between atoms: C4_5  and  N2_6 
REMARK    3  A    between atoms: N2_6  and  C5_8 
REMARK    4  A    between atoms: C7_14  and  C8_15 
REMARK    5  A    between atoms: C8_15  and  N5_16 
REMARK    6  A    between atoms: N5_16  and  N6_18 
REMARK    7  A    between atoms: C9_20  and  C10_21 
REMARK    8  A    between atoms: C13_24  and  N7_25 
REMARK    9  A    between atoms: N7_25  and  C14_27 
REMARK   10  A    between atoms: C22_46  and  O2_47 
ROOT
HETATM    1  C5  UNL     1      -9.331   8.459  29.526  1.00  0.00     0.684 A 
HETATM    2  N3  UNL     1     -10.022   7.774  30.439  1.00  0.00    -0.174 N 
ATOM      3  H3  UNL     1      -9.530   7.193  31.117  1.00  0.00     0.186 HD
HETATM    4  C6  UNL     1     -11.386   7.850  30.470  1.00  0.00     0.155 A 
HETATM    5  N4  UNL     1     -12.317   7.274  31.263  1.00  0.00    -0.328 N 
ATOM      6  H4  UNL     1     -12.114   6.637  32.033  1.00  0.00     0.169 HD
HETATM    7  C7  UNL     1     -13.547   7.662  30.891  1.00  0.00     0.103 A 
HETATM    8  N11 UNL     1     -13.378   8.491  29.849  1.00  0.00    -0.337 N 
ATOM      9  H11 UNL     1     -14.133   8.954  29.343  1.00  0.00     0.167 HD
HETATM   10  C19 UNL     1     -12.074   8.627  29.568  1.00  0.00     0.148 A 
HETATM   11  C20 UNL     1     -11.338   9.323  28.635  1.00  0.00     0.292 A 
HETATM   12  O1  UNL     1     -11.954  10.034  27.808  1.00  0.00    -0.265 OA
HETATM   13  N12 UNL     1     -10.003   9.216  28.646  1.00  0.00    -0.150 N 
HETATM   14  C21 UNL     1      -9.251   9.957  27.656  1.00  0.00     0.179 C 
ENDROOT
BRANCH   7  15
HETATM   15  C8  UNL     1     -14.860   7.248  31.508  1.00  0.00     0.215 C 
BRANCH  15  16
HETATM   16  N5  UNL     1     -14.529   6.472  32.688  1.00  0.00    -0.330 N 
ATOM     17  H5  UNL     1     -14.197   5.518  32.543  1.00  0.00     0.180 HD
BRANCH  16  18
HETATM   18  N6  UNL     1     -14.623   6.908  33.956  1.00  0.00    -0.315 N 
HETATM   19  C9  UNL     1     -14.136   7.788  34.676  1.00  0.00     0.118 C 
ATOM     20  H6  UNL     1     -15.295   6.347  34.480  1.00  0.00     0.185 HD
BRANCH  19  21
HETATM   21  C10 UNL     1     -13.158   8.813  34.399  1.00  0.00    -0.019 A 
HETATM   22  C11 UNL     1     -13.539  10.005  33.848  1.00  0.00     0.015 A 
HETATM   23  C12 UNL     1     -12.589  11.003  33.577  1.00  0.00     0.031 A 
HETATM   24  C13 UNL     1     -11.268  10.806  33.857  1.00  0.00     0.049 A 
HETATM   25  C17 UNL     1     -10.883   9.594  34.419  1.00  0.00     0.031 A 
HETATM   26  C18 UNL     1     -11.820   8.626  34.678  1.00  0.00     0.015 A 
BRANCH  24  27
HETATM   27  N7  UNL     1     -10.320  11.825  33.576  1.00  0.00    -0.192 N 
ATOM     28  H7  UNL     1     -10.048  12.465  34.323  1.00  0.00     0.184 HD
BRANCH  27  29
HETATM   29  C14 UNL     1      -9.732  11.983  32.280  1.00  0.00     0.677 C 
HETATM   30  N8  UNL     1     -10.114  12.909  31.477  1.00  0.00    -0.202 N 
HETATM   31  C15 UNL     1      -9.500  13.043  30.174  1.00  0.00     0.373 C 
ATOM     32  H8  UNL     1     -10.853  13.553  31.758  1.00  0.00     0.179 HD
HETATM   33  N9  UNL     1      -8.090  12.801  30.269  1.00  0.00    -0.043 N 
HETATM   34  C16 UNL     1      -7.756  11.551  30.871  1.00  0.00     0.373 C 
ATOM     35  H92 UNL     1      -7.649  12.887  29.353  1.00  0.00     0.281 HD
ATOM     36  H91 UNL     1      -7.627  13.569  30.755  1.00  0.00     0.281 HD
HETATM   37  N10 UNL     1      -8.703  11.100  31.863  1.00  0.00    -0.202 N 
ATOM     38  H10 UNL     1      -8.634  10.162  32.257  1.00  0.00     0.179 HD
ENDBRANCH  27  29
ENDBRANCH  24  27
ENDBRANCH  19  21
ENDBRANCH  16  18
ENDBRANCH  15  16
ENDBRANCH   7  15
BRANCH   1  39
HETATM   39  N2  UNL     1      -8.059   8.424  29.447  1.00  0.00    -0.221 N 
ATOM     40  H2  UNL     1      -7.585   8.928  28.697  1.00  0.00     0.178 HD
BRANCH  39  41
HETATM   41  C4  UNL     1      -7.288   7.682  30.402  1.00  0.00     0.182 C 
BRANCH  41  42
HETATM   42  C3  UNL     1      -6.673   6.472  29.839  1.00  0.00     0.029 A 
HETATM   43  C2  UNL     1      -5.335   6.161  29.733  1.00  0.00     0.122 A 
HETATM   44  N1  UNL     1      -5.220   4.953  29.148  1.00  0.00    -0.305 N 
HETATM   45  C1  UNL     1      -3.968   4.253  28.847  1.00  0.00     0.177 C 
HETATM   46  N13 UNL     1      -6.451   4.514  28.892  1.00  0.00    -0.278 N 
HETATM   47  C22 UNL     1      -7.374   5.416  29.300  1.00  0.00     0.164 A 
ATOM     48  H13 UNL     1      -6.667   3.621  28.449  1.00  0.00     0.189 HD
BRANCH  47  49
HETATM   49  O2  UNL     1      -8.755   5.285  29.191  1.00  0.00    -0.345 OA
ATOM     50  H2  UNL     1      -9.377   5.126  29.891  1.00  0.00     0.219 HD
ENDBRANCH  47  49
ENDBRANCH  41  42
ENDBRANCH  39  41
ENDBRANCH   1  39
TORSDOF 10
ENDMDL
MODEL 2
REMARK VINA RESULT: -6.428580179      1.813      2.566
REMARK  10 active torsions:
REMARK  status: ('A' for Active; 'I' for Inactive)
REMARK    1  A    between atoms: C3_4  and  C4_5 
REMARK    2  A    between atoms: C4_5  and  N2_6 
REMARK    3  A    between atoms: N2_6  and  C5_8 
REMARK    4  A    between atoms: C7_14  and  C8_15 
REMARK    5  A    between atoms: C8_15  and  N5_16 
REMARK    6  A    between atoms: N5_16  and  N6_18 
REMARK    7  A    between atoms: C9_20  and  C10_21 
REMARK    8  A    between atoms: C13_24  and  N7_25 
REMARK    9  A    between atoms: N7_25  and  C14_27 
REMARK   10  A    between atoms: C22_46  and  O2_47 
ROOT
HETATM    1  C5  UNL     1     -10.067   7.002  28.475  1.00  0.00     0.684 A 
HETATM    2  N3  UNL     1     -10.590   6.671  29.656  1.00  0.00    -0.174 N 
ATOM      3  H3  UNL     1     -10.241   5.853  30.155  1.00  0.00     0.186 HD
HETATM    4  C6  UNL     1     -11.592   7.424  30.200  1.00  0.00     0.155 A 
HETATM    5  N4  UNL     1     -12.292   7.321  31.352  1.00  0.00    -0.328 N 
ATOM      6  H4  UNL     1     -12.159   6.593  32.053  1.00  0.00     0.169 HD
HETATM    7  C7  UNL     1     -13.190   8.315  31.439  1.00  0.00     0.103 A 
HETATM    8  N11 UNL     1     -13.046   9.048  30.324  1.00  0.00    -0.337 N 
ATOM      9  H11 UNL     1     -13.591   9.880  30.098  1.00  0.00     0.167 HD
HETATM   10  C19 UNL     1     -12.081   8.533  29.549  1.00  0.00     0.148 A 
HETATM   11  C20 UNL     1     -11.524   8.852  28.331  1.00  0.00     0.292 A 
HETATM   12  O1  UNL     1     -11.961   9.859  27.728  1.00  0.00    -0.265 OA
HETATM   13  N12 UNL     1     -10.545   8.083  27.839  1.00  0.00    -0.150 N 
HETATM   14  C21 UNL     1      -9.975   8.439  26.558  1.00  0.00     0.179 C 
ENDROOT
BRANCH   7  15
HETATM   15  C8  UNL     1     -14.172   8.562  32.558  1.00  0.00     0.215 C 
BRANCH  15  16
HETATM   16  N5  UNL     1     -13.779   7.687  33.646  1.00  0.00    -0.330 N 
ATOM     17  H5  UNL     1     -13.989   6.694  33.547  1.00  0.00     0.180 HD
BRANCH  16  18
HETATM   18  N6  UNL     1     -13.160   8.079  34.773  1.00  0.00    -0.315 N 
HETATM   19  C9  UNL     1     -12.226   8.816  35.114  1.00  0.00     0.118 C 
ATOM     20  H6  UNL     1     -13.586   7.639  35.589  1.00  0.00     0.185 HD
BRANCH  19  21
HETATM   21  C10 UNL     1     -11.330   9.640  34.338  1.00  0.00    -0.019 A 
HETATM   22  C11 UNL     1     -10.081   9.192  34.013  1.00  0.00     0.015 A 
HETATM   23  C12 UNL     1      -9.207   9.992  33.258  1.00  0.00     0.031 A 
HETATM   24  C13 UNL     1      -9.586  11.233  32.834  1.00  0.00     0.049 A 
HETATM   25  C17 UNL     1     -10.859  11.686  33.164  1.00  0.00     0.031 A 
HETATM   26  C18 UNL     1     -11.703  10.895  33.903  1.00  0.00     0.015 A 
BRANCH  24  27
HETATM   27  N7  UNL     1      -8.692  12.030  32.073  1.00  0.00    -0.192 N 
ATOM     28  H7  UNL     1      -7.959  12.549  32.558  1.00  0.00     0.184 HD
BRANCH  27  29
HETATM   29  C14 UNL     1      -8.784  12.131  30.648  1.00  0.00     0.677 C 
HETATM   30  N8  UNL     1      -8.486  11.143  29.883  1.00  0.00    -0.202 N 
HETATM   31  C15 UNL     1      -8.590  11.277  28.446  1.00  0.00     0.373 C 
ATOM     32  H8  UNL     1      -8.175  10.262  30.289  1.00  0.00     0.179 HD
HETATM   33  N9  UNL     1      -9.757  12.037  28.107  1.00  0.00    -0.043 N 
HETATM   34  C16 UNL     1      -9.828  13.309  28.750  1.00  0.00     0.373 C 
ATOM     35  H92 UNL     1      -9.836  12.142  27.095  1.00  0.00     0.281 HD
ATOM     36  H91 UNL     1     -10.602  11.495  28.289  1.00  0.00     0.281 HD
HETATM   37  N10 UNL     1      -9.212  13.347  30.056  1.00  0.00    -0.202 N 
ATOM     38  H10 UNL     1      -9.088  14.234  30.544  1.00  0.00     0.179 HD
ENDBRANCH  27  29
ENDBRANCH  24  27
ENDBRANCH  19  21
ENDBRANCH  16  18
ENDBRANCH  15  16
ENDBRANCH   7  15
BRANCH   1  39
HETATM   39  N2  UNL     1      -9.134   6.335  27.917  1.00  0.00    -0.221 N 
ATOM     40  H2  UNL     1      -9.211   6.086  26.930  1.00  0.00     0.178 HD
BRANCH  39  41
HETATM   41  C4  UNL     1      -7.977   5.933  28.663  1.00  0.00     0.182 C 
BRANCH  41  42
HETATM   42  C3  UNL     1      -7.183   7.065  29.159  1.00  0.00     0.029 A 
HETATM   43  C2  UNL     1      -6.952   7.443  30.464  1.00  0.00     0.122 A 
HETATM   44  N1  UNL     1      -6.174   8.543  30.461  1.00  0.00    -0.305 N 
HETATM   45  C1  UNL     1      -5.696   9.267  31.642  1.00  0.00     0.177 C 
HETATM   46  N13 UNL     1      -5.920   8.850  29.191  1.00  0.00    -0.278 N 
HETATM   47  C22 UNL     1      -6.520   7.968  28.357  1.00  0.00     0.164 A 
ATOM     48  H13 UNL     1      -5.351   9.640  28.888  1.00  0.00     0.189 HD
BRANCH  47  49
HETATM   49  O2  UNL     1      -6.468   7.984  26.967  1.00  0.00    -0.345 OA
ATOM     50  H2  UNL     1      -6.166   8.691  26.409  1.00  0.00     0.219 HD
ENDBRANCH  47  49
ENDBRANCH  41  42
ENDBRANCH  39  41
ENDBRANCH   1  39
TORSDOF 10
ENDMDL
MODEL 3
REMARK VINA RESULT: -6.392097092      1.534      2.150
REMARK  10 active torsions:
REMARK  status: ('A' for Active; 'I' for Inactive)
REMARK    1  A    between atoms: C3_4  and  C4_5 
REMARK    2  A    between atoms: C4_5  and  N2_6 
REMARK    3  A    between atoms: N2_6  and  C5_8 
REMARK    4  A    between atoms: C7_14  and  C8_15 
REMARK    5  A    between atoms: C8_15  and  N5_16 
REMARK    6  A    between atoms: N5_16  and  N6_18 
REMARK    7  A    between atoms: C9_20  and  C10_21 
REMARK    8  A    between atoms: C13_24  and  N7_25 
REMARK    9  A    between atoms: N7_25  and  C14_27 
REMARK   10  A    between atoms: C22_46  and  O2_47 
ROOT
HETATM    1  C5  UNL     1      -9.725   6.668  28.653  1.00  0.00     0.684 A 
HETATM    2  N3  UNL     1     -10.543   6.192  29.593  1.00  0.00    -0.174 N 
ATOM      3  H3  UNL     1     -10.377   5.267  29.991  1.00  0.00     0.186 HD
HETATM    4  C6  UNL     1     -11.604   6.938  30.025  1.00  0.00     0.155 A 
HETATM    5  N4  UNL     1     -12.573   6.708  30.939  1.00  0.00    -0.328 N 
ATOM      6  H4  UNL     1     -12.659   5.858  31.496  1.00  0.00     0.169 HD
HETATM    7  C7  UNL     1     -13.405   7.759  31.007  1.00  0.00     0.103 A 
HETATM    8  N11 UNL     1     -12.946   8.657  30.121  1.00  0.00    -0.337 N 
ATOM      9  H11 UNL     1     -13.369   9.567  29.940  1.00  0.00     0.167 HD
HETATM   10  C19 UNL     1     -11.851   8.187  29.506  1.00  0.00     0.148 A 
HETATM   11  C20 UNL     1     -10.992   8.655  28.537  1.00  0.00     0.292 A 
HETATM   12  O1  UNL     1     -11.206   9.792  28.058  1.00  0.00    -0.265 OA
HETATM   13  N12 UNL     1      -9.967   7.887  28.147  1.00  0.00    -0.150 N 
HETATM   14  C21 UNL     1      -9.078   8.400  27.128  1.00  0.00     0.179 C 
ENDROOT
BRANCH   7  15
HETATM   15  C8  UNL     1     -14.617   7.907  31.893  1.00  0.00     0.215 C 
BRANCH  15  16
HETATM   16  N5  UNL     1     -14.420   7.001  33.008  1.00  0.00    -0.330 N 
ATOM     17  H5  UNL     1     -14.452   6.001  32.811  1.00  0.00     0.180 HD
BRANCH  16  18
HETATM   18  N6  UNL     1     -14.198   7.373  34.281  1.00  0.00    -0.315 N 
HETATM   19  C9  UNL     1     -13.427   8.105  34.915  1.00  0.00     0.118 C 
ATOM     20  H6  UNL     1     -14.860   6.918  34.909  1.00  0.00     0.185 HD
BRANCH  19  21
HETATM   21  C10 UNL     1     -12.335   8.943  34.482  1.00  0.00    -0.019 A 
HETATM   22  C11 UNL     1     -11.041   8.535  34.640  1.00  0.00     0.015 A 
HETATM   23  C12 UNL     1      -9.977   9.349  34.219  1.00  0.00     0.031 A 
HETATM   24  C13 UNL     1     -10.212  10.565  33.644  1.00  0.00     0.049 A 
HETATM   25  C17 UNL     1     -11.530  10.978  33.482  1.00  0.00     0.031 A 
HETATM   26  C18 UNL     1     -12.561  10.173  33.898  1.00  0.00     0.015 A 
BRANCH  24  27
HETATM   27  N7  UNL     1      -9.126  11.377  33.225  1.00  0.00    -0.192 N 
ATOM     28  H7  UNL     1      -8.638  11.945  33.919  1.00  0.00     0.184 HD
BRANCH  27  29
HETATM   29  C14 UNL     1      -8.693  11.427  31.861  1.00  0.00     0.677 C 
HETATM   30  N8  UNL     1      -8.333  10.368  31.230  1.00  0.00    -0.202 N 
HETATM   31  C15 UNL     1      -7.900  10.451  29.852  1.00  0.00     0.373 C 
ATOM     32  H8  UNL     1      -8.351   9.464  31.703  1.00  0.00     0.179 HD
HETATM   33  N9  UNL     1      -8.714  11.391  29.139  1.00  0.00    -0.043 N 
HETATM   34  C16 UNL     1      -8.770  12.684  29.742  1.00  0.00     0.373 C 
ATOM     35  H92 UNL     1      -8.412  11.462  28.167  1.00  0.00     0.281 HD
ATOM     36  H91 UNL     1      -9.653  11.019  29.000  1.00  0.00     0.281 HD
HETATM   37  N10 UNL     1      -8.655  12.672  31.181  1.00  0.00    -0.202 N 
ATOM     38  H10 UNL     1      -8.549  13.543  31.700  1.00  0.00     0.179 HD
ENDBRANCH  27  29
ENDBRANCH  24  27
ENDBRANCH  19  21
ENDBRANCH  16  18
ENDBRANCH  15  16
ENDBRANCH   7  15
BRANCH   1  39
HETATM   39  N2  UNL     1      -8.724   6.016  28.209  1.00  0.00    -0.221 N 
ATOM     40  H2  UNL     1      -8.624   5.865  27.204  1.00  0.00     0.178 HD
BRANCH  39  41
HETATM   41  C4  UNL     1      -7.736   5.493  29.107  1.00  0.00     0.182 C 
BRANCH  41  42
HETATM   42  C3  UNL     1      -6.750   6.496  29.534  1.00  0.00     0.029 A 
HETATM   43  C2  UNL     1      -6.483   6.946  30.808  1.00  0.00     0.122 A 
HETATM   44  N1  UNL     1      -5.506   7.872  30.741  1.00  0.00    -0.305 N 
HETATM   45  C1  UNL     1      -4.926   8.602  31.872  1.00  0.00     0.177 C 
HETATM   46  N13 UNL     1      -5.166   8.002  29.460  1.00  0.00    -0.278 N 
HETATM   47  C22 UNL     1      -5.905   7.175  28.684  1.00  0.00     0.164 A 
ATOM     48  H13 UNL     1      -4.448   8.637  29.113  1.00  0.00     0.189 HD
BRANCH  47  49
HETATM   49  O2  UNL     1      -5.817   7.048  27.301  1.00  0.00    -0.345 OA
ATOM     50  H2  UNL     1      -5.336   7.605  26.700  1.00  0.00     0.219 HD
ENDBRANCH  47  49
ENDBRANCH  41  42
ENDBRANCH  39  41
ENDBRANCH   1  39
TORSDOF 10
ENDMDL
MODEL 4
REMARK VINA RESULT: -6.355664661      1.268      1.688
REMARK  10 active torsions:
REMARK  status: ('A' for Active; 'I' for Inactive)
REMARK    1  A    between atoms: C3_4  and  C4_5 
REMARK    2  A    between atoms: C4_5  and  N2_6 
REMARK    3  A    between atoms: N2_6  and  C5_8 
REMARK    4  A    between atoms: C7_14  and  C8_15 
REMARK    5  A    between atoms: C8_15  and  N5_16 
REMARK    6  A    between atoms: N5_16  and  N6_18 
REMARK    7  A    between atoms: C9_20  and  C10_21 
REMARK    8  A    between atoms: C13_24  and  N7_25 
REMARK    9  A    between atoms: N7_25  and  C14_27 
REMARK   10  A    between atoms: C22_46  and  O2_47 
ROOT
HETATM    1  C5  UNL     1     -10.662   8.385  28.637  1.00  0.00     0.684 A 
HETATM    2  N3  UNL     1     -10.965   7.846  29.819  1.00  0.00    -0.174 N 
ATOM      3  H3  UNL     1     -10.314   7.201  30.265  1.00  0.00     0.186 HD
HETATM    4  C6  UNL     1     -12.145   8.158  30.435  1.00  0.00     0.155 A 
HETATM    5  N4  UNL     1     -12.698   7.766  31.605  1.00  0.00    -0.328 N 
ATOM      6  H4  UNL     1     -12.269   7.117  32.264  1.00  0.00     0.169 HD
HETATM    7  C7  UNL     1     -13.893   8.354  31.773  1.00  0.00     0.103 A 
HETATM    8  N11 UNL     1     -14.086   9.124  30.689  1.00  0.00    -0.337 N 
ATOM      9  H11 UNL     1     -14.910   9.701  30.524  1.00  0.00     0.167 HD
HETATM   10  C19 UNL     1     -13.041   9.026  29.856  1.00  0.00     0.148 A 
HETATM   11  C20 UNL     1     -12.704   9.568  28.636  1.00  0.00     0.292 A 
HETATM   12  O1  UNL     1     -13.511  10.360  28.099  1.00  0.00    -0.265 OA
HETATM   13  N12 UNL     1     -11.537   9.231  28.072  1.00  0.00    -0.150 N 
HETATM   14  C21 UNL     1     -11.205   9.813  26.790  1.00  0.00     0.179 C 
ENDROOT
BRANCH   7  15
HETATM   15  C8  UNL     1     -14.837   8.185  32.937  1.00  0.00     0.215 C 
BRANCH  15  16
HETATM   16  N5  UNL     1     -14.254   7.169  33.791  1.00  0.00    -0.330 N 
ATOM     17  H5  UNL     1     -14.254   6.209  33.445  1.00  0.00     0.180 HD
BRANCH  16  18
HETATM   18  N6  UNL     1     -13.713   7.389  35.002  1.00  0.00    -0.315 N 
HETATM   19  C9  UNL     1     -12.865   8.125  35.522  1.00  0.00     0.118 C 
ATOM     20  H6  UNL     1     -14.122   6.764  35.697  1.00  0.00     0.185 HD
BRANCH  19  21
HETATM   21  C10 UNL     1     -12.027   9.158  34.962  1.00  0.00    -0.019 A 
HETATM   22  C11 UNL     1     -10.796   8.853  34.454  1.00  0.00     0.015 A 
HETATM   23  C12 UNL     1      -9.979   9.857  33.909  1.00  0.00     0.031 A 
HETATM   24  C13 UNL     1     -10.395  11.156  33.875  1.00  0.00     0.049 A 
HETATM   25  C17 UNL     1     -11.648  11.464  34.392  1.00  0.00     0.031 A 
HETATM   26  C18 UNL     1     -12.438  10.475  34.923  1.00  0.00     0.015 A 
BRANCH  24  27
HETATM   27  N7  UNL     1      -9.557  12.160  33.322  1.00  0.00    -0.192 N 
ATOM     28  H7  UNL     1      -9.080  12.806  33.952  1.00  0.00     0.184 HD
BRANCH  27  29
HETATM   29  C14 UNL     1      -9.358  12.294  31.911  1.00  0.00     0.677 C 
HETATM   30  N8  UNL     1      -8.235  12.004  31.358  1.00  0.00    -0.202 N 
HETATM   31  C15 UNL     1      -8.066  12.151  29.929  1.00  0.00     0.373 C 
ATOM     32  H8  UNL     1      -7.460  11.669  31.930  1.00  0.00     0.179 HD
HETATM   33  N9  UNL     1      -9.256  11.731  29.249  1.00  0.00    -0.043 N 
HETATM   34  C16 UNL     1     -10.442  12.387  29.699  1.00  0.00     0.373 C 
ATOM     35  H92 UNL     1      -9.149  11.837  28.240  1.00  0.00     0.281 HD
ATOM     36  H91 UNL     1      -9.363  10.719  29.305  1.00  0.00     0.281 HD
HETATM   37  N10 UNL     1     -10.420  12.760  31.093  1.00  0.00    -0.202 N 
ATOM     38  H10 UNL     1     -11.155  13.349  31.484  1.00  0.00     0.179 HD
ENDBRANCH  27  29
ENDBRANCH  24  27
ENDBRANCH  19  21
ENDBRANCH  16  18
ENDBRANCH  15  16
ENDBRANCH   7  15
BRANCH   1  39
HETATM   39  N2  UNL     1      -9.580   8.128  28.014  1.00  0.00    -0.221 N 
ATOM     40  H2  UNL     1      -9.616   7.826  27.040  1.00  0.00     0.178 HD
BRANCH  39  41
HETATM   41  C4  UNL     1      -8.311   8.261  28.669  1.00  0.00     0.182 C 
BRANCH  41  42
HETATM   42  C3  UNL     1      -7.480   7.053  28.577  1.00  0.00     0.029 A 
HETATM   43  C2  UNL     1      -6.150   6.952  28.232  1.00  0.00     0.122 A 
HETATM   44  N1  UNL     1      -5.793   5.654  28.271  1.00  0.00    -0.305 N 
HETATM   45  C1  UNL     1      -4.466   5.112  27.970  1.00  0.00     0.177 C 
HETATM   46  N13 UNL     1      -6.868   4.954  28.631  1.00  0.00    -0.278 N 
HETATM   47  C22 UNL     1      -7.926   5.775  28.830  1.00  0.00     0.164 A 
ATOM     48  H13 UNL     1      -6.889   3.941  28.742  1.00  0.00     0.189 HD
BRANCH  47  49
HETATM   49  O2  UNL     1      -9.206   5.387  29.214  1.00  0.00    -0.345 OA
ATOM     50  H2  UNL     1      -9.443   4.678  29.801  1.00  0.00     0.219 HD
ENDBRANCH  47  49
ENDBRANCH  41  42
ENDBRANCH  39  41
ENDBRANCH   1  39
TORSDOF 10
ENDMDL
MODEL 5
REMARK VINA RESULT: -6.295952710      2.930      4.804
REMARK  10 active torsions:
REMARK  status: ('A' for Active; 'I' for Inactive)
REMARK    1  A    between atoms: C3_4  and  C4_5 
REMARK    2  A    between atoms: C4_5  and  N2_6 
REMARK    3  A    between atoms: N2_6  and  C5_8 
REMARK    4  A    between atoms: C7_14  and  C8_15 
REMARK    5  A    between atoms: C8_15  and  N5_16 
REMARK    6  A    between atoms: N5_16  and  N6_18 
REMARK    7  A    between atoms: C9_20  and  C10_21 
REMARK    8  A    between atoms: C13_24  and  N7_25 
REMARK    9  A    between atoms: N7_25  and  C14_27 
REMARK   10  A    between atoms: C22_46  and  O2_47 
ROOT
HETATM    1  C5  UNL     1      -9.294  10.068  33.406  1.00  0.00     0.684 A 
HETATM    2  N3  UNL     1      -9.757   8.997  34.053  1.00  0.00    -0.174 N 
ATOM      3  H3  UNL     1      -9.143   8.201  34.222  1.00  0.00     0.186 HD
HETATM    4  C6  UNL     1     -11.052   8.964  34.489  1.00  0.00     0.155 A 
HETATM    5  N4  UNL     1     -11.770   8.029  35.151  1.00  0.00    -0.328 N 
ATOM      6  H4  UNL     1     -11.413   7.123  35.452  1.00  0.00     0.169 HD
HETATM    7  C7  UNL     1     -13.023   8.466  35.353  1.00  0.00     0.103 A 
HETATM    8  N11 UNL     1     -13.085   9.692  34.809  1.00  0.00    -0.337 N 
ATOM      9  H11 UNL     1     -13.913  10.286  34.803  1.00  0.00     0.167 HD
HETATM   10  C19 UNL     1     -11.901  10.024  34.275  1.00  0.00     0.148 A 
HETATM   11  C20 UNL     1     -11.398  11.117  33.605  1.00  0.00     0.292 A 
HETATM   12  O1  UNL     1     -12.162  12.089  33.403  1.00  0.00    -0.265 OA
HETATM   13  N12 UNL     1     -10.123  11.102  33.196  1.00  0.00    -0.150 N 
HETATM   14  C21 UNL     1      -9.617  12.261  32.495  1.00  0.00     0.179 C 
ENDROOT
BRANCH   7  15
HETATM   15  C8  UNL     1     -14.145   7.731  36.046  1.00  0.00     0.215 C 
BRANCH  15  16
HETATM   16  N5  UNL     1     -15.326   8.559  35.900  1.00  0.00    -0.330 N 
ATOM     17  H5  UNL     1     -15.385   9.399  36.476  1.00  0.00     0.180 HD
BRANCH  16  18
HETATM   18  N6  UNL     1     -16.350   8.310  35.065  1.00  0.00    -0.315 N 
HETATM   19  C9  UNL     1     -16.551   8.181  33.851  1.00  0.00     0.118 C 
ATOM     20  H6  UNL     1     -17.219   8.192  35.587  1.00  0.00     0.185 HD
BRANCH  19  21
HETATM   21  C10 UNL     1     -15.654   8.259  32.723  1.00  0.00    -0.019 A 
HETATM   22  C11 UNL     1     -15.366   9.464  32.147  1.00  0.00     0.015 A 
HETATM   23  C12 UNL     1     -14.493   9.543  31.050  1.00  0.00     0.031 A 
HETATM   24  C13 UNL     1     -13.915   8.419  30.534  1.00  0.00     0.049 A 
HETATM   25  C17 UNL     1     -14.209   7.193  31.122  1.00  0.00     0.031 A 
HETATM   26  C18 UNL     1     -15.064   7.130  32.194  1.00  0.00     0.015 A 
BRANCH  24  27
HETATM   27  N7  UNL     1     -13.037   8.514  29.424  1.00  0.00    -0.192 N 
ATOM     28  H7  UNL     1     -13.431   8.657  28.493  1.00  0.00     0.184 HD
BRANCH  27  29
HETATM   29  C14 UNL     1     -11.616   8.415  29.565  1.00  0.00     0.677 C 
HETATM   30  N8  UNL     1     -10.989   7.322  29.317  1.00  0.00    -0.202 N 
HETATM   31  C15 UNL     1      -9.551   7.255  29.469  1.00  0.00     0.373 C 
ATOM     32  H8  UNL     1     -11.506   6.498  29.012  1.00  0.00     0.179 HD
HETATM   33  N9  UNL     1      -8.952   8.471  29.005  1.00  0.00    -0.043 N 
HETATM   34  C16 UNL     1      -9.481   9.648  29.615  1.00  0.00     0.373 C 
ATOM     35  H92 UNL     1      -7.938   8.436  29.114  1.00  0.00     0.281 HD
ATOM     36  H91 UNL     1      -9.013   8.535  27.989  1.00  0.00     0.281 HD
HETATM   37  N10 UNL     1     -10.872   9.546  29.990  1.00  0.00    -0.202 N 
ATOM     38  H10 UNL     1     -11.312  10.276  30.551  1.00  0.00     0.179 HD
ENDBRANCH  27  29
ENDBRANCH  24  27
ENDBRANCH  19  21
ENDBRANCH  16  18
ENDBRANCH  15  16
ENDBRANCH   7  15
BRANCH   1  39
HETATM   39  N2  UNL     1      -8.098  10.154  32.973  1.00  0.00    -0.221 N 
ATOM     40  H2  UNL     1      -7.626  11.059  32.967  1.00  0.00     0.178 HD
BRANCH  39  41
HETATM   41  C4  UNL     1      -7.409   8.991  32.494  1.00  0.00     0.182 C 
BRANCH  41  42
HETATM   42  C3  UNL     1      -6.065   8.834  33.068  1.00  0.00     0.029 A 
HETATM   43  C2  UNL     1      -5.478   7.696  33.575  1.00  0.00     0.122 A 
HETATM   44  N1  UNL     1      -4.238   8.005  34.001  1.00  0.00    -0.305 N 
HETATM   45  C1  UNL     1      -3.277   7.082  34.610  1.00  0.00     0.177 C 
HETATM   46  N13 UNL     1      -4.048   9.303  33.769  1.00  0.00    -0.278 N 
HETATM   47  C22 UNL     1      -5.145   9.851  33.196  1.00  0.00     0.164 A 
ATOM     48  H13 UNL     1      -3.193   9.812  33.993  1.00  0.00     0.189 HD
BRANCH  47  49
HETATM   49  O2  UNL     1      -5.297  11.181  32.817  1.00  0.00    -0.345 OA
ATOM     50  H2  UNL     1      -5.531  11.513  31.958  1.00  0.00     0.219 HD
ENDBRANCH  47  49
ENDBRANCH  41  42
ENDBRANCH  39  41
ENDBRANCH   1  39
TORSDOF 10
ENDMDL
