MODEL 1
REMARK VINA RESULT: -7.234618180      0.000      0.000
REMARK  13 active torsions:
REMARK  status: ('A' for Active; 'I' for Inactive)
REMARK    1  A    between atoms: O1_2  and  C2_3 
REMARK    2  A    between atoms: C4_5  and  N1_6 
REMARK    3  A    between atoms: N1_6  and  N2_8 
REMARK    4  A    between atoms: N2_8  and  C5_9 
REMARK    5  A    between atoms: C6_10  and  O2_11 
REMARK    6  A    between atoms: C9_18  and  O3_19 
REMARK    7  A    between atoms: O3_19  and  C10_20 
REMARK    8  A    between atoms: C10_20  and  C11_22 
REMARK    9  A    between atoms: C12_23  and  O5_24 
REMARK   10  A    between atoms: C13_27  and  O7_28 
REMARK   11  A    between atoms: C16_32  and  O8_33 
REMARK   12  A    between atoms: C17_35  and  O9_36 
REMARK   13  A    between atoms: C19_38  and  O10_39 
ROOT
HETATM    1  C5  UNL     1      44.503 -49.727  74.861  1.00  0.00     0.185 C 
HETATM    2  C6  UNL     1      43.181 -49.080  74.496  1.00  0.00     0.342 C 
HETATM    3  N3  UNL     1      42.286 -49.404  75.585  1.00  0.00    -0.047 N 
ATOM      4  H31 UNL     1      42.202 -50.414  75.696  1.00  0.00     0.280 HD
ATOM      5  H32 UNL     1      41.322 -49.180  75.340  1.00  0.00     0.280 HD
HETATM    6  C7  UNL     1      42.652 -48.786  76.822  1.00  0.00     0.238 C 
HETATM    7  C8  UNL     1      44.088 -48.659  77.107  1.00  0.00     0.062 C 
HETATM    8  C9  UNL     1      45.035 -48.876  75.995  1.00  0.00     0.159 C 
ENDROOT
BRANCH   1   9
HETATM    9  N2  UNL     1      44.211 -51.080  75.267  1.00  0.00    -0.129 NA
BRANCH   9  10
HETATM   10  N1  UNL     1      44.491 -52.029  74.296  1.00  0.00    -0.301 N 
ATOM     11  H1  UNL     1      43.722 -52.403  73.742  1.00  0.00     0.182 HD
BRANCH  10  12
HETATM   12  C4  UNL     1      45.803 -52.499  74.043  1.00  0.00     0.083 A 
HETATM   13  C3  UNL     1      46.912 -52.088  74.769  1.00  0.00     0.073 A 
HETATM   14  C2  UNL     1      48.186 -52.553  74.514  1.00  0.00     0.106 A 
HETATM   15  C19 UNL     1      48.336 -53.463  73.485  1.00  0.00     0.138 A 
HETATM   16  C17 UNL     1      47.258 -53.890  72.747  1.00  0.00     0.140 A 
HETATM   17  C16 UNL     1      46.004 -53.408  73.028  1.00  0.00     0.130 A 
BRANCH  14  18
HETATM   18  O1  UNL     1      49.285 -52.130  75.251  1.00  0.00    -0.353 OA
HETATM   19  C1  UNL     1      49.366 -52.379  76.630  1.00  0.00     0.210 C 
ENDBRANCH  14  18
BRANCH  15  20
HETATM   20  O10 UNL     1      49.625 -53.939  73.219  1.00  0.00    -0.351 OA
HETATM   21  C20 UNL     1      50.149 -55.099  73.824  1.00  0.00     0.210 C 
ENDBRANCH  15  20
BRANCH  16  22
HETATM   22  O9  UNL     1      47.444 -54.809  71.718  1.00  0.00    -0.350 OA
HETATM   23  C18 UNL     1      47.891 -54.289  70.479  1.00  0.00     0.210 C 
ENDBRANCH  16  22
BRANCH  17  24
HETATM   24  O8  UNL     1      44.921 -53.837  72.285  1.00  0.00    -0.356 OA
ATOM     25  H8  UNL     1      44.629 -53.314  71.548  1.00  0.00     0.218 HD
ENDBRANCH  17  24
ENDBRANCH  10  12
ENDBRANCH   9  10
ENDBRANCH   1   9
BRANCH   2  26
HETATM   26  O2  UNL     1      42.682 -49.628  73.326  1.00  0.00    -0.368 OA
ATOM     27  H2  UNL     1      42.933 -50.542  73.256  1.00  0.00     0.212 HD
ENDBRANCH   2  26
BRANCH   8  28
HETATM   28  O3  UNL     1      45.362 -47.606  75.407  1.00  0.00    -0.310 OA
BRANCH  28  29
HETATM   29  C10 UNL     1      46.680 -47.215  75.234  1.00  0.00     0.299 C 
HETATM   30  O4  UNL     1      47.090 -46.224  75.857  1.00  0.00    -0.259 OA
BRANCH  29  31
HETATM   31  C11 UNL     1      47.506 -47.998  74.324  1.00  0.00     0.108 A 
HETATM   32  C12 UNL     1      47.186 -48.265  72.990  1.00  0.00     0.202 A 
HETATM   33  O6  UNL     1      48.143 -48.990  72.475  1.00  0.00    -0.263 OA
HETATM   34  C13 UNL     1      49.070 -49.231  73.345  1.00  0.00     0.192 A 
HETATM   35  C14 UNL     1      48.713 -48.617  74.551  1.00  0.00     0.018 A 
HETATM   36  C15 UNL     1      49.464 -48.624  75.810  1.00  0.00     0.054 C 
BRANCH  32  37
HETATM   37  O5  UNL     1      46.026 -47.814  72.350  1.00  0.00    -0.340 OA
ATOM     38  H5  UNL     1      45.820 -46.900  72.194  1.00  0.00     0.220 HD
ENDBRANCH  32  37
BRANCH  34  39
HETATM   39  O7  UNL     1      50.239 -49.959  73.185  1.00  0.00    -0.340 OA
ATOM     40  H7  UNL     1      50.502 -50.761  73.620  1.00  0.00     0.220 HD
ENDBRANCH  34  39
ENDBRANCH  29  31
ENDBRANCH  28  29
ENDBRANCH   8  28
TORSDOF 13
ENDMDL
MODEL 2
REMARK VINA RESULT: -7.226031860      4.029      7.006
REMARK  13 active torsions:
REMARK  status: ('A' for Active; 'I' for Inactive)
REMARK    1  A    between atoms: O1_2  and  C2_3 
REMARK    2  A    between atoms: C4_5  and  N1_6 
REMARK    3  A    between atoms: N1_6  and  N2_8 
REMARK    4  A    between atoms: N2_8  and  C5_9 
REMARK    5  A    between atoms: C6_10  and  O2_11 
REMARK    6  A    between atoms: C9_18  and  O3_19 
REMARK    7  A    between atoms: O3_19  and  C10_20 
REMARK    8  A    between atoms: C10_20  and  C11_22 
REMARK    9  A    between atoms: C12_23  and  O5_24 
REMARK   10  A    between atoms: C13_27  and  O7_28 
REMARK   11  A    between atoms: C16_32  and  O8_33 
REMARK   12  A    between atoms: C17_35  and  O9_36 
REMARK   13  A    between atoms: C19_38  and  O10_39 
ROOT
HETATM    1  C5  UNL     1      49.324 -49.422  74.427  1.00  0.00     0.185 C 
HETATM    2  C6  UNL     1      49.081 -50.268  73.192  1.00  0.00     0.342 C 
HETATM    3  N3  UNL     1      49.699 -51.544  73.479  1.00  0.00    -0.047 N 
ATOM      4  H31 UNL     1      50.692 -51.429  73.677  1.00  0.00     0.280 HD
ATOM      5  H32 UNL     1      49.760 -52.114  72.635  1.00  0.00     0.280 HD
HETATM    6  C7  UNL     1      49.051 -52.263  74.532  1.00  0.00     0.238 C 
HETATM    7  C8  UNL     1      48.517 -51.473  75.651  1.00  0.00     0.062 C 
HETATM    8  C9  UNL     1      48.400 -50.012  75.472  1.00  0.00     0.159 C 
ENDROOT
BRANCH   1   9
HETATM    9  N2  UNL     1      50.717 -49.565  74.768  1.00  0.00    -0.129 NA
BRANCH   9  10
HETATM   10  N1  UNL     1      51.033 -49.106  76.037  1.00  0.00    -0.301 N 
ATOM     11  H1  UNL     1      50.593 -48.249  76.371  1.00  0.00     0.182 HD
BRANCH  10  12
HETATM   12  C4  UNL     1      51.942 -49.780  76.889  1.00  0.00     0.083 A 
HETATM   13  C3  UNL     1      51.883 -51.143  77.139  1.00  0.00     0.073 A 
HETATM   14  C2  UNL     1      52.773 -51.790  77.971  1.00  0.00     0.106 A 
HETATM   15  C19 UNL     1      53.755 -51.023  78.570  1.00  0.00     0.138 A 
HETATM   16  C17 UNL     1      53.842 -49.669  78.343  1.00  0.00     0.140 A 
HETATM   17  C16 UNL     1      52.939 -49.058  77.508  1.00  0.00     0.130 A 
BRANCH  14  18
HETATM   18  O1  UNL     1      52.699 -53.156  78.211  1.00  0.00    -0.353 OA
HETATM   19  C1  UNL     1      53.017 -54.082  77.206  1.00  0.00     0.210 C 
ENDBRANCH  14  18
BRANCH  15  20
HETATM   20  O10 UNL     1      54.663 -51.670  79.416  1.00  0.00    -0.351 OA
HETATM   21  C20 UNL     1      55.905 -52.163  78.967  1.00  0.00     0.210 C 
ENDBRANCH  15  20
BRANCH  16  22
HETATM   22  O9  UNL     1      54.843 -48.927  78.960  1.00  0.00    -0.350 OA
HETATM   23  C18 UNL     1      54.570 -48.462  80.270  1.00  0.00     0.210 C 
ENDBRANCH  16  22
BRANCH  17  24
HETATM   24  O8  UNL     1      53.025 -47.699  77.281  1.00  0.00    -0.356 OA
ATOM     25  H8  UNL     1      53.652 -47.186  77.776  1.00  0.00     0.218 HD
ENDBRANCH  17  24
ENDBRANCH  10  12
ENDBRANCH   9  10
ENDBRANCH   1   9
BRANCH   2  26
HETATM   26  O2  UNL     1      49.704 -49.704  72.091  1.00  0.00    -0.368 OA
ATOM     27  H2  UNL     1      50.318 -50.319  71.708  1.00  0.00     0.212 HD
ENDBRANCH   2  26
BRANCH   8  28
HETATM   28  O3  UNL     1      47.068 -49.703  75.032  1.00  0.00    -0.310 OA
BRANCH  28  29
HETATM   29  C10 UNL     1      46.107 -49.251  75.922  1.00  0.00     0.299 C 
HETATM   30  O4  UNL     1      45.965 -49.854  76.997  1.00  0.00    -0.259 OA
BRANCH  29  31
HETATM   31  C11 UNL     1      45.318 -48.088  75.536  1.00  0.00     0.108 A 
HETATM   32  C12 UNL     1      45.765 -46.766  75.604  1.00  0.00     0.202 A 
HETATM   33  O6  UNL     1      44.805 -45.985  75.183  1.00  0.00    -0.263 OA
HETATM   34  C13 UNL     1      43.761 -46.668  74.840  1.00  0.00     0.192 A 
HETATM   35  C14 UNL     1      44.034 -48.025  75.045  1.00  0.00     0.018 A 
HETATM   36  C15 UNL     1      43.142 -49.161  74.794  1.00  0.00     0.054 C 
BRANCH  32  37
HETATM   37  O5  UNL     1      47.033 -46.382  76.055  1.00  0.00    -0.340 OA
ATOM     38  H5  UNL     1      47.546 -45.678  75.678  1.00  0.00     0.220 HD
ENDBRANCH  32  37
BRANCH  34  39
HETATM   39  O7  UNL     1      42.549 -46.207  74.348  1.00  0.00    -0.340 OA
ATOM     40  H7  UNL     1      41.910 -46.670  73.820  1.00  0.00     0.220 HD
ENDBRANCH  34  39
ENDBRANCH  29  31
ENDBRANCH  28  29
ENDBRANCH   8  28
TORSDOF 13
ENDMDL
MODEL 3
REMARK VINA RESULT: -7.223411704      4.005      6.927
REMARK  13 active torsions:
REMARK  status: ('A' for Active; 'I' for Inactive)
REMARK    1  A    between atoms: O1_2  and  C2_3 
REMARK    2  A    between atoms: C4_5  and  N1_6 
REMARK    3  A    between atoms: N1_6  and  N2_8 
REMARK    4  A    between atoms: N2_8  and  C5_9 
REMARK    5  A    between atoms: C6_10  and  O2_11 
REMARK    6  A    between atoms: C9_18  and  O3_19 
REMARK    7  A    between atoms: O3_19  and  C10_20 
REMARK    8  A    between atoms: C10_20  and  C11_22 
REMARK    9  A    between atoms: C12_23  and  O5_24 
REMARK   10  A    between atoms: C13_27  and  O7_28 
REMARK   11  A    between atoms: C16_32  and  O8_33 
REMARK   12  A    between atoms: C17_35  and  O9_36 
REMARK   13  A    between atoms: C19_38  and  O10_39 
ROOT
HETATM    1  C5  UNL     1      49.439 -49.073  74.329  1.00  0.00     0.185 C 
HETATM    2  C6  UNL     1      49.076 -50.017  73.200  1.00  0.00     0.342 C 
HETATM    3  N3  UNL     1      49.454 -51.332  73.668  1.00  0.00    -0.047 N 
ATOM      4  H31 UNL     1      50.449 -51.365  73.891  1.00  0.00     0.280 HD
ATOM      5  H32 UNL     1      49.431 -52.009  72.904  1.00  0.00     0.280 HD
HETATM    6  C7  UNL     1      48.671 -51.788  74.774  1.00  0.00     0.238 C 
HETATM    7  C8  UNL     1      48.262 -50.781  75.764  1.00  0.00     0.062 C 
HETATM    8  C9  UNL     1      48.406 -49.357  75.401  1.00  0.00     0.159 C 
ENDROOT
BRANCH   1   9
HETATM    9  N2  UNL     1      50.779 -49.408  74.743  1.00  0.00    -0.129 NA
BRANCH   9  10
HETATM   10  N1  UNL     1      51.083 -49.006  76.035  1.00  0.00    -0.301 N 
ATOM     11  H1  UNL     1      50.657 -48.153  76.395  1.00  0.00     0.182 HD
BRANCH  10  12
HETATM   12  C4  UNL     1      51.962 -49.734  76.874  1.00  0.00     0.083 A 
HETATM   13  C3  UNL     1      51.862 -51.103  77.076  1.00  0.00     0.073 A 
HETATM   14  C2  UNL     1      52.723 -51.802  77.896  1.00  0.00     0.106 A 
HETATM   15  C19 UNL     1      53.717 -51.084  78.533  1.00  0.00     0.138 A 
HETATM   16  C17 UNL     1      53.843 -49.726  78.355  1.00  0.00     0.140 A 
HETATM   17  C16 UNL     1      52.969 -49.062  77.531  1.00  0.00     0.130 A 
BRANCH  14  18
HETATM   18  O1  UNL     1      52.609 -53.174  78.087  1.00  0.00    -0.353 OA
HETATM   19  C1  UNL     1      52.800 -54.067  77.022  1.00  0.00     0.210 C 
ENDBRANCH  14  18
BRANCH  15  20
HETATM   20  O10 UNL     1      54.595 -51.785  79.368  1.00  0.00    -0.351 OA
HETATM   21  C20 UNL     1      55.825 -52.305  78.915  1.00  0.00     0.210 C 
ENDBRANCH  15  20
BRANCH  16  22
HETATM   22  O9  UNL     1      54.856 -49.033  79.011  1.00  0.00    -0.350 OA
HETATM   23  C18 UNL     1      54.561 -48.566  80.315  1.00  0.00     0.210 C 
ENDBRANCH  16  22
BRANCH  17  24
HETATM   24  O8  UNL     1      53.095 -47.699  77.352  1.00  0.00    -0.356 OA
ATOM     25  H8  UNL     1      53.587 -47.373  76.607  1.00  0.00     0.218 HD
ENDBRANCH  17  24
ENDBRANCH  10  12
ENDBRANCH   9  10
ENDBRANCH   1   9
BRANCH   2  26
HETATM   26  O2  UNL     1      49.808 -49.715  72.064  1.00  0.00    -0.368 OA
ATOM     27  H2  UNL     1      49.353 -50.017  71.287  1.00  0.00     0.212 HD
ENDBRANCH   2  26
BRANCH   8  28
HETATM   28  O3  UNL     1      47.157 -48.883  74.871  1.00  0.00    -0.310 OA
BRANCH  28  29
HETATM   29  C10 UNL     1      46.515 -47.786  75.423  1.00  0.00     0.299 C 
HETATM   30  O4  UNL     1      47.181 -46.764  75.652  1.00  0.00    -0.259 OA
BRANCH  29  31
HETATM   31  C11 UNL     1      45.090 -47.903  75.700  1.00  0.00     0.108 A 
HETATM   32  C12 UNL     1      44.105 -47.069  75.165  1.00  0.00     0.202 A 
HETATM   33  O6  UNL     1      42.944 -47.457  75.624  1.00  0.00    -0.263 OA
HETATM   34  C13 UNL     1      43.068 -48.472  76.416  1.00  0.00     0.192 A 
HETATM   35  C14 UNL     1      44.425 -48.803  76.501  1.00  0.00     0.018 A 
HETATM   36  C15 UNL     1      45.031 -49.885  77.283  1.00  0.00     0.054 C 
BRANCH  32  37
HETATM   37  O5  UNL     1      44.358 -46.007  74.289  1.00  0.00    -0.340 OA
ATOM     38  H5  UNL     1      43.761 -45.284  74.136  1.00  0.00     0.220 HD
ENDBRANCH  32  37
BRANCH  34  39
HETATM   39  O7  UNL     1      42.077 -49.165  77.095  1.00  0.00    -0.340 OA
ATOM     40  H7  UNL     1      41.650 -49.978  76.852  1.00  0.00     0.220 HD
ENDBRANCH  34  39
ENDBRANCH  29  31
ENDBRANCH  28  29
ENDBRANCH   8  28
TORSDOF 13
ENDMDL
MODEL 4
REMARK VINA RESULT: -7.025395704      2.417      4.551
REMARK  13 active torsions:
REMARK  status: ('A' for Active; 'I' for Inactive)
REMARK    1  A    between atoms: O1_2  and  C2_3 
REMARK    2  A    between atoms: C4_5  and  N1_6 
REMARK    3  A    between atoms: N1_6  and  N2_8 
REMARK    4  A    between atoms: N2_8  and  C5_9 
REMARK    5  A    between atoms: C6_10  and  O2_11 
REMARK    6  A    between atoms: C9_18  and  O3_19 
REMARK    7  A    between atoms: O3_19  and  C10_20 
REMARK    8  A    between atoms: C10_20  and  C11_22 
REMARK    9  A    between atoms: C12_23  and  O5_24 
REMARK   10  A    between atoms: C13_27  and  O7_28 
REMARK   11  A    between atoms: C16_32  and  O8_33 
REMARK   12  A    between atoms: C17_35  and  O9_36 
REMARK   13  A    between atoms: C19_38  and  O10_39 
ROOT
HETATM    1  C5  UNL     1      46.108 -50.052  74.778  1.00  0.00     0.185 C 
HETATM    2  C6  UNL     1      45.362 -51.088  73.961  1.00  0.00     0.342 C 
HETATM    3  N3  UNL     1      44.070 -51.215  74.597  1.00  0.00    -0.047 N 
ATOM      4  H31 UNL     1      44.172 -51.495  75.572  1.00  0.00     0.280 HD
ATOM      5  H32 UNL     1      43.569 -52.029  74.239  1.00  0.00     0.280 HD
HETATM    6  C7  UNL     1      43.266 -50.037  74.488  1.00  0.00     0.238 C 
HETATM    7  C8  UNL     1      43.962 -48.744  74.563  1.00  0.00     0.062 C 
HETATM    8  C9  UNL     1      45.433 -48.742  74.426  1.00  0.00     0.159 C 
ENDROOT
BRANCH   1   9
HETATM    9  N2  UNL     1      45.943 -50.410  76.165  1.00  0.00    -0.129 NA
BRANCH   9  10
HETATM   10  N1  UNL     1      46.847 -49.792  77.015  1.00  0.00    -0.301 N 
ATOM     11  H1  UNL     1      46.491 -49.161  77.732  1.00  0.00     0.182 HD
BRANCH  10  12
HETATM   12  C4  UNL     1      48.245 -50.001  76.926  1.00  0.00     0.083 A 
HETATM   13  C3  UNL     1      48.855 -51.206  77.242  1.00  0.00     0.073 A 
HETATM   14  C2  UNL     1      50.219 -51.399  77.152  1.00  0.00     0.106 A 
HETATM   15  C19 UNL     1      50.985 -50.330  76.728  1.00  0.00     0.138 A 
HETATM   16  C17 UNL     1      50.411 -49.123  76.407  1.00  0.00     0.140 A 
HETATM   17  C16 UNL     1      49.051 -48.965  76.507  1.00  0.00     0.130 A 
BRANCH  14  18
HETATM   18  O1  UNL     1      50.814 -52.613  77.473  1.00  0.00    -0.353 OA
HETATM   19  C1  UNL     1      50.712 -53.715  76.611  1.00  0.00     0.210 C 
ENDBRANCH  14  18
BRANCH  15  20
HETATM   20  O10 UNL     1      52.369 -50.517  76.634  1.00  0.00    -0.351 OA
HETATM   21  C20 UNL     1      53.209 -50.576  77.765  1.00  0.00     0.210 C 
ENDBRANCH  15  20
BRANCH  16  22
HETATM   22  O9  UNL     1      51.212 -48.067  75.982  1.00  0.00    -0.350 OA
HETATM   23  C18 UNL     1      51.897 -47.347  76.991  1.00  0.00     0.210 C 
ENDBRANCH  16  22
BRANCH  17  24
HETATM   24  O8  UNL     1      48.475 -47.753  76.185  1.00  0.00    -0.356 OA
ATOM     25  H8  UNL     1      48.471 -47.056  76.831  1.00  0.00     0.218 HD
ENDBRANCH  17  24
ENDBRANCH  10  12
ENDBRANCH   9  10
ENDBRANCH   1   9
BRANCH   2  26
HETATM   26  O2  UNL     1      46.014 -52.309  74.019  1.00  0.00    -0.368 OA
ATOM     27  H2  UNL     1      45.747 -52.861  73.294  1.00  0.00     0.212 HD
ENDBRANCH   2  26
BRANCH   8  28
HETATM   28  O3  UNL     1      45.772 -48.487  73.053  1.00  0.00    -0.310 OA
BRANCH  28  29
HETATM   29  C10 UNL     1      47.085 -48.266  72.669  1.00  0.00     0.299 C 
HETATM   30  O4  UNL     1      47.769 -47.468  73.329  1.00  0.00    -0.259 OA
BRANCH  29  31
HETATM   31  C11 UNL     1      47.581 -48.988  71.505  1.00  0.00     0.108 A 
HETATM   32  C12 UNL     1      47.312 -48.642  70.179  1.00  0.00     0.202 A 
HETATM   33  O6  UNL     1      47.911 -49.501  69.398  1.00  0.00    -0.263 OA
HETATM   34  C13 UNL     1      48.555 -50.388  70.086  1.00  0.00     0.192 A 
HETATM   35  C14 UNL     1      48.379 -50.108  71.445  1.00  0.00     0.018 A 
HETATM   36  C15 UNL     1      48.926 -50.849  72.586  1.00  0.00     0.054 C 
BRANCH  32  37
HETATM   37  O5  UNL     1      46.526 -47.550  69.791  1.00  0.00    -0.340 OA
ATOM     38  H5  UNL     1      46.446 -46.743  70.287  1.00  0.00     0.220 HD
ENDBRANCH  32  37
BRANCH  34  39
HETATM   39  O7  UNL     1      49.310 -51.458  69.626  1.00  0.00    -0.340 OA
ATOM     40  H7  UNL     1      49.385 -52.330  69.994  1.00  0.00     0.220 HD
ENDBRANCH  34  39
ENDBRANCH  29  31
ENDBRANCH  28  29
ENDBRANCH   8  28
TORSDOF 13
ENDMDL
MODEL 5
REMARK VINA RESULT: -7.011250110      3.481      6.445
REMARK  13 active torsions:
REMARK  status: ('A' for Active; 'I' for Inactive)
REMARK    1  A    between atoms: O1_2  and  C2_3 
REMARK    2  A    between atoms: C4_5  and  N1_6 
REMARK    3  A    between atoms: N1_6  and  N2_8 
REMARK    4  A    between atoms: N2_8  and  C5_9 
REMARK    5  A    between atoms: C6_10  and  O2_11 
REMARK    6  A    between atoms: C9_18  and  O3_19 
REMARK    7  A    between atoms: O3_19  and  C10_20 
REMARK    8  A    between atoms: C10_20  and  C11_22 
REMARK    9  A    between atoms: C12_23  and  O5_24 
REMARK   10  A    between atoms: C13_27  and  O7_28 
REMARK   11  A    between atoms: C16_32  and  O8_33 
REMARK   12  A    between atoms: C17_35  and  O9_36 
REMARK   13  A    between atoms: C19_38  and  O10_39 
ROOT
HETATM    1  C5  UNL     1      48.403 -49.409  73.887  1.00  0.00     0.185 C 
HETATM    2  C6  UNL     1      48.127 -50.138  72.586  1.00  0.00     0.342 C 
HETATM    3  N3  UNL     1      48.891 -51.363  72.668  1.00  0.00    -0.047 N 
ATOM      4  H31 UNL     1      49.883 -51.163  72.793  1.00  0.00     0.280 HD
ATOM      5  H32 UNL     1      48.926 -51.829  71.761  1.00  0.00     0.280 HD
HETATM    6  C7  UNL     1      48.421 -52.258  73.679  1.00  0.00     0.238 C 
HETATM    7  C8  UNL     1      47.923 -51.657  74.925  1.00  0.00     0.062 C 
HETATM    8  C9  UNL     1      47.646 -50.206  74.929  1.00  0.00     0.159 C 
ENDROOT
BRANCH   1   9
HETATM    9  N2  UNL     1      49.830 -49.437  74.090  1.00  0.00    -0.129 NA
BRANCH   9  10
HETATM   10  N1  UNL     1      50.235 -48.889  75.297  1.00  0.00    -0.301 N 
ATOM     11  H1  UNL     1      49.878 -47.971  75.562  1.00  0.00     0.182 HD
BRANCH  10  12
HETATM   12  C4  UNL     1      51.122 -49.553  76.179  1.00  0.00     0.083 A 
HETATM   13  C3  UNL     1      50.988 -50.888  76.530  1.00  0.00     0.073 A 
HETATM   14  C2  UNL     1      51.859 -51.526  77.390  1.00  0.00     0.106 A 
HETATM   15  C19 UNL     1      52.899 -50.779  77.910  1.00  0.00     0.138 A 
HETATM   16  C17 UNL     1      53.060 -49.453  77.582  1.00  0.00     0.140 A 
HETATM   17  C16 UNL     1      52.175 -48.850  76.723  1.00  0.00     0.130 A 
BRANCH  14  18
HETATM   18  O1  UNL     1      51.710 -52.864  77.731  1.00  0.00    -0.353 OA
HETATM   19  C1  UNL     1      51.926 -53.877  76.785  1.00  0.00     0.210 C 
ENDBRANCH  14  18
BRANCH  15  20
HETATM   20  O10 UNL     1      53.787 -51.417  78.784  1.00  0.00    -0.351 OA
HETATM   21  C20 UNL     1      54.910 -52.141  78.334  1.00  0.00     0.210 C 
ENDBRANCH  15  20
BRANCH  16  22
HETATM   22  O9  UNL     1      54.119 -48.730  78.123  1.00  0.00    -0.350 OA
HETATM   23  C18 UNL     1      53.962 -48.281  79.457  1.00  0.00     0.210 C 
ENDBRANCH  16  22
BRANCH  17  24
HETATM   24  O8  UNL     1      52.336 -47.519  76.394  1.00  0.00    -0.356 OA
ATOM     25  H8  UNL     1      52.824 -46.953  76.980  1.00  0.00     0.218 HD
ENDBRANCH  17  24
ENDBRANCH  10  12
ENDBRANCH   9  10
ENDBRANCH   1   9
BRANCH   2  26
HETATM   26  O2  UNL     1      48.582 -49.394  71.510  1.00  0.00    -0.368 OA
ATOM     27  H2  UNL     1      47.853 -49.118  70.968  1.00  0.00     0.212 HD
ENDBRANCH   2  26
BRANCH   8  28
HETATM   28  O3  UNL     1      46.254 -49.997  74.643  1.00  0.00    -0.310 OA
BRANCH  28  29
HETATM   29  C10 UNL     1      45.380 -49.556  75.623  1.00  0.00     0.299 C 
HETATM   30  O4  UNL     1      45.278 -50.218  76.668  1.00  0.00    -0.259 OA
BRANCH  29  31
HETATM   31  C11 UNL     1      44.630 -48.334  75.363  1.00  0.00     0.108 A 
HETATM   32  C12 UNL     1      43.245 -48.272  75.190  1.00  0.00     0.202 A 
HETATM   33  O6  UNL     1      42.912 -47.027  74.975  1.00  0.00    -0.263 OA
HETATM   34  C13 UNL     1      43.950 -46.255  74.989  1.00  0.00     0.192 A 
HETATM   35  C14 UNL     1      45.081 -47.041  75.235  1.00  0.00     0.018 A 
HETATM   36  C15 UNL     1      46.473 -46.591  75.337  1.00  0.00     0.054 C 
BRANCH  32  37
HETATM   37  O5  UNL     1      42.392 -49.380  75.243  1.00  0.00    -0.340 OA
ATOM     38  H5  UNL     1      41.783 -49.623  74.554  1.00  0.00     0.220 HD
ENDBRANCH  32  37
BRANCH  34  39
HETATM   39  O7  UNL     1      44.009 -44.882  74.803  1.00  0.00    -0.340 OA
ATOM     40  H7  UNL     1      44.626 -44.381  74.283  1.00  0.00     0.220 HD
ENDBRANCH  34  39
ENDBRANCH  29  31
ENDBRANCH  28  29
ENDBRANCH   8  28
TORSDOF 13
ENDMDL
