MODEL 1
REMARK VINA RESULT: -5.394900399      0.000      0.000
REMARK  1 active torsions:
REMARK  status: ('A' for Active; 'I' for Inactive)
REMARK    1  A    between atoms: O1_1  and  C1_3 
ROOT
HETATM    1  C1  UNL     1     -20.059 -52.068 -12.512  1.00  0.00     0.162 C 
HETATM    2  C2  UNL     1     -19.320 -53.093 -11.732  1.00  0.00     0.018 C 
HETATM    3  C3  UNL     1     -20.198 -53.936 -10.868  1.00  0.00     0.012 C 
HETATM    4  C4  UNL     1     -21.244 -54.635 -11.734  1.00  0.00    -0.014 C 
HETATM    5  C5  UNL     1     -22.348 -53.716 -12.137  1.00  0.00     0.008 C 
HETATM    6  C6  UNL     1     -22.169 -53.005 -13.418  1.00  0.00     0.046 C 
HETATM    7  C7  UNL     1     -20.771 -52.559 -13.714  1.00  0.00     0.130 C 
HETATM    8  F1  UNL     1     -20.878 -51.482 -14.609  1.00  0.00    -0.240 F 
HETATM    9  C8  UNL     1     -20.072 -53.656 -14.461  1.00  0.00     0.051 C 
HETATM   10  C9  UNL     1     -19.491 -54.714 -13.537  1.00  0.00    -0.010 C 
HETATM   11  C10 UNL     1     -20.609 -55.390 -12.840  1.00  0.00     0.009 C 
HETATM   12  C11 UNL     1     -18.519 -54.011 -12.626  1.00  0.00     0.012 C 
ENDROOT
BRANCH   1  13
HETATM   13  O1  UNL     1     -19.171 -51.014 -12.785  1.00  0.00    -0.392 OA
ATOM     14  H1  UNL     1     -19.687 -50.262 -13.050  1.00  0.00     0.210 HD
ENDBRANCH   1  13
TORSDOF 1
ENDMDL
MODEL 2
REMARK VINA RESULT: -5.217476335      1.377      2.253
REMARK  1 active torsions:
REMARK  status: ('A' for Active; 'I' for Inactive)
REMARK    1  A    between atoms: O1_1  and  C1_3 
ROOT
HETATM    1  C1  UNL     1     -19.586 -52.558 -13.021  1.00  0.00     0.162 C 
HETATM    2  C2  UNL     1     -20.098 -52.439 -11.633  1.00  0.00     0.018 C 
HETATM    3  C3  UNL     1     -21.266 -51.520 -11.501  1.00  0.00     0.012 C 
HETATM    4  C4  UNL     1     -22.399 -52.004 -12.404  1.00  0.00    -0.014 C 
HETATM    5  C5  UNL     1     -22.162 -51.665 -13.838  1.00  0.00     0.008 C 
HETATM    6  C6  UNL     1     -21.460 -52.685 -14.641  1.00  0.00     0.046 C 
HETATM    7  C7  UNL     1     -20.371 -53.426 -13.928  1.00  0.00     0.130 C 
HETATM    8  F1  UNL     1     -19.497 -53.899 -14.920  1.00  0.00    -0.240 F 
HETATM    9  C8  UNL     1     -20.968 -54.641 -13.282  1.00  0.00     0.051 C 
HETATM   10  C9  UNL     1     -21.588 -54.338 -11.928  1.00  0.00    -0.010 C 
HETATM   11  C10 UNL     1     -22.734 -53.422 -12.133  1.00  0.00     0.009 C 
HETATM   12  C11 UNL     1     -20.490 -53.782 -11.060  1.00  0.00     0.012 C 
ENDROOT
BRANCH   1  13
HETATM   13  O1  UNL     1     -18.229 -52.913 -12.949  1.00  0.00    -0.392 OA
ATOM     14  H1  UNL     1     -17.837 -52.734 -13.797  1.00  0.00     0.210 HD
ENDBRANCH   1  13
TORSDOF 1
ENDMDL
MODEL 3
REMARK VINA RESULT: -5.170172137      2.184      3.496
REMARK  1 active torsions:
REMARK  status: ('A' for Active; 'I' for Inactive)
REMARK    1  A    between atoms: O1_1  and  C1_3 
ROOT
HETATM    1  C1  UNL     1     -22.512 -51.347 -12.182  1.00  0.00     0.162 C 
HETATM    2  C2  UNL     1     -23.528 -52.268 -12.752  1.00  0.00     0.018 C 
HETATM    3  C3  UNL     1     -23.390 -52.477 -14.223  1.00  0.00     0.012 C 
HETATM    4  C4  UNL     1     -21.999 -53.028 -14.530  1.00  0.00    -0.014 C 
HETATM    5  C5  UNL     1     -20.949 -51.970 -14.477  1.00  0.00     0.008 C 
HETATM    6  C6  UNL     1     -20.281 -51.780 -13.175  1.00  0.00     0.046 C 
HETATM    7  C7  UNL     1     -21.164 -51.922 -11.973  1.00  0.00     0.130 C 
HETATM    8  F1  UNL     1     -20.551 -51.194 -10.941  1.00  0.00    -0.240 F 
HETATM    9  C8  UNL     1     -21.148 -53.358 -11.541  1.00  0.00     0.051 C 
HETATM   10  C9  UNL     1     -22.137 -54.213 -12.315  1.00  0.00    -0.010 C 
HETATM   11  C10 UNL     1     -21.716 -54.246 -13.734  1.00  0.00     0.009 C 
HETATM   12  C11 UNL     1     -23.502 -53.621 -12.080  1.00  0.00     0.012 C 
ENDROOT
BRANCH   1  13
HETATM   13  O1  UNL     1     -23.056 -50.772 -11.022  1.00  0.00    -0.392 OA
ATOM     14  H1  UNL     1     -23.070 -51.441 -10.347  1.00  0.00     0.210 HD
ENDBRANCH   1  13
TORSDOF 1
ENDMDL
MODEL 4
REMARK VINA RESULT: -5.167672822      1.403      2.262
REMARK  1 active torsions:
REMARK  status: ('A' for Active; 'I' for Inactive)
REMARK    1  A    between atoms: O1_1  and  C1_3 
ROOT
HETATM    1  C1  UNL     1     -20.907 -51.545 -13.263  1.00  0.00     0.162 C 
HETATM    2  C2  UNL     1     -21.301 -51.781 -11.851  1.00  0.00     0.018 C 
HETATM    3  C3  UNL     1     -22.763 -51.621 -11.602  1.00  0.00     0.012 C 
HETATM    4  C4  UNL     1     -23.540 -52.584 -12.498  1.00  0.00    -0.014 C 
HETATM    5  C5  UNL     1     -23.622 -52.102 -13.907  1.00  0.00     0.008 C 
HETATM    6  C6  UNL     1     -22.553 -52.559 -14.816  1.00  0.00     0.046 C 
HETATM    7  C7  UNL     1     -21.188 -52.650 -14.207  1.00  0.00     0.130 C 
HETATM    8  F1  UNL     1     -20.272 -52.544 -15.265  1.00  0.00    -0.240 F 
HETATM    9  C8  UNL     1     -21.014 -54.028 -13.638  1.00  0.00     0.051 C 
HETATM   10  C9  UNL     1     -21.597 -54.162 -12.242  1.00  0.00    -0.010 C 
HETATM   11  C10 UNL     1     -23.064 -53.977 -12.329  1.00  0.00     0.009 C 
HETATM   12  C11 UNL     1     -20.890 -53.155 -11.374  1.00  0.00     0.012 C 
ENDROOT
BRANCH   1  13
HETATM   13  O1  UNL     1     -19.563 -51.136 -13.271  1.00  0.00    -0.392 OA
ATOM     14  H1  UNL     1     -19.514 -50.310 -13.739  1.00  0.00     0.210 HD
ENDBRANCH   1  13
TORSDOF 1
ENDMDL
MODEL 5
REMARK VINA RESULT: -5.148148088      1.604      2.909
REMARK  1 active torsions:
REMARK  status: ('A' for Active; 'I' for Inactive)
REMARK    1  A    between atoms: O1_1  and  C1_3 
ROOT
HETATM    1  C1  UNL     1     -22.441 -52.399 -14.039  1.00  0.00     0.162 C 
HETATM    2  C2  UNL     1     -23.039 -52.448 -12.681  1.00  0.00     0.018 C 
HETATM    3  C3  UNL     1     -22.999 -53.802 -12.057  1.00  0.00     0.012 C 
HETATM    4  C4  UNL     1     -21.551 -54.282 -11.974  1.00  0.00    -0.014 C 
HETATM    5  C5  UNL     1     -21.040 -54.760 -13.292  1.00  0.00     0.008 C 
HETATM    6  C6  UNL     1     -20.365 -53.753 -14.133  1.00  0.00     0.046 C 
HETATM    7  C7  UNL     1     -20.962 -52.380 -14.094  1.00  0.00     0.130 C 
HETATM    8  F1  UNL     1     -20.592 -51.751 -15.293  1.00  0.00    -0.240 F 
HETATM    9  C8  UNL     1     -20.297 -51.607 -12.993  1.00  0.00     0.051 C 
HETATM   10  C9  UNL     1     -20.923 -51.870 -11.634  1.00  0.00    -0.010 C 
HETATM   11  C10 UNL     1     -20.695 -53.290 -11.282  1.00  0.00     0.009 C 
HETATM   12  C11 UNL     1     -22.373 -51.475 -11.736  1.00  0.00     0.012 C 
ENDROOT
BRANCH   1  13
HETATM   13  O1  UNL     1     -23.036 -51.332 -14.732  1.00  0.00    -0.392 OA
ATOM     14  H1  UNL     1     -23.347 -51.665 -15.566  1.00  0.00     0.210 HD
ENDBRANCH   1  13
TORSDOF 1
ENDMDL
