MODEL 1
REMARK VINA RESULT: -5.404636068      0.000      0.000
REMARK  4 active torsions:
REMARK  status: ('A' for Active; 'I' for Inactive)
REMARK    1  A    between atoms: C3_3  and  O1_4 
REMARK    2  A    between atoms: O1_4  and  C4_5 
REMARK    3  A    between atoms: C4_5  and  N2_9 
REMARK    4  A    between atoms: N2_9  and  C5_11 
ROOT
HETATM    1  C1  UNL     1      45.623  20.177  12.111  1.00  0.00     0.114 C 
HETATM    2  C2  UNL     1      47.023  20.596  11.984  1.00  0.00    -0.080 C 
HETATM    3  C3  UNL     1      48.171  20.960  11.881  1.00  0.00     0.063 C 
ENDROOT
BRANCH   3   4
HETATM    4  O1  UNL     1      49.481  21.380  11.742  1.00  0.00    -0.227 OA
BRANCH   4   5
HETATM    5  C4  UNL     1      49.856  22.692  11.931  1.00  0.00     0.228 C 
HETATM    6  N1  UNL     1      49.583  23.553  11.026  1.00  0.00    -0.365 N 
ATOM      7  H12 UNL     1      49.094  23.214  10.199  1.00  0.00     0.159 HD
ATOM      8  H11 UNL     1      49.862  24.524  11.166  1.00  0.00     0.159 HD
BRANCH   5   9
HETATM    9  N2  UNL     1      50.549  23.171  13.101  1.00  0.00    -0.334 N 
ATOM     10  H2  UNL     1      50.076  23.846  13.702  1.00  0.00     0.164 HD
BRANCH   9  11
HETATM   11  C5  UNL     1      51.860  22.750  13.459  1.00  0.00     0.115 C 
HETATM   12  C6  UNL     1      52.759  22.842  12.250  1.00  0.00     0.055 C 
HETATM   13  C7  UNL     1      51.914  21.321  13.949  1.00  0.00     0.055 C 
HETATM   14  C8  UNL     1      52.367  23.597  14.563  1.00  0.00     0.090 C 
HETATM   15  N3  UNL     1      52.748  24.254  15.433  1.00  0.00    -0.195 NA
ENDBRANCH   9  11
ENDBRANCH   5   9
ENDBRANCH   4   5
ENDBRANCH   3   4
TORSDOF 4
ENDMDL
MODEL 2
REMARK VINA RESULT: -5.397501627      1.004      1.593
REMARK  4 active torsions:
REMARK  status: ('A' for Active; 'I' for Inactive)
REMARK    1  A    between atoms: C3_3  and  O1_4 
REMARK    2  A    between atoms: O1_4  and  C4_5 
REMARK    3  A    between atoms: C4_5  and  N2_9 
REMARK    4  A    between atoms: N2_9  and  C5_11 
ROOT
HETATM    1  C1  UNL     1      45.647  20.293  12.082  1.00  0.00     0.114 C 
HETATM    2  C2  UNL     1      47.059  20.681  11.994  1.00  0.00    -0.080 C 
HETATM    3  C3  UNL     1      48.217  21.019  11.915  1.00  0.00     0.063 C 
ENDROOT
BRANCH   3   4
HETATM    4  O1  UNL     1      49.541  21.400  11.804  1.00  0.00    -0.227 OA
BRANCH   4   5
HETATM    5  C4  UNL     1      49.945  22.709  11.954  1.00  0.00     0.228 C 
HETATM    6  N1  UNL     1      49.687  23.550  11.027  1.00  0.00    -0.365 N 
ATOM      7  H12 UNL     1      49.186  23.199  10.211  1.00  0.00     0.159 HD
ATOM      8  H11 UNL     1      49.986  24.519  11.139  1.00  0.00     0.159 HD
BRANCH   5   9
HETATM    9  N2  UNL     1      50.653  23.205  13.108  1.00  0.00    -0.334 N 
ATOM     10  H2  UNL     1      50.168  23.848  13.734  1.00  0.00     0.164 HD
BRANCH   9  11
HETATM   11  C5  UNL     1      51.994  22.843  13.416  1.00  0.00     0.115 C 
HETATM   12  C6  UNL     1      52.625  23.935  14.247  1.00  0.00     0.055 C 
HETATM   13  C7  UNL     1      52.858  22.659  12.190  1.00  0.00     0.055 C 
HETATM   14  C8  UNL     1      52.005  21.553  14.142  1.00  0.00     0.090 C 
HETATM   15  N3  UNL     1      52.003  20.539  14.694  1.00  0.00    -0.195 NA
ENDBRANCH   9  11
ENDBRANCH   5   9
ENDBRANCH   4   5
ENDBRANCH   3   4
TORSDOF 4
ENDMDL
MODEL 3
REMARK VINA RESULT: -5.254787168      1.559      1.836
REMARK  4 active torsions:
REMARK  status: ('A' for Active; 'I' for Inactive)
REMARK    1  A    between atoms: C3_3  and  O1_4 
REMARK    2  A    between atoms: O1_4  and  C4_5 
REMARK    3  A    between atoms: C4_5  and  N2_9 
REMARK    4  A    between atoms: N2_9  and  C5_11 
ROOT
HETATM    1  C1  UNL     1      45.681  20.535  12.385  1.00  0.00     0.114 C 
HETATM    2  C2  UNL     1      47.084  20.769  12.030  1.00  0.00    -0.080 C 
HETATM    3  C3  UNL     1      48.243  20.974  11.753  1.00  0.00     0.063 C 
ENDROOT
BRANCH   3   4
HETATM    4  O1  UNL     1      49.563  21.227  11.428  1.00  0.00    -0.227 OA
BRANCH   4   5
HETATM    5  C4  UNL     1      50.241  22.325  11.909  1.00  0.00     0.228 C 
HETATM    6  N1  UNL     1      49.594  23.229  12.540  1.00  0.00    -0.365 N 
ATOM      7  H12 UNL     1      48.591  23.083  12.656  1.00  0.00     0.159 HD
ATOM      8  H11 UNL     1      50.096  24.042  12.896  1.00  0.00     0.159 HD
BRANCH   5   9
HETATM    9  N2  UNL     1      51.658  22.531  11.745  1.00  0.00    -0.334 N 
ATOM     10  H2  UNL     1      51.974  23.375  11.268  1.00  0.00     0.164 HD
BRANCH   9  11
HETATM   11  C5  UNL     1      52.640  21.615  12.217  1.00  0.00     0.115 C 
HETATM   12  C6  UNL     1      53.989  22.293  12.225  1.00  0.00     0.055 C 
HETATM   13  C7  UNL     1      52.766  20.380  11.354  1.00  0.00     0.055 C 
HETATM   14  C8  UNL     1      52.272  21.150  13.574  1.00  0.00     0.090 C 
HETATM   15  N3  UNL     1      51.969  20.782  14.625  1.00  0.00    -0.195 NA
ENDBRANCH   9  11
ENDBRANCH   5   9
ENDBRANCH   4   5
ENDBRANCH   3   4
TORSDOF 4
ENDMDL
MODEL 4
REMARK VINA RESULT: -5.243116261      1.506      2.348
REMARK  4 active torsions:
REMARK  status: ('A' for Active; 'I' for Inactive)
REMARK    1  A    between atoms: C3_3  and  O1_4 
REMARK    2  A    between atoms: O1_4  and  C4_5 
REMARK    3  A    between atoms: C4_5  and  N2_9 
REMARK    4  A    between atoms: N2_9  and  C5_11 
ROOT
HETATM    1  C1  UNL     1      45.644  20.223  12.101  1.00  0.00     0.114 C 
HETATM    2  C2  UNL     1      47.040  20.659  11.997  1.00  0.00    -0.080 C 
HETATM    3  C3  UNL     1      48.186  21.031  11.897  1.00  0.00     0.063 C 
ENDROOT
BRANCH   3   4
HETATM    4  O1  UNL     1      49.500  21.442  11.766  1.00  0.00    -0.227 OA
BRANCH   4   5
HETATM    5  C4  UNL     1      49.878  22.757  11.926  1.00  0.00     0.228 C 
HETATM    6  N1  UNL     1      49.039  23.591  12.412  1.00  0.00    -0.365 N 
ATOM      7  H12 UNL     1      48.119  23.228  12.659  1.00  0.00     0.159 HD
ATOM      8  H11 UNL     1      49.320  24.564  12.531  1.00  0.00     0.159 HD
BRANCH   5   9
HETATM    9  N2  UNL     1      51.179  23.269  11.576  1.00  0.00    -0.334 N 
ATOM     10  H2  UNL     1      51.244  23.955  10.824  1.00  0.00     0.164 HD
BRANCH   9  11
HETATM   11  C5  UNL     1      52.378  22.864  12.227  1.00  0.00     0.115 C 
HETATM   12  C6  UNL     1      52.124  22.748  13.711  1.00  0.00     0.055 C 
HETATM   13  C7  UNL     1      53.515  23.843  12.043  1.00  0.00     0.055 C 
HETATM   14  C8  UNL     1      52.835  21.572  11.665  1.00  0.00     0.090 C 
HETATM   15  N3  UNL     1      53.190  20.572  11.211  1.00  0.00    -0.195 NA
ENDBRANCH   9  11
ENDBRANCH   5   9
ENDBRANCH   4   5
ENDBRANCH   3   4
TORSDOF 4
ENDMDL
MODEL 5
REMARK VINA RESULT: -5.220417879      2.675      3.008
REMARK  4 active torsions:
REMARK  status: ('A' for Active; 'I' for Inactive)
REMARK    1  A    between atoms: C3_3  and  O1_4 
REMARK    2  A    between atoms: O1_4  and  C4_5 
REMARK    3  A    between atoms: C4_5  and  N2_9 
REMARK    4  A    between atoms: N2_9  and  C5_11 
ROOT
HETATM    1  C1  UNL     1      45.406  20.890  12.401  1.00  0.00     0.114 C 
HETATM    2  C2  UNL     1      46.848  20.753  12.169  1.00  0.00    -0.080 C 
HETATM    3  C3  UNL     1      48.032  20.635  11.959  1.00  0.00     0.063 C 
ENDROOT
BRANCH   3   4
HETATM    4  O1  UNL     1      49.386  20.477  11.726  1.00  0.00    -0.227 OA
BRANCH   4   5
HETATM    5  C4  UNL     1      49.976  19.236  11.631  1.00  0.00     0.228 C 
HETATM    6  N1  UNL     1      49.451  18.354  10.867  1.00  0.00    -0.365 N 
ATOM      7  H12 UNL     1      48.609  18.625  10.360  1.00  0.00     0.159 HD
ATOM      8  H11 UNL     1      49.889  17.435  10.798  1.00  0.00     0.159 HD
BRANCH   5   9
HETATM    9  N2  UNL     1      51.166  18.853  12.348  1.00  0.00    -0.334 N 
ATOM     10  H2  UNL     1      51.186  17.941  12.803  1.00  0.00     0.164 HD
BRANCH   9  11
HETATM   11  C5  UNL     1      52.315  19.686  12.454  1.00  0.00     0.115 C 
HETATM   12  C6  UNL     1      52.451  20.508  11.195  1.00  0.00     0.055 C 
HETATM   13  C7  UNL     1      53.601  18.909  12.622  1.00  0.00     0.055 C 
HETATM   14  C8  UNL     1      52.187  20.557  13.645  1.00  0.00     0.090 C 
HETATM   15  N3  UNL     1      52.084  21.222  14.583  1.00  0.00    -0.195 NA
ENDBRANCH   9  11
ENDBRANCH   5   9
ENDBRANCH   4   5
ENDBRANCH   3   4
TORSDOF 4
ENDMDL
