MODEL 1
REMARK VINA RESULT: -7.732212879      0.000      0.000
REMARK  13 active torsions:
REMARK  status: ('A' for Active; 'I' for Inactive)
REMARK    1  A    between atoms: C2_2  and  C3_4 
REMARK       I    between atoms: C3_4  and  N1_6 
REMARK    2  A    between atoms: N1_6  and  C4_8 
REMARK    3  A    between atoms: C4_8  and  C5_9 
REMARK    4  A    between atoms: C5_9  and  O2_10 
REMARK    5  A    between atoms: C5_9  and  C6_12 
REMARK    6  A    between atoms: C7_13  and  O3_14 
REMARK    7  A    between atoms: C8_18  and  O4_19 
REMARK    8  A    between atoms: C9_21  and  N3_22 
REMARK    9  A    between atoms: N3_22  and  C10_24 
REMARK   10  A    between atoms: C10_24  and  C11_25 
REMARK   11  A    between atoms: C11_25  and  C12_26 
REMARK   12  A    between atoms: C18_33  and  C19_34 
REMARK   13  A    between atoms: C19_34  and  S1_35 
ROOT
HETATM    1  C5  UNL     1      24.535  12.959  55.166  1.00  0.00     0.225 C 
ENDROOT
BRANCH   1   2
HETATM    2  C4  UNL     1      23.462  13.271  54.216  1.00  0.00     0.119 C 
HETATM    3  N4  UNL     1      22.785  12.430  53.383  1.00  0.00    -0.348 N 
HETATM    4  C16 UNL     1      21.502  12.972  52.937  1.00  0.00     0.130 C 
HETATM    5  C22 UNL     1      23.225  11.502  52.472  1.00  0.00     0.066 C 
HETATM    6  C17 UNL     1      20.631  11.787  52.641  1.00  0.00     0.026 C 
HETATM    7  C18 UNL     1      20.996  11.246  51.274  1.00  0.00     0.006 C 
HETATM    8  C21 UNL     1      22.479  11.340  51.162  1.00  0.00     0.050 C 
BRANCH   2   9
HETATM    9  N1  UNL     1      23.443  14.676  53.849  1.00  0.00    -0.313 N 
HETATM   10  C3  UNL     1      24.018  15.322  52.783  1.00  0.00     0.237 C 
HETATM   11  O1  UNL     1      24.678  14.760  51.875  1.00  0.00    -0.272 OA
ATOM     12  H1  UNL     1      22.918  15.279  54.483  1.00  0.00     0.170 HD
BRANCH  10  13
HETATM   13  C2  UNL     1      23.911  16.810  52.616  1.00  0.00     0.146 C 
HETATM   14  C1  UNL     1      22.534  17.338  52.840  1.00  0.00     0.032 C 
HETATM   15 BR1  UNL     1      25.216  17.822  53.532  1.00  0.00    -0.082 Br
ENDBRANCH  10  13
ENDBRANCH   2   9
BRANCH   7  16
HETATM   16  C19 UNL     1      20.445  12.133  50.150  1.00  0.00     0.145 C 
BRANCH  16  17
HETATM   17  S1  UNL     1      20.743  11.443  48.553  1.00  0.00     0.141 S 
HETATM   18  C20 UNL     1      19.225  11.299  47.617  1.00  0.00     0.161 C 
HETATM   19  O5  UNL     1      21.392  10.098  48.569  1.00  0.00    -0.228 OA
HETATM   20  O6  UNL     1      21.677  12.401  47.833  1.00  0.00    -0.228 OA
ENDBRANCH  16  17
ENDBRANCH   7  16
ENDBRANCH   1   2
BRANCH   1  21
HETATM   21  O2  UNL     1      24.051  12.012  56.088  1.00  0.00    -0.383 OA
ATOM     22  H2  UNL     1      23.871  12.457  56.908  1.00  0.00     0.211 HD
ENDBRANCH   1  21
BRANCH   1  23
HETATM   23  C6  UNL     1      25.822  12.435  54.638  1.00  0.00     0.060 A 
HETATM   24  C7  UNL     1      26.807  13.344  54.223  1.00  0.00     0.153 A 
HETATM   25  N2  UNL     1      27.808  12.641  53.707  1.00  0.00    -0.315 N 
HETATM   26  C8  UNL     1      27.539  11.345  53.760  1.00  0.00     0.170 A 
ATOM     27  H2  UNL     1      28.663  13.043  53.323  1.00  0.00     0.170 HD
HETATM   28  C9  UNL     1      26.276  11.195  54.347  1.00  0.00     0.104 A 
BRANCH  24  29
HETATM   29  O3  UNL     1      26.754  14.759  54.328  1.00  0.00    -0.345 OA
ATOM     30  H3  UNL     1      26.969  15.279  55.093  1.00  0.00     0.219 HD
ENDBRANCH  24  29
BRANCH  26  31
HETATM   31  O4  UNL     1      28.314  10.295  53.340  1.00  0.00    -0.344 OA
ATOM     32  H4  UNL     1      28.696   9.598  53.860  1.00  0.00     0.219 HD
ENDBRANCH  26  31
BRANCH  28  33
HETATM   33  N3  UNL     1      25.581   9.962  54.476  1.00  0.00    -0.321 N 
ATOM     34  H3  UNL     1      24.858   9.687  53.812  1.00  0.00     0.175 HD
BRANCH  33  35
HETATM   35  C10 UNL     1      25.909   9.199  55.479  1.00  0.00    -0.070 C 
BRANCH  35  36
HETATM   36  C11 UNL     1      26.041   8.220  56.326  1.00  0.00     0.109 C 
BRANCH  36  37
HETATM   37  C12 UNL     1      26.522   6.927  55.862  1.00  0.00    -0.003 C 
HETATM   38  C13 UNL     1      27.932   6.984  55.327  1.00  0.00     0.005 C 
HETATM   39  C14 UNL     1      28.420   6.502  56.674  1.00  0.00     0.001 C 
HETATM   40  C15 UNL     1      27.031   5.987  56.933  1.00  0.00     0.005 C 
ENDBRANCH  36  37
ENDBRANCH  35  36
ENDBRANCH  33  35
ENDBRANCH  28  33
ENDBRANCH   1  23
TORSDOF 13
ENDMDL
MODEL 2
REMARK VINA RESULT: -7.573594191      3.197      7.766
REMARK  13 active torsions:
REMARK  status: ('A' for Active; 'I' for Inactive)
REMARK    1  A    between atoms: C2_2  and  C3_4 
REMARK       I    between atoms: C3_4  and  N1_6 
REMARK    2  A    between atoms: N1_6  and  C4_8 
REMARK    3  A    between atoms: C4_8  and  C5_9 
REMARK    4  A    between atoms: C5_9  and  O2_10 
REMARK    5  A    between atoms: C5_9  and  C6_12 
REMARK    6  A    between atoms: C7_13  and  O3_14 
REMARK    7  A    between atoms: C8_18  and  O4_19 
REMARK    8  A    between atoms: C9_21  and  N3_22 
REMARK    9  A    between atoms: N3_22  and  C10_24 
REMARK   10  A    between atoms: C10_24  and  C11_25 
REMARK   11  A    between atoms: C11_25  and  C12_26 
REMARK   12  A    between atoms: C18_33  and  C19_34 
REMARK   13  A    between atoms: C19_34  and  S1_35 
ROOT
HETATM    1  C5  UNL     1      22.896  13.836  51.194  1.00  0.00     0.225 C 
ENDROOT
BRANCH   1   2
HETATM    2  C4  UNL     1      23.968  13.778  52.192  1.00  0.00     0.119 C 
HETATM    3  N4  UNL     1      24.596  12.684  52.712  1.00  0.00    -0.348 N 
HETATM    4  C16 UNL     1      25.895  12.996  53.307  1.00  0.00     0.130 C 
HETATM    5  C22 UNL     1      24.103  11.535  53.278  1.00  0.00     0.066 C 
HETATM    6  C17 UNL     1      26.709  11.739  53.207  1.00  0.00     0.026 C 
HETATM    7  C18 UNL     1      26.302  10.807  54.330  1.00  0.00     0.006 C 
HETATM    8  C21 UNL     1      24.822  10.929  54.467  1.00  0.00     0.050 C 
BRANCH   2   9
HETATM    9  N1  UNL     1      24.044  14.989  52.990  1.00  0.00    -0.313 N 
HETATM   10  C3  UNL     1      24.418  16.262  52.637  1.00  0.00     0.237 C 
HETATM   11  O1  UNL     1      24.752  16.616  51.480  1.00  0.00    -0.272 OA
ATOM     12  H1  UNL     1      23.777  14.877  53.969  1.00  0.00     0.170 HD
BRANCH  10  13
HETATM   13  C2  UNL     1      24.470  17.374  53.645  1.00  0.00     0.146 C 
HETATM   14  C1  UNL     1      25.849  17.874  53.911  1.00  0.00     0.032 C 
HETATM   15 BR1  UNL     1      23.248  18.784  53.354  1.00  0.00    -0.082 Br
ENDBRANCH  10  13
ENDBRANCH   2   9
BRANCH   7  16
HETATM   16  C19 UNL     1      26.875  11.262  55.679  1.00  0.00     0.145 C 
BRANCH  16  17
HETATM   17  S1  UNL     1      28.552  10.754  55.893  1.00  0.00     0.141 S 
HETATM   18  C20 UNL     1      28.937  10.509  57.623  1.00  0.00     0.161 C 
HETATM   19  O5  UNL     1      29.563  11.701  55.335  1.00  0.00    -0.228 OA
HETATM   20  O6  UNL     1      28.700   9.430  55.163  1.00  0.00    -0.228 OA
ENDBRANCH  16  17
ENDBRANCH   7  16
ENDBRANCH   1   2
BRANCH   1  21
HETATM   21  O2  UNL     1      23.218  12.954  50.145  1.00  0.00    -0.383 OA
ATOM     22  H2  UNL     1      22.908  12.087  50.376  1.00  0.00     0.211 HD
ENDBRANCH   1  21
BRANCH   1  23
HETATM   23  C6  UNL     1      21.508  13.517  51.621  1.00  0.00     0.060 A 
HETATM   24  C7  UNL     1      20.737  14.519  52.230  1.00  0.00     0.153 A 
HETATM   25  N2  UNL     1      19.589  13.968  52.604  1.00  0.00    -0.315 N 
HETATM   26  C8  UNL     1      19.564  12.684  52.278  1.00  0.00     0.170 A 
ATOM     27  H2  UNL     1      18.833  14.463  53.076  1.00  0.00     0.170 HD
HETATM   28  C9  UNL     1      20.781  12.378  51.655  1.00  0.00     0.104 A 
BRANCH  24  29
HETATM   29  O3  UNL     1      21.107  15.876  52.421  1.00  0.00    -0.345 OA
ATOM     30  H3  UNL     1      20.611  16.642  52.157  1.00  0.00     0.219 HD
ENDBRANCH  24  29
BRANCH  26  31
HETATM   31  O4  UNL     1      18.562  11.772  52.483  1.00  0.00    -0.344 OA
ATOM     32  H4  UNL     1      17.694  11.918  52.842  1.00  0.00     0.219 HD
ENDBRANCH  26  31
BRANCH  28  33
HETATM   33  N3  UNL     1      21.187  11.074  51.262  1.00  0.00    -0.321 N 
ATOM     34  H3  UNL     1      21.649  10.442  51.914  1.00  0.00     0.175 HD
BRANCH  33  35
HETATM   35  C10 UNL     1      20.941  10.723  50.032  1.00  0.00    -0.070 C 
BRANCH  35  36
HETATM   36  C11 UNL     1      20.768  10.689  48.743  1.00  0.00     0.109 C 
BRANCH  36  37
HETATM   37  C12 UNL     1      20.194  11.842  48.063  1.00  0.00    -0.003 C 
HETATM   38  C13 UNL     1      20.857  12.131  46.740  1.00  0.00     0.005 C 
HETATM   39  C14 UNL     1      19.739  11.376  46.059  1.00  0.00     0.001 C 
HETATM   40  C15 UNL     1      18.913  11.589  47.298  1.00  0.00     0.005 C 
ENDBRANCH  36  37
ENDBRANCH  35  36
ENDBRANCH  33  35
ENDBRANCH  28  33
ENDBRANCH   1  23
TORSDOF 13
ENDMDL
MODEL 3
REMARK VINA RESULT: -7.515996758      3.452      7.016
REMARK  13 active torsions:
REMARK  status: ('A' for Active; 'I' for Inactive)
REMARK    1  A    between atoms: C2_2  and  C3_4 
REMARK       I    between atoms: C3_4  and  N1_6 
REMARK    2  A    between atoms: N1_6  and  C4_8 
REMARK    3  A    between atoms: C4_8  and  C5_9 
REMARK    4  A    between atoms: C5_9  and  O2_10 
REMARK    5  A    between atoms: C5_9  and  C6_12 
REMARK    6  A    between atoms: C7_13  and  O3_14 
REMARK    7  A    between atoms: C8_18  and  O4_19 
REMARK    8  A    between atoms: C9_21  and  N3_22 
REMARK    9  A    between atoms: N3_22  and  C10_24 
REMARK   10  A    between atoms: C10_24  and  C11_25 
REMARK   11  A    between atoms: C11_25  and  C12_26 
REMARK   12  A    between atoms: C18_33  and  C19_34 
REMARK   13  A    between atoms: C19_34  and  S1_35 
ROOT
HETATM    1  C5  UNL     1      20.403  15.187  52.842  1.00  0.00     0.225 C 
ENDROOT
BRANCH   1   2
HETATM    2  C4  UNL     1      21.855  14.998  52.900  1.00  0.00     0.119 C 
HETATM    3  N4  UNL     1      22.577  13.852  52.743  1.00  0.00    -0.348 N 
HETATM    4  C16 UNL     1      23.977  14.095  52.400  1.00  0.00     0.130 C 
HETATM    5  C22 UNL     1      22.465  12.617  53.335  1.00  0.00     0.066 C 
HETATM    6  C17 UNL     1      24.433  12.888  51.634  1.00  0.00     0.026 C 
HETATM    7  C18 UNL     1      24.759  11.784  52.619  1.00  0.00     0.006 C 
HETATM    8  C21 UNL     1      23.723  11.850  53.689  1.00  0.00     0.050 C 
BRANCH   2   9
HETATM    9  N1  UNL     1      22.522  16.073  53.614  1.00  0.00    -0.313 N 
HETATM   10  C3  UNL     1      22.692  17.392  53.274  1.00  0.00     0.237 C 
HETATM   11  O1  UNL     1      22.245  17.927  52.231  1.00  0.00    -0.272 OA
ATOM     12  H1  UNL     1      22.929  15.805  54.511  1.00  0.00     0.170 HD
BRANCH  10  13
HETATM   13  C2  UNL     1      23.466  18.335  54.150  1.00  0.00     0.146 C 
HETATM   14  C1  UNL     1      23.726  17.801  55.518  1.00  0.00     0.032 C 
HETATM   15 BR1  UNL     1      25.021  19.069  53.369  1.00  0.00    -0.082 Br
ENDBRANCH  10  13
ENDBRANCH   2   9
BRANCH   7  16
HETATM   16  C19 UNL     1      26.095  12.037  53.330  1.00  0.00     0.145 C 
BRANCH  16  17
HETATM   17  S1  UNL     1      27.075  10.572  53.442  1.00  0.00     0.141 S 
HETATM   18  C20 UNL     1      28.609  10.885  54.308  1.00  0.00     0.161 C 
HETATM   19  O5  UNL     1      27.417   9.953  52.127  1.00  0.00    -0.228 OA
HETATM   20  O6  UNL     1      26.259   9.564  54.233  1.00  0.00    -0.228 OA
ENDBRANCH  16  17
ENDBRANCH   7  16
ENDBRANCH   1   2
BRANCH   1  21
HETATM   21  O2  UNL     1      19.963  14.858  51.546  1.00  0.00    -0.383 OA
ATOM     22  H2  UNL     1      19.207  15.395  51.340  1.00  0.00     0.211 HD
ENDBRANCH   1  21
BRANCH   1  23
HETATM   23  C6  UNL     1      19.549  14.432  53.797  1.00  0.00     0.060 A 
HETATM   24  C7  UNL     1      19.658  14.704  55.169  1.00  0.00     0.153 A 
HETATM   25  N2  UNL     1      18.878  13.844  55.811  1.00  0.00    -0.315 N 
HETATM   26  C8  UNL     1      18.272  13.038  54.951  1.00  0.00     0.170 A 
ATOM     27  H2  UNL     1      18.760  13.809  56.823  1.00  0.00     0.170 HD
HETATM   28  C9  UNL     1      18.691  13.395  53.663  1.00  0.00     0.104 A 
BRANCH  24  29
HETATM   29  O3  UNL     1      20.456  15.711  55.773  1.00  0.00    -0.345 OA
ATOM     30  H3  UNL     1      20.218  16.255  56.514  1.00  0.00     0.219 HD
ENDBRANCH  24  29
BRANCH  26  31
HETATM   31  O4  UNL     1      17.385  12.025  55.211  1.00  0.00    -0.344 OA
ATOM     32  H4  UNL     1      17.509  11.090  55.103  1.00  0.00     0.219 HD
ENDBRANCH  26  31
BRANCH  28  33
HETATM   33  N3  UNL     1      18.355  12.692  52.475  1.00  0.00    -0.321 N 
ATOM     34  H3  UNL     1      17.452  12.819  52.019  1.00  0.00     0.175 HD
BRANCH  33  35
HETATM   35  C10 UNL     1      19.251  11.878  51.994  1.00  0.00    -0.070 C 
BRANCH  35  36
HETATM   36  C11 UNL     1      20.068  11.215  51.228  1.00  0.00     0.109 C 
BRANCH  36  37
HETATM   37  C12 UNL     1      20.309  11.672  49.866  1.00  0.00    -0.003 C 
HETATM   38  C13 UNL     1      21.634  12.374  49.710  1.00  0.00     0.005 C 
HETATM   39  C14 UNL     1      22.219  11.075  49.207  1.00  0.00     0.001 C 
HETATM   40  C15 UNL     1      20.817  10.626  48.898  1.00  0.00     0.005 C 
ENDBRANCH  36  37
ENDBRANCH  35  36
ENDBRANCH  33  35
ENDBRANCH  28  33
ENDBRANCH   1  23
TORSDOF 13
ENDMDL
MODEL 4
REMARK VINA RESULT: -7.508978116      2.943      7.670
REMARK  13 active torsions:
REMARK  status: ('A' for Active; 'I' for Inactive)
REMARK    1  A    between atoms: C2_2  and  C3_4 
REMARK       I    between atoms: C3_4  and  N1_6 
REMARK    2  A    between atoms: N1_6  and  C4_8 
REMARK    3  A    between atoms: C4_8  and  C5_9 
REMARK    4  A    between atoms: C5_9  and  O2_10 
REMARK    5  A    between atoms: C5_9  and  C6_12 
REMARK    6  A    between atoms: C7_13  and  O3_14 
REMARK    7  A    between atoms: C8_18  and  O4_19 
REMARK    8  A    between atoms: C9_21  and  N3_22 
REMARK    9  A    between atoms: N3_22  and  C10_24 
REMARK   10  A    between atoms: C10_24  and  C11_25 
REMARK   11  A    between atoms: C11_25  and  C12_26 
REMARK   12  A    between atoms: C18_33  and  C19_34 
REMARK   13  A    between atoms: C19_34  and  S1_35 
ROOT
HETATM    1  C5  UNL     1      24.088  13.677  52.127  1.00  0.00     0.225 C 
ENDROOT
BRANCH   1   2
HETATM    2  C4  UNL     1      25.271  13.273  52.894  1.00  0.00     0.119 C 
HETATM    3  N4  UNL     1      25.724  12.016  53.170  1.00  0.00    -0.348 N 
HETATM    4  C16 UNL     1      27.139  11.983  53.538  1.00  0.00     0.130 C 
HETATM    5  C22 UNL     1      25.093  10.917  53.699  1.00  0.00     0.066 C 
HETATM    6  C17 UNL     1      27.635  10.618  53.158  1.00  0.00     0.026 C 
HETATM    7  C18 UNL     1      27.224   9.636  54.236  1.00  0.00     0.006 C 
HETATM    8  C21 UNL     1      25.849  10.023  54.662  1.00  0.00     0.050 C 
BRANCH   2   9
HETATM    9  N1  UNL     1      25.736  14.323  53.783  1.00  0.00    -0.313 N 
HETATM   10  C3  UNL     1      25.322  14.663  55.047  1.00  0.00     0.237 C 
HETATM   11  O1  UNL     1      24.430  14.064  55.695  1.00  0.00    -0.272 OA
ATOM     12  H1  UNL     1      26.491  14.899  53.410  1.00  0.00     0.170 HD
BRANCH  10  13
HETATM   13  C2  UNL     1      25.917  15.831  55.780  1.00  0.00     0.146 C 
HETATM   14  C1  UNL     1      26.220  15.544  57.212  1.00  0.00     0.032 C 
HETATM   15 BR1  UNL     1      27.359  16.683  54.907  1.00  0.00    -0.082 Br
ENDBRANCH  10  13
ENDBRANCH   2   9
BRANCH   7  16
HETATM   16  C19 UNL     1      28.095   9.778  55.491  1.00  0.00     0.145 C 
BRANCH  16  17
HETATM   17  S1  UNL     1      28.936   8.278  55.889  1.00  0.00     0.141 S 
HETATM   18  C20 UNL     1      28.431   7.657  57.489  1.00  0.00     0.161 C 
HETATM   19  O5  UNL     1      30.426   8.386  55.896  1.00  0.00    -0.228 OA
HETATM   20  O6  UNL     1      28.548   7.267  54.823  1.00  0.00    -0.228 OA
ENDBRANCH  16  17
ENDBRANCH   7  16
ENDBRANCH   1   2
BRANCH   1  21
HETATM   21  O2  UNL     1      24.421  13.665  50.759  1.00  0.00    -0.383 OA
ATOM     22  H2  UNL     1      23.656  13.933  50.263  1.00  0.00     0.211 HD
ENDBRANCH   1  21
BRANCH   1  23
HETATM   23  C6  UNL     1      22.838  12.887  52.280  1.00  0.00     0.060 A 
HETATM   24  C7  UNL     1      21.896  13.285  53.241  1.00  0.00     0.153 A 
HETATM   25  N2  UNL     1      20.929  12.376  53.252  1.00  0.00    -0.315 N 
HETATM   26  C8  UNL     1      21.179  11.423  52.366  1.00  0.00     0.170 A 
ATOM     27  H2  UNL     1      20.108  12.407  53.857  1.00  0.00     0.170 HD
HETATM   28  C9  UNL     1      22.394  11.730  51.740  1.00  0.00     0.104 A 
BRANCH  24  29
HETATM   29  O3  UNL     1      21.956  14.442  54.060  1.00  0.00    -0.345 OA
ATOM     30  H3  UNL     1      21.460  15.244  53.946  1.00  0.00     0.219 HD
ENDBRANCH  24  29
BRANCH  26  31
HETATM   31  O4  UNL     1      20.425  10.317  52.067  1.00  0.00    -0.344 OA
ATOM     32  H4  UNL     1      19.940  10.130  51.273  1.00  0.00     0.219 HD
ENDBRANCH  26  31
BRANCH  28  33
HETATM   33  N3  UNL     1      23.063  10.890  50.810  1.00  0.00    -0.321 N 
ATOM     34  H3  UNL     1      23.903  10.374  51.068  1.00  0.00     0.175 HD
BRANCH  33  35
HETATM   35  C10 UNL     1      22.556  10.808  49.613  1.00  0.00    -0.070 C 
BRANCH  35  36
HETATM   36  C11 UNL     1      21.763  10.742  48.583  1.00  0.00     0.109 C 
BRANCH  36  37
HETATM   37  C12 UNL     1      20.864  11.851  48.295  1.00  0.00    -0.003 C 
HETATM   38  C13 UNL     1      20.467  11.920  46.842  1.00  0.00     0.005 C 
HETATM   39  C14 UNL     1      19.192  11.188  47.195  1.00  0.00     0.001 C 
HETATM   40  C15 UNL     1      19.404  11.620  48.620  1.00  0.00     0.005 C 
ENDBRANCH  36  37
ENDBRANCH  35  36
ENDBRANCH  33  35
ENDBRANCH  28  33
ENDBRANCH   1  23
TORSDOF 13
ENDMDL
MODEL 5
REMARK VINA RESULT: -7.391636739      2.802      7.587
REMARK  13 active torsions:
REMARK  status: ('A' for Active; 'I' for Inactive)
REMARK    1  A    between atoms: C2_2  and  C3_4 
REMARK       I    between atoms: C3_4  and  N1_6 
REMARK    2  A    between atoms: N1_6  and  C4_8 
REMARK    3  A    between atoms: C4_8  and  C5_9 
REMARK    4  A    between atoms: C5_9  and  O2_10 
REMARK    5  A    between atoms: C5_9  and  C6_12 
REMARK    6  A    between atoms: C7_13  and  O3_14 
REMARK    7  A    between atoms: C8_18  and  O4_19 
REMARK    8  A    between atoms: C9_21  and  N3_22 
REMARK    9  A    between atoms: N3_22  and  C10_24 
REMARK   10  A    between atoms: C10_24  and  C11_25 
REMARK   11  A    between atoms: C11_25  and  C12_26 
REMARK   12  A    between atoms: C18_33  and  C19_34 
REMARK   13  A    between atoms: C19_34  and  S1_35 
ROOT
HETATM    1  C5  UNL     1      22.554  13.818  51.128  1.00  0.00     0.225 C 
ENDROOT
BRANCH   1   2
HETATM    2  C4  UNL     1      23.810  13.647  51.864  1.00  0.00     0.119 C 
HETATM    3  N4  UNL     1      24.206  12.605  52.651  1.00  0.00    -0.348 N 
HETATM    4  C16 UNL     1      25.655  12.545  52.839  1.00  0.00     0.130 C 
HETATM    5  C22 UNL     1      23.588  11.970  53.699  1.00  0.00     0.066 C 
HETATM    6  C17 UNL     1      25.981  11.103  53.097  1.00  0.00     0.026 C 
HETATM    7  C18 UNL     1      25.675  10.790  54.547  1.00  0.00     0.006 C 
HETATM    8  C21 UNL     1      24.418  11.517  54.884  1.00  0.00     0.050 C 
BRANCH   2   9
HETATM    9  N1  UNL     1      24.488  14.910  52.098  1.00  0.00    -0.313 N 
HETATM   10  C3  UNL     1      24.410  15.775  53.161  1.00  0.00     0.237 C 
HETATM   11  O1  UNL     1      23.711  15.590  54.187  1.00  0.00    -0.272 OA
ATOM     12  H1  UNL     1      25.124  15.200  51.354  1.00  0.00     0.170 HD
BRANCH  10  13
HETATM   13  C2  UNL     1      25.174  17.068  53.179  1.00  0.00     0.146 C 
HETATM   14  C1  UNL     1      24.302  18.275  53.262  1.00  0.00     0.032 C 
HETATM   15 BR1  UNL     1      26.606  17.142  54.407  1.00  0.00    -0.082 Br
ENDBRANCH  10  13
ENDBRANCH   2   9
BRANCH   7  16
HETATM   16  C19 UNL     1      26.743  11.366  55.488  1.00  0.00     0.145 C 
BRANCH  16  17
HETATM   17  S1  UNL     1      28.197  10.365  55.533  1.00  0.00     0.141 S 
HETATM   18  C20 UNL     1      27.844   8.687  55.025  1.00  0.00     0.161 C 
HETATM   19  O5  UNL     1      28.865  10.302  56.867  1.00  0.00    -0.228 OA
HETATM   20  O6  UNL     1      29.178  10.982  54.550  1.00  0.00    -0.228 OA
ENDBRANCH  16  17
ENDBRANCH   7  16
ENDBRANCH   1   2
BRANCH   1  21
HETATM   21  O2  UNL     1      22.552  12.924  50.040  1.00  0.00    -0.383 OA
ATOM     22  H2  UNL     1      21.696  12.516  49.989  1.00  0.00     0.211 HD
ENDBRANCH   1  21
BRANCH   1  23
HETATM   23  C6  UNL     1      21.271  13.624  51.854  1.00  0.00     0.060 A 
HETATM   24  C7  UNL     1      20.702  14.713  52.531  1.00  0.00     0.153 A 
HETATM   25  N2  UNL     1      19.629  14.267  53.174  1.00  0.00    -0.315 N 
HETATM   26  C8  UNL     1      19.466  12.970  52.959  1.00  0.00     0.170 A 
ATOM     27  H2  UNL     1      19.017  14.843  53.751  1.00  0.00     0.170 HD
HETATM   28  C9  UNL     1      20.506  12.542  52.124  1.00  0.00     0.104 A 
BRANCH  24  29
HETATM   29  O3  UNL     1      21.177  16.050  52.537  1.00  0.00    -0.345 OA
ATOM     30  H3  UNL     1      21.530  16.523  53.281  1.00  0.00     0.219 HD
ENDBRANCH  24  29
BRANCH  26  31
HETATM   31  O4  UNL     1      18.481  12.144  53.434  1.00  0.00    -0.344 OA
ATOM     32  H4  UNL     1      18.569  11.376  53.985  1.00  0.00     0.219 HD
ENDBRANCH  26  31
BRANCH  28  33
HETATM   33  N3  UNL     1      20.749  11.191  51.756  1.00  0.00    -0.321 N 
ATOM     34  H3  UNL     1      21.353  10.588  52.314  1.00  0.00     0.175 HD
BRANCH  33  35
HETATM   35  C10 UNL     1      20.165  10.756  50.676  1.00  0.00    -0.070 C 
BRANCH  35  36
HETATM   36  C11 UNL     1      19.533  10.646  49.544  1.00  0.00     0.109 C 
BRANCH  36  37
HETATM   37  C12 UNL     1      19.451  11.792  48.650  1.00  0.00    -0.003 C 
HETATM   38  C13 UNL     1      20.544  11.803  47.611  1.00  0.00     0.005 C 
HETATM   39  C14 UNL     1      19.571  11.178  46.637  1.00  0.00     0.001 C 
HETATM   40  C15 UNL     1      18.456  11.677  47.515  1.00  0.00     0.005 C 
ENDBRANCH  36  37
ENDBRANCH  35  36
ENDBRANCH  33  35
ENDBRANCH  28  33
ENDBRANCH   1  23
TORSDOF 13
ENDMDL
