MODEL 1
REMARK VINA RESULT: -7.684406906      0.000      0.000
REMARK  11 active torsions:
REMARK  status: ('A' for Active; 'I' for Inactive)
REMARK    1  A    between atoms: C4_4  and  C5_5 
REMARK    2  A    between atoms: C5_5  and  C6_6 
REMARK    3  A    between atoms: N2_10  and  C8_11 
REMARK    4  A    between atoms: C12_16  and  O2_17 
REMARK    5  A    between atoms: C13_19  and  O3_20 
REMARK    6  A    between atoms: C17_26  and  O4_27 
REMARK    7  A    between atoms: O4_27  and  C18_28 
REMARK    8  A    between atoms: C18_28  and  C19_29 
REMARK    9  A    between atoms: C19_29  and  C20_30 
REMARK   10  A    between atoms: C20_30  and  O5_31 
REMARK   11  A    between atoms: O5_31  and  N3_32 
ROOT
HETATM    1  C1  UNL     1     -49.915 -10.180 -22.847  1.00  0.00     0.051 C 
HETATM    2  C2  UNL     1     -50.614 -11.381 -23.300  1.00  0.00    -0.028 A 
HETATM    3  C3  UNL     1     -51.340 -11.470 -24.501  1.00  0.00     0.018 A 
HETATM    4  C4  UNL     1     -51.809 -12.692 -24.849  1.00  0.00    -0.036 A 
HETATM    5  C15 UNL     1     -51.602 -13.823 -24.075  1.00  0.00     0.020 A 
HETATM    6 BR1  UNL     1     -52.294 -15.547 -24.652  1.00  0.00    -0.050 Br
HETATM    7  C16 UNL     1     -50.898 -13.759 -22.914  1.00  0.00     0.057 A 
HETATM    8  C17 UNL     1     -50.423 -12.535 -22.533  1.00  0.00     0.076 A 
ENDROOT
BRANCH   4   9
HETATM    9  C5  UNL     1     -52.632 -12.870 -26.043  1.00  0.00     0.081 C 
BRANCH   9  10
HETATM   10  C6  UNL     1     -53.035 -11.625 -26.729  1.00  0.00    -0.020 A 
HETATM   11  C7  UNL     1     -52.548 -10.951 -27.787  1.00  0.00     0.116 A 
HETATM   12  N1  UNL     1     -53.347  -9.881 -28.015  1.00  0.00    -0.307 N 
HETATM   13  N2  UNL     1     -54.322  -9.901 -27.106  1.00  0.00    -0.271 N 
ATOM     14  H1  UNL     1     -53.226  -9.184 -28.751  1.00  0.00     0.186 HD
HETATM   15  C14 UNL     1     -54.168 -10.944 -26.293  1.00  0.00     0.122 A 
BRANCH  13  16
HETATM   16  C8  UNL     1     -55.490  -9.014 -27.136  1.00  0.00     0.275 C 
HETATM   17  O1  UNL     1     -55.327  -8.130 -28.192  1.00  0.00    -0.349 OA
HETATM   18  C9  UNL     1     -55.886  -6.945 -27.780  1.00  0.00     0.085 C 
HETATM   19  C10 UNL     1     -57.387  -7.183 -27.640  1.00  0.00     0.048 C 
HETATM   20  C11 UNL     1     -55.592  -5.794 -28.668  1.00  0.00     0.048 C 
HETATM   21  C12 UNL     1     -55.254  -6.705 -26.429  1.00  0.00     0.185 C 
HETATM   22  C13 UNL     1     -55.089  -8.100 -25.927  1.00  0.00     0.200 C 
BRANCH  21  23
HETATM   23  O2  UNL     1     -56.091  -5.952 -25.596  1.00  0.00    -0.390 OA
ATOM     24  H2  UNL     1     -55.592  -5.451 -24.961  1.00  0.00     0.210 HD
ENDBRANCH  21  23
BRANCH  22  25
HETATM   25  O3  UNL     1     -53.673  -8.269 -25.750  1.00  0.00    -0.388 OA
ATOM     26  H3  UNL     1     -53.258  -7.586 -26.263  1.00  0.00     0.210 HD
ENDBRANCH  22  25
ENDBRANCH  13  16
ENDBRANCH   9  10
ENDBRANCH   4   9
BRANCH   8  27
HETATM   27  O4  UNL     1     -49.755 -12.394 -21.373  1.00  0.00    -0.350 OA
BRANCH  27  28
HETATM   28  C18 UNL     1     -49.878 -12.724 -20.078  1.00  0.00     0.178 C 
BRANCH  28  29
HETATM   29  C19 UNL     1     -50.668 -11.474 -19.531  1.00  0.00     0.055 C 
BRANCH  29  30
HETATM   30  C20 UNL     1     -50.047 -11.207 -18.140  1.00  0.00     0.196 C 
BRANCH  30  31
HETATM   31  O5  UNL     1     -48.737 -10.976 -18.565  1.00  0.00    -0.303 OA
BRANCH  31  32
HETATM   32  N3  UNL     1     -48.313  -9.824 -18.886  1.00  0.00    -0.193 NA
HETATM   33  C21 UNL     1     -47.413  -9.523 -19.830  1.00  0.00     0.146 C 
HETATM   34  C22 UNL     1     -46.087 -10.237 -19.490  1.00  0.00     0.184 C 
HETATM   35  O6  UNL     1     -45.743  -9.846 -18.231  1.00  0.00    -0.389 OA
HETATM   36  C23 UNL     1     -46.675 -10.035 -17.247  1.00  0.00     0.184 C 
HETATM   37  C24 UNL     1     -47.941  -9.230 -17.552  1.00  0.00     0.146 C 
ENDBRANCH  31  32
ENDBRANCH  30  31
ENDBRANCH  29  30
ENDBRANCH  28  29
ENDBRANCH  27  28
ENDBRANCH   8  27
TORSDOF 11
ENDMDL
MODEL 2
REMARK VINA RESULT: -7.661417381      1.606      1.744
REMARK  11 active torsions:
REMARK  status: ('A' for Active; 'I' for Inactive)
REMARK    1  A    between atoms: C4_4  and  C5_5 
REMARK    2  A    between atoms: C5_5  and  C6_6 
REMARK    3  A    between atoms: N2_10  and  C8_11 
REMARK    4  A    between atoms: C12_16  and  O2_17 
REMARK    5  A    between atoms: C13_19  and  O3_20 
REMARK    6  A    between atoms: C17_26  and  O4_27 
REMARK    7  A    between atoms: O4_27  and  C18_28 
REMARK    8  A    between atoms: C18_28  and  C19_29 
REMARK    9  A    between atoms: C19_29  and  C20_30 
REMARK   10  A    between atoms: C20_30  and  O5_31 
REMARK   11  A    between atoms: O5_31  and  N3_32 
ROOT
HETATM    1  C1  UNL     1     -49.337  -9.967 -22.480  1.00  0.00     0.051 C 
HETATM    2  C2  UNL     1     -50.690 -10.412 -22.807  1.00  0.00    -0.028 A 
HETATM    3  C3  UNL     1     -51.163 -10.612 -24.116  1.00  0.00     0.018 A 
HETATM    4  C4  UNL     1     -52.393 -11.164 -24.249  1.00  0.00    -0.036 A 
HETATM    5  C15 UNL     1     -53.175 -11.524 -23.163  1.00  0.00     0.020 A 
HETATM    6 BR1  UNL     1     -54.925 -12.328 -23.438  1.00  0.00    -0.050 Br
HETATM    7  C16 UNL     1     -52.733 -11.344 -21.890  1.00  0.00     0.057 A 
HETATM    8  C17 UNL     1     -51.500 -10.779 -21.726  1.00  0.00     0.076 A 
ENDROOT
BRANCH   4   9
HETATM    9  C5  UNL     1     -52.997 -11.346 -25.567  1.00  0.00     0.081 C 
BRANCH   9  10
HETATM   10  C6  UNL     1     -53.390 -10.104 -26.263  1.00  0.00    -0.020 A 
HETATM   11  C7  UNL     1     -52.718  -9.207 -27.010  1.00  0.00     0.116 A 
HETATM   12  N1  UNL     1     -53.597  -8.271 -27.444  1.00  0.00    -0.307 N 
HETATM   13  N2  UNL     1     -54.800  -8.594 -26.972  1.00  0.00    -0.271 N 
ATOM     14  H1  UNL     1     -53.377  -7.465 -28.029  1.00  0.00     0.186 HD
HETATM   15  C14 UNL     1     -54.723  -9.702 -26.237  1.00  0.00     0.122 A 
BRANCH  13  16
HETATM   16  C8  UNL     1     -56.045  -7.929 -27.375  1.00  0.00     0.275 C 
HETATM   17  O1  UNL     1     -55.754  -7.087 -28.437  1.00  0.00    -0.349 OA
HETATM   18  C9  UNL     1     -56.580  -6.000 -28.293  1.00  0.00     0.085 C 
HETATM   19  C10 UNL     1     -58.008  -6.491 -28.505  1.00  0.00     0.048 C 
HETATM   20  C11 UNL     1     -56.249  -4.863 -29.186  1.00  0.00     0.048 C 
HETATM   21  C12 UNL     1     -56.366  -5.582 -26.856  1.00  0.00     0.185 C 
HETATM   22  C13 UNL     1     -56.121  -6.897 -26.197  1.00  0.00     0.200 C 
BRANCH  21  23
HETATM   23  O2  UNL     1     -57.499  -4.944 -26.333  1.00  0.00    -0.390 OA
ATOM     24  H2  UNL     1     -57.270  -4.350 -25.628  1.00  0.00     0.210 HD
ENDBRANCH  21  23
BRANCH  22  25
HETATM   25  O3  UNL     1     -54.791  -6.804 -25.660  1.00  0.00    -0.388 OA
ATOM     26  H3  UNL     1     -54.891  -6.718 -24.719  1.00  0.00     0.210 HD
ENDBRANCH  22  25
ENDBRANCH  13  16
ENDBRANCH   9  10
ENDBRANCH   4   9
BRANCH   8  27
HETATM   27  O4  UNL     1     -51.020 -10.533 -20.494  1.00  0.00    -0.350 OA
BRANCH  27  28
HETATM   28  C18 UNL     1     -51.456 -10.122 -19.292  1.00  0.00     0.178 C 
BRANCH  28  29
HETATM   29  C19 UNL     1     -50.692 -11.124 -18.344  1.00  0.00     0.055 C 
BRANCH  29  30
HETATM   30  C20 UNL     1     -49.502 -11.625 -19.196  1.00  0.00     0.196 C 
BRANCH  30  31
HETATM   31  O5  UNL     1     -48.481 -11.017 -18.463  1.00  0.00    -0.303 OA
BRANCH  31  32
HETATM   32  N3  UNL     1     -48.041  -9.857 -18.732  1.00  0.00    -0.193 NA
HETATM   33  C21 UNL     1     -47.140  -9.527 -19.665  1.00  0.00     0.146 C 
HETATM   34  C22 UNL     1     -45.823 -10.276 -19.362  1.00  0.00     0.184 C 
HETATM   35  O6  UNL     1     -45.469  -9.948 -18.088  1.00  0.00    -0.389 OA
HETATM   36  C23 UNL     1     -46.402 -10.168 -17.110  1.00  0.00     0.184 C 
HETATM   37  C24 UNL     1     -47.656  -9.331 -17.374  1.00  0.00     0.146 C 
ENDBRANCH  31  32
ENDBRANCH  30  31
ENDBRANCH  29  30
ENDBRANCH  28  29
ENDBRANCH  27  28
ENDBRANCH   8  27
TORSDOF 11
ENDMDL
MODEL 3
REMARK VINA RESULT: -7.507592982      2.768      4.113
REMARK  11 active torsions:
REMARK  status: ('A' for Active; 'I' for Inactive)
REMARK    1  A    between atoms: C4_4  and  C5_5 
REMARK    2  A    between atoms: C5_5  and  C6_6 
REMARK    3  A    between atoms: N2_10  and  C8_11 
REMARK    4  A    between atoms: C12_16  and  O2_17 
REMARK    5  A    between atoms: C13_19  and  O3_20 
REMARK    6  A    between atoms: C17_26  and  O4_27 
REMARK    7  A    between atoms: O4_27  and  C18_28 
REMARK    8  A    between atoms: C18_28  and  C19_29 
REMARK    9  A    between atoms: C19_29  and  C20_30 
REMARK   10  A    between atoms: C20_30  and  O5_31 
REMARK   11  A    between atoms: O5_31  and  N3_32 
ROOT
HETATM    1  C1  UNL     1     -49.908 -11.495 -22.679  1.00  0.00     0.051 C 
HETATM    2  C2  UNL     1     -51.346 -11.248 -22.754  1.00  0.00    -0.028 A 
HETATM    3  C3  UNL     1     -51.954 -10.378 -23.678  1.00  0.00     0.018 A 
HETATM    4  C4  UNL     1     -53.308 -10.367 -23.716  1.00  0.00    -0.036 A 
HETATM    5  C15 UNL     1     -54.087 -11.163 -22.893  1.00  0.00     0.020 A 
HETATM    6 BR1  UNL     1     -56.027 -11.102 -23.020  1.00  0.00    -0.050 Br
HETATM    7  C16 UNL     1     -53.520 -12.014 -21.997  1.00  0.00     0.057 A 
HETATM    8  C17 UNL     1     -52.155 -12.038 -21.930  1.00  0.00     0.076 A 
ENDROOT
BRANCH   4   9
HETATM    9  C5  UNL     1     -54.027  -9.447 -24.593  1.00  0.00     0.081 C 
BRANCH   9  10
HETATM   10  C6  UNL     1     -53.916  -9.728 -26.039  1.00  0.00    -0.020 A 
HETATM   11  C7  UNL     1     -53.243  -9.143 -27.048  1.00  0.00     0.116 A 
HETATM   12  N1  UNL     1     -53.468  -9.854 -28.179  1.00  0.00    -0.307 N 
HETATM   13  N2  UNL     1     -54.269 -10.872 -27.866  1.00  0.00    -0.271 N 
ATOM     14  H1  UNL     1     -53.091  -9.648 -29.104  1.00  0.00     0.186 HD
HETATM   15  C14 UNL     1     -54.576 -10.831 -26.570  1.00  0.00     0.122 A 
BRANCH  13  16
HETATM   16  C8  UNL     1     -54.592 -11.974 -28.780  1.00  0.00     0.275 C 
HETATM   17  O1  UNL     1     -55.329 -12.911 -28.073  1.00  0.00    -0.349 OA
HETATM   18  C9  UNL     1     -54.964 -14.135 -28.577  1.00  0.00     0.085 C 
HETATM   19  C10 UNL     1     -55.459 -14.190 -30.020  1.00  0.00     0.048 C 
HETATM   20  C11 UNL     1     -55.451 -15.289 -27.784  1.00  0.00     0.048 C 
HETATM   21  C12 UNL     1     -53.454 -14.102 -28.531  1.00  0.00     0.185 C 
HETATM   22  C13 UNL     1     -53.181 -12.658 -28.787  1.00  0.00     0.200 C 
BRANCH  21  23
HETATM   23  O2  UNL     1     -52.891 -14.918 -29.521  1.00  0.00    -0.390 OA
ATOM     24  H2  UNL     1     -52.054 -14.579 -29.817  1.00  0.00     0.210 HD
ENDBRANCH  21  23
BRANCH  22  25
HETATM   25  O3  UNL     1     -52.503 -12.190 -27.609  1.00  0.00    -0.388 OA
ATOM     26  H3  UNL     1     -52.459 -11.245 -27.687  1.00  0.00     0.210 HD
ENDBRANCH  22  25
ENDBRANCH  13  16
ENDBRANCH   9  10
ENDBRANCH   4   9
BRANCH   8  27
HETATM   27  O4  UNL     1     -51.530 -12.826 -21.036  1.00  0.00    -0.350 OA
BRANCH  27  28
HETATM   28  C18 UNL     1     -51.628 -13.183 -19.746  1.00  0.00     0.178 C 
BRANCH  28  29
HETATM   29  C19 UNL     1     -50.158 -12.904 -19.251  1.00  0.00     0.055 C 
BRANCH  29  30
HETATM   30  C20 UNL     1     -50.210 -11.464 -18.687  1.00  0.00     0.196 C 
BRANCH  30  31
HETATM   31  O5  UNL     1     -48.860 -11.150 -18.859  1.00  0.00    -0.303 OA
BRANCH  31  32
HETATM   32  N3  UNL     1     -48.463  -9.991 -19.189  1.00  0.00    -0.193 NA
HETATM   33  C21 UNL     1     -47.490  -9.683 -20.056  1.00  0.00     0.146 C 
HETATM   34  C22 UNL     1     -46.171 -10.313 -19.558  1.00  0.00     0.184 C 
HETATM   35  O6  UNL     1     -45.970  -9.855 -18.292  1.00  0.00    -0.389 OA
HETATM   36  C23 UNL     1     -46.984 -10.052 -17.393  1.00  0.00     0.184 C 
HETATM   37  C24 UNL     1     -48.251  -9.326 -17.854  1.00  0.00     0.146 C 
ENDBRANCH  31  32
ENDBRANCH  30  31
ENDBRANCH  29  30
ENDBRANCH  28  29
ENDBRANCH  27  28
ENDBRANCH   8  27
TORSDOF 11
ENDMDL
MODEL 4
REMARK VINA RESULT: -7.281560859      1.633      2.443
REMARK  11 active torsions:
REMARK  status: ('A' for Active; 'I' for Inactive)
REMARK    1  A    between atoms: C4_4  and  C5_5 
REMARK    2  A    between atoms: C5_5  and  C6_6 
REMARK    3  A    between atoms: N2_10  and  C8_11 
REMARK    4  A    between atoms: C12_16  and  O2_17 
REMARK    5  A    between atoms: C13_19  and  O3_20 
REMARK    6  A    between atoms: C17_26  and  O4_27 
REMARK    7  A    between atoms: O4_27  and  C18_28 
REMARK    8  A    between atoms: C18_28  and  C19_29 
REMARK    9  A    between atoms: C19_29  and  C20_30 
REMARK   10  A    between atoms: C20_30  and  O5_31 
REMARK   11  A    between atoms: O5_31  and  N3_32 
ROOT
HETATM    1  C1  UNL     1     -49.892 -10.008 -22.674  1.00  0.00     0.051 C 
HETATM    2  C2  UNL     1     -50.778 -10.651 -23.642  1.00  0.00    -0.028 A 
HETATM    3  C3  UNL     1     -51.359  -9.994 -24.741  1.00  0.00     0.018 A 
HETATM    4  C4  UNL     1     -52.040 -10.760 -25.627  1.00  0.00    -0.036 A 
HETATM    5  C15 UNL     1     -52.178 -12.131 -25.482  1.00  0.00     0.020 A 
HETATM    6 BR1  UNL     1     -53.158 -13.164 -26.808  1.00  0.00    -0.050 Br
HETATM    7  C16 UNL     1     -51.619 -12.785 -24.430  1.00  0.00     0.057 A 
HETATM    8  C17 UNL     1     -50.935 -12.035 -23.514  1.00  0.00     0.076 A 
ENDROOT
BRANCH   4   9
HETATM    9  C5  UNL     1     -52.736 -10.158 -26.762  1.00  0.00     0.081 C 
BRANCH   9  10
HETATM   10  C6  UNL     1     -53.998  -9.462 -26.438  1.00  0.00    -0.020 A 
HETATM   11  C7  UNL     1     -55.026  -9.741 -25.614  1.00  0.00     0.116 A 
HETATM   12  N1  UNL     1     -55.911  -8.716 -25.675  1.00  0.00    -0.307 N 
HETATM   13  N2  UNL     1     -55.427  -7.811 -26.525  1.00  0.00    -0.271 N 
ATOM     14  H1  UNL     1     -56.790  -8.649 -25.162  1.00  0.00     0.186 HD
HETATM   15  C14 UNL     1     -54.263  -8.227 -27.023  1.00  0.00     0.122 A 
BRANCH  13  16
HETATM   16  C8  UNL     1     -56.004  -6.476 -26.719  1.00  0.00     0.275 C 
HETATM   17  O1  UNL     1     -57.150  -6.391 -25.945  1.00  0.00    -0.349 OA
HETATM   18  C9  UNL     1     -58.025  -5.605 -26.653  1.00  0.00     0.085 C 
HETATM   19  C10 UNL     1     -57.428  -4.202 -26.702  1.00  0.00     0.048 C 
HETATM   20  C11 UNL     1     -59.407  -5.597 -26.115  1.00  0.00     0.048 C 
HETATM   21  C12 UNL     1     -58.031  -6.232 -28.028  1.00  0.00     0.185 C 
HETATM   22  C13 UNL     1     -56.627  -6.723 -28.137  1.00  0.00     0.200 C 
BRANCH  21  23
HETATM   23  O2  UNL     1     -58.327  -5.289 -29.021  1.00  0.00    -0.390 OA
ATOM     24  H2  UNL     1     -59.265  -5.179 -29.128  1.00  0.00     0.210 HD
ENDBRANCH  21  23
BRANCH  22  25
HETATM   25  O3  UNL     1     -56.739  -8.148 -28.282  1.00  0.00    -0.388 OA
ATOM     26  H3  UNL     1     -57.167  -8.296 -29.117  1.00  0.00     0.210 HD
ENDBRANCH  22  25
ENDBRANCH  13  16
ENDBRANCH   9  10
ENDBRANCH   4   9
BRANCH   8  27
HETATM   27  O4  UNL     1     -50.394 -12.613 -22.427  1.00  0.00    -0.350 OA
BRANCH  27  28
HETATM   28  C18 UNL     1     -50.779 -13.145 -21.256  1.00  0.00     0.178 C 
BRANCH  28  29
HETATM   29  C19 UNL     1     -49.500 -12.874 -20.376  1.00  0.00     0.055 C 
BRANCH  29  30
HETATM   30  C20 UNL     1     -49.972 -11.849 -19.318  1.00  0.00     0.196 C 
BRANCH  30  31
HETATM   31  O5  UNL     1     -48.721 -11.309 -19.014  1.00  0.00    -0.303 OA
BRANCH  31  32
HETATM   32  N3  UNL     1     -48.395 -10.120 -19.314  1.00  0.00    -0.193 NA
HETATM   33  C21 UNL     1     -47.342  -9.724 -20.039  1.00  0.00     0.146 C 
HETATM   34  C22 UNL     1     -46.054 -10.211 -19.340  1.00  0.00     0.184 C 
HETATM   35  O6  UNL     1     -46.087  -9.720 -18.070  1.00  0.00    -0.389 OA
HETATM   36  C23 UNL     1     -47.197 -10.009 -17.322  1.00  0.00     0.184 C 
HETATM   37  C24 UNL     1     -48.448  -9.421 -17.980  1.00  0.00     0.146 C 
ENDBRANCH  31  32
ENDBRANCH  30  31
ENDBRANCH  29  30
ENDBRANCH  28  29
ENDBRANCH  27  28
ENDBRANCH   8  27
TORSDOF 11
ENDMDL
MODEL 5
REMARK VINA RESULT: -7.137594275      2.368      3.164
REMARK  11 active torsions:
REMARK  status: ('A' for Active; 'I' for Inactive)
REMARK    1  A    between atoms: C4_4  and  C5_5 
REMARK    2  A    between atoms: C5_5  and  C6_6 
REMARK    3  A    between atoms: N2_10  and  C8_11 
REMARK    4  A    between atoms: C12_16  and  O2_17 
REMARK    5  A    between atoms: C13_19  and  O3_20 
REMARK    6  A    between atoms: C17_26  and  O4_27 
REMARK    7  A    between atoms: O4_27  and  C18_28 
REMARK    8  A    between atoms: C18_28  and  C19_29 
REMARK    9  A    between atoms: C19_29  and  C20_30 
REMARK   10  A    between atoms: C20_30  and  O5_31 
REMARK   11  A    between atoms: O5_31  and  N3_32 
ROOT
HETATM    1  C1  UNL     1     -50.177 -10.417 -22.920  1.00  0.00     0.051 C 
HETATM    2  C2  UNL     1     -51.609 -10.506 -23.200  1.00  0.00    -0.028 A 
HETATM    3  C3  UNL     1     -52.211 -10.067 -24.393  1.00  0.00     0.018 A 
HETATM    4  C4  UNL     1     -53.525 -10.350 -24.560  1.00  0.00    -0.036 A 
HETATM    5  C15 UNL     1     -54.270 -11.037 -23.615  1.00  0.00     0.020 A 
HETATM    6 BR1  UNL     1     -56.150 -11.420 -23.937  1.00  0.00    -0.050 Br
HETATM    7  C16 UNL     1     -53.705 -11.475 -22.459  1.00  0.00     0.057 A 
HETATM    8  C17 UNL     1     -52.383 -11.193 -22.259  1.00  0.00     0.076 A 
ENDROOT
BRANCH   4   9
HETATM    9  C5  UNL     1     -54.253  -9.874 -25.734  1.00  0.00     0.081 C 
BRANCH   9  10
HETATM   10  C6  UNL     1     -54.814  -8.512 -25.625  1.00  0.00    -0.020 A 
HETATM   11  C7  UNL     1     -54.578  -7.474 -24.800  1.00  0.00     0.116 A 
HETATM   12  N1  UNL     1     -55.357  -6.436 -25.188  1.00  0.00    -0.307 N 
HETATM   13  N2  UNL     1     -56.063  -6.830 -26.246  1.00  0.00    -0.271 N 
ATOM     14  H1  UNL     1     -55.396  -5.516 -24.748  1.00  0.00     0.186 HD
HETATM   15  C14 UNL     1     -55.772  -8.095 -26.546  1.00  0.00     0.122 A 
BRANCH  13  16
HETATM   16  C8  UNL     1     -56.884  -5.932 -27.067  1.00  0.00     0.275 C 
HETATM   17  O1  UNL     1     -56.842  -4.672 -26.491  1.00  0.00    -0.349 OA
HETATM   18  C9  UNL     1     -58.079  -4.117 -26.708  1.00  0.00     0.085 C 
HETATM   19  C10 UNL     1     -58.216  -3.904 -28.213  1.00  0.00     0.048 C 
HETATM   20  C11 UNL     1     -58.327  -2.867 -25.950  1.00  0.00     0.048 C 
HETATM   21  C12 UNL     1     -59.035  -5.186 -26.231  1.00  0.00     0.185 C 
HETATM   22  C13 UNL     1     -58.288  -6.430 -26.578  1.00  0.00     0.200 C 
BRANCH  21  23
HETATM   23  O2  UNL     1     -60.262  -5.115 -26.902  1.00  0.00    -0.390 OA
ATOM     24  H2  UNL     1     -60.906  -4.627 -26.402  1.00  0.00     0.210 HD
ENDBRANCH  21  23
BRANCH  22  25
HETATM   25  O3  UNL     1     -58.064  -7.094 -25.324  1.00  0.00    -0.388 OA
ATOM     26  H3  UNL     1     -58.863  -6.987 -24.821  1.00  0.00     0.210 HD
ENDBRANCH  22  25
ENDBRANCH  13  16
ENDBRANCH   9  10
ENDBRANCH   4   9
BRANCH   8  27
HETATM   27  O4  UNL     1     -51.772 -11.560 -21.118  1.00  0.00    -0.350 OA
BRANCH  27  28
HETATM   28  C18 UNL     1     -52.086 -11.961 -19.876  1.00  0.00     0.178 C 
BRANCH  28  29
HETATM   29  C19 UNL     1     -50.968 -11.229 -19.039  1.00  0.00     0.055 C 
BRANCH  29  30
HETATM   30  C20 UNL     1     -49.648 -11.883 -19.510  1.00  0.00     0.196 C 
BRANCH  30  31
HETATM   31  O5  UNL     1     -48.777 -11.127 -18.722  1.00  0.00    -0.303 OA
BRANCH  31  32
HETATM   32  N3  UNL     1     -48.420  -9.950 -19.031  1.00  0.00    -0.193 NA
HETATM   33  C21 UNL     1     -47.498  -9.591 -19.933  1.00  0.00     0.146 C 
HETATM   34  C22 UNL     1     -46.143 -10.209 -19.523  1.00  0.00     0.184 C 
HETATM   35  O6  UNL     1     -45.889  -9.789 -18.253  1.00  0.00    -0.389 OA
HETATM   36  C23 UNL     1     -46.853 -10.038 -17.313  1.00  0.00     0.184 C 
HETATM   37  C24 UNL     1     -48.155  -9.325 -17.686  1.00  0.00     0.146 C 
ENDBRANCH  31  32
ENDBRANCH  30  31
ENDBRANCH  29  30
ENDBRANCH  28  29
ENDBRANCH  27  28
ENDBRANCH   8  27
TORSDOF 11
ENDMDL
