MODEL 1
REMARK VINA RESULT: -8.676958007      0.000      0.000
REMARK  11 active torsions:
REMARK  status: ('A' for Active; 'I' for Inactive)
REMARK    1  A    between atoms: C2_2  and  O1_4 
REMARK    2  A    between atoms: C2_2  and  C4_6 
REMARK    3  A    between atoms: C4_6  and  C5_7 
REMARK    4  A    between atoms: C5_7  and  C6_8 
REMARK    5  A    between atoms: C6_8  and  C7_9 
REMARK    6  A    between atoms: C6_8  and  C13_22 
REMARK    7  A    between atoms: C7_9  and  O2_10 
REMARK    8  A    between atoms: C7_9  and  N1_12 
REMARK    9  A    between atoms: N1_12  and  C8_14 
REMARK   10  A    between atoms: C30_41  and  C31_42 
REMARK   11  A    between atoms: C31_42  and  O5_43 
ROOT
HETATM    1  C13 UNL     1      53.967  22.658  14.043  1.00  0.00    -0.002 C 
HETATM    2  C14 UNL     1      52.936  23.548  14.630  1.00  0.00     0.006 C 
HETATM    3  C15 UNL     1      52.347  24.339  13.439  1.00  0.00     0.006 C 
HETATM    4  C16 UNL     1      53.433  24.350  12.411  1.00  0.00    -0.003 C 
HETATM    5  C17 UNL     1      54.580  23.589  13.002  1.00  0.00    -0.005 C 
HETATM    6  C18 UNL     1      55.605  24.399  13.693  1.00  0.00     0.009 C 
HETATM    7  C19 UNL     1      55.951  25.709  13.054  1.00  0.00     0.045 C 
HETATM    8  C20 UNL     1      54.737  26.487  12.739  1.00  0.00     0.121 C 
HETATM    9  F1  UNL     1      54.155  26.848  13.951  1.00  0.00    -0.241 F 
HETATM   10  C21 UNL     1      53.813  25.701  11.880  1.00  0.00     0.034 C 
HETATM   11  C22 UNL     1      54.362  25.528  10.504  1.00  0.00     0.035 C 
HETATM   12  C23 UNL     1      55.466  26.458  10.149  1.00  0.00    -0.023 C 
HETATM   13  C24 UNL     1      55.800  27.539  10.845  1.00  0.00    -0.069 C 
HETATM   14  C25 UNL     1      56.954  28.283  10.249  1.00  0.00     0.042 C 
HETATM   15  C26 UNL     1      56.733  29.766  10.181  1.00  0.00     0.082 C 
HETATM   16  C27 UNL     1      56.857  30.301  11.567  1.00  0.00     0.127 C 
HETATM   17  O4  UNL     1      57.867  30.955  11.776  1.00  0.00    -0.298 OA
HETATM   18  C28 UNL     1      55.892  30.107  12.663  1.00  0.00     0.079 C 
HETATM   19  C29 UNL     1      55.669  28.696  13.054  1.00  0.00     0.027 C 
HETATM   20  C30 UNL     1      55.003  27.817  12.043  1.00  0.00     0.041 C 
ENDROOT
BRANCH   1  21
HETATM   21  C6  UNL     1      53.624  21.330  13.536  1.00  0.00     0.038 C 
BRANCH  21  22
HETATM   22  C5  UNL     1      54.497  20.240  14.171  1.00  0.00     0.012 C 
BRANCH  22  23
HETATM   23  C4  UNL     1      55.433  19.588  13.232  1.00  0.00     0.037 C 
BRANCH  23  24
HETATM   24  C2  UNL     1      54.919  18.278  12.673  1.00  0.00     0.051 C 
HETATM   25  C1  UNL     1      55.989  17.208  12.689  1.00  0.00     0.045 C 
HETATM   26  C3  UNL     1      54.398  18.386  11.283  1.00  0.00     0.045 C 
BRANCH  24  27
HETATM   27  O1  UNL     1      53.863  17.784  13.474  1.00  0.00    -0.391 OA
ATOM     28  H1  UNL     1      53.128  18.368  13.327  1.00  0.00     0.210 HD
ENDBRANCH  24  27
ENDBRANCH  23  24
ENDBRANCH  22  23
ENDBRANCH  21  22
BRANCH  21  29
HETATM   29  C7  UNL     1      52.208  20.880  13.823  1.00  0.00     0.218 C 
BRANCH  29  30
HETATM   30  O2  UNL     1      52.216  20.090  15.007  1.00  0.00    -0.377 OA
ATOM     31  H2  UNL     1      51.595  19.379  14.900  1.00  0.00     0.212 HD
ENDBRANCH  29  30
BRANCH  29  32
HETATM   32  N1  UNL     1      51.714  19.953  12.827  1.00  0.00    -0.392 N 
ATOM     33  H1  UNL     1      51.983  18.970  12.838  1.00  0.00     0.156 HD
BRANCH  32  34
HETATM   34  C8  UNL     1      50.841  20.470  11.835  1.00  0.00     0.089 C 
HETATM   35  C9  UNL     1      49.684  19.619  11.467  1.00  0.00     0.045 C 
HETATM   36  C10 UNL     1      48.445  20.445  11.121  1.00  0.00     0.124 C 
HETATM   37  N2  UNL     1      48.901  21.630  10.432  1.00  0.00    -0.361 N 
HETATM   38  C11 UNL     1      49.758  22.501  11.168  1.00  0.00     0.219 C 
ATOM     39  H2  UNL     1      48.626  21.833   9.471  1.00  0.00     0.162 HD
HETATM   40  O3  UNL     1      49.937  23.675  10.829  1.00  0.00    -0.274 OA
HETATM   41  C12 UNL     1      50.399  21.851  12.366  1.00  0.00     0.127 C 
ENDBRANCH  32  34
ENDBRANCH  29  32
ENDBRANCH  21  29
ENDBRANCH   1  21
BRANCH  20  42
HETATM   42  C31 UNL     1      53.700  28.437  11.606  1.00  0.00     0.181 C 
BRANCH  42  43
HETATM   43  O5  UNL     1      52.888  28.819  12.658  1.00  0.00    -0.400 OA
ATOM     44  H5  UNL     1      52.810  29.761  12.754  1.00  0.00     0.209 HD
ENDBRANCH  42  43
ENDBRANCH  20  42
TORSDOF 11
ENDMDL
MODEL 2
REMARK VINA RESULT: -8.567869151      2.830      7.797
REMARK  11 active torsions:
REMARK  status: ('A' for Active; 'I' for Inactive)
REMARK    1  A    between atoms: C2_2  and  O1_4 
REMARK    2  A    between atoms: C2_2  and  C4_6 
REMARK    3  A    between atoms: C4_6  and  C5_7 
REMARK    4  A    between atoms: C5_7  and  C6_8 
REMARK    5  A    between atoms: C6_8  and  C7_9 
REMARK    6  A    between atoms: C6_8  and  C13_22 
REMARK    7  A    between atoms: C7_9  and  O2_10 
REMARK    8  A    between atoms: C7_9  and  N1_12 
REMARK    9  A    between atoms: N1_12  and  C8_14 
REMARK   10  A    between atoms: C30_41  and  C31_42 
REMARK   11  A    between atoms: C31_42  and  O5_43 
ROOT
HETATM    1  C13 UNL     1      52.508  22.034  11.553  1.00  0.00    -0.002 C 
HETATM    2  C14 UNL     1      52.275  20.647  11.082  1.00  0.00     0.006 C 
HETATM    3  C15 UNL     1      52.021  19.815  12.360  1.00  0.00     0.006 C 
HETATM    4  C16 UNL     1      52.721  20.561  13.450  1.00  0.00    -0.003 C 
HETATM    5  C17 UNL     1      53.334  21.767  12.807  1.00  0.00    -0.005 C 
HETATM    6  C18 UNL     1      54.741  21.625  12.379  1.00  0.00     0.009 C 
HETATM    7  C19 UNL     1      55.635  20.849  13.297  1.00  0.00     0.045 C 
HETATM    8  C20 UNL     1      55.027  19.557  13.669  1.00  0.00     0.121 C 
HETATM    9  F1  UNL     1      54.976  18.781  12.515  1.00  0.00    -0.241 F 
HETATM   10  C21 UNL     1      53.684  19.759  14.274  1.00  0.00     0.034 C 
HETATM   11  C22 UNL     1      53.783  20.386  15.624  1.00  0.00     0.035 C 
HETATM   12  C23 UNL     1      55.131  20.320  16.247  1.00  0.00    -0.023 C 
HETATM   13  C24 UNL     1      56.130  19.558  15.815  1.00  0.00    -0.069 C 
HETATM   14  C25 UNL     1      57.372  19.702  16.640  1.00  0.00     0.042 C 
HETATM   15  C26 UNL     1      58.005  18.387  16.992  1.00  0.00     0.082 C 
HETATM   16  C27 UNL     1      58.655  17.860  15.759  1.00  0.00     0.127 C 
HETATM   17  O4  UNL     1      59.876  17.893  15.768  1.00  0.00    -0.298 OA
HETATM   18  C28 UNL     1      57.964  17.321  14.575  1.00  0.00     0.079 C 
HETATM   19  C29 UNL     1      57.069  18.280  13.887  1.00  0.00     0.027 C 
HETATM   20  C30 UNL     1      55.856  18.725  14.642  1.00  0.00     0.041 C 
ENDROOT
BRANCH   1  21
HETATM   21  C6  UNL     1      51.400  22.967  11.750  1.00  0.00     0.038 C 
BRANCH  21  22
HETATM   22  C5  UNL     1      51.731  24.361  11.203  1.00  0.00     0.012 C 
BRANCH  22  23
HETATM   23  C4  UNL     1      52.888  25.009  11.855  1.00  0.00     0.037 C 
BRANCH  23  24
HETATM   24  C2  UNL     1      53.416  26.211  11.101  1.00  0.00     0.051 C 
HETATM   25  C1  UNL     1      54.669  25.872  10.322  1.00  0.00     0.045 C 
HETATM   26  C3  UNL     1      53.719  27.378  11.973  1.00  0.00     0.045 C 
BRANCH  24  27
HETATM   27  O1  UNL     1      52.469  26.644  10.144  1.00  0.00    -0.391 OA
ATOM     28  H1  UNL     1      52.641  27.568  10.007  1.00  0.00     0.210 HD
ENDBRANCH  24  27
ENDBRANCH  23  24
ENDBRANCH  22  23
ENDBRANCH  21  22
BRANCH  21  29
HETATM   29  C7  UNL     1      50.114  22.592  11.043  1.00  0.00     0.218 C 
BRANCH  29  30
HETATM   30  O2  UNL     1      49.750  23.656  10.171  1.00  0.00    -0.377 OA
ATOM     31  H2  UNL     1      48.821  23.827  10.275  1.00  0.00     0.212 HD
ENDBRANCH  29  30
BRANCH  29  32
HETATM   32  N1  UNL     1      48.989  22.527  11.951  1.00  0.00    -0.392 N 
ATOM     33  H1  UNL     1      48.670  23.351  12.461  1.00  0.00     0.156 HD
BRANCH  32  34
HETATM   34  C8  UNL     1      48.348  21.271  12.103  1.00  0.00     0.089 C 
HETATM   35  C9  UNL     1      46.870  21.295  12.226  1.00  0.00     0.045 C 
HETATM   36  C10 UNL     1      46.215  20.076  11.575  1.00  0.00     0.124 C 
HETATM   37  N2  UNL     1      47.084  18.947  11.811  1.00  0.00    -0.361 N 
HETATM   38  C11 UNL     1      48.395  19.029  11.255  1.00  0.00     0.219 C 
ATOM     39  H2  UNL     1      46.778  18.135  12.346  1.00  0.00     0.162 HD
HETATM   40  O3  UNL     1      49.097  18.026  11.097  1.00  0.00    -0.274 OA
HETATM   41  C12 UNL     1      48.814  20.431  10.895  1.00  0.00     0.127 C 
ENDBRANCH  32  34
ENDBRANCH  29  32
ENDBRANCH  21  29
ENDBRANCH   1  21
BRANCH  20  42
HETATM   42  C31 UNL     1      55.065  17.523  15.093  1.00  0.00     0.181 C 
BRANCH  42  43
HETATM   43  O5  UNL     1      55.060  16.488  14.177  1.00  0.00    -0.400 OA
ATOM     44  H5  UNL     1      55.782  15.881  14.287  1.00  0.00     0.209 HD
ENDBRANCH  42  43
ENDBRANCH  20  42
TORSDOF 11
ENDMDL
MODEL 3
REMARK VINA RESULT: -8.523981804      2.886      7.869
REMARK  11 active torsions:
REMARK  status: ('A' for Active; 'I' for Inactive)
REMARK    1  A    between atoms: C2_2  and  O1_4 
REMARK    2  A    between atoms: C2_2  and  C4_6 
REMARK    3  A    between atoms: C4_6  and  C5_7 
REMARK    4  A    between atoms: C5_7  and  C6_8 
REMARK    5  A    between atoms: C6_8  and  C7_9 
REMARK    6  A    between atoms: C6_8  and  C13_22 
REMARK    7  A    between atoms: C7_9  and  O2_10 
REMARK    8  A    between atoms: C7_9  and  N1_12 
REMARK    9  A    between atoms: N1_12  and  C8_14 
REMARK   10  A    between atoms: C30_41  and  C31_42 
REMARK   11  A    between atoms: C31_42  and  O5_43 
ROOT
HETATM    1  C13 UNL     1      52.919  21.977  11.798  1.00  0.00    -0.002 C 
HETATM    2  C14 UNL     1      52.843  20.654  11.132  1.00  0.00     0.006 C 
HETATM    3  C15 UNL     1      52.565  19.637  12.263  1.00  0.00     0.006 C 
HETATM    4  C16 UNL     1      53.111  20.278  13.499  1.00  0.00    -0.003 C 
HETATM    5  C17 UNL     1      53.665  21.604  13.075  1.00  0.00    -0.005 C 
HETATM    6  C18 UNL     1      55.109  21.628  12.758  1.00  0.00     0.009 C 
HETATM    7  C19 UNL     1      55.993  20.803  13.642  1.00  0.00     0.045 C 
HETATM    8  C20 UNL     1      55.471  19.429  13.787  1.00  0.00     0.121 C 
HETATM    9  F1  UNL     1      55.577  18.817  12.542  1.00  0.00    -0.241 F 
HETATM   10  C21 UNL     1      54.073  19.446  14.293  1.00  0.00     0.034 C 
HETATM   11  C22 UNL     1      54.014  19.886  15.716  1.00  0.00     0.035 C 
HETATM   12  C23 UNL     1      55.310  19.838  16.442  1.00  0.00    -0.023 C 
HETATM   13  C24 UNL     1      56.401  19.219  16.004  1.00  0.00    -0.069 C 
HETATM   14  C25 UNL     1      57.559  19.341  16.946  1.00  0.00     0.042 C 
HETATM   15  C26 UNL     1      58.274  18.043  17.178  1.00  0.00     0.082 C 
HETATM   16  C27 UNL     1      59.061  17.740  15.949  1.00  0.00     0.127 C 
HETATM   17  O4  UNL     1      60.269  17.863  16.069  1.00  0.00    -0.298 OA
HETATM   18  C28 UNL     1      58.512  17.318  14.649  1.00  0.00     0.079 C 
HETATM   19  C29 UNL     1      57.593  18.292  14.015  1.00  0.00     0.027 C 
HETATM   20  C30 UNL     1      56.292  18.537  14.712  1.00  0.00     0.041 C 
ENDROOT
BRANCH   1  21
HETATM   21  C6  UNL     1      51.722  22.788  12.017  1.00  0.00     0.038 C 
BRANCH  21  22
HETATM   22  C5  UNL     1      52.054  24.285  12.057  1.00  0.00     0.012 C 
BRANCH  22  23
HETATM   23  C4  UNL     1      53.406  24.620  11.565  1.00  0.00     0.037 C 
BRANCH  23  24
HETATM   24  C2  UNL     1      53.510  26.010  10.974  1.00  0.00     0.051 C 
HETATM   25  C1  UNL     1      54.680  26.122  10.019  1.00  0.00     0.045 C 
HETATM   26  C3  UNL     1      53.646  27.084  11.994  1.00  0.00     0.045 C 
BRANCH  24  27
HETATM   27  O1  UNL     1      52.356  26.306  10.211  1.00  0.00    -0.391 OA
ATOM     28  H1  UNL     1      52.208  25.549   9.657  1.00  0.00     0.210 HD
ENDBRANCH  24  27
ENDBRANCH  23  24
ENDBRANCH  22  23
ENDBRANCH  21  22
BRANCH  21  29
HETATM   29  C7  UNL     1      50.666  22.675  10.937  1.00  0.00     0.218 C 
BRANCH  29  30
HETATM   30  O2  UNL     1      50.515  23.947  10.318  1.00  0.00    -0.377 OA
ATOM     31  H2  UNL     1      49.644  23.997   9.940  1.00  0.00     0.212 HD
ENDBRANCH  29  30
BRANCH  29  32
HETATM   32  N1  UNL     1      49.349  22.429  11.484  1.00  0.00    -0.392 N 
ATOM     33  H1  UNL     1      48.913  23.084  12.133  1.00  0.00     0.156 HD
BRANCH  32  34
HETATM   34  C8  UNL     1      48.688  21.240  11.079  1.00  0.00     0.089 C 
HETATM   35  C9  UNL     1      49.542  20.042  10.894  1.00  0.00     0.045 C 
HETATM   36  C10 UNL     1      48.821  18.751  11.284  1.00  0.00     0.124 C 
HETATM   37  N2  UNL     1      47.439  18.899  10.890  1.00  0.00    -0.361 N 
HETATM   38  C11 UNL     1      46.711  19.957  11.512  1.00  0.00     0.219 C 
ATOM     39  H2  UNL     1      47.007  18.280  10.204  1.00  0.00     0.162 HD
HETATM   40  O3  UNL     1      45.477  19.978  11.520  1.00  0.00    -0.274 OA
HETATM   41  C12 UNL     1      47.588  21.009  12.138  1.00  0.00     0.127 C 
ENDBRANCH  32  34
ENDBRANCH  29  32
ENDBRANCH  21  29
ENDBRANCH   1  21
BRANCH  20  42
HETATM   42  C31 UNL     1      55.575  17.229  14.931  1.00  0.00     0.181 C 
BRANCH  42  43
HETATM   43  O5  UNL     1      55.623  16.382  13.840  1.00  0.00    -0.400 OA
ATOM     44  H5  UNL     1      54.868  16.457  13.268  1.00  0.00     0.209 HD
ENDBRANCH  42  43
ENDBRANCH  20  42
TORSDOF 11
ENDMDL
MODEL 4
REMARK VINA RESULT: -8.510221795      3.042      7.723
REMARK  11 active torsions:
REMARK  status: ('A' for Active; 'I' for Inactive)
REMARK    1  A    between atoms: C2_2  and  O1_4 
REMARK    2  A    between atoms: C2_2  and  C4_6 
REMARK    3  A    between atoms: C4_6  and  C5_7 
REMARK    4  A    between atoms: C5_7  and  C6_8 
REMARK    5  A    between atoms: C6_8  and  C7_9 
REMARK    6  A    between atoms: C6_8  and  C13_22 
REMARK    7  A    between atoms: C7_9  and  O2_10 
REMARK    8  A    between atoms: C7_9  and  N1_12 
REMARK    9  A    between atoms: N1_12  and  C8_14 
REMARK   10  A    between atoms: C30_41  and  C31_42 
REMARK   11  A    between atoms: C31_42  and  O5_43 
ROOT
HETATM    1  C13 UNL     1      52.461  22.308  12.141  1.00  0.00    -0.002 C 
HETATM    2  C14 UNL     1      52.292  20.861  11.861  1.00  0.00     0.006 C 
HETATM    3  C15 UNL     1      51.737  20.249  13.168  1.00  0.00     0.006 C 
HETATM    4  C16 UNL     1      52.203  21.169  14.251  1.00  0.00    -0.003 C 
HETATM    5  C17 UNL     1      52.981  22.256  13.574  1.00  0.00    -0.005 C 
HETATM    6  C18 UNL     1      54.443  22.051  13.498  1.00  0.00     0.009 C 
HETATM    7  C19 UNL     1      55.088  21.442  14.705  1.00  0.00     0.045 C 
HETATM    8  C20 UNL     1      54.371  20.226  15.137  1.00  0.00     0.121 C 
HETATM    9  F1  UNL     1      54.550  19.269  14.142  1.00  0.00    -0.241 F 
HETATM   10  C21 UNL     1      52.935  20.519  15.387  1.00  0.00     0.034 C 
HETATM   11  C22 UNL     1      52.755  21.360  16.605  1.00  0.00     0.035 C 
HETATM   12  C23 UNL     1      53.930  21.405  17.514  1.00  0.00    -0.023 C 
HETATM   13  C24 UNL     1      54.975  20.587  17.445  1.00  0.00    -0.069 C 
HETATM   14  C25 UNL     1      56.008  20.871  18.491  1.00  0.00     0.042 C 
HETATM   15  C26 UNL     1      56.506  19.636  19.183  1.00  0.00     0.082 C 
HETATM   16  C27 UNL     1      57.395  18.915  18.227  1.00  0.00     0.127 C 
HETATM   17  O4  UNL     1      58.584  18.955  18.502  1.00  0.00    -0.298 OA
HETATM   18  C28 UNL     1      56.964  18.185  17.023  1.00  0.00     0.079 C 
HETATM   19  C29 UNL     1      56.273  19.012  16.007  1.00  0.00     0.027 C 
HETATM   20  C30 UNL     1      54.939  19.570  16.391  1.00  0.00     0.041 C 
ENDROOT
BRANCH   1  21
HETATM   21  C6  UNL     1      51.367  23.254  11.932  1.00  0.00     0.038 C 
BRANCH  21  22
HETATM   22  C5  UNL     1      51.814  24.460  11.097  1.00  0.00     0.012 C 
BRANCH  22  23
HETATM   23  C4  UNL     1      53.250  24.786  11.223  1.00  0.00     0.037 C 
BRANCH  23  24
HETATM   24  C2  UNL     1      53.585  26.213  10.844  1.00  0.00     0.051 C 
HETATM   25  C1  UNL     1      54.798  26.279   9.941  1.00  0.00     0.045 C 
HETATM   26  C3  UNL     1      53.834  27.099  12.013  1.00  0.00     0.045 C 
BRANCH  24  27
HETATM   27  O1  UNL     1      52.522  26.787  10.108  1.00  0.00    -0.391 OA
ATOM     28  H1  UNL     1      52.497  27.703  10.358  1.00  0.00     0.210 HD
ENDBRANCH  24  27
ENDBRANCH  23  24
ENDBRANCH  22  23
ENDBRANCH  21  22
BRANCH  21  29
HETATM   29  C7  UNL     1      50.178  22.703  11.174  1.00  0.00     0.218 C 
BRANCH  29  30
HETATM   30  O2  UNL     1      49.785  23.658  10.193  1.00  0.00    -0.377 OA
ATOM     31  H2  UNL     1      49.260  23.216   9.536  1.00  0.00     0.212 HD
ENDBRANCH  29  30
BRANCH  29  32
HETATM   32  N1  UNL     1      48.998  22.598  12.005  1.00  0.00    -0.392 N 
ATOM     33  H1  UNL     1      48.621  23.409  12.495  1.00  0.00     0.156 HD
BRANCH  32  34
HETATM   34  C8  UNL     1      48.388  21.321  12.110  1.00  0.00     0.089 C 
HETATM   35  C9  UNL     1      46.907  21.303  12.184  1.00  0.00     0.045 C 
HETATM   36  C10 UNL     1      46.308  20.080  11.487  1.00  0.00     0.124 C 
HETATM   37  N2  UNL     1      47.201  18.971  11.728  1.00  0.00    -0.361 N 
HETATM   38  C11 UNL     1      48.527  19.101  11.218  1.00  0.00     0.219 C 
ATOM     39  H2  UNL     1      46.900  18.139  12.235  1.00  0.00     0.162 HD
HETATM   40  O3  UNL     1      49.261  18.122  11.062  1.00  0.00    -0.274 OA
HETATM   41  C12 UNL     1      48.917  20.521  10.900  1.00  0.00     0.127 C 
ENDBRANCH  32  34
ENDBRANCH  29  32
ENDBRANCH  21  29
ENDBRANCH   1  21
BRANCH  20  42
HETATM   42  C31 UNL     1      54.030  18.456  16.844  1.00  0.00     0.181 C 
BRANCH  42  43
HETATM   43  O5  UNL     1      54.160  17.299  16.100  1.00  0.00    -0.400 OA
ATOM     44  H5  UNL     1      55.045  16.954  16.085  1.00  0.00     0.209 HD
ENDBRANCH  42  43
ENDBRANCH  20  42
TORSDOF 11
ENDMDL
MODEL 5
REMARK VINA RESULT: -8.419553062      2.802      7.698
REMARK  11 active torsions:
REMARK  status: ('A' for Active; 'I' for Inactive)
REMARK    1  A    between atoms: C2_2  and  O1_4 
REMARK    2  A    between atoms: C2_2  and  C4_6 
REMARK    3  A    between atoms: C4_6  and  C5_7 
REMARK    4  A    between atoms: C5_7  and  C6_8 
REMARK    5  A    between atoms: C6_8  and  C7_9 
REMARK    6  A    between atoms: C6_8  and  C13_22 
REMARK    7  A    between atoms: C7_9  and  O2_10 
REMARK    8  A    between atoms: C7_9  and  N1_12 
REMARK    9  A    between atoms: N1_12  and  C8_14 
REMARK   10  A    between atoms: C30_41  and  C31_42 
REMARK   11  A    between atoms: C31_42  and  O5_43 
ROOT
HETATM    1  C13 UNL     1      51.880  22.033  12.933  1.00  0.00    -0.002 C 
HETATM    2  C14 UNL     1      51.897  22.086  14.416  1.00  0.00     0.006 C 
HETATM    3  C15 UNL     1      53.345  22.468  14.799  1.00  0.00     0.006 C 
HETATM    4  C16 UNL     1      54.182  22.002  13.651  1.00  0.00    -0.003 C 
HETATM    5  C17 UNL     1      53.237  21.391  12.662  1.00  0.00    -0.005 C 
HETATM    6  C18 UNL     1      53.053  19.928  12.764  1.00  0.00     0.009 C 
HETATM    7  C19 UNL     1      54.281  19.128  13.072  1.00  0.00     0.045 C 
HETATM    8  C20 UNL     1      55.005  19.686  14.231  1.00  0.00     0.121 C 
HETATM    9  F1  UNL     1      54.195  19.501  15.348  1.00  0.00    -0.241 F 
HETATM   10  C21 UNL     1      55.340  21.117  14.006  1.00  0.00     0.034 C 
HETATM   11  C22 UNL     1      56.390  21.273  12.958  1.00  0.00     0.035 C 
HETATM   12  C23 UNL     1      57.150  20.035  12.645  1.00  0.00    -0.023 C 
HETATM   13  C24 UNL     1      57.131  18.927  13.378  1.00  0.00    -0.069 C 
HETATM   14  C25 UNL     1      57.994  17.840  12.815  1.00  0.00     0.042 C 
HETATM   15  C26 UNL     1      58.852  17.170  13.847  1.00  0.00     0.082 C 
HETATM   16  C27 UNL     1      57.965  16.301  14.671  1.00  0.00     0.127 C 
HETATM   17  O4  UNL     1      58.104  15.102  14.486  1.00  0.00    -0.298 OA
HETATM   18  C28 UNL     1      56.969  16.760  15.655  1.00  0.00     0.079 C 
HETATM   19  C29 UNL     1      55.891  17.610  15.099  1.00  0.00     0.027 C 
HETATM   20  C30 UNL     1      56.296  18.954  14.581  1.00  0.00     0.041 C 
ENDROOT
BRANCH   1  21
HETATM   21  C6  UNL     1      51.609  23.226  12.133  1.00  0.00     0.038 C 
BRANCH  21  22
HETATM   22  C5  UNL     1      52.900  23.836  11.574  1.00  0.00     0.012 C 
BRANCH  22  23
HETATM   23  C4  UNL     1      53.259  25.143  12.162  1.00  0.00     0.037 C 
BRANCH  23  24
HETATM   24  C2  UNL     1      53.521  26.222  11.134  1.00  0.00     0.051 C 
HETATM   25  C1  UNL     1      54.717  25.889  10.268  1.00  0.00     0.045 C 
HETATM   26  C3  UNL     1      53.743  27.570  11.725  1.00  0.00     0.045 C 
BRANCH  24  27
HETATM   27  O1  UNL     1      52.422  26.334  10.250  1.00  0.00    -0.391 OA
ATOM     28  H1  UNL     1      52.775  26.666   9.434  1.00  0.00     0.210 HD
ENDBRANCH  24  27
ENDBRANCH  23  24
ENDBRANCH  22  23
ENDBRANCH  21  22
BRANCH  21  29
HETATM   29  C7  UNL     1      50.751  22.995  10.907  1.00  0.00     0.218 C 
BRANCH  29  30
HETATM   30  O2  UNL     1      50.694  24.205  10.160  1.00  0.00    -0.377 OA
ATOM     31  H2  UNL     1      51.290  24.831  10.554  1.00  0.00     0.212 HD
ENDBRANCH  29  30
BRANCH  29  32
HETATM   32  N1  UNL     1      49.363  22.765  11.246  1.00  0.00    -0.392 N 
ATOM     33  H1  UNL     1      48.799  23.487  11.693  1.00  0.00     0.156 HD
BRANCH  32  34
HETATM   34  C8  UNL     1      48.819  21.493  10.929  1.00  0.00     0.089 C 
HETATM   35  C9  UNL     1      49.789  20.382  10.772  1.00  0.00     0.045 C 
HETATM   36  C10 UNL     1      49.222  19.047  11.257  1.00  0.00     0.124 C 
HETATM   37  N2  UNL     1      47.820  19.027  10.911  1.00  0.00    -0.361 N 
HETATM   38  C11 UNL     1      47.005  20.036  11.506  1.00  0.00     0.219 C 
ATOM     39  H2  UNL     1      47.432  18.330  10.276  1.00  0.00     0.162 HD
HETATM   40  O3  UNL     1      45.777  19.929  11.562  1.00  0.00    -0.274 OA
HETATM   41  C12 UNL     1      47.786  21.208  12.041  1.00  0.00     0.127 C 
ENDBRANCH  32  34
ENDBRANCH  29  32
ENDBRANCH  21  29
ENDBRANCH   1  21
BRANCH  20  42
HETATM   42  C31 UNL     1      57.041  19.711  15.652  1.00  0.00     0.181 C 
BRANCH  42  43
HETATM   43  O5  UNL     1      56.464  19.610  16.904  1.00  0.00    -0.400 OA
ATOM     44  H5  UNL     1      55.702  20.166  17.017  1.00  0.00     0.209 HD
ENDBRANCH  42  43
ENDBRANCH  20  42
TORSDOF 11
ENDMDL
