MODEL 1
REMARK VINA RESULT: -11.624323915      0.000      0.000
REMARK  2 active torsions:
REMARK  status: ('A' for Active; 'I' for Inactive)
REMARK    1  A    between atoms: C17_20  and  N2_21 
REMARK       I    between atoms: N2_21  and  C18_23 
REMARK    2  A    between atoms: C18_23  and  C19_25 
ROOT
HETATM    1  C1  UNL     1      -0.127  19.615  -5.194  1.00  0.00     0.044 C 
HETATM    2  C2  UNL     1       0.203  19.010  -6.323  1.00  0.00     0.045 A 
HETATM    3  N1  UNL     1       0.583  19.612  -7.406  1.00  0.00    -0.355 N 
ATOM      4  H1  UNL     1       0.666  20.623  -7.515  1.00  0.00     0.166 HD
HETATM    5  C3  UNL     1       0.856  18.694  -8.376  1.00  0.00     0.045 A 
HETATM    6  C4  UNL     1       1.115  19.005  -9.692  1.00  0.00     0.030 A 
HETATM    7  C5  UNL     1       1.172  17.947 -10.540  1.00  0.00     0.003 A 
HETATM    8  C6  UNL     1       0.994  16.738 -10.032  1.00  0.00     0.013 A 
HETATM    9  C7  UNL     1       0.739  16.293  -8.754  1.00  0.00    -0.010 A 
HETATM   10  C8  UNL     1       0.351  15.070  -8.549  1.00  0.00    -0.002 A 
HETATM   11  C9  UNL     1       0.209  14.356  -7.310  1.00  0.00    -0.010 A 
HETATM   12  C10 UNL     1       1.400  14.531  -6.434  1.00  0.00     0.013 A 
HETATM   13  C11 UNL     1       1.580  13.784  -5.335  1.00  0.00     0.001 A 
HETATM   14  C12 UNL     1       0.679  12.816  -4.948  1.00  0.00     0.001 A 
HETATM   15  C13 UNL     1      -0.418  12.650  -5.759  1.00  0.00     0.016 A 
HETATM   16  C14 UNL     1      -0.613  13.411  -6.898  1.00  0.00     0.026 A 
HETATM   17  C15 UNL     1      -1.638  12.937  -7.872  1.00  0.00     0.196 A 
HETATM   18  O1  UNL     1      -2.401  12.060  -7.481  1.00  0.00    -0.286 OA
HETATM   19  C16 UNL     1      -1.598  13.578  -9.170  1.00  0.00     0.053 A 
HETATM   20  C17 UNL     1      -2.585  13.108 -10.090  1.00  0.00     0.050 A 
HETATM   21  C24 UNL     1      -2.675  13.616 -11.368  1.00  0.00     0.030 A 
HETATM   22  C25 UNL     1      -1.831  14.578 -11.780  1.00  0.00     0.003 A 
HETATM   23  C26 UNL     1      -0.863  15.032 -10.858  1.00  0.00     0.013 A 
HETATM   24  C27 UNL     1      -0.722  14.572  -9.597  1.00  0.00    -0.008 A 
HETATM   25  C28 UNL     1       0.642  17.383  -7.857  1.00  0.00     0.025 A 
HETATM   26  C29 UNL     1       0.214  17.617  -6.568  1.00  0.00     0.083 A 
HETATM   27  C30 UNL     1      -0.525  16.825  -5.630  1.00  0.00     0.102 C 
HETATM   28  N4  UNL     1      -1.191  16.242  -4.853  1.00  0.00    -0.191 NA
ENDROOT
BRANCH  20  29
HETATM   29  N2  UNL     1      -3.593  12.225  -9.624  1.00  0.00    -0.322 N 
HETATM   30  C18 UNL     1      -4.973  12.444  -9.820  1.00  0.00     0.261 C 
HETATM   31  O2  UNL     1      -5.356  13.446 -10.456  1.00  0.00    -0.267 OA
ATOM     32  H2  UNL     1      -3.305  11.386  -9.119  1.00  0.00     0.169 HD
BRANCH  30  33
HETATM   33  C19 UNL     1      -6.029  11.552  -9.324  1.00  0.00     0.100 A 
HETATM   34  C20 UNL     1      -6.755  10.858 -10.299  1.00  0.00     0.024 A 
HETATM   35  C21 UNL     1      -7.740   9.978  -9.924  1.00  0.00     0.018 A 
HETATM   36  C22 UNL     1      -8.032   9.763  -8.607  1.00  0.00     0.091 A 
HETATM   37  N3  UNL     1      -7.324  10.440  -7.695  1.00  0.00    -0.333 N 
HETATM   38  C23 UNL     1      -6.352  11.307  -8.026  1.00  0.00     0.261 A 
ATOM     39  H3  UNL     1      -7.530  10.291  -6.707  1.00  0.00     0.168 HD
HETATM   40  O3  UNL     1      -5.715  11.925  -7.112  1.00  0.00    -0.267 OA
ENDBRANCH  30  33
ENDBRANCH  20  29
TORSDOF 2
ENDMDL
MODEL 2
REMARK VINA RESULT: -11.476853165      2.919      8.580
REMARK  2 active torsions:
REMARK  status: ('A' for Active; 'I' for Inactive)
REMARK    1  A    between atoms: C17_20  and  N2_21 
REMARK       I    between atoms: N2_21  and  C18_23 
REMARK    2  A    between atoms: C18_23  and  C19_25 
ROOT
HETATM    1  C1  UNL     1      -7.998  13.415 -13.230  1.00  0.00     0.044 C 
HETATM    2  C2  UNL     1      -7.565  12.626 -12.261  1.00  0.00     0.045 A 
HETATM    3  N1  UNL     1      -8.257  11.680 -11.707  1.00  0.00    -0.355 N 
ATOM      4  H1  UNL     1      -9.218  11.439 -11.949  1.00  0.00     0.166 HD
HETATM    5  C3  UNL     1      -7.509  11.056 -10.752  1.00  0.00     0.045 A 
HETATM    6  C4  UNL     1      -8.000  10.128  -9.862  1.00  0.00     0.030 A 
HETATM    7  C5  UNL     1      -7.149   9.766  -8.869  1.00  0.00     0.003 A 
HETATM    8  C6  UNL     1      -5.944  10.315  -8.859  1.00  0.00     0.013 A 
HETATM    9  C7  UNL     1      -5.333  11.236  -9.680  1.00  0.00    -0.010 A 
HETATM   10  C8  UNL     1      -4.226  11.810  -9.314  1.00  0.00    -0.002 A 
HETATM   11  C9  UNL     1      -3.339  12.645 -10.077  1.00  0.00    -0.010 A 
HETATM   12  C10 UNL     1      -3.042  12.057 -11.412  1.00  0.00     0.013 A 
HETATM   13  C11 UNL     1      -2.072  12.550 -12.196  1.00  0.00     0.001 A 
HETATM   14  C12 UNL     1      -1.297  13.625 -11.820  1.00  0.00     0.001 A 
HETATM   15  C13 UNL     1      -1.567  14.165 -10.586  1.00  0.00     0.016 A 
HETATM   16  C14 UNL     1      -2.561  13.663  -9.764  1.00  0.00     0.026 A 
HETATM   17  C15 UNL     1      -2.554  14.092  -8.336  1.00  0.00     0.196 A 
HETATM   18  O1  UNL     1      -1.830  15.042  -8.054  1.00  0.00    -0.286 OA
HETATM   19  C16 UNL     1      -3.408  13.323  -7.456  1.00  0.00     0.053 A 
HETATM   20  C17 UNL     1      -3.384  13.747  -6.092  1.00  0.00     0.050 A 
HETATM   21  C24 UNL     1      -4.140  13.113  -5.130  1.00  0.00     0.030 A 
HETATM   22  C25 UNL     1      -4.928  12.074  -5.457  1.00  0.00     0.003 A 
HETATM   23  C26 UNL     1      -4.941  11.669  -6.809  1.00  0.00     0.013 A 
HETATM   24  C27 UNL     1      -4.221  12.245  -7.794  1.00  0.00    -0.008 A 
HETATM   25  C28 UNL     1      -6.214  11.653 -10.705  1.00  0.00     0.025 A 
HETATM   26  C29 UNL     1      -6.288  12.650 -11.653  1.00  0.00     0.083 A 
HETATM   27  C30 UNL     1      -5.532  13.848 -11.865  1.00  0.00     0.102 C 
HETATM   28  N4  UNL     1      -4.988  14.878 -12.036  1.00  0.00    -0.191 NA
ENDROOT
BRANCH  20  29
HETATM   29  N2  UNL     1      -2.700  14.945  -5.757  1.00  0.00    -0.322 N 
HETATM   30  C18 UNL     1      -1.590  14.992  -4.888  1.00  0.00     0.261 C 
HETATM   31  O2  UNL     1      -1.149  13.936  -4.391  1.00  0.00    -0.267 OA
ATOM     32  H2  UNL     1      -3.029  15.819  -6.168  1.00  0.00     0.169 HD
BRANCH  30  33
HETATM   33  C19 UNL     1      -0.886  16.225  -4.513  1.00  0.00     0.100 A 
HETATM   34  C20 UNL     1       0.486  16.099  -4.270  1.00  0.00     0.024 A 
HETATM   35  C21 UNL     1       1.229  17.207  -3.946  1.00  0.00     0.018 A 
HETATM   36  C22 UNL     1       0.653  18.443  -3.851  1.00  0.00     0.091 A 
HETATM   37  N3  UNL     1      -0.660  18.534  -4.088  1.00  0.00    -0.333 N 
HETATM   38  C23 UNL     1      -1.418  17.472  -4.409  1.00  0.00     0.261 A 
ATOM     39  H3  UNL     1      -1.106  19.450  -4.021  1.00  0.00     0.168 HD
HETATM   40  O3  UNL     1      -2.666  17.623  -4.619  1.00  0.00    -0.267 OA
ENDBRANCH  30  33
ENDBRANCH  20  29
TORSDOF 2
ENDMDL
MODEL 3
REMARK VINA RESULT: -11.407216790      0.830      1.180
REMARK  2 active torsions:
REMARK  status: ('A' for Active; 'I' for Inactive)
REMARK    1  A    between atoms: C17_20  and  N2_21 
REMARK       I    between atoms: N2_21  and  C18_23 
REMARK    2  A    between atoms: C18_23  and  C19_25 
ROOT
HETATM    1  C1  UNL     1      -0.495  19.052  -4.622  1.00  0.00     0.044 C 
HETATM    2  C2  UNL     1      -0.094  18.587  -5.793  1.00  0.00     0.045 A 
HETATM    3  N1  UNL     1       0.339  19.315  -6.774  1.00  0.00    -0.355 N 
ATOM      4  H1  UNL     1       0.416  20.332  -6.759  1.00  0.00     0.166 HD
HETATM    5  C3  UNL     1       0.677  18.519  -7.828  1.00  0.00     0.045 A 
HETATM    6  C4  UNL     1       1.006  18.985  -9.081  1.00  0.00     0.030 A 
HETATM    7  C5  UNL     1       1.124  18.035 -10.043  1.00  0.00     0.003 A 
HETATM    8  C6  UNL     1       0.932  16.773  -9.692  1.00  0.00     0.013 A 
HETATM    9  C7  UNL     1       0.611  16.179  -8.491  1.00  0.00    -0.010 A 
HETATM   10  C8  UNL     1       0.227  14.938  -8.454  1.00  0.00    -0.002 A 
HETATM   11  C9  UNL     1       0.024  14.082  -7.318  1.00  0.00    -0.010 A 
HETATM   12  C10 UNL     1       1.162  14.160  -6.360  1.00  0.00     0.013 A 
HETATM   13  C11 UNL     1       1.288  13.289  -5.349  1.00  0.00     0.001 A 
HETATM   14  C12 UNL     1       0.380  12.277  -5.131  1.00  0.00     0.001 A 
HETATM   15  C13 UNL     1      -0.668  12.202  -6.017  1.00  0.00     0.016 A 
HETATM   16  C14 UNL     1      -0.808  13.090  -7.068  1.00  0.00     0.026 A 
HETATM   17  C15 UNL     1      -1.770  12.730  -8.148  1.00  0.00     0.196 A 
HETATM   18  O1  UNL     1      -2.543  11.808  -7.907  1.00  0.00    -0.286 OA
HETATM   19  C16 UNL     1      -1.665  13.519  -9.357  1.00  0.00     0.053 A 
HETATM   20  C17 UNL     1      -2.593  13.156 -10.381  1.00  0.00     0.050 A 
HETATM   21  C24 UNL     1      -2.617  13.811 -11.594  1.00  0.00     0.030 A 
HETATM   22  C25 UNL     1      -1.763  14.819 -11.840  1.00  0.00     0.003 A 
HETATM   23  C26 UNL     1      -0.854  15.167 -10.818  1.00  0.00     0.013 A 
HETATM   24  C27 UNL     1      -0.779  14.561  -9.614  1.00  0.00    -0.008 A 
HETATM   25  C28 UNL     1       0.451  17.155  -7.479  1.00  0.00     0.025 A 
HETATM   26  C29 UNL     1      -0.053  17.232  -6.199  1.00  0.00     0.083 A 
HETATM   27  C30 UNL     1      -0.833  16.332  -5.405  1.00  0.00     0.102 C 
HETATM   28  N4  UNL     1      -1.535  15.657  -4.741  1.00  0.00    -0.191 NA
ENDROOT
BRANCH  20  29
HETATM   29  N2  UNL     1      -3.615  12.218 -10.081  1.00  0.00    -0.322 N 
HETATM   30  C18 UNL     1      -4.965  12.574  -9.881  1.00  0.00     0.261 C 
HETATM   31  O2  UNL     1      -5.314  13.766  -9.992  1.00  0.00    -0.267 OA
ATOM     32  H2  UNL     1      -3.359  11.233 -10.006  1.00  0.00     0.169 HD
BRANCH  30  33
HETATM   33  C19 UNL     1      -6.030  11.619  -9.547  1.00  0.00     0.100 A 
HETATM   34  C20 UNL     1      -6.217  11.360  -8.184  1.00  0.00     0.024 A 
HETATM   35  C21 UNL     1      -7.211  10.505  -7.780  1.00  0.00     0.018 A 
HETATM   36  C22 UNL     1      -8.031   9.892  -8.685  1.00  0.00     0.091 A 
HETATM   37  N3  UNL     1      -7.829  10.157  -9.981  1.00  0.00    -0.333 N 
HETATM   38  C23 UNL     1      -6.867  10.989 -10.413  1.00  0.00     0.261 A 
ATOM     39  H3  UNL     1      -8.432   9.707 -10.671  1.00  0.00     0.168 HD
HETATM   40  O3  UNL     1      -6.723  11.198 -11.663  1.00  0.00    -0.267 OA
ENDBRANCH  30  33
ENDBRANCH  20  29
TORSDOF 2
ENDMDL
MODEL 4
REMARK VINA RESULT: -10.727777324      1.965      2.457
REMARK  2 active torsions:
REMARK  status: ('A' for Active; 'I' for Inactive)
REMARK    1  A    between atoms: C17_20  and  N2_21 
REMARK       I    between atoms: N2_21  and  C18_23 
REMARK    2  A    between atoms: C18_23  and  C19_25 
ROOT
HETATM    1  C1  UNL     1      -0.233  19.617  -3.838  1.00  0.00     0.044 C 
HETATM    2  C2  UNL     1       0.324  18.770  -4.686  1.00  0.00     0.045 A 
HETATM    3  N1  UNL     1       1.428  18.981  -5.331  1.00  0.00    -0.355 N 
ATOM      4  H1  UNL     1       1.992  19.829  -5.265  1.00  0.00     0.166 HD
HETATM    5  C3  UNL     1       1.724  17.902  -6.111  1.00  0.00     0.045 A 
HETATM    6  C4  UNL     1       2.731  17.873  -7.050  1.00  0.00     0.030 A 
HETATM    7  C5  UNL     1       2.744  16.781  -7.856  1.00  0.00     0.003 A 
HETATM    8  C6  UNL     1       1.817  15.857  -7.658  1.00  0.00     0.013 A 
HETATM    9  C7  UNL     1       0.773  15.760  -6.764  1.00  0.00    -0.010 A 
HETATM   10  C8  UNL     1      -0.157  14.869  -6.934  1.00  0.00    -0.002 A 
HETATM   11  C9  UNL     1      -1.216  14.478  -6.044  1.00  0.00    -0.010 A 
HETATM   12  C10 UNL     1      -0.716  14.251  -4.660  1.00  0.00     0.013 A 
HETATM   13  C11 UNL     1      -1.481  13.672  -3.724  1.00  0.00     0.001 A 
HETATM   14  C12 UNL     1      -2.769  13.255  -3.981  1.00  0.00     0.001 A 
HETATM   15  C13 UNL     1      -3.229  13.460  -5.259  1.00  0.00     0.016 A 
HETATM   16  C14 UNL     1      -2.449  14.052  -6.236  1.00  0.00     0.026 A 
HETATM   17  C15 UNL     1      -2.907  13.928  -7.649  1.00  0.00     0.196 A 
HETATM   18  O1  UNL     1      -4.056  13.533  -7.819  1.00  0.00    -0.286 OA
HETATM   19  C16 UNL     1      -1.925  14.289  -8.650  1.00  0.00     0.053 A 
HETATM   20  C17 UNL     1      -2.383  14.160  -9.998  1.00  0.00     0.050 A 
HETATM   21  C24 UNL     1      -1.565  14.461 -11.065  1.00  0.00     0.030 A 
HETATM   22  C25 UNL     1      -0.308  14.892 -10.860  1.00  0.00     0.003 A 
HETATM   23  C26 UNL     1       0.127  15.016  -9.523  1.00  0.00     0.013 A 
HETATM   24  C27 UNL     1      -0.623  14.733  -8.438  1.00  0.00    -0.008 A 
HETATM   25  C28 UNL     1       0.721  16.905  -5.934  1.00  0.00     0.025 A 
HETATM   26  C29 UNL     1      -0.156  17.489  -5.045  1.00  0.00     0.083 A 
HETATM   27  C30 UNL     1      -1.532  17.242  -4.732  1.00  0.00     0.102 C 
HETATM   28  N4  UNL     1      -2.679  17.124  -4.492  1.00  0.00    -0.191 NA
ENDROOT
BRANCH  20  29
HETATM   29  N2  UNL     1      -3.753  13.877 -10.234  1.00  0.00    -0.322 N 
HETATM   30  C18 UNL     1      -4.201  12.813 -11.045  1.00  0.00     0.261 C 
HETATM   31  O2  UNL     1      -3.371  12.048 -11.576  1.00  0.00    -0.267 OA
ATOM     32  H2  UNL     1      -4.452  14.476  -9.794  1.00  0.00     0.169 HD
BRANCH  30  33
HETATM   33  C19 UNL     1      -5.614  12.522 -11.318  1.00  0.00     0.100 A 
HETATM   34  C20 UNL     1      -6.219  13.294 -12.317  1.00  0.00     0.024 A 
HETATM   35  C21 UNL     1      -7.528  13.067 -12.659  1.00  0.00     0.018 A 
HETATM   36  C22 UNL     1      -8.265  12.097 -12.041  1.00  0.00     0.091 A 
HETATM   37  N3  UNL     1      -7.663  11.374 -11.089  1.00  0.00    -0.333 N 
HETATM   38  C23 UNL     1      -6.383  11.567 -10.729  1.00  0.00     0.261 A 
ATOM     39  H3  UNL     1      -8.198  10.645 -10.617  1.00  0.00     0.168 HD
HETATM   40  O3  UNL     1      -5.866  10.848  -9.812  1.00  0.00    -0.267 OA
ENDBRANCH  30  33
ENDBRANCH  20  29
TORSDOF 2
ENDMDL
MODEL 5
REMARK VINA RESULT: -10.511554260      1.471      1.734
REMARK  2 active torsions:
REMARK  status: ('A' for Active; 'I' for Inactive)
REMARK    1  A    between atoms: C17_20  and  N2_21 
REMARK       I    between atoms: N2_21  and  C18_23 
REMARK    2  A    between atoms: C18_23  and  C19_25 
ROOT
HETATM    1  C1  UNL     1       0.641  20.675  -4.455  1.00  0.00     0.044 C 
HETATM    2  C2  UNL     1       1.123  19.921  -5.428  1.00  0.00     0.045 A 
HETATM    3  N1  UNL     1       1.822  20.356  -6.429  1.00  0.00    -0.355 N 
ATOM      4  H1  UNL     1       2.076  21.331  -6.586  1.00  0.00     0.166 HD
HETATM    5  C3  UNL     1       2.167  19.316  -7.241  1.00  0.00     0.045 A 
HETATM    6  C4  UNL     1       2.758  19.455  -8.476  1.00  0.00     0.030 A 
HETATM    7  C5  UNL     1       2.847  18.318  -9.211  1.00  0.00     0.003 A 
HETATM    8  C6  UNL     1       2.382  17.199  -8.676  1.00  0.00     0.013 A 
HETATM    9  C7  UNL     1       1.784  16.924  -7.467  1.00  0.00    -0.010 A 
HETATM   10  C8  UNL     1       1.183  15.788  -7.275  1.00  0.00    -0.002 A 
HETATM   11  C9  UNL     1       0.662  15.228  -6.058  1.00  0.00    -0.010 A 
HETATM   12  C10 UNL     1       1.639  15.339  -4.939  1.00  0.00     0.013 A 
HETATM   13  C11 UNL     1       1.454  14.691  -3.780  1.00  0.00     0.001 A 
HETATM   14  C12 UNL     1       0.357  13.890  -3.551  1.00  0.00     0.001 A 
HETATM   15  C13 UNL     1      -0.542  13.784  -4.584  1.00  0.00     0.016 A 
HETATM   16  C14 UNL     1      -0.361  14.442  -5.787  1.00  0.00     0.026 A 
HETATM   17  C15 UNL     1      -1.200  14.007  -6.941  1.00  0.00     0.196 A 
HETATM   18  O1  UNL     1      -2.152  13.278  -6.681  1.00  0.00    -0.286 OA
HETATM   19  C16 UNL     1      -0.775  14.501  -8.234  1.00  0.00     0.053 A 
HETATM   20  C17 UNL     1      -1.589  14.069  -9.326  1.00  0.00     0.050 A 
HETATM   21  C24 UNL     1      -1.313  14.451 -10.621  1.00  0.00     0.030 A 
HETATM   22  C25 UNL     1      -0.265  15.250 -10.888  1.00  0.00     0.003 A 
HETATM   23  C26 UNL     1       0.527  15.669  -9.797  1.00  0.00     0.013 A 
HETATM   24  C27 UNL     1       0.311  15.326  -8.510  1.00  0.00    -0.008 A 
HETATM   25  C28 UNL     1       1.650  18.103  -6.696  1.00  0.00     0.025 A 
HETATM   26  C29 UNL     1       0.982  18.520  -5.565  1.00  0.00     0.083 A 
HETATM   27  C30 UNL     1      -0.057  17.930  -4.777  1.00  0.00     0.102 C 
HETATM   28  N4  UNL     1      -0.959  17.518  -4.140  1.00  0.00    -0.191 NA
ENDROOT
BRANCH  20  29
HETATM   29  N2  UNL     1      -2.795  13.374  -9.052  1.00  0.00    -0.322 N 
HETATM   30  C18 UNL     1      -3.378  12.444  -9.937  1.00  0.00     0.261 C 
HETATM   31  O2  UNL     1      -2.812  12.180 -11.017  1.00  0.00    -0.267 OA
ATOM     32  H2  UNL     1      -3.266  13.557  -8.165  1.00  0.00     0.169 HD
BRANCH  30  33
HETATM   33  C19 UNL     1      -4.637  11.734  -9.678  1.00  0.00     0.100 A 
HETATM   34  C20 UNL     1      -5.647  11.906 -10.632  1.00  0.00     0.024 A 
HETATM   35  C21 UNL     1      -6.846  11.254 -10.486  1.00  0.00     0.018 A 
HETATM   36  C22 UNL     1      -7.080  10.433  -9.419  1.00  0.00     0.091 A 
HETATM   37  N3  UNL     1      -6.099  10.288  -8.522  1.00  0.00    -0.333 N 
HETATM   38  C23 UNL     1      -4.913  10.909  -8.633  1.00  0.00     0.261 A 
ATOM     39  H3  UNL     1      -6.258   9.679  -7.719  1.00  0.00     0.168 HD
HETATM   40  O3  UNL     1      -4.018  10.733  -7.742  1.00  0.00    -0.267 OA
ENDBRANCH  30  33
ENDBRANCH  20  29
TORSDOF 2
ENDMDL
