MODEL 1
REMARK VINA RESULT: -5.452183229      0.000      0.000
REMARK  2 active torsions:
REMARK  status: ('A' for Active; 'I' for Inactive)
REMARK    1  A    between atoms: N1_1  and  N2_4 
REMARK       I    between atoms: N2_4  and  C1_5 
REMARK    2  A    between atoms: C1_5  and  C2_7 
ROOT
HETATM    1  C2  UNL     1     -14.078  -6.678  40.508  1.00  0.00     0.134 A 
HETATM    2  C3  UNL     1     -13.586  -5.427  40.802  1.00  0.00     0.129 A 
HETATM    3  N3  UNL     1     -12.230  -5.532  40.981  1.00  0.00    -0.341 N 
HETATM    4  C4  UNL     1     -11.903  -6.818  40.800  1.00  0.00     0.101 A 
HETATM    5  N4  UNL     1     -13.008  -7.494  40.522  1.00  0.00    -0.338 N 
ATOM      6  H4  UNL     1     -13.043  -8.497  40.344  1.00  0.00     0.167 HD
HETATM    7  C5  UNL     1     -10.450  -7.176  40.920  1.00  0.00     0.190 C 
HETATM    8  N5  UNL     1      -9.894  -6.573  42.075  1.00  0.00    -0.413 N 
ATOM      9  H5  UNL     1      -9.257  -7.076  42.693  1.00  0.00     0.153 HD
HETATM   10  C6  UNL     1     -10.277  -5.216  42.326  1.00  0.00     0.134 C 
HETATM   11  C7  UNL     1     -11.191  -4.609  41.311  1.00  0.00     0.149 C 
ENDROOT
BRANCH   1  12
HETATM   12  C1  UNL     1     -15.499  -7.003  40.217  1.00  0.00     0.362 C 
HETATM   13  N2  UNL     1     -16.380  -7.179  41.233  1.00  0.00    -0.287 NA
HETATM   14  O1  UNL     1     -15.745  -7.083  38.964  1.00  0.00    -0.247 OA
BRANCH  13  15
HETATM   15  N1  UNL     1     -17.244  -7.352  42.226  1.00  0.00    -0.276 N 
ATOM     16  H12 UNL     1     -16.553  -7.237  41.485  1.00  0.00     0.191 HD
ATOM     17  H11 UNL     1     -17.908  -7.485  42.989  1.00  0.00     0.191 HD
ENDBRANCH  13  15
ENDBRANCH   1  12
TORSDOF 2
ENDMDL
MODEL 2
REMARK VINA RESULT: -5.287843546      1.374      1.602
REMARK  2 active torsions:
REMARK  status: ('A' for Active; 'I' for Inactive)
REMARK    1  A    between atoms: N1_1  and  N2_4 
REMARK       I    between atoms: N2_4  and  C1_5 
REMARK    2  A    between atoms: C1_5  and  C2_7 
ROOT
HETATM    1  C2  UNL     1     -13.938  -6.686  40.477  1.00  0.00     0.134 A 
HETATM    2  C3  UNL     1     -13.483  -5.417  40.754  1.00  0.00     0.129 A 
HETATM    3  N3  UNL     1     -12.128  -5.484  40.962  1.00  0.00    -0.341 N 
HETATM    4  C4  UNL     1     -11.767  -6.764  40.813  1.00  0.00     0.101 A 
HETATM    5  N4  UNL     1     -12.848  -7.474  40.529  1.00  0.00    -0.338 N 
ATOM      6  H4  UNL     1     -12.855  -8.481  40.370  1.00  0.00     0.167 HD
HETATM    7  C5  UNL     1     -10.307  -7.083  40.968  1.00  0.00     0.190 C 
HETATM    8  N5  UNL     1      -9.790  -6.443  42.120  1.00  0.00    -0.413 N 
ATOM      9  H5  UNL     1      -9.153  -6.918  42.761  1.00  0.00     0.153 HD
HETATM   10  C6  UNL     1     -10.211  -5.092  42.337  1.00  0.00     0.134 C 
HETATM   11  C7  UNL     1     -11.120  -4.528  41.292  1.00  0.00     0.149 C 
ENDROOT
BRANCH   1  12
HETATM   12  C1  UNL     1     -15.344  -7.052  40.166  1.00  0.00     0.362 C 
HETATM   13  N2  UNL     1     -15.807  -6.963  38.895  1.00  0.00    -0.287 NA
HETATM   14  O1  UNL     1     -15.999  -7.437  41.197  1.00  0.00    -0.247 OA
BRANCH  13  15
HETATM   15  N1  UNL     1     -16.261  -6.876  37.651  1.00  0.00    -0.276 N 
ATOM     16  H12 UNL     1     -15.911  -6.903  38.608  1.00  0.00     0.191 HD
ATOM     17  H11 UNL     1     -16.611  -6.809  36.694  1.00  0.00     0.191 HD
ENDBRANCH  13  15
ENDBRANCH   1  12
TORSDOF 2
ENDMDL
MODEL 3
REMARK VINA RESULT: -5.201456316      2.079      5.121
REMARK  2 active torsions:
REMARK  status: ('A' for Active; 'I' for Inactive)
REMARK    1  A    between atoms: N1_1  and  N2_4 
REMARK       I    between atoms: N2_4  and  C1_5 
REMARK    2  A    between atoms: C1_5  and  C2_7 
ROOT
HETATM    1  C2  UNL     1     -12.028  -6.413  40.931  1.00  0.00     0.134 A 
HETATM    2  C3  UNL     1     -12.962  -7.279  40.411  1.00  0.00     0.129 A 
HETATM    3  N3  UNL     1     -14.179  -6.646  40.410  1.00  0.00    -0.341 N 
HETATM    4  C4  UNL     1     -13.990  -5.421  40.916  1.00  0.00     0.101 A 
HETATM    5  N4  UNL     1     -12.709  -5.290  41.228  1.00  0.00    -0.338 N 
ATOM      6  H4  UNL     1     -12.295  -4.453  41.637  1.00  0.00     0.167 HD
HETATM    7  C5  UNL     1     -15.190  -4.521  40.990  1.00  0.00     0.190 C 
HETATM    8  N5  UNL     1     -16.296  -5.228  41.524  1.00  0.00    -0.413 N 
ATOM      9  H5  UNL     1     -16.923  -4.809  42.211  1.00  0.00     0.153 HD
HETATM   10  C6  UNL     1     -16.483  -6.564  41.044  1.00  0.00     0.134 C 
HETATM   11  C7  UNL     1     -15.499  -7.021  40.016  1.00  0.00     0.149 C 
ENDROOT
BRANCH   1  12
HETATM   12  C1  UNL     1     -10.577  -6.695  41.087  1.00  0.00     0.362 C 
HETATM   13  N2  UNL     1      -9.824  -5.948  41.933  1.00  0.00    -0.287 NA
HETATM   14  O1  UNL     1     -10.179  -7.671  40.362  1.00  0.00    -0.247 OA
BRANCH  13  15
HETATM   15  N1  UNL     1      -9.086  -5.218  42.760  1.00  0.00    -0.276 N 
ATOM     16  H12 UNL     1      -9.654  -5.748  42.099  1.00  0.00     0.191 HD
ATOM     17  H11 UNL     1      -8.518  -4.658  43.396  1.00  0.00     0.191 HD
ENDBRANCH  13  15
ENDBRANCH   1  12
TORSDOF 2
ENDMDL
MODEL 4
REMARK VINA RESULT: -5.102457388      2.175      4.941
REMARK  2 active torsions:
REMARK  status: ('A' for Active; 'I' for Inactive)
REMARK    1  A    between atoms: N1_1  and  N2_4 
REMARK       I    between atoms: N2_4  and  C1_5 
REMARK    2  A    between atoms: C1_5  and  C2_7 
ROOT
HETATM    1  C2  UNL     1     -12.031  -6.404  40.898  1.00  0.00     0.134 A 
HETATM    2  C3  UNL     1     -12.648  -5.209  41.188  1.00  0.00     0.129 A 
HETATM    3  N3  UNL     1     -13.984  -5.337  40.905  1.00  0.00    -0.341 N 
HETATM    4  C4  UNL     1     -14.177  -6.582  40.454  1.00  0.00     0.101 A 
HETATM    5  N4  UNL     1     -13.011  -7.211  40.449  1.00  0.00    -0.338 N 
ATOM      6  H4  UNL     1     -12.874  -8.175  40.147  1.00  0.00     0.167 HD
HETATM    7  C5  UNL     1     -15.585  -6.969  40.102  1.00  0.00     0.190 C 
HETATM    8  N5  UNL     1     -16.189  -5.950  39.326  1.00  0.00    -0.413 N 
ATOM      9  H5  UNL     1     -16.765  -6.162  38.511  1.00  0.00     0.153 HD
HETATM   10  C6  UNL     1     -15.946  -4.604  39.751  1.00  0.00     0.134 C 
HETATM   11  C7  UNL     1     -15.109  -4.461  40.981  1.00  0.00     0.149 C 
ENDROOT
BRANCH   1  12
HETATM   12  C1  UNL     1     -10.587  -6.702  41.085  1.00  0.00     0.362 C 
HETATM   13  N2  UNL     1      -9.841  -5.953  41.935  1.00  0.00    -0.287 NA
HETATM   14  O1  UNL     1     -10.188  -7.693  40.381  1.00  0.00    -0.247 OA
BRANCH  13  15
HETATM   15  N1  UNL     1      -9.109  -5.221  42.765  1.00  0.00    -0.276 N 
ATOM     16  H12 UNL     1      -9.639  -5.790  42.105  1.00  0.00     0.191 HD
ATOM     17  H11 UNL     1      -8.547  -4.658  43.404  1.00  0.00     0.191 HD
ENDBRANCH  13  15
ENDBRANCH   1  12
TORSDOF 2
ENDMDL
MODEL 5
REMARK VINA RESULT: -5.055007003      2.074      2.659
REMARK  2 active torsions:
REMARK  status: ('A' for Active; 'I' for Inactive)
REMARK    1  A    between atoms: N1_1  and  N2_4 
REMARK       I    between atoms: N2_4  and  C1_5 
REMARK    2  A    between atoms: C1_5  and  C2_7 
ROOT
HETATM    1  C2  UNL     1     -14.277  -6.405  39.817  1.00  0.00     0.134 A 
HETATM    2  C3  UNL     1     -13.275  -7.296  40.128  1.00  0.00     0.129 A 
HETATM    3  N3  UNL     1     -12.353  -6.646  40.909  1.00  0.00    -0.341 N 
HETATM    4  C4  UNL     1     -12.784  -5.390  41.071  1.00  0.00     0.101 A 
HETATM    5  N4  UNL     1     -13.927  -5.251  40.416  1.00  0.00    -0.338 N 
ATOM      6  H4  UNL     1     -14.468  -4.389  40.372  1.00  0.00     0.167 HD
HETATM    7  C5  UNL     1     -11.941  -4.485  41.924  1.00  0.00     0.190 C 
HETATM    8  N5  UNL     1     -10.577  -4.610  41.565  1.00  0.00    -0.413 N 
ATOM      9  H5  UNL     1      -9.964  -3.798  41.482  1.00  0.00     0.153 HD
HETATM   10  C6  UNL     1     -10.106  -5.940  41.324  1.00  0.00     0.134 C 
HETATM   11  C7  UNL     1     -11.117  -7.024  41.518  1.00  0.00     0.149 C 
ENDROOT
BRANCH   1  12
HETATM   12  C1  UNL     1     -15.486  -6.709  39.009  1.00  0.00     0.362 C 
HETATM   13  N2  UNL     1     -15.532  -6.372  37.696  1.00  0.00    -0.287 NA
HETATM   14  O1  UNL     1     -16.403  -7.293  39.684  1.00  0.00    -0.247 OA
BRANCH  13  15
HETATM   15  N1  UNL     1     -15.577  -6.043  36.411  1.00  0.00    -0.276 N 
ATOM     16  H12 UNL     1     -15.569  -6.268  37.405  1.00  0.00     0.191 HD
ATOM     17  H11 UNL     1     -15.612  -5.790  35.423  1.00  0.00     0.191 HD
ENDBRANCH  13  15
ENDBRANCH   1  12
TORSDOF 2
ENDMDL
