MODEL 1
REMARK VINA RESULT: -7.215408423      0.000      0.000
REMARK  4 active torsions:
REMARK  status: ('A' for Active; 'I' for Inactive)
REMARK       I    between atoms: N1_2  and  C2_4 
REMARK    1  A    between atoms: C2_4  and  C3_6 
REMARK    2  A    between atoms: C4_7  and  N2_8 
REMARK       I    between atoms: N2_8  and  C5_10 
REMARK    3  A    between atoms: C5_10  and  C6_12 
REMARK    4  A    between atoms: C8_18  and  C9_19 
ROOT
HETATM    1  C6  UNL     1      -4.575   9.343  11.231  1.00  0.00     0.129 A 
HETATM    2  N3  UNL     1      -5.543   8.708  11.955  1.00  0.00    -0.295 N 
ATOM      3  H3  UNL     1      -6.352   9.177  12.362  1.00  0.00     0.187 HD
HETATM    4  N4  UNL     1      -5.309   7.435  12.064  1.00  0.00    -0.310 N 
ATOM      5  H4  UNL     1      -5.889   6.756  12.557  1.00  0.00     0.186 HD
HETATM    6  C7  UNL     1      -4.166   7.176  11.409  1.00  0.00     0.122 A 
HETATM    7  C8  UNL     1      -3.691   8.393  10.872  1.00  0.00     0.027 A 
ENDROOT
BRANCH   1   8
HETATM    8  C5  UNL     1      -4.583  10.765  10.937  1.00  0.00     0.275 C 
HETATM    9  N2  UNL     1      -4.718  11.788  11.908  1.00  0.00    -0.318 N 
ATOM     10  H2  UNL     1      -4.835  11.531  12.887  1.00  0.00     0.169 HD
HETATM   11  O2  UNL     1      -4.466  11.091   9.727  1.00  0.00    -0.266 OA
BRANCH   9  12
HETATM   12  C4  UNL     1      -4.694  13.148  11.557  1.00  0.00     0.086 A 
HETATM   13  C3  UNL     1      -3.556  13.998  11.544  1.00  0.00     0.146 A 
HETATM   14  N9  UNL     1      -3.927  15.206  11.101  1.00  0.00    -0.290 N 
HETATM   15  N8  UNL     1      -5.239  15.173  10.832  1.00  0.00    -0.307 N 
HETATM   16  C16 UNL     1      -3.100  16.403  10.921  1.00  0.00     0.178 C 
HETATM   17  C15 UNL     1      -5.713  13.949  11.101  1.00  0.00     0.139 A 
ATOM     18  H8  UNL     1      -5.790  15.956  10.479  1.00  0.00     0.186 HD
BRANCH  13  19
HETATM   19  C2  UNL     1      -2.230  13.580  11.992  1.00  0.00     0.271 C 
HETATM   20  N1  UNL     1      -1.272  12.851  11.289  1.00  0.00    -0.360 N 
HETATM   21  C1  UNL     1       0.006  12.544  11.946  1.00  0.00     0.149 C 
ATOM     22  H1  UNL     1      -1.455  12.536  10.336  1.00  0.00     0.162 HD
HETATM   23  O1  UNL     1      -1.851  13.904  13.189  1.00  0.00    -0.266 OA
ENDBRANCH  13  19
ENDBRANCH   9  12
ENDBRANCH   1   8
BRANCH   7  24
HETATM   24  C9  UNL     1      -2.525   8.451  10.017  1.00  0.00     0.011 A 
HETATM   25  C10 UNL     1      -1.359   9.097  10.465  1.00  0.00     0.101 A 
HETATM   26  N5  UNL     1      -0.277   9.231   9.681  1.00  0.00    -0.372 N 
HETATM   27  C11 UNL     1      -0.214   8.766   8.417  1.00  0.00     0.119 A 
ATOM     28  H5  UNL     1       0.540   9.710  10.062  1.00  0.00     0.164 HD
HETATM   29  C12 UNL     1      -1.345   8.129   7.953  1.00  0.00     0.079 A 
HETATM   30  N6  UNL     1      -1.570   7.569   6.755  1.00  0.00    -0.296 N 
HETATM   31  C14 UNL     1      -2.479   7.969   8.729  1.00  0.00     0.063 A 
HETATM   32  N7  UNL     1      -2.781   7.078   6.764  1.00  0.00    -0.275 N 
ATOM     33  H6  UNL     1      -0.912   7.533   5.976  1.00  0.00     0.187 HD
HETATM   34  C13 UNL     1      -3.397   7.292   7.959  1.00  0.00     0.216 A 
ATOM     35  H7  UNL     1      -3.211   6.595   5.976  1.00  0.00     0.189 HD
HETATM   36  F1  UNL     1      -4.632   6.919   8.321  1.00  0.00    -0.184 F 
ENDBRANCH   7  24
TORSDOF 4
ENDMDL
MODEL 2
REMARK VINA RESULT: -7.191644416      1.181      2.039
REMARK  4 active torsions:
REMARK  status: ('A' for Active; 'I' for Inactive)
REMARK       I    between atoms: N1_2  and  C2_4 
REMARK    1  A    between atoms: C2_4  and  C3_6 
REMARK    2  A    between atoms: C4_7  and  N2_8 
REMARK       I    between atoms: N2_8  and  C5_10 
REMARK    3  A    between atoms: C5_10  and  C6_12 
REMARK    4  A    between atoms: C8_18  and  C9_19 
ROOT
HETATM    1  C6  UNL     1      -5.081   9.123  10.673  1.00  0.00     0.129 A 
HETATM    2  N3  UNL     1      -6.040   8.538  11.450  1.00  0.00    -0.295 N 
ATOM      3  H3  UNL     1      -6.701   9.057  12.029  1.00  0.00     0.187 HD
HETATM    4  N4  UNL     1      -6.011   7.243  11.364  1.00  0.00    -0.310 N 
ATOM      5  H4  UNL     1      -6.628   6.592  11.851  1.00  0.00     0.186 HD
HETATM    6  C7  UNL     1      -5.021   6.916  10.519  1.00  0.00     0.122 A 
HETATM    7  C8  UNL     1      -4.422   8.114  10.071  1.00  0.00     0.027 A 
ENDROOT
BRANCH   1   8
HETATM    8  C5  UNL     1      -4.889  10.557  10.563  1.00  0.00     0.275 C 
HETATM    9  N2  UNL     1      -4.832  11.450  11.661  1.00  0.00    -0.318 N 
ATOM     10  H2  UNL     1      -4.947  11.084  12.605  1.00  0.00     0.169 HD
HETATM   11  O2  UNL     1      -4.773  11.021   9.399  1.00  0.00    -0.266 OA
BRANCH   9  12
HETATM   12  C4  UNL     1      -4.620  12.828  11.485  1.00  0.00     0.086 A 
HETATM   13  C3  UNL     1      -3.385  13.517  11.618  1.00  0.00     0.146 A 
HETATM   14  N9  UNL     1      -3.578  14.807  11.316  1.00  0.00    -0.290 N 
HETATM   15  N8  UNL     1      -4.869  14.978  10.999  1.00  0.00    -0.307 N 
HETATM   16  C16 UNL     1      -2.601  15.899  11.318  1.00  0.00     0.178 C 
HETATM   17  C15 UNL     1      -5.505  13.803  11.095  1.00  0.00     0.139 A 
ATOM     18  H8  UNL     1      -5.299  15.863  10.728  1.00  0.00     0.186 HD
BRANCH  13  19
HETATM   19  C2  UNL     1      -2.147  12.879  12.058  1.00  0.00     0.271 C 
HETATM   20  N1  UNL     1      -0.906  12.874  11.421  1.00  0.00    -0.360 N 
HETATM   21  C1  UNL     1       0.211  12.162  12.055  1.00  0.00     0.149 C 
ATOM     22  H1  UNL     1      -0.777  13.355  10.531  1.00  0.00     0.162 HD
HETATM   23  O1  UNL     1      -2.152  12.222  13.176  1.00  0.00    -0.266 OA
ENDBRANCH  13  19
ENDBRANCH   9  12
ENDBRANCH   1   8
BRANCH   7  24
HETATM   24  C9  UNL     1      -3.382   8.124   9.065  1.00  0.00     0.011 A 
HETATM   25  C10 UNL     1      -3.631   7.580   7.793  1.00  0.00     0.101 A 
HETATM   26  N5  UNL     1      -2.676   7.510   6.852  1.00  0.00    -0.372 N 
HETATM   27  C11 UNL     1      -1.415   7.947   7.041  1.00  0.00     0.119 A 
ATOM     28  H5  UNL     1      -2.917   7.105   5.947  1.00  0.00     0.164 HD
HETATM   29  C12 UNL     1      -1.143   8.485   8.281  1.00  0.00     0.079 A 
HETATM   30  N6  UNL     1       0.005   8.997   8.749  1.00  0.00    -0.296 N 
HETATM   31  C14 UNL     1      -2.100   8.577   9.276  1.00  0.00     0.063 A 
HETATM   32  N7  UNL     1      -0.205   9.394   9.976  1.00  0.00    -0.275 N 
ATOM     33  H6  UNL     1       0.886   9.064   8.237  1.00  0.00     0.187 HD
HETATM   34  C13 UNL     1      -1.490   9.163  10.363  1.00  0.00     0.216 A 
ATOM     35  H7  UNL     1       0.504   9.824  10.570  1.00  0.00     0.189 HD
HETATM   36  F1  UNL     1      -2.053   9.449  11.544  1.00  0.00    -0.184 F 
ENDBRANCH   7  24
TORSDOF 4
ENDMDL
MODEL 3
REMARK VINA RESULT: -7.023489132      1.060      1.152
REMARK  4 active torsions:
REMARK  status: ('A' for Active; 'I' for Inactive)
REMARK       I    between atoms: N1_2  and  C2_4 
REMARK    1  A    between atoms: C2_4  and  C3_6 
REMARK    2  A    between atoms: C4_7  and  N2_8 
REMARK       I    between atoms: N2_8  and  C5_10 
REMARK    3  A    between atoms: C5_10  and  C6_12 
REMARK    4  A    between atoms: C8_18  and  C9_19 
ROOT
HETATM    1  C6  UNL     1      -4.730   8.481  11.442  1.00  0.00     0.129 A 
HETATM    2  N3  UNL     1      -5.503   7.664  12.218  1.00  0.00    -0.295 N 
ATOM      3  H3  UNL     1      -6.366   7.960  12.675  1.00  0.00     0.187 HD
HETATM    4  N4  UNL     1      -5.009   6.466  12.303  1.00  0.00    -0.310 N 
ATOM      5  H4  UNL     1      -5.408   5.686  12.825  1.00  0.00     0.186 HD
HETATM    6  C7  UNL     1      -3.878   6.443  11.581  1.00  0.00     0.122 A 
HETATM    7  C8  UNL     1      -3.693   7.729  11.025  1.00  0.00     0.027 A 
ENDROOT
BRANCH   1   8
HETATM    8  C5  UNL     1      -5.045   9.869  11.160  1.00  0.00     0.275 C 
HETATM    9  N2  UNL     1      -5.195  10.878  12.143  1.00  0.00    -0.318 N 
ATOM     10  H2  UNL     1      -5.095  10.631  13.127  1.00  0.00     0.169 HD
HETATM   11  O2  UNL     1      -5.198  10.177   9.949  1.00  0.00    -0.266 OA
BRANCH   9  12
HETATM   12  C4  UNL     1      -5.478  12.210  11.799  1.00  0.00     0.086 A 
HETATM   13  C3  UNL     1      -4.530  13.235  11.534  1.00  0.00     0.146 A 
HETATM   14  N9  UNL     1      -5.188  14.348  11.187  1.00  0.00    -0.290 N 
HETATM   15  N8  UNL     1      -6.503  14.091  11.218  1.00  0.00    -0.307 N 
HETATM   16  C16 UNL     1      -4.635  15.658  10.830  1.00  0.00     0.178 C 
HETATM   17  C15 UNL     1      -6.693  12.816  11.582  1.00  0.00     0.139 A 
ATOM     18  H8  UNL     1      -7.242  14.759  10.998  1.00  0.00     0.186 HD
BRANCH  13  19
HETATM   19  C2  UNL     1      -3.088  13.057  11.675  1.00  0.00     0.271 C 
HETATM   20  N1  UNL     1      -2.219  13.715  12.544  1.00  0.00    -0.360 N 
HETATM   21  C1  UNL     1      -0.791  13.370  12.513  1.00  0.00     0.149 C 
ATOM     22  H1  UNL     1      -2.567  14.425  13.189  1.00  0.00     0.162 HD
HETATM   23  O1  UNL     1      -2.494  12.188  10.917  1.00  0.00    -0.266 OA
ENDBRANCH  13  19
ENDBRANCH   9  12
ENDBRANCH   1   8
BRANCH   7  24
HETATM   24  C9  UNL     1      -2.616   8.020  10.104  1.00  0.00     0.011 A 
HETATM   25  C10 UNL     1      -1.501   8.757  10.539  1.00  0.00     0.101 A 
HETATM   26  N5  UNL     1      -0.510   9.105   9.703  1.00  0.00    -0.372 N 
HETATM   27  C11 UNL     1      -0.498   8.784   8.393  1.00  0.00     0.119 A 
ATOM     28  H5  UNL     1       0.274   9.640  10.077  1.00  0.00     0.164 HD
HETATM   29  C12 UNL     1      -1.580   8.061   7.940  1.00  0.00     0.079 A 
HETATM   30  N6  UNL     1      -1.836   7.603   6.705  1.00  0.00    -0.296 N 
HETATM   31  C14 UNL     1      -2.620   7.682   8.770  1.00  0.00     0.063 A 
HETATM   32  N7  UNL     1      -2.977   6.966   6.744  1.00  0.00    -0.275 N 
ATOM     33  H6  UNL     1      -1.245   7.730   5.883  1.00  0.00     0.187 HD
HETATM   34  C13 UNL     1      -3.514   6.978   7.994  1.00  0.00     0.216 A 
ATOM     35  H7  UNL     1      -3.410   6.516   5.937  1.00  0.00     0.189 HD
HETATM   36  F1  UNL     1      -4.662   6.418   8.397  1.00  0.00    -0.184 F 
ENDBRANCH   7  24
TORSDOF 4
ENDMDL
MODEL 4
REMARK VINA RESULT: -6.891910300      1.935      3.388
REMARK  4 active torsions:
REMARK  status: ('A' for Active; 'I' for Inactive)
REMARK       I    between atoms: N1_2  and  C2_4 
REMARK    1  A    between atoms: C2_4  and  C3_6 
REMARK    2  A    between atoms: C4_7  and  N2_8 
REMARK       I    between atoms: N2_8  and  C5_10 
REMARK    3  A    between atoms: C5_10  and  C6_12 
REMARK    4  A    between atoms: C8_18  and  C9_19 
ROOT
HETATM    1  C6  UNL     1      -4.793   8.524  11.367  1.00  0.00     0.129 A 
HETATM    2  N3  UNL     1      -5.585   7.718  12.135  1.00  0.00    -0.295 N 
ATOM      3  H3  UNL     1      -6.455   8.022  12.572  1.00  0.00     0.187 HD
HETATM    4  N4  UNL     1      -5.098   6.519  12.241  1.00  0.00    -0.310 N 
ATOM      5  H4  UNL     1      -5.510   5.745  12.762  1.00  0.00     0.186 HD
HETATM    6  C7  UNL     1      -3.953   6.485  11.542  1.00  0.00     0.122 A 
HETATM    7  C8  UNL     1      -3.752   7.764  10.977  1.00  0.00     0.027 A 
ENDROOT
BRANCH   1   8
HETATM    8  C5  UNL     1      -5.097   9.911  11.065  1.00  0.00     0.275 C 
HETATM    9  N2  UNL     1      -5.326  10.916  12.037  1.00  0.00    -0.318 N 
ATOM     10  H2  UNL     1      -5.296  10.667  13.025  1.00  0.00     0.169 HD
HETATM   11  O2  UNL     1      -5.162  10.221   9.847  1.00  0.00    -0.266 OA
BRANCH   9  12
HETATM   12  C4  UNL     1      -5.593  12.247  11.676  1.00  0.00     0.086 A 
HETATM   13  C3  UNL     1      -6.874  12.848  11.547  1.00  0.00     0.146 A 
HETATM   14  N9  UNL     1      -6.713  14.142  11.245  1.00  0.00    -0.290 N 
HETATM   15  N8  UNL     1      -5.400  14.400  11.172  1.00  0.00    -0.307 N 
HETATM   16  C16 UNL     1      -7.744  15.157  11.011  1.00  0.00     0.178 C 
HETATM   17  C15 UNL     1      -4.716  13.276  11.428  1.00  0.00     0.139 A 
ATOM     18  H8  UNL     1      -4.986  15.307  10.957  1.00  0.00     0.186 HD
BRANCH  13  19
HETATM   19  C2  UNL     1      -8.128  12.114  11.690  1.00  0.00     0.271 C 
HETATM   20  N1  UNL     1      -9.132  12.299  12.640  1.00  0.00    -0.360 N 
HETATM   21  C1  UNL     1     -10.321  11.436  12.591  1.00  0.00     0.149 C 
ATOM     22  H1  UNL     1      -9.043  13.020  13.357  1.00  0.00     0.162 HD
HETATM   23  O1  UNL     1      -8.386  11.159  10.851  1.00  0.00    -0.266 OA
ENDBRANCH  13  19
ENDBRANCH   9  12
ENDBRANCH   1   8
BRANCH   7  24
HETATM   24  C9  UNL     1      -2.655   8.042  10.075  1.00  0.00     0.011 A 
HETATM   25  C10 UNL     1      -1.544   8.776  10.526  1.00  0.00     0.101 A 
HETATM   26  N5  UNL     1      -0.536   9.112   9.706  1.00  0.00    -0.372 N 
HETATM   27  C11 UNL     1      -0.500   8.780   8.400  1.00  0.00     0.119 A 
ATOM     28  H5  UNL     1       0.244   9.645  10.092  1.00  0.00     0.164 HD
HETATM   29  C12 UNL     1      -1.578   8.061   7.931  1.00  0.00     0.079 A 
HETATM   30  N6  UNL     1      -1.813   7.595   6.695  1.00  0.00    -0.296 N 
HETATM   31  C14 UNL     1      -2.636   7.694   8.744  1.00  0.00     0.063 A 
HETATM   32  N7  UNL     1      -2.958   6.965   6.716  1.00  0.00    -0.275 N 
ATOM     33  H6  UNL     1      -1.205   7.712   5.884  1.00  0.00     0.187 HD
HETATM   34  C13 UNL     1      -3.519   6.989   7.956  1.00  0.00     0.216 A 
ATOM     35  H7  UNL     1      -3.379   6.512   5.905  1.00  0.00     0.189 HD
HETATM   36  F1  UNL     1      -4.678   6.440   8.341  1.00  0.00    -0.184 F 
ENDBRANCH   7  24
TORSDOF 4
ENDMDL
MODEL 5
REMARK VINA RESULT: -6.811983680      1.923      3.479
REMARK  4 active torsions:
REMARK  status: ('A' for Active; 'I' for Inactive)
REMARK       I    between atoms: N1_2  and  C2_4 
REMARK    1  A    between atoms: C2_4  and  C3_6 
REMARK    2  A    between atoms: C4_7  and  N2_8 
REMARK       I    between atoms: N2_8  and  C5_10 
REMARK    3  A    between atoms: C5_10  and  C6_12 
REMARK    4  A    between atoms: C8_18  and  C9_19 
ROOT
HETATM    1  C6  UNL     1      -2.721  10.918  10.807  1.00  0.00     0.129 A 
HETATM    2  N3  UNL     1      -1.637  11.527  11.374  1.00  0.00    -0.295 N 
ATOM      3  H3  UNL     1      -1.658  12.459  11.788  1.00  0.00     0.187 HD
HETATM    4  N4  UNL     1      -0.578  10.777  11.323  1.00  0.00    -0.310 N 
ATOM      5  H4  UNL     1       0.347  11.016  11.680  1.00  0.00     0.186 HD
HETATM    6  C7  UNL     1      -0.923   9.632  10.713  1.00  0.00     0.122 A 
HETATM    7  C8  UNL     1      -2.293   9.714  10.382  1.00  0.00     0.027 A 
ENDROOT
BRANCH   1   8
HETATM    8  C5  UNL     1      -4.042  11.516  10.735  1.00  0.00     0.275 C 
HETATM    9  N2  UNL     1      -4.753  12.038  11.843  1.00  0.00    -0.318 N 
ATOM     10  H2  UNL     1      -4.333  11.986  12.771  1.00  0.00     0.169 HD
HETATM   11  O2  UNL     1      -4.578  11.559   9.597  1.00  0.00    -0.266 OA
BRANCH   9  12
HETATM   12  C4  UNL     1      -6.021  12.625  11.700  1.00  0.00     0.086 A 
HETATM   13  C3  UNL     1      -6.294  13.996  11.450  1.00  0.00     0.146 A 
HETATM   14  N9  UNL     1      -7.617  14.154  11.321  1.00  0.00    -0.290 N 
HETATM   15  N8  UNL     1      -8.203  12.959  11.476  1.00  0.00    -0.307 N 
HETATM   16  C16 UNL     1      -8.366  15.387  11.063  1.00  0.00     0.178 C 
HETATM   17  C15 UNL     1      -7.261  12.033  11.704  1.00  0.00     0.139 A 
ATOM     18  H8  UNL     1      -9.207  12.781  11.429  1.00  0.00     0.186 HD
BRANCH  13  19
HETATM   19  C2  UNL     1      -5.262  15.028  11.396  1.00  0.00     0.271 C 
HETATM   20  N1  UNL     1      -5.056  16.088  12.279  1.00  0.00    -0.360 N 
HETATM   21  C1  UNL     1      -3.943  17.013  12.026  1.00  0.00     0.149 C 
ATOM     22  H1  UNL     1      -5.667  16.219  13.085  1.00  0.00     0.162 HD
HETATM   23  O1  UNL     1      -4.407  14.999  10.422  1.00  0.00    -0.266 OA
ENDBRANCH  13  19
ENDBRANCH   9  12
ENDBRANCH   1   8
BRANCH   7  24
HETATM   24  C9  UNL     1      -3.011   8.599   9.802  1.00  0.00     0.011 A 
HETATM   25  C10 UNL     1      -4.029   7.963  10.534  1.00  0.00     0.101 A 
HETATM   26  N5  UNL     1      -4.675   6.886  10.061  1.00  0.00    -0.372 N 
HETATM   27  C11 UNL     1      -4.411   6.329   8.862  1.00  0.00     0.119 A 
ATOM     28  H5  UNL     1      -5.405   6.467  10.638  1.00  0.00     0.164 HD
HETATM   29  C12 UNL     1      -3.417   6.934   8.123  1.00  0.00     0.079 A 
HETATM   30  N6  UNL     1      -2.946   6.609   6.910  1.00  0.00    -0.296 N 
HETATM   31  C14 UNL     1      -2.728   8.046   8.575  1.00  0.00     0.063 A 
HETATM   32  N7  UNL     1      -2.007   7.465   6.602  1.00  0.00    -0.275 N 
ATOM     33  H6  UNL     1      -3.264   5.831   6.331  1.00  0.00     0.187 HD
HETATM   34  C13 UNL     1      -1.825   8.382   7.591  1.00  0.00     0.216 A 
ATOM     35  H7  UNL     1      -1.479   7.449   5.730  1.00  0.00     0.189 HD
HETATM   36  F1  UNL     1      -0.958   9.404   7.610  1.00  0.00    -0.184 F 
ENDBRANCH   7  24
TORSDOF 4
ENDMDL
