MODEL 1
REMARK VINA RESULT: -6.182970911      0.000      0.000
REMARK  3 active torsions:
REMARK  status: ('A' for Active; 'I' for Inactive)
REMARK    1  A    between atoms: C1_2  and  C2_4 
REMARK    2  A    between atoms: C2_4  and  C3_5 
REMARK    3  A    between atoms: C10_13  and  O4_14 
ROOT
HETATM    1  C3  UNL     1       0.262   9.794  25.567  1.00  0.00    -0.025 C 
HETATM    2  C4  UNL     1       1.769   9.816  25.529  1.00  0.00     0.015 C 
HETATM    3  C5  UNL     1       2.275   8.477  25.971  1.00  0.00    -0.009 C 
HETATM    4  C6  UNL     1       1.843   7.466  24.944  1.00  0.00     0.036 C 
HETATM    5  C7  UNL     1       0.323   7.350  24.918  1.00  0.00     0.122 C 
HETATM    6  C8  UNL     1      -0.344   8.664  24.768  1.00  0.00     0.042 C 
HETATM    7  O3  UNL     1      -0.157   6.548  25.920  1.00  0.00    -0.383 OA
HETATM    8  C9  UNL     1      -0.496   7.133  27.090  1.00  0.00     0.205 C 
HETATM    9  C10 UNL     1       0.302   8.297  27.536  1.00  0.00     0.080 C 
HETATM   10  C11 UNL     1       1.780   8.177  27.342  1.00  0.00     0.044 C 
HETATM   11  C12 UNL     1      -0.171   9.628  26.987  1.00  0.00     0.050 C 
ENDROOT
BRANCH   1  12
HETATM   12  C2  UNL     1      -0.233  11.098  24.997  1.00  0.00     0.122 C 
BRANCH  12  13
HETATM   13  C1  UNL     1      -1.670  11.097  24.691  1.00  0.00     0.173 C 
HETATM   14  O1  UNL     1      -2.539  11.077  25.627  1.00  0.00    -0.648 OA
HETATM   15  O2  UNL     1      -2.189  11.116  23.410  1.00  0.00    -0.648 OA
ENDBRANCH  12  13
ENDBRANCH   1  12
BRANCH   9  16
HETATM   16  O4  UNL     1       0.117   8.404  28.940  1.00  0.00    -0.388 OA
ATOM     17  H4  UNL     1      -0.638   8.966  29.073  1.00  0.00     0.210 HD
ENDBRANCH   9  16
TORSDOF 3
ENDMDL
MODEL 2
REMARK VINA RESULT: -6.058211870      1.112      2.581
REMARK  3 active torsions:
REMARK  status: ('A' for Active; 'I' for Inactive)
REMARK    1  A    between atoms: C1_2  and  C2_4 
REMARK    2  A    between atoms: C2_4  and  C3_5 
REMARK    3  A    between atoms: C10_13  and  O4_14 
ROOT
HETATM    1  C3  UNL     1       0.208   9.726  25.804  1.00  0.00    -0.025 C 
HETATM    2  C4  UNL     1      -0.456   9.541  27.144  1.00  0.00     0.015 C 
HETATM    3  C5  UNL     1      -0.008   8.232  27.720  1.00  0.00    -0.009 C 
HETATM    4  C6  UNL     1       1.468   8.336  27.993  1.00  0.00     0.036 C 
HETATM    5  C7  UNL     1       2.240   8.504  26.688  1.00  0.00     0.122 C 
HETATM    6  C8  UNL     1       1.714   9.612  25.857  1.00  0.00     0.042 C 
HETATM    7  O3  UNL     1       2.437   7.314  26.041  1.00  0.00    -0.383 OA
HETATM    8  C9  UNL     1       1.517   6.932  25.128  1.00  0.00     0.205 C 
HETATM    9  C10 UNL     1       0.103   7.291  25.380  1.00  0.00     0.080 C 
HETATM   10  C11 UNL     1      -0.361   7.124  26.791  1.00  0.00     0.044 C 
HETATM   11  C12 UNL     1      -0.293   8.665  24.879  1.00  0.00     0.050 C 
ENDROOT
BRANCH   1  12
HETATM   12  C2  UNL     1      -0.147  11.100  25.298  1.00  0.00     0.122 C 
BRANCH  12  13
HETATM   13  C1  UNL     1      -1.523  11.203  24.795  1.00  0.00     0.173 C 
HETATM   14  O1  UNL     1      -1.754  11.404  23.555  1.00  0.00    -0.648 OA
HETATM   15  O2  UNL     1      -2.649  11.096  25.590  1.00  0.00    -0.648 OA
ENDBRANCH  12  13
ENDBRANCH   1  12
BRANCH   9  16
HETATM   16  O4  UNL     1      -0.688   6.392  24.616  1.00  0.00    -0.388 OA
ATOM     17  H4  UNL     1      -1.335   6.918  24.161  1.00  0.00     0.210 HD
ENDBRANCH   9  16
TORSDOF 3
ENDMDL
MODEL 3
REMARK VINA RESULT: -5.976785731      1.490      2.474
REMARK  3 active torsions:
REMARK  status: ('A' for Active; 'I' for Inactive)
REMARK    1  A    between atoms: C1_2  and  C2_4 
REMARK    2  A    between atoms: C2_4  and  C3_5 
REMARK    3  A    between atoms: C10_13  and  O4_14 
ROOT
HETATM    1  C3  UNL     1       0.756   9.577  25.115  1.00  0.00    -0.025 C 
HETATM    2  C4  UNL     1       1.742   9.377  26.237  1.00  0.00     0.015 C 
HETATM    3  C5  UNL     1       2.493   8.105  25.990  1.00  0.00    -0.009 C 
HETATM    4  C6  UNL     1       3.311   8.295  24.741  1.00  0.00     0.036 C 
HETATM    5  C7  UNL     1       2.400   8.484  23.532  1.00  0.00     0.122 C 
HETATM    6  C8  UNL     1       1.391   9.547  23.744  1.00  0.00     0.042 C 
HETATM    7  O3  UNL     1       1.923   7.295  23.047  1.00  0.00    -0.383 OA
HETATM    8  C9  UNL     1       0.740   6.849  23.523  1.00  0.00     0.205 C 
HETATM    9  C10 UNL     1       0.413   7.133  24.939  1.00  0.00     0.080 C 
HETATM   10  C11 UNL     1       1.541   6.964  25.906  1.00  0.00     0.044 C 
HETATM   11  C12 UNL     1      -0.251   8.475  25.170  1.00  0.00     0.050 C 
ENDROOT
BRANCH   1  12
HETATM   12  C2  UNL     1       0.103  10.921  25.307  1.00  0.00     0.122 C 
BRANCH  12  13
HETATM   13  C1  UNL     1      -1.185  10.853  26.012  1.00  0.00     0.173 C 
HETATM   14  O1  UNL     1      -2.283  11.050  25.391  1.00  0.00    -0.648 OA
HETATM   15  O2  UNL     1      -1.315  10.579  27.361  1.00  0.00    -0.648 OA
ENDBRANCH  12  13
ENDBRANCH   1  12
BRANCH   9  16
HETATM   16  O4  UNL     1      -0.563   6.179  25.331  1.00  0.00    -0.388 OA
ATOM     17  H4  UNL     1      -0.627   6.228  26.278  1.00  0.00     0.210 HD
ENDBRANCH   9  16
TORSDOF 3
ENDMDL
MODEL 4
REMARK VINA RESULT: -5.738187801      1.991      3.432
REMARK  3 active torsions:
REMARK  status: ('A' for Active; 'I' for Inactive)
REMARK    1  A    between atoms: C1_2  and  C2_4 
REMARK    2  A    between atoms: C2_4  and  C3_5 
REMARK    3  A    between atoms: C10_13  and  O4_14 
ROOT
HETATM    1  C3  UNL     1       0.985   9.735  24.818  1.00  0.00    -0.025 C 
HETATM    2  C4  UNL     1      -0.151   8.818  24.442  1.00  0.00     0.015 C 
HETATM    3  C5  UNL     1       0.382   7.423  24.328  1.00  0.00    -0.009 C 
HETATM    4  C6  UNL     1       0.831   6.994  25.698  1.00  0.00     0.036 C 
HETATM    5  C7  UNL     1       2.002   7.851  26.166  1.00  0.00     0.122 C 
HETATM    6  C8  UNL     1       1.719   9.302  26.066  1.00  0.00     0.042 C 
HETATM    7  O3  UNL     1       3.197   7.438  25.638  1.00  0.00    -0.383 OA
HETATM    8  C9  UNL     1       3.603   8.002  24.479  1.00  0.00     0.205 C 
HETATM    9  C10 UNL     1       2.566   8.373  23.490  1.00  0.00     0.080 C 
HETATM   10  C11 UNL     1       1.465   7.378  23.308  1.00  0.00     0.044 C 
HETATM   11  C12 UNL     1       1.969   9.751  23.696  1.00  0.00     0.050 C 
ENDROOT
BRANCH   1  12
HETATM   12  C2  UNL     1       0.411  11.107  25.058  1.00  0.00     0.122 C 
BRANCH  12  13
HETATM   13  C1  UNL     1      -0.949  11.086  25.616  1.00  0.00     0.173 C 
HETATM   14  O1  UNL     1      -1.966  11.287  24.870  1.00  0.00    -0.648 OA
HETATM   15  O2  UNL     1      -1.235  10.854  26.948  1.00  0.00    -0.648 OA
ENDBRANCH  12  13
ENDBRANCH   1  12
BRANCH   9  16
HETATM   16  O4  UNL     1       3.214   8.449  22.229  1.00  0.00    -0.388 OA
ATOM     17  H4  UNL     1       3.623   9.306  22.184  1.00  0.00     0.210 HD
ENDBRANCH   9  16
TORSDOF 3
ENDMDL
MODEL 5
REMARK VINA RESULT: -5.729723551      1.728      1.909
REMARK  3 active torsions:
REMARK  status: ('A' for Active; 'I' for Inactive)
REMARK    1  A    between atoms: C1_2  and  C2_4 
REMARK    2  A    between atoms: C2_4  and  C3_5 
REMARK    3  A    between atoms: C10_13  and  O4_14 
ROOT
HETATM    1  C3  UNL     1       0.631   9.781  25.190  1.00  0.00    -0.025 C 
HETATM    2  C4  UNL     1       2.095   9.870  25.536  1.00  0.00     0.015 C 
HETATM    3  C5  UNL     1       2.499   8.602  26.226  1.00  0.00    -0.009 C 
HETATM    4  C6  UNL     1       2.371   7.482  25.229  1.00  0.00     0.036 C 
HETATM    5  C7  UNL     1       0.912   7.292  24.827  1.00  0.00     0.122 C 
HETATM    6  C8  UNL     1       0.279   8.555  24.380  1.00  0.00     0.042 C 
HETATM    7  O3  UNL     1       0.207   6.563  25.747  1.00  0.00    -0.383 OA
HETATM    8  C9  UNL     1      -0.437   7.237  26.727  1.00  0.00     0.205 C 
HETATM    9  C10 UNL     1       0.192   8.473  27.243  1.00  0.00     0.080 C 
HETATM   10  C11 UNL     1       1.671   8.406  27.447  1.00  0.00     0.044 C 
HETATM   11  C12 UNL     1      -0.152   9.725  26.460  1.00  0.00     0.050 C 
ENDROOT
BRANCH   1  12
HETATM   12  C2  UNL     1       0.273  11.002  24.383  1.00  0.00     0.122 C 
BRANCH  12  13
HETATM   13  C1  UNL     1       1.440  11.708  23.836  1.00  0.00     0.173 C 
HETATM   14  O1  UNL     1       1.735  12.887  24.228  1.00  0.00    -0.648 OA
HETATM   15  O2  UNL     1       2.289  11.176  22.884  1.00  0.00    -0.648 OA
ENDBRANCH  12  13
ENDBRANCH   1  12
BRANCH   9  16
HETATM   16  O4  UNL     1      -0.354   8.700  28.534  1.00  0.00    -0.388 OA
ATOM     17  H4  UNL     1       0.210   9.333  28.962  1.00  0.00     0.210 HD
ENDBRANCH   9  16
TORSDOF 3
ENDMDL
