MODEL 1
REMARK VINA RESULT: -7.916126758      0.000      0.000
REMARK  9 active torsions:
REMARK  status: ('A' for Active; 'I' for Inactive)
REMARK    1  A    between atoms: C3_4  and  O2_5 
REMARK    2  A    between atoms: O2_5  and  C4_6 
REMARK    3  A    between atoms: C5_8  and  C6_9 
REMARK    4  A    between atoms: C6_9  and  O4_10 
REMARK    5  A    between atoms: C7_12  and  O5_13 
REMARK    6  A    between atoms: C8_15  and  C9_16 
REMARK    7  A    between atoms: C9_16  and  C10_17 
REMARK    8  A    between atoms: C18_25  and  O6_26 
REMARK    9  A    between atoms: C19_28  and  O7_29 
ROOT
HETATM    1  C4  UNL     1       1.145   8.968  25.871  1.00  0.00     0.270 C 
HETATM    2  O3  UNL     1       1.292   9.528  27.143  1.00  0.00    -0.351 OA
HETATM    3  C5  UNL     1       2.144   8.688  27.809  1.00  0.00     0.177 C 
HETATM    4  C7  UNL     1       2.926   7.882  26.768  1.00  0.00     0.158 C 
HETATM    5  C8  UNL     1       2.527   8.677  25.502  1.00  0.00     0.073 C 
ENDROOT
BRANCH   1   6
HETATM    6  O2  UNL     1       0.310   9.615  25.046  1.00  0.00    -0.328 OA
BRANCH   6   7
HETATM    7  C3  UNL     1      -0.180  10.824  25.536  1.00  0.00     0.294 C 
HETATM    8  O1  UNL     1       0.677  11.812  25.073  1.00  0.00    -0.351 OA
HETATM    9  C2  UNL     1       0.220  12.212  23.833  1.00  0.00     0.152 C 
HETATM   10  C1  UNL     1       0.328  13.727  23.782  1.00  0.00     0.042 C 
HETATM   11  C19 UNL     1      -1.157  11.706  23.613  1.00  0.00     0.180 C 
HETATM   12  C18 UNL     1      -1.522  11.076  24.937  1.00  0.00     0.204 C 
BRANCH  11  13
HETATM   13  O7  UNL     1      -2.060  12.734  23.308  1.00  0.00    -0.390 OA
ATOM     14  H7  UNL     1      -2.224  13.302  24.052  1.00  0.00     0.210 HD
ENDBRANCH  11  13
BRANCH  12  15
HETATM   15  O6  UNL     1      -2.232  12.034  25.657  1.00  0.00    -0.388 OA
ATOM     16  H6  UNL     1      -1.668  12.743  25.944  1.00  0.00     0.210 HD
ENDBRANCH  12  15
ENDBRANCH   6   7
ENDBRANCH   1   6
BRANCH   5  17
HETATM   17  C9  UNL     1       3.517   9.704  25.294  1.00  0.00     0.020 C 
BRANCH  17  18
HETATM   18  C10 UNL     1       4.182   9.941  24.001  1.00  0.00     0.008 C 
HETATM   19  C11 UNL     1       3.748  11.200  23.307  1.00  0.00    -0.026 C 
HETATM   20  C12 UNL     1       4.035  12.500  23.827  1.00  0.00    -0.030 C 
HETATM   21  C13 UNL     1       5.205  12.824  24.659  1.00  0.00     0.027 C 
HETATM   22  C14 UNL     1       6.559  12.587  24.096  1.00  0.00     0.004 C 
HETATM   23  C15 UNL     1       6.643  11.839  22.818  1.00  0.00     0.000 C 
HETATM   24  C16 UNL     1       6.388  10.385  22.891  1.00  0.00     0.001 C 
HETATM   25  C17 UNL     1       5.712   9.884  24.134  1.00  0.00     0.008 C 
ENDBRANCH  17  18
ENDBRANCH   5  17
BRANCH   3  26
HETATM   26  C6  UNL     1       1.418   7.763  28.764  1.00  0.00     0.198 C 
BRANCH  26  27
HETATM   27  O4  UNL     1       2.273   7.040  29.558  1.00  0.00    -0.398 OA
ATOM     28  H4  UNL     1       2.174   6.102  29.447  1.00  0.00     0.209 HD
ENDBRANCH  26  27
ENDBRANCH   3  26
BRANCH   4  29
HETATM   29  O5  UNL     1       2.373   6.626  26.685  1.00  0.00    -0.392 OA
ATOM     30  H5  UNL     1       1.427   6.715  26.689  1.00  0.00     0.210 HD
ENDBRANCH   4  29
TORSDOF 9
ENDMDL
MODEL 2
REMARK VINA RESULT: -7.805971753      0.788      1.159
REMARK  9 active torsions:
REMARK  status: ('A' for Active; 'I' for Inactive)
REMARK    1  A    between atoms: C3_4  and  O2_5 
REMARK    2  A    between atoms: O2_5  and  C4_6 
REMARK    3  A    between atoms: C5_8  and  C6_9 
REMARK    4  A    between atoms: C6_9  and  O4_10 
REMARK    5  A    between atoms: C7_12  and  O5_13 
REMARK    6  A    between atoms: C8_15  and  C9_16 
REMARK    7  A    between atoms: C9_16  and  C10_17 
REMARK    8  A    between atoms: C18_25  and  O6_26 
REMARK    9  A    between atoms: C19_28  and  O7_29 
ROOT
HETATM    1  C4  UNL     1       1.377   8.937  25.774  1.00  0.00     0.270 C 
HETATM    2  O3  UNL     1       1.670   9.542  26.999  1.00  0.00    -0.351 OA
HETATM    3  C5  UNL     1       2.616   8.738  27.580  1.00  0.00     0.177 C 
HETATM    4  C7  UNL     1       3.278   7.911  26.474  1.00  0.00     0.158 C 
HETATM    5  C8  UNL     1       2.708   8.657  25.244  1.00  0.00     0.073 C 
ENDROOT
BRANCH   1   6
HETATM    6  O2  UNL     1       0.433   9.543  25.040  1.00  0.00    -0.328 OA
BRANCH   6   7
HETATM    7  C3  UNL     1      -0.052  10.735  25.576  1.00  0.00     0.294 C 
HETATM    8  O1  UNL     1       0.822  11.732  25.171  1.00  0.00    -0.351 OA
HETATM    9  C2  UNL     1       0.391  12.192  23.942  1.00  0.00     0.152 C 
HETATM   10  C1  UNL     1       0.515  13.706  23.961  1.00  0.00     0.042 C 
HETATM   11  C19 UNL     1      -0.988  11.711  23.678  1.00  0.00     0.180 C 
HETATM   12  C18 UNL     1      -1.381  11.027  24.966  1.00  0.00     0.204 C 
BRANCH  11  13
HETATM   13  O7  UNL     1      -1.874  12.762  23.404  1.00  0.00    -0.390 OA
ATOM     14  H7  UNL     1      -2.640  12.471  22.923  1.00  0.00     0.210 HD
ENDBRANCH  11  13
BRANCH  12  15
HETATM   15  O6  UNL     1      -2.094  11.961  25.716  1.00  0.00    -0.388 OA
ATOM     16  H6  UNL     1      -1.767  12.842  25.578  1.00  0.00     0.210 HD
ENDBRANCH  12  15
ENDBRANCH   6   7
ENDBRANCH   1   6
BRANCH   5  17
HETATM   17  C9  UNL     1       3.643   9.692  24.882  1.00  0.00     0.020 C 
BRANCH  17  18
HETATM   18  C10 UNL     1       3.903  10.103  23.492  1.00  0.00     0.008 C 
HETATM   19  C11 UNL     1       4.492  11.477  23.355  1.00  0.00    -0.026 C 
HETATM   20  C12 UNL     1       5.805  11.798  23.819  1.00  0.00    -0.030 C 
HETATM   21  C13 UNL     1       6.917  10.837  23.902  1.00  0.00     0.027 C 
HETATM   22  C14 UNL     1       7.360  10.162  22.654  1.00  0.00     0.004 C 
HETATM   23  C15 UNL     1       6.516  10.338  21.448  1.00  0.00     0.000 C 
HETATM   24  C16 UNL     1       5.238   9.595  21.428  1.00  0.00     0.001 C 
HETATM   25  C17 UNL     1       4.751   9.062  22.745  1.00  0.00     0.008 C 
ENDBRANCH  17  18
ENDBRANCH   5  17
BRANCH   3  26
HETATM   26  C6  UNL     1       2.033   7.834  28.646  1.00  0.00     0.198 C 
BRANCH  26  27
HETATM   27  O4  UNL     1       2.984   7.069  29.273  1.00  0.00    -0.398 OA
ATOM     28  H4  UNL     1       3.325   7.477  30.060  1.00  0.00     0.209 HD
ENDBRANCH  26  27
ENDBRANCH   3  26
BRANCH   4  29
HETATM   29  O5  UNL     1       2.744   6.645  26.500  1.00  0.00    -0.392 OA
ATOM     30  H5  UNL     1       3.072   6.165  25.749  1.00  0.00     0.210 HD
ENDBRANCH   4  29
TORSDOF 9
ENDMDL
MODEL 3
REMARK VINA RESULT: -7.758801902      1.469      4.929
REMARK  9 active torsions:
REMARK  status: ('A' for Active; 'I' for Inactive)
REMARK    1  A    between atoms: C3_4  and  O2_5 
REMARK    2  A    between atoms: O2_5  and  C4_6 
REMARK    3  A    between atoms: C5_8  and  C6_9 
REMARK    4  A    between atoms: C6_9  and  O4_10 
REMARK    5  A    between atoms: C7_12  and  O5_13 
REMARK    6  A    between atoms: C8_15  and  C9_16 
REMARK    7  A    between atoms: C9_16  and  C10_17 
REMARK    8  A    between atoms: C18_25  and  O6_26 
REMARK    9  A    between atoms: C19_28  and  O7_29 
ROOT
HETATM    1  C4  UNL     1       1.317  11.632  24.976  1.00  0.00     0.270 C 
HETATM    2  O3  UNL     1       0.679  11.303  23.778  1.00  0.00    -0.351 OA
HETATM    3  C5  UNL     1       0.468  12.498  23.142  1.00  0.00     0.177 C 
HETATM    4  C7  UNL     1       1.444  13.524  23.727  1.00  0.00     0.158 C 
HETATM    5  C8  UNL     1       2.351  12.560  24.529  1.00  0.00     0.073 C 
ENDROOT
BRANCH   1   6
HETATM    6  O2  UNL     1       1.590  10.602  25.789  1.00  0.00    -0.328 OA
BRANCH   6   7
HETATM    7  C3  UNL     1       0.473   9.948  26.304  1.00  0.00     0.294 C 
HETATM    8  O1  UNL     1       0.328   8.780  25.571  1.00  0.00    -0.351 OA
HETATM    9  C2  UNL     1       1.091   7.805  26.183  1.00  0.00     0.152 C 
HETATM   10  C1  UNL     1       0.270   6.527  26.185  1.00  0.00     0.042 C 
HETATM   11  C19 UNL     1       1.493   8.255  27.539  1.00  0.00     0.180 C 
HETATM   12  C18 UNL     1       0.754   9.560  27.716  1.00  0.00     0.204 C 
BRANCH  11  13
HETATM   13  O7  UNL     1       1.110   7.348  28.536  1.00  0.00    -0.390 OA
ATOM     14  H7  UNL     1       1.433   6.470  28.369  1.00  0.00     0.210 HD
ENDBRANCH  11  13
BRANCH  12  15
HETATM   15  O6  UNL     1      -0.419   9.267  28.409  1.00  0.00    -0.388 OA
ATOM     16  H6  UNL     1      -1.180   9.318  27.843  1.00  0.00     0.210 HD
ENDBRANCH  12  15
ENDBRANCH   6   7
ENDBRANCH   1   6
BRANCH   5  17
HETATM   17  C9  UNL     1       3.444  12.167  23.675  1.00  0.00     0.020 C 
BRANCH  17  18
HETATM   18  C10 UNL     1       4.669  11.517  24.171  1.00  0.00     0.008 C 
HETATM   19  C11 UNL     1       4.668  10.021  24.040  1.00  0.00    -0.026 C 
HETATM   20  C12 UNL     1       4.691   9.363  22.772  1.00  0.00    -0.030 C 
HETATM   21  C13 UNL     1       5.300   9.923  21.554  1.00  0.00     0.027 C 
HETATM   22  C14 UNL     1       6.749  10.251  21.578  1.00  0.00     0.004 C 
HETATM   23  C15 UNL     1       7.439  10.197  22.889  1.00  0.00     0.000 C 
HETATM   24  C16 UNL     1       7.145  11.298  23.830  1.00  0.00     0.001 C 
HETATM   25  C17 UNL     1       5.928  12.126  23.536  1.00  0.00     0.008 C 
ENDBRANCH  17  18
ENDBRANCH   5  17
BRANCH   3  26
HETATM   26  C6  UNL     1      -0.960  12.982  23.277  1.00  0.00     0.198 C 
BRANCH  26  27
HETATM   27  O4  UNL     1      -1.879  11.970  23.159  1.00  0.00    -0.398 OA
ATOM     28  H4  UNL     1      -1.489  11.149  22.882  1.00  0.00     0.209 HD
ENDBRANCH  26  27
ENDBRANCH   3  26
BRANCH   4  29
HETATM   29  O5  UNL     1       0.758  14.317  24.616  1.00  0.00    -0.392 OA
ATOM     30  H5  UNL     1       0.589  15.155  24.203  1.00  0.00     0.210 HD
ENDBRANCH   4  29
TORSDOF 9
ENDMDL
MODEL 4
REMARK VINA RESULT: -7.378024490      1.322      5.071
REMARK  9 active torsions:
REMARK  status: ('A' for Active; 'I' for Inactive)
REMARK    1  A    between atoms: C3_4  and  O2_5 
REMARK    2  A    between atoms: O2_5  and  C4_6 
REMARK    3  A    between atoms: C5_8  and  C6_9 
REMARK    4  A    between atoms: C6_9  and  O4_10 
REMARK    5  A    between atoms: C7_12  and  O5_13 
REMARK    6  A    between atoms: C8_15  and  C9_16 
REMARK    7  A    between atoms: C9_16  and  C10_17 
REMARK    8  A    between atoms: C18_25  and  O6_26 
REMARK    9  A    between atoms: C19_28  and  O7_29 
ROOT
HETATM    1  C4  UNL     1       0.891  11.303  25.393  1.00  0.00     0.270 C 
HETATM    2  O3  UNL     1       0.089  10.665  24.444  1.00  0.00    -0.351 OA
HETATM    3  C5  UNL     1      -0.114  11.596  23.460  1.00  0.00     0.177 C 
HETATM    4  C7  UNL     1       0.994  12.647  23.566  1.00  0.00     0.158 C 
HETATM    5  C8  UNL     1       1.924  11.914  24.563  1.00  0.00     0.073 C 
ENDROOT
BRANCH   1   6
HETATM    6  O2  UNL     1       1.190  10.579  26.481  1.00  0.00    -0.328 OA
BRANCH   6   7
HETATM    7  C3  UNL     1       1.038   9.202  26.329  1.00  0.00     0.294 C 
HETATM    8  O1  UNL     1       2.284   8.706  25.975  1.00  0.00    -0.351 OA
HETATM    9  C2  UNL     1       2.970   8.430  27.141  1.00  0.00     0.152 C 
HETATM   10  C1  UNL     1       3.678   7.101  26.941  1.00  0.00     0.042 C 
HETATM   11  C19 UNL     1       2.035   8.438  28.293  1.00  0.00     0.180 C 
HETATM   12  C18 UNL     1       0.679   8.611  27.650  1.00  0.00     0.204 C 
BRANCH  11  13
HETATM   13  O7  UNL     1       2.072   7.239  29.018  1.00  0.00    -0.390 OA
ATOM     14  H7  UNL     1       1.244   6.774  28.987  1.00  0.00     0.210 HD
ENDBRANCH  11  13
BRANCH  12  15
HETATM   15  O6  UNL     1       0.135   7.336  27.509  1.00  0.00    -0.388 OA
ATOM     16  H6  UNL     1      -0.530   7.166  28.166  1.00  0.00     0.210 HD
ENDBRANCH  12  15
ENDBRANCH   6   7
ENDBRANCH   1   6
BRANCH   5  17
HETATM   17  C9  UNL     1       2.874  11.145  23.798  1.00  0.00     0.020 C 
BRANCH  17  18
HETATM   18  C10 UNL     1       4.260  10.904  24.231  1.00  0.00     0.008 C 
HETATM   19  C11 UNL     1       4.722   9.485  24.058  1.00  0.00    -0.026 C 
HETATM   20  C12 UNL     1       4.896   8.889  22.771  1.00  0.00    -0.030 C 
HETATM   21  C13 UNL     1       5.247   9.631  21.549  1.00  0.00     0.027 C 
HETATM   22  C14 UNL     1       6.520  10.397  21.532  1.00  0.00     0.004 C 
HETATM   23  C15 UNL     1       7.247  10.540  22.816  1.00  0.00     0.000 C 
HETATM   24  C16 UNL     1       6.664  11.478  23.798  1.00  0.00     0.001 C 
HETATM   25  C17 UNL     1       5.238  11.888  23.571  1.00  0.00     0.008 C 
ENDBRANCH  17  18
ENDBRANCH   5  17
BRANCH   3  26
HETATM   26  C6  UNL     1      -1.478  12.248  23.553  1.00  0.00     0.198 C 
BRANCH  26  27
HETATM   27  O4  UNL     1      -2.124  12.303  22.343  1.00  0.00    -0.398 OA
ATOM     28  H4  UNL     1      -2.769  12.999  22.301  1.00  0.00     0.209 HD
ENDBRANCH  26  27
ENDBRANCH   3  26
BRANCH   4  29
HETATM   29  O5  UNL     1       0.480  13.759  24.189  1.00  0.00    -0.392 OA
ATOM     30  H5  UNL     1       0.543  13.633  25.129  1.00  0.00     0.210 HD
ENDBRANCH   4  29
TORSDOF 9
ENDMDL
MODEL 5
REMARK VINA RESULT: -7.164505952      2.190      3.219
REMARK  9 active torsions:
REMARK  status: ('A' for Active; 'I' for Inactive)
REMARK    1  A    between atoms: C3_4  and  O2_5 
REMARK    2  A    between atoms: O2_5  and  C4_6 
REMARK    3  A    between atoms: C5_8  and  C6_9 
REMARK    4  A    between atoms: C6_9  and  O4_10 
REMARK    5  A    between atoms: C7_12  and  O5_13 
REMARK    6  A    between atoms: C8_15  and  C9_16 
REMARK    7  A    between atoms: C9_16  and  C10_17 
REMARK    8  A    between atoms: C18_25  and  O6_26 
REMARK    9  A    between atoms: C19_28  and  O7_29 
ROOT
HETATM    1  C4  UNL     1       2.318   7.778  24.351  1.00  0.00     0.270 C 
HETATM    2  O3  UNL     1       2.655   6.791  25.280  1.00  0.00    -0.351 OA
HETATM    3  C5  UNL     1       3.011   5.699  24.533  1.00  0.00     0.177 C 
HETATM    4  C7  UNL     1       3.382   6.187  23.129  1.00  0.00     0.158 C 
HETATM    5  C8  UNL     1       3.432   7.708  23.410  1.00  0.00     0.073 C 
ENDROOT
BRANCH   1   6
HETATM    6  O2  UNL     1       1.895   8.940  24.867  1.00  0.00    -0.328 OA
BRANCH   6   7
HETATM    7  C3  UNL     1       0.516   9.039  25.041  1.00  0.00     0.294 C 
HETATM    8  O1  UNL     1       0.278   8.858  26.396  1.00  0.00    -0.351 OA
HETATM    9  C2  UNL     1       0.370  10.094  27.005  1.00  0.00     0.152 C 
HETATM   10  C1  UNL     1      -0.768  10.188  28.006  1.00  0.00     0.042 C 
HETATM   11  C19 UNL     1       0.350  11.166  25.979  1.00  0.00     0.180 C 
HETATM   12  C18 UNL     1       0.087  10.423  24.690  1.00  0.00     0.204 C 
BRANCH  11  13
HETATM   13  O7  UNL     1      -0.668  12.102  26.208  1.00  0.00    -0.390 OA
ATOM     14  H7  UNL     1      -0.560  12.888  25.684  1.00  0.00     0.210 HD
ENDBRANCH  11  13
BRANCH  12  15
HETATM   15  O6  UNL     1      -1.286  10.490  24.460  1.00  0.00    -0.388 OA
ATOM     16  H6  UNL     1      -1.482  10.945  23.650  1.00  0.00     0.210 HD
ENDBRANCH  12  15
ENDBRANCH   6   7
ENDBRANCH   1   6
BRANCH   5  17
HETATM   17  C9  UNL     1       4.786   8.048  23.770  1.00  0.00     0.020 C 
BRANCH  17  18
HETATM   18  C10 UNL     1       5.609   9.010  23.018  1.00  0.00     0.008 C 
HETATM   19  C11 UNL     1       4.817  10.028  22.248  1.00  0.00    -0.026 C 
HETATM   20  C12 UNL     1       4.025  11.028  22.891  1.00  0.00    -0.030 C 
HETATM   21  C13 UNL     1       4.312  11.591  24.221  1.00  0.00     0.027 C 
HETATM   22  C14 UNL     1       5.614  12.275  24.430  1.00  0.00     0.004 C 
HETATM   23  C15 UNL     1       6.626  12.158  23.353  1.00  0.00     0.000 C 
HETATM   24  C16 UNL     1       7.302  10.850  23.228  1.00  0.00     0.001 C 
HETATM   25  C17 UNL     1       6.650   9.689  23.921  1.00  0.00     0.008 C 
ENDBRANCH  17  18
ENDBRANCH   5  17
BRANCH   3  26
HETATM   26  C6  UNL     1       1.912   4.661  24.464  1.00  0.00     0.198 C 
BRANCH  26  27
HETATM   27  O4  UNL     1       2.230   3.603  23.650  1.00  0.00    -0.398 OA
ATOM     28  H4  UNL     1       1.674   3.549  22.882  1.00  0.00     0.209 HD
ENDBRANCH  26  27
ENDBRANCH   3  26
BRANCH   4  29
HETATM   29  O5  UNL     1       2.325   5.934  22.288  1.00  0.00    -0.392 OA
ATOM     30  H5  UNL     1       2.642   5.952  21.394  1.00  0.00     0.210 HD
ENDBRANCH   4  29
TORSDOF 9
ENDMDL
