MODEL 1
REMARK VINA RESULT: -7.205335790      0.000      0.000
REMARK  4 active torsions:
REMARK  status: ('A' for Active; 'I' for Inactive)
REMARK    1  A    between atoms: N5_10  and  C3_12 
REMARK    2  A    between atoms: C3_12  and  C4_13 
REMARK    3  A    between atoms: C7_22  and  N8_23 
REMARK    4  A    between atoms: N8_23  and  S1_25 
ROOT
HETATM    1  C4  UNL     1       4.429 -12.037  13.024  1.00  0.00     0.085 A 
HETATM    2  N6  UNL     1       3.969 -12.265  14.251  1.00  0.00    -0.305 N 
ATOM      3  H6  UNL     1       3.018 -11.979  14.488  1.00  0.00     0.171 HD
HETATM    4  C5  UNL     1       4.740 -12.874  15.201  1.00  0.00     0.327 A 
HETATM    5  O2  UNL     1       4.244 -13.064  16.353  1.00  0.00    -0.247 OA
HETATM    6  N7  UNL     1       5.997 -13.276  14.959  1.00  0.00    -0.273 N 
ATOM      7  H7  UNL     1       6.546 -13.728  15.691  1.00  0.00     0.173 HD
HETATM    8  C6  UNL     1       6.522 -13.074  13.739  1.00  0.00     0.279 A 
HETATM    9  O3  UNL     1       7.705 -13.440  13.472  1.00  0.00    -0.265 OA
HETATM   10  C7  UNL     1       5.735 -12.451  12.766  1.00  0.00     0.139 A 
ENDROOT
BRANCH   1  11
HETATM   11  C3  UNL     1       3.648 -11.384  11.934  1.00  0.00     0.122 C 
BRANCH  11  12
HETATM   12  N5  UNL     1       2.483 -12.124  11.656  1.00  0.00    -0.345 N 
HETATM   13  C2  UNL     1       2.190 -12.775  10.639  1.00  0.00     0.188 C 
HETATM   14  C1  UNL     1       3.028 -12.918   9.463  1.00  0.00     0.303 C 
HETATM   15  N4  UNL     1       0.920 -13.481  10.528  1.00  0.00    -0.267 N 
HETATM   16  O1  UNL     1       4.157 -12.398   9.344  1.00  0.00    -0.263 OA
HETATM   17  N1  UNL     1       2.467 -13.724   8.398  1.00  0.00    -0.249 N 
HETATM   18  N2  UNL     1       1.099 -13.637   8.247  1.00  0.00    -0.006 NA
ATOM     19  H1  UNL     1       3.045 -14.315   7.800  1.00  0.00     0.187 HD
HETATM   20  N3  UNL     1       0.380 -13.957   9.374  1.00  0.00    -0.007 NA
ATOM     21  H4  UNL     1       0.392 -13.630  11.388  1.00  0.00     0.185 HD
ATOM     22  H5  UNL     1       1.780 -12.127  12.395  1.00  0.00     0.167 HD
ENDBRANCH  11  12
ENDBRANCH   1  11
BRANCH  10  23
HETATM   23  N8  UNL     1       6.277 -12.248  11.476  1.00  0.00    -0.263 N 
ATOM     24  H8  UNL     1       6.179 -12.969  10.761  1.00  0.00     0.180 HD
BRANCH  23  25
HETATM   25  S1  UNL     1       7.096 -10.791  11.122  1.00  0.00     0.359 S 
HETATM   26  O4  UNL     1       7.478 -10.013  12.375  1.00  0.00    -0.187 OA
HETATM   27  O5  UNL     1       6.384  -9.918  10.156  1.00  0.00    -0.187 OA
ENDBRANCH  23  25
ENDBRANCH  10  23
TORSDOF 4
ENDMDL
MODEL 2
REMARK VINA RESULT: -6.780934187      2.278      5.612
REMARK  4 active torsions:
REMARK  status: ('A' for Active; 'I' for Inactive)
REMARK    1  A    between atoms: N5_10  and  C3_12 
REMARK    2  A    between atoms: C3_12  and  C4_13 
REMARK    3  A    between atoms: C7_22  and  N8_23 
REMARK    4  A    between atoms: N8_23  and  S1_25 
ROOT
HETATM    1  C4  UNL     1       2.834 -12.213   9.840  1.00  0.00     0.085 A 
HETATM    2  N6  UNL     1       1.661 -12.797  10.072  1.00  0.00    -0.305 N 
ATOM      3  H6  UNL     1       1.080 -12.462  10.840  1.00  0.00     0.171 HD
HETATM    4  C5  UNL     1       1.217 -13.836   9.303  1.00  0.00     0.327 A 
HETATM    5  O2  UNL     1       0.090 -14.351   9.574  1.00  0.00    -0.247 OA
HETATM    6  N7  UNL     1       1.928 -14.329   8.276  1.00  0.00    -0.273 N 
ATOM      7  H7  UNL     1       1.568 -15.105   7.722  1.00  0.00     0.173 HD
HETATM    8  C6  UNL     1       3.121 -13.782   7.991  1.00  0.00     0.279 A 
HETATM    9  O3  UNL     1       3.822 -14.219   7.029  1.00  0.00    -0.265 OA
HETATM   10  C7  UNL     1       3.578 -12.720   8.776  1.00  0.00     0.139 A 
ENDROOT
BRANCH   1  11
HETATM   11  C3  UNL     1       3.383 -11.074  10.630  1.00  0.00     0.122 C 
BRANCH  11  12
HETATM   12  N5  UNL     1       3.312 -11.356  12.008  1.00  0.00    -0.345 N 
HETATM   13  C2  UNL     1       4.223 -11.671  12.793  1.00  0.00     0.188 C 
HETATM   14  C1  UNL     1       5.622 -11.820  12.439  1.00  0.00     0.303 C 
HETATM   15  N4  UNL     1       3.955 -11.934  14.201  1.00  0.00    -0.267 N 
HETATM   16  O1  UNL     1       6.073 -11.641  11.289  1.00  0.00    -0.263 OA
HETATM   17  N1  UNL     1       6.499 -12.200  13.528  1.00  0.00    -0.249 N 
HETATM   18  N2  UNL     1       5.944 -13.045  14.468  1.00  0.00    -0.006 NA
ATOM     19  H1  UNL     1       7.460 -11.867  13.596  1.00  0.00     0.187 HD
HETATM   20  N3  UNL     1       4.800 -12.566  15.060  1.00  0.00    -0.007 NA
ATOM     21  H4  UNL     1       3.059 -11.619  14.573  1.00  0.00     0.185 HD
ATOM     22  H5  UNL     1       2.382 -11.294  12.420  1.00  0.00     0.167 HD
ENDBRANCH  11  12
ENDBRANCH   1  11
BRANCH  10  23
HETATM   23  N8  UNL     1       4.827 -12.132   8.472  1.00  0.00    -0.263 N 
ATOM     24  H8  UNL     1       5.628 -12.286   9.084  1.00  0.00     0.180 HD
BRANCH  23  25
HETATM   25  S1  UNL     1       4.988 -11.163   7.074  1.00  0.00     0.359 S 
HETATM   26  O4  UNL     1       3.654 -10.898   6.387  1.00  0.00    -0.187 OA
HETATM   27  O5  UNL     1       5.990 -11.667   6.102  1.00  0.00    -0.187 OA
ENDBRANCH  23  25
ENDBRANCH  10  23
TORSDOF 4
ENDMDL
MODEL 3
REMARK VINA RESULT: -6.696404098      3.569      5.692
REMARK  4 active torsions:
REMARK  status: ('A' for Active; 'I' for Inactive)
REMARK    1  A    between atoms: N5_10  and  C3_12 
REMARK    2  A    between atoms: C3_12  and  C4_13 
REMARK    3  A    between atoms: C7_22  and  N8_23 
REMARK    4  A    between atoms: N8_23  and  S1_25 
ROOT
HETATM    1  C4  UNL     1       2.854 -12.277   7.807  1.00  0.00     0.085 A 
HETATM    2  N6  UNL     1       1.619 -12.771   7.821  1.00  0.00    -0.305 N 
ATOM      3  H6  UNL     1       1.025 -12.653   6.999  1.00  0.00     0.171 HD
HETATM    4  C5  UNL     1       1.127 -13.431   8.912  1.00  0.00     0.327 A 
HETATM    5  O2  UNL     1      -0.058 -13.880   8.864  1.00  0.00    -0.247 OA
HETATM    6  N7  UNL     1       1.851 -13.623  10.025  1.00  0.00    -0.273 N 
ATOM      7  H7  UNL     1       1.455 -14.121  10.822  1.00  0.00     0.173 HD
HETATM    8  C6  UNL     1       3.107 -13.148  10.074  1.00  0.00     0.279 A 
HETATM    9  O3  UNL     1       3.822 -13.308  11.108  1.00  0.00    -0.265 OA
HETATM   10  C7  UNL     1       3.611 -12.470   8.961  1.00  0.00     0.139 A 
ENDROOT
BRANCH   1  11
HETATM   11  C3  UNL     1       3.462 -11.549   6.655  1.00  0.00     0.122 C 
BRANCH  11  12
HETATM   12  N5  UNL     1       3.247 -12.261   5.459  1.00  0.00    -0.345 N 
HETATM   13  C2  UNL     1       4.041 -12.962   4.810  1.00  0.00     0.188 C 
HETATM   14  C1  UNL     1       5.427 -13.209   5.164  1.00  0.00     0.303 C 
HETATM   15  N4  UNL     1       3.636 -13.625   3.577  1.00  0.00    -0.267 N 
HETATM   16  O1  UNL     1       5.981 -12.741   6.179  1.00  0.00    -0.263 OA
HETATM   17  N1  UNL     1       6.158 -14.058   4.245  1.00  0.00    -0.249 N 
HETATM   18  N2  UNL     1       5.811 -13.930   2.916  1.00  0.00    -0.006 NA
ATOM     19  H1  UNL     1       6.880 -14.707   4.560  1.00  0.00     0.187 HD
HETATM   20  N3  UNL     1       4.482 -14.152   2.649  1.00  0.00    -0.007 NA
ATOM     21  H4  UNL     1       2.636 -13.700   3.394  1.00  0.00     0.185 HD
ATOM     22  H5  UNL     1       2.307 -12.191   5.071  1.00  0.00     0.167 HD
ENDBRANCH  11  12
ENDBRANCH   1  11
BRANCH  10  23
HETATM   23  N8  UNL     1       4.936 -11.980   9.001  1.00  0.00    -0.263 N 
ATOM     24  H8  UNL     1       5.680 -12.469   8.503  1.00  0.00     0.180 HD
BRANCH  23  25
HETATM   25  S1  UNL     1       5.288 -10.564   9.890  1.00  0.00     0.359 S 
HETATM   26  O4  UNL     1       6.264  -9.644   9.166  1.00  0.00    -0.187 OA
HETATM   27  O5  UNL     1       5.738 -10.820  11.281  1.00  0.00    -0.187 OA
ENDBRANCH  23  25
ENDBRANCH  10  23
TORSDOF 4
ENDMDL
MODEL 4
REMARK VINA RESULT: -6.659542424      4.555      6.713
REMARK  4 active torsions:
REMARK  status: ('A' for Active; 'I' for Inactive)
REMARK    1  A    between atoms: N5_10  and  C3_12 
REMARK    2  A    between atoms: C3_12  and  C4_13 
REMARK    3  A    between atoms: C7_22  and  N8_23 
REMARK    4  A    between atoms: N8_23  and  S1_25 
ROOT
HETATM    1  C4  UNL     1       4.029 -11.563   7.440  1.00  0.00     0.085 A 
HETATM    2  N6  UNL     1       5.299 -11.170   7.373  1.00  0.00    -0.305 N 
ATOM      3  H6  UNL     1       5.725 -11.017   6.458  1.00  0.00     0.171 HD
HETATM    4  C5  UNL     1       6.043 -10.968   8.500  1.00  0.00     0.327 A 
HETATM    5  O2  UNL     1       7.248 -10.592   8.370  1.00  0.00    -0.247 OA
HETATM    6  N7  UNL     1       5.548 -11.149   9.734  1.00  0.00    -0.273 N 
ATOM      7  H7  UNL     1       6.130 -10.989  10.555  1.00  0.00     0.173 HD
HETATM    8  C6  UNL     1       4.271 -11.546   9.870  1.00  0.00     0.279 A 
HETATM    9  O3  UNL     1       3.767 -11.729  11.018  1.00  0.00    -0.265 OA
HETATM   10  C7  UNL     1       3.508 -11.755   8.718  1.00  0.00     0.139 A 
ENDROOT
BRANCH   1  11
HETATM   11  C3  UNL     1       3.152 -11.801   6.257  1.00  0.00     0.122 C 
BRANCH  11  12
HETATM   12  N5  UNL     1       3.706 -11.199   5.110  1.00  0.00    -0.345 N 
HETATM   13  C2  UNL     1       4.118 -11.730   4.065  1.00  0.00     0.188 C 
HETATM   14  C1  UNL     1       4.116 -13.155   3.790  1.00  0.00     0.303 C 
HETATM   15  N4  UNL     1       4.670 -10.936   2.975  1.00  0.00    -0.267 N 
HETATM   16  O1  UNL     1       3.688 -14.017   4.585  1.00  0.00    -0.263 OA
HETATM   17  N1  UNL     1       4.655 -13.537   2.501  1.00  0.00    -0.249 N 
HETATM   18  N2  UNL     1       5.698 -12.761   2.041  1.00  0.00    -0.006 NA
ATOM     19  H1  UNL     1       4.288 -14.327   1.969  1.00  0.00     0.187 HD
HETATM   20  N3  UNL     1       5.410 -11.420   1.942  1.00  0.00    -0.007 NA
ATOM     21  H4  UNL     1       4.485  -9.933   2.988  1.00  0.00     0.185 HD
ATOM     22  H5  UNL     1       3.779 -10.182   5.142  1.00  0.00     0.167 HD
ENDBRANCH  11  12
ENDBRANCH   1  11
BRANCH  10  23
HETATM   23  N8  UNL     1       2.160 -12.160   8.855  1.00  0.00    -0.263 N 
ATOM     24  H8  UNL     1       1.410 -11.472   8.792  1.00  0.00     0.180 HD
BRANCH  23  25
HETATM   25  S1  UNL     1       1.795 -13.807   9.127  1.00  0.00     0.359 S 
HETATM   26  O4  UNL     1       2.461 -14.731   8.114  1.00  0.00    -0.187 OA
HETATM   27  O5  UNL     1       0.342 -14.094   9.228  1.00  0.00    -0.187 OA
ENDBRANCH  23  25
ENDBRANCH  10  23
TORSDOF 4
ENDMDL
MODEL 5
REMARK VINA RESULT: -6.576721173      4.332      6.272
REMARK  4 active torsions:
REMARK  status: ('A' for Active; 'I' for Inactive)
REMARK    1  A    between atoms: N5_10  and  C3_12 
REMARK    2  A    between atoms: C3_12  and  C4_13 
REMARK    3  A    between atoms: C7_22  and  N8_23 
REMARK    4  A    between atoms: N8_23  and  S1_25 
ROOT
HETATM    1  C4  UNL     1       3.759 -11.584   8.152  1.00  0.00     0.085 A 
HETATM    2  N6  UNL     1       5.029 -11.202   8.043  1.00  0.00    -0.305 N 
ATOM      3  H6  UNL     1       5.390 -10.924   7.130  1.00  0.00     0.171 HD
HETATM    4  C5  UNL     1       5.861 -11.174   9.127  1.00  0.00     0.327 A 
HETATM    5  O2  UNL     1       7.061 -10.800   8.959  1.00  0.00    -0.247 OA
HETATM    6  N7  UNL     1       5.454 -11.526  10.357  1.00  0.00    -0.273 N 
ATOM      7  H7  UNL     1       6.101 -11.494  11.145  1.00  0.00     0.173 HD
HETATM    8  C6  UNL     1       4.183 -11.922  10.533  1.00  0.00     0.279 A 
HETATM    9  O3  UNL     1       3.761 -12.262  11.679  1.00  0.00    -0.265 OA
HETATM   10  C7  UNL     1       3.331 -11.953   9.426  1.00  0.00     0.139 A 
ENDROOT
BRANCH   1  11
HETATM   11  C3  UNL     1       2.791 -11.637   7.018  1.00  0.00     0.122 C 
BRANCH  11  12
HETATM   12  N5  UNL     1       3.059 -10.604   6.099  1.00  0.00    -0.345 N 
HETATM   13  C2  UNL     1       3.524 -10.677   4.949  1.00  0.00     0.188 C 
HETATM   14  C1  UNL     1       3.909 -11.903   4.275  1.00  0.00     0.303 C 
HETATM   15  N4  UNL     1       3.739  -9.484   4.139  1.00  0.00    -0.267 N 
HETATM   16  O1  UNL     1       3.809 -13.039   4.783  1.00  0.00    -0.263 OA
HETATM   17  N1  UNL     1       4.434 -11.734   2.935  1.00  0.00    -0.249 N 
HETATM   18  N2  UNL     1       5.172 -10.587   2.728  1.00  0.00    -0.006 NA
ATOM     19  H1  UNL     1       4.269 -12.416   2.195  1.00  0.00     0.187 HD
HETATM   20  N3  UNL     1       4.506  -9.420   3.017  1.00  0.00    -0.007 NA
ATOM     21  H4  UNL     1       3.276  -8.627   4.439  1.00  0.00     0.185 HD
ATOM     22  H5  UNL     1       2.839  -9.663   6.423  1.00  0.00     0.167 HD
ENDBRANCH  11  12
ENDBRANCH   1  11
BRANCH  10  23
HETATM   23  N8  UNL     1       1.988 -12.356   9.607  1.00  0.00    -0.263 N 
ATOM     24  H8  UNL     1       1.282 -11.674   9.886  1.00  0.00     0.180 HD
BRANCH  23  25
HETATM   25  S1  UNL     1       1.553 -13.989   9.359  1.00  0.00     0.359 S 
HETATM   26  O4  UNL     1       2.368 -14.652   8.254  1.00  0.00    -0.187 OA
HETATM   27  O5  UNL     1       0.101 -14.201   9.141  1.00  0.00    -0.187 OA
ENDBRANCH  23  25
ENDBRANCH  10  23
TORSDOF 4
ENDMDL
