MODEL 1
REMARK VINA RESULT: -9.197192841      0.000      0.000
REMARK  4 active torsions:
REMARK  status: ('A' for Active; 'I' for Inactive)
REMARK    1  A    between atoms: C6_6  and  N1_7 
REMARK       I    between atoms: N1_7  and  C7_9 
REMARK       I    between atoms: C7_9  and  N2_11 
REMARK    2  A    between atoms: N2_11  and  C8_13 
REMARK    3  A    between atoms: N3_17  and  C12_18 
REMARK    4  A    between atoms: C12_18  and  C13_19 
ROOT
HETATM    1  C8  UNL     1     -11.184 -17.693   9.797  1.00  0.00     0.114 A 
HETATM    2  C9  UNL     1     -10.155 -17.889   8.912  1.00  0.00     0.073 A 
HETATM    3  C10 UNL     1     -10.211 -17.337   7.617  1.00  0.00     0.016 A 
HETATM    4  C11 UNL     1      -9.064 -17.583   6.733  1.00  0.00     0.068 C 
HETATM    5  N3  UNL     1     -11.247 -16.607   7.190  1.00  0.00    -0.299 N 
HETATM    6  C19 UNL     1     -12.250 -16.432   8.095  1.00  0.00     0.328 A 
HETATM    7  O2  UNL     1     -13.248 -15.752   7.757  1.00  0.00    -0.246 OA
HETATM    8  N4  UNL     1     -12.210 -16.959   9.348  1.00  0.00    -0.294 N 
ATOM      9  H4  UNL     1     -12.996 -16.788   9.973  1.00  0.00     0.172 HD
ENDROOT
BRANCH   1  10
HETATM   10  N2  UNL     1     -11.198 -18.170  10.996  1.00  0.00    -0.294 N 
HETATM   11  C7  UNL     1     -12.394 -18.896  11.408  1.00  0.00     0.326 C 
HETATM   12  N1  UNL     1     -12.405 -20.278  11.285  1.00  0.00    -0.309 N 
HETATM   13  O1  UNL     1     -13.362 -18.246  11.855  1.00  0.00    -0.247 OA
ATOM     14  H1  UNL     1     -11.571 -20.723  10.902  1.00  0.00     0.170 HD
ATOM     15  H2  UNL     1     -10.407 -18.044  11.628  1.00  0.00     0.172 HD
BRANCH  12  16
HETATM   16  C6  UNL     1     -13.483 -21.118  11.649  1.00  0.00     0.036 A 
HETATM   17  C5  UNL     1     -13.336 -21.960  12.769  1.00  0.00     0.029 A 
HETATM   18  C4  UNL     1     -14.350 -22.768  13.176  1.00  0.00     0.003 A 
HETATM   19  C3  UNL     1     -15.548 -22.782  12.500  1.00  0.00     0.007 A 
HETATM   20  C2  UNL     1     -15.735 -21.978  11.406  1.00  0.00    -0.060 A 
HETATM   21  C1  UNL     1     -17.009 -21.964  10.652  1.00  0.00     0.048 C 
HETATM   22  C20 UNL     1     -14.674 -21.154  11.006  1.00  0.00     0.036 A 
ENDBRANCH  12  16
ENDBRANCH   1  10
BRANCH   5  23
HETATM   23  C12 UNL     1     -11.302 -16.026   5.896  1.00  0.00     0.172 C 
BRANCH  23  24
HETATM   24  C13 UNL     1     -10.331 -15.001   5.538  1.00  0.00    -0.034 A 
HETATM   25  C14 UNL     1      -9.756 -15.062   4.275  1.00  0.00     0.051 A 
HETATM   26  C15 UNL     1      -8.837 -14.135   3.826  1.00  0.00     0.119 A 
HETATM   27  F1  UNL     1      -8.311 -14.247   2.582  1.00  0.00    -0.206 F 
HETATM   28  C16 UNL     1      -8.488 -13.114   4.685  1.00  0.00     0.084 A 
HETATM   29  C17 UNL     1      -9.057 -13.048   5.948  1.00  0.00     0.119 A 
HETATM   30  F2  UNL     1      -8.680 -12.020   6.758  1.00  0.00    -0.206 F 
HETATM   31  C18 UNL     1      -9.971 -13.990   6.360  1.00  0.00     0.051 A 
ENDBRANCH  23  24
ENDBRANCH   5  23
TORSDOF 4
ENDMDL
MODEL 2
REMARK VINA RESULT: -9.183654139      0.304      1.255
REMARK  4 active torsions:
REMARK  status: ('A' for Active; 'I' for Inactive)
REMARK    1  A    between atoms: C6_6  and  N1_7 
REMARK       I    between atoms: N1_7  and  C7_9 
REMARK       I    between atoms: C7_9  and  N2_11 
REMARK    2  A    between atoms: N2_11  and  C8_13 
REMARK    3  A    between atoms: N3_17  and  C12_18 
REMARK    4  A    between atoms: C12_18  and  C13_19 
ROOT
HETATM    1  C8  UNL     1     -11.192 -17.702   9.692  1.00  0.00     0.114 A 
HETATM    2  C9  UNL     1     -10.176 -17.886   8.789  1.00  0.00     0.073 A 
HETATM    3  C10 UNL     1     -10.248 -17.309   7.505  1.00  0.00     0.016 A 
HETATM    4  C11 UNL     1      -9.114 -17.542   6.601  1.00  0.00     0.068 C 
HETATM    5  N3  UNL     1     -11.286 -16.566   7.108  1.00  0.00    -0.299 N 
HETATM    6  C19 UNL     1     -12.275 -16.404   8.030  1.00  0.00     0.328 A 
HETATM    7  O2  UNL     1     -13.274 -15.713   7.719  1.00  0.00    -0.246 OA
HETATM    8  N4  UNL     1     -12.220 -16.956   9.271  1.00  0.00    -0.294 N 
ATOM      9  H4  UNL     1     -12.996 -16.793   9.911  1.00  0.00     0.172 HD
ENDROOT
BRANCH   1  10
HETATM   10  N2  UNL     1     -11.190 -18.202  10.882  1.00  0.00    -0.294 N 
HETATM   11  C7  UNL     1     -12.394 -18.909  11.305  1.00  0.00     0.326 C 
HETATM   12  N1  UNL     1     -12.440 -20.288  11.156  1.00  0.00    -0.309 N 
HETATM   13  O1  UNL     1     -13.337 -18.245  11.786  1.00  0.00    -0.247 OA
ATOM     14  H1  UNL     1     -11.625 -20.743  10.747  1.00  0.00     0.170 HD
ATOM     15  H2  UNL     1     -10.384 -18.107  11.498  1.00  0.00     0.172 HD
BRANCH  12  16
HETATM   16  C6  UNL     1     -13.529 -21.109  11.528  1.00  0.00     0.036 A 
HETATM   17  C5  UNL     1     -14.699 -21.075  10.744  1.00  0.00     0.029 A 
HETATM   18  C4  UNL     1     -15.765 -21.864  11.042  1.00  0.00     0.003 A 
HETATM   19  C3  UNL     1     -15.725 -22.717  12.121  1.00  0.00     0.007 A 
HETATM   20  C2  UNL     1     -14.606 -22.783  12.909  1.00  0.00    -0.060 A 
HETATM   21  C1  UNL     1     -14.524 -23.688  14.078  1.00  0.00     0.048 C 
HETATM   22  C20 UNL     1     -13.520 -21.961  12.581  1.00  0.00     0.036 A 
ENDBRANCH  12  16
ENDBRANCH   1  10
BRANCH   5  23
HETATM   23  C12 UNL     1     -11.356 -15.960   5.826  1.00  0.00     0.172 C 
BRANCH  23  24
HETATM   24  C13 UNL     1     -10.352 -14.974   5.452  1.00  0.00    -0.034 A 
HETATM   25  C14 UNL     1      -9.778 -15.073   4.192  1.00  0.00     0.051 A 
HETATM   26  C15 UNL     1      -8.829 -14.185   3.729  1.00  0.00     0.119 A 
HETATM   27  F1  UNL     1      -8.306 -14.334   2.487  1.00  0.00    -0.206 F 
HETATM   28  C16 UNL     1      -8.447 -13.163   4.572  1.00  0.00     0.084 A 
HETATM   29  C17 UNL     1      -9.014 -13.058   5.833  1.00  0.00     0.119 A 
HETATM   30  F2  UNL     1      -8.603 -12.030   6.627  1.00  0.00    -0.206 F 
HETATM   31  C18 UNL     1      -9.958 -13.962   6.259  1.00  0.00     0.051 A 
ENDBRANCH  23  24
ENDBRANCH   5  23
TORSDOF 4
ENDMDL
MODEL 3
REMARK VINA RESULT: -9.181782094      4.564      5.727
REMARK  4 active torsions:
REMARK  status: ('A' for Active; 'I' for Inactive)
REMARK    1  A    between atoms: C6_6  and  N1_7 
REMARK       I    between atoms: N1_7  and  C7_9 
REMARK       I    between atoms: C7_9  and  N2_11 
REMARK    2  A    between atoms: N2_11  and  C8_13 
REMARK    3  A    between atoms: N3_17  and  C12_18 
REMARK    4  A    between atoms: C12_18  and  C13_19 
ROOT
HETATM    1  C8  UNL     1     -14.391 -15.614   8.472  1.00  0.00     0.114 A 
HETATM    2  C9  UNL     1     -13.321 -16.457   8.629  1.00  0.00     0.073 A 
HETATM    3  C10 UNL     1     -12.255 -16.439   7.708  1.00  0.00     0.016 A 
HETATM    4  C11 UNL     1     -11.141 -17.365   7.953  1.00  0.00     0.068 C 
HETATM    5  N3  UNL     1     -12.229 -15.617   6.654  1.00  0.00    -0.299 N 
HETATM    6  C19 UNL     1     -13.307 -14.794   6.529  1.00  0.00     0.328 A 
HETATM    7  O2  UNL     1     -13.339 -13.995   5.563  1.00  0.00    -0.246 OA
HETATM    8  N4  UNL     1     -14.342 -14.800   7.410  1.00  0.00    -0.294 N 
ATOM      9  H4  UNL     1     -15.117 -14.156   7.255  1.00  0.00     0.172 HD
ENDROOT
BRANCH   1  10
HETATM   10  N2  UNL     1     -15.399 -15.579   9.276  1.00  0.00    -0.294 N 
HETATM   11  C7  UNL     1     -16.681 -15.168   8.716  1.00  0.00     0.326 C 
HETATM   12  N1  UNL     1     -17.564 -16.149   8.289  1.00  0.00    -0.309 N 
HETATM   13  O1  UNL     1     -16.935 -13.946   8.641  1.00  0.00    -0.247 OA
ATOM     14  H1  UNL     1     -17.267 -17.120   8.382  1.00  0.00     0.170 HD
ATOM     15  H2  UNL     1     -15.303 -15.827  10.260  1.00  0.00     0.172 HD
BRANCH  12  16
HETATM   16  C6  UNL     1     -18.842 -15.908   7.735  1.00  0.00     0.036 A 
HETATM   17  C5  UNL     1     -19.073 -16.260   6.390  1.00  0.00     0.029 A 
HETATM   18  C4  UNL     1     -20.291 -16.074   5.816  1.00  0.00     0.003 A 
HETATM   19  C3  UNL     1     -21.330 -15.533   6.539  1.00  0.00     0.007 A 
HETATM   20  C2  UNL     1     -21.150 -15.178   7.851  1.00  0.00    -0.060 A 
HETATM   21  C1  UNL     1     -22.242 -14.594   8.661  1.00  0.00     0.048 C 
HETATM   22  C20 UNL     1     -19.885 -15.381   8.420  1.00  0.00     0.036 A 
ENDBRANCH  12  16
ENDBRANCH   1  10
BRANCH   5  23
HETATM   23  C12 UNL     1     -11.148 -15.574   5.734  1.00  0.00     0.172 C 
BRANCH  23  24
HETATM   24  C13 UNL     1     -10.263 -14.418   5.734  1.00  0.00    -0.034 A 
HETATM   25  C14 UNL     1     -10.003 -13.796   4.520  1.00  0.00     0.051 A 
HETATM   26  C15 UNL     1      -9.192 -12.685   4.406  1.00  0.00     0.119 A 
HETATM   27  F1  UNL     1      -8.977 -12.122   3.192  1.00  0.00    -0.206 F 
HETATM   28  C16 UNL     1      -8.624 -12.189   5.561  1.00  0.00     0.084 A 
HETATM   29  C17 UNL     1      -8.878 -12.805   6.777  1.00  0.00     0.119 A 
HETATM   30  F2  UNL     1      -8.294 -12.276   7.888  1.00  0.00    -0.206 F 
HETATM   31  C18 UNL     1      -9.693 -13.910   6.851  1.00  0.00     0.051 A 
ENDBRANCH  23  24
ENDBRANCH   5  23
TORSDOF 4
ENDMDL
MODEL 4
REMARK VINA RESULT: -9.158577635      1.144      1.685
REMARK  4 active torsions:
REMARK  status: ('A' for Active; 'I' for Inactive)
REMARK    1  A    between atoms: C6_6  and  N1_7 
REMARK       I    between atoms: N1_7  and  C7_9 
REMARK       I    between atoms: C7_9  and  N2_11 
REMARK    2  A    between atoms: N2_11  and  C8_13 
REMARK    3  A    between atoms: N3_17  and  C12_18 
REMARK    4  A    between atoms: C12_18  and  C13_19 
ROOT
HETATM    1  C8  UNL     1     -11.188 -17.136   9.042  1.00  0.00     0.114 A 
HETATM    2  C9  UNL     1     -10.558 -17.438   7.862  1.00  0.00     0.073 A 
HETATM    3  C10 UNL     1     -10.828 -16.693   6.696  1.00  0.00     0.016 A 
HETATM    4  C11 UNL     1     -10.103 -17.071   5.477  1.00  0.00     0.068 C 
HETATM    5  N3  UNL     1     -11.692 -15.674   6.679  1.00  0.00    -0.299 N 
HETATM    6  C19 UNL     1     -12.299 -15.401   7.868  1.00  0.00     0.328 A 
HETATM    7  O2  UNL     1     -13.117 -14.453   7.917  1.00  0.00    -0.246 OA
HETATM    8  N4  UNL     1     -12.049 -16.112   8.999  1.00  0.00    -0.294 N 
ATOM      9  H4  UNL     1     -12.539 -15.853   9.855  1.00  0.00     0.172 HD
ENDROOT
BRANCH   1  10
HETATM   10  N2  UNL     1     -10.988 -17.777  10.144  1.00  0.00    -0.294 N 
HETATM   11  C7  UNL     1     -12.127 -18.489  10.713  1.00  0.00     0.326 C 
HETATM   12  N1  UNL     1     -12.280 -19.837  10.422  1.00  0.00    -0.309 N 
HETATM   13  O1  UNL     1     -12.922 -17.857  11.442  1.00  0.00    -0.247 OA
ATOM     14  H1  UNL     1     -11.585 -20.267   9.811  1.00  0.00     0.170 HD
ATOM     15  H2  UNL     1     -10.075 -17.785  10.597  1.00  0.00     0.172 HD
BRANCH  12  16
HETATM   16  C6  UNL     1     -13.323 -20.660  10.904  1.00  0.00     0.036 A 
HETATM   17  C5  UNL     1     -14.561 -20.647  10.231  1.00  0.00     0.029 A 
HETATM   18  C4  UNL     1     -15.589 -21.438  10.637  1.00  0.00     0.003 A 
HETATM   19  C3  UNL     1     -15.442 -22.273  11.722  1.00  0.00     0.007 A 
HETATM   20  C2  UNL     1     -14.255 -22.318  12.405  1.00  0.00    -0.060 A 
HETATM   21  C1  UNL     1     -14.058 -23.203  13.576  1.00  0.00     0.048 C 
HETATM   22  C20 UNL     1     -13.211 -21.493  11.966  1.00  0.00     0.036 A 
ENDBRANCH  12  16
ENDBRANCH   1  10
BRANCH   5  23
HETATM   23  C12 UNL     1     -11.952 -14.901   5.517  1.00  0.00     0.172 C 
BRANCH  23  24
HETATM   24  C13 UNL     1     -10.916 -14.013   5.010  1.00  0.00    -0.034 A 
HETATM   25  C14 UNL     1     -10.810 -13.852   3.634  1.00  0.00     0.051 A 
HETATM   26  C15 UNL     1      -9.875 -13.024   3.046  1.00  0.00     0.119 A 
HETATM   27  F1  UNL     1      -9.822 -12.909   1.697  1.00  0.00    -0.206 F 
HETATM   28  C16 UNL     1      -9.018 -12.337   3.880  1.00  0.00     0.084 A 
HETATM   29  C17 UNL     1      -9.117 -12.493   5.254  1.00  0.00     0.119 A 
HETATM   30  F2  UNL     1      -8.248 -11.791   6.034  1.00  0.00    -0.206 F 
HETATM   31  C18 UNL     1     -10.063 -13.326   5.803  1.00  0.00     0.051 A 
ENDBRANCH  23  24
ENDBRANCH   5  23
TORSDOF 4
ENDMDL
MODEL 5
REMARK VINA RESULT: -9.158082928      1.341      2.086
REMARK  4 active torsions:
REMARK  status: ('A' for Active; 'I' for Inactive)
REMARK    1  A    between atoms: C6_6  and  N1_7 
REMARK       I    between atoms: N1_7  and  C7_9 
REMARK       I    between atoms: C7_9  and  N2_11 
REMARK    2  A    between atoms: N2_11  and  C8_13 
REMARK    3  A    between atoms: N3_17  and  C12_18 
REMARK    4  A    between atoms: C12_18  and  C13_19 
ROOT
HETATM    1  C8  UNL     1     -11.013 -17.475   9.278  1.00  0.00     0.114 A 
HETATM    2  C9  UNL     1     -11.964 -16.689   8.680  1.00  0.00     0.073 A 
HETATM    3  C10 UNL     1     -11.806 -16.264   7.346  1.00  0.00     0.016 A 
HETATM    4  C11 UNL     1     -12.875 -15.435   6.775  1.00  0.00     0.068 C 
HETATM    5  N3  UNL     1     -10.743 -16.598   6.607  1.00  0.00    -0.299 N 
HETATM    6  C19 UNL     1      -9.819 -17.380   7.232  1.00  0.00     0.328 A 
HETATM    7  O2  UNL     1      -8.801 -17.731   6.589  1.00  0.00    -0.246 OA
HETATM    8  N4  UNL     1      -9.959 -17.796   8.518  1.00  0.00    -0.294 N 
ATOM      9  H4  UNL     1      -9.227 -18.380   8.923  1.00  0.00     0.172 HD
ENDROOT
BRANCH   1  10
HETATM   10  N2  UNL     1     -11.095 -17.898  10.494  1.00  0.00    -0.294 N 
HETATM   11  C7  UNL     1     -12.322 -18.588  10.875  1.00  0.00     0.326 C 
HETATM   12  N1  UNL     1     -12.350 -19.974  10.812  1.00  0.00    -0.309 N 
HETATM   13  O1  UNL     1     -13.302 -17.904  11.243  1.00  0.00    -0.247 OA
ATOM     14  H1  UNL     1     -11.506 -20.447  10.492  1.00  0.00     0.170 HD
ATOM     15  H2  UNL     1     -10.336 -17.756  11.160  1.00  0.00     0.172 HD
BRANCH  12  16
HETATM   16  C6  UNL     1     -13.460 -20.781  11.156  1.00  0.00     0.036 A 
HETATM   17  C5  UNL     1     -14.597 -20.757  10.324  1.00  0.00     0.029 A 
HETATM   18  C4  UNL     1     -15.680 -21.533  10.595  1.00  0.00     0.003 A 
HETATM   19  C3  UNL     1     -15.689 -22.362  11.693  1.00  0.00     0.007 A 
HETATM   20  C2  UNL     1     -14.604 -22.418  12.528  1.00  0.00    -0.060 A 
HETATM   21  C1  UNL     1     -14.576 -23.298  13.718  1.00  0.00     0.048 C 
HETATM   22  C20 UNL     1     -13.500 -21.609  12.227  1.00  0.00     0.036 A 
ENDBRANCH  12  16
ENDBRANCH   1  10
BRANCH   5  23
HETATM   23  C12 UNL     1     -10.586 -16.196   5.254  1.00  0.00     0.172 C 
BRANCH  23  24
HETATM   24  C13 UNL     1     -10.017 -14.888   4.965  1.00  0.00    -0.034 A 
HETATM   25  C14 UNL     1     -10.030 -14.448   3.648  1.00  0.00     0.051 A 
HETATM   26  C15 UNL     1      -9.532 -13.219   3.263  1.00  0.00     0.119 A 
HETATM   27  F1  UNL     1      -9.574 -12.846   1.961  1.00  0.00    -0.206 F 
HETATM   28  C16 UNL     1      -9.001 -12.410   4.246  1.00  0.00     0.084 A 
HETATM   29  C17 UNL     1      -8.983 -12.843   5.563  1.00  0.00     0.119 A 
HETATM   30  F2  UNL     1      -8.448 -12.007   6.496  1.00  0.00    -0.206 F 
HETATM   31  C18 UNL     1      -9.490 -14.074   5.908  1.00  0.00     0.051 A 
ENDBRANCH  23  24
ENDBRANCH   5  23
TORSDOF 4
ENDMDL
