MODEL 1
REMARK VINA RESULT: -4.331618555      0.000      0.000
REMARK  6 active torsions:
REMARK  status: ('A' for Active; 'I' for Inactive)
REMARK    1  A    between atoms: N1_1  and  C1_4 
REMARK    2  A    between atoms: N2_7  and  C4_8 
REMARK    3  A    between atoms: C5_10  and  C6_11 
REMARK    4  A    between atoms: C6_11  and  O1_12 
REMARK    5  A    between atoms: C7_14  and  O2_15 
REMARK    6  A    between atoms: C8_17  and  O3_18 
ROOT
HETATM    1  C4  UNL     1     -12.343  25.686   6.604  1.00  0.00     0.189 C 
HETATM    2  S1  UNL     1     -12.030  23.960   7.159  1.00  0.00    -0.130 SA
HETATM    3  C5  UNL     1     -12.186  24.250   8.969  1.00  0.00     0.104 C 
HETATM    4  C7  UNL     1     -11.930  25.751   8.994  1.00  0.00     0.165 C 
HETATM    5  C8  UNL     1     -12.812  26.308   7.888  1.00  0.00     0.181 C 
ENDROOT
BRANCH   1   6
HETATM    6  N2  UNL     1     -13.416  25.592   5.613  1.00  0.00    -0.309 N 
HETATM    7  C3  UNL     1     -13.937  26.559   4.860  1.00  0.00     0.103 A 
HETATM    8  C2  UNL     1     -14.927  26.225   4.013  1.00  0.00     0.056 A 
HETATM    9  C1  UNL     1     -15.314  24.916   3.997  1.00  0.00     0.085 A 
HETATM   10  S2  UNL     1     -14.281  24.220   5.162  1.00  0.00     0.006 SA
BRANCH   9  11
HETATM   11  N1  UNL     1     -16.252  24.370   3.256  1.00  0.00    -0.392 N 
ATOM     12  H12 UNL     1     -17.239  24.208   3.454  1.00  0.00     0.156 HD
ATOM     13  H11 UNL     1     -16.157  23.994   2.312  1.00  0.00     0.156 HD
ENDBRANCH   9  11
ENDBRANCH   1   6
BRANCH   5  14
HETATM   14  O3  UNL     1     -12.701  27.676   7.844  1.00  0.00    -0.390 OA
ATOM     15  H3  UNL     1     -13.485  28.093   8.182  1.00  0.00     0.210 HD
ENDBRANCH   5  14
BRANCH   3  16
HETATM   16  C6  UNL     1     -11.098  23.509   9.706  1.00  0.00     0.181 C 
BRANCH  16  17
HETATM   17  O1  UNL     1     -10.048  24.365   9.992  1.00  0.00    -0.400 OA
ATOM     18  H1  UNL     1      -9.247  24.043   9.596  1.00  0.00     0.209 HD
ENDBRANCH  16  17
ENDBRANCH   3  16
BRANCH   4  19
HETATM   19  O2  UNL     1     -12.313  26.242  10.209  1.00  0.00    -0.392 OA
ATOM     20  H2  UNL     1     -12.826  27.029  10.074  1.00  0.00     0.210 HD
ENDBRANCH   4  19
TORSDOF 6
ENDMDL
MODEL 2
REMARK VINA RESULT: -4.291964467      3.381      6.002
REMARK  6 active torsions:
REMARK  status: ('A' for Active; 'I' for Inactive)
REMARK    1  A    between atoms: N1_1  and  C1_4 
REMARK    2  A    between atoms: N2_7  and  C4_8 
REMARK    3  A    between atoms: C5_10  and  C6_11 
REMARK    4  A    between atoms: C6_11  and  O1_12 
REMARK    5  A    between atoms: C7_14  and  O2_15 
REMARK    6  A    between atoms: C8_17  and  O3_18 
ROOT
HETATM    1  C4  UNL     1     -13.212  24.646   5.217  1.00  0.00     0.189 C 
HETATM    2  S1  UNL     1     -13.610  26.413   4.895  1.00  0.00    -0.130 SA
HETATM    3  C5  UNL     1     -15.371  26.187   4.413  1.00  0.00     0.104 C 
HETATM    4  C7  UNL     1     -15.326  24.713   4.030  1.00  0.00     0.165 C 
HETATM    5  C8  UNL     1     -14.585  24.042   5.175  1.00  0.00     0.181 C 
ENDROOT
BRANCH   1   6
HETATM    6  N2  UNL     1     -12.636  24.613   6.562  1.00  0.00    -0.309 N 
HETATM    7  C3  UNL     1     -12.058  23.591   7.192  1.00  0.00     0.103 A 
HETATM    8  C2  UNL     1     -11.601  23.805   8.438  1.00  0.00     0.056 A 
HETATM    9  C1  UNL     1     -11.767  25.058   8.954  1.00  0.00     0.085 A 
HETATM   10  S2  UNL     1     -12.552  25.872   7.677  1.00  0.00     0.006 SA
BRANCH   9  11
HETATM   11  N1  UNL     1     -11.400  25.489  10.139  1.00  0.00    -0.392 N 
ATOM     12  H12 UNL     1     -11.845  25.374  11.050  1.00  0.00     0.156 HD
ATOM     13  H11 UNL     1     -10.572  26.038  10.371  1.00  0.00     0.156 HD
ENDBRANCH   9  11
ENDBRANCH   1   6
BRANCH   5  14
HETATM   14  O3  UNL     1     -14.523  22.687   4.962  1.00  0.00    -0.390 OA
ATOM     15  H3  UNL     1     -15.228  22.397   4.395  1.00  0.00     0.210 HD
ENDBRANCH   5  14
BRANCH   3  16
HETATM   16  C6  UNL     1     -15.693  27.043   3.214  1.00  0.00     0.181 C 
BRANCH  16  17
HETATM   17  O1  UNL     1     -14.584  27.787   2.847  1.00  0.00    -0.400 OA
ATOM     18  H1  UNL     1     -14.275  27.514   1.991  1.00  0.00     0.209 HD
ENDBRANCH  16  17
ENDBRANCH   3  16
BRANCH   4  19
HETATM   19  O2  UNL     1     -16.605  24.244   3.940  1.00  0.00    -0.392 OA
ATOM     20  H2  UNL     1     -16.588  23.296   4.002  1.00  0.00     0.210 HD
ENDBRANCH   4  19
TORSDOF 6
ENDMDL
MODEL 3
REMARK VINA RESULT: -4.290106433      3.370      5.731
REMARK  6 active torsions:
REMARK  status: ('A' for Active; 'I' for Inactive)
REMARK    1  A    between atoms: N1_1  and  C1_4 
REMARK    2  A    between atoms: N2_7  and  C4_8 
REMARK    3  A    between atoms: C5_10  and  C6_11 
REMARK    4  A    between atoms: C6_11  and  O1_12 
REMARK    5  A    between atoms: C7_14  and  O2_15 
REMARK    6  A    between atoms: C8_17  and  O3_18 
ROOT
HETATM    1  C4  UNL     1     -12.395  25.446   6.225  1.00  0.00     0.189 C 
HETATM    2  S1  UNL     1     -13.508  26.386   5.101  1.00  0.00    -0.130 SA
HETATM    3  C5  UNL     1     -14.835  25.120   4.953  1.00  0.00     0.104 C 
HETATM    4  C7  UNL     1     -14.036  23.887   5.353  1.00  0.00     0.165 C 
HETATM    5  C8  UNL     1     -13.291  24.306   6.611  1.00  0.00     0.181 C 
ENDROOT
BRANCH   1   6
HETATM    6  N2  UNL     1     -12.128  26.343   7.351  1.00  0.00    -0.309 N 
HETATM    7  C3  UNL     1     -12.972  27.161   7.978  1.00  0.00     0.103 A 
HETATM    8  C2  UNL     1     -12.488  27.895   8.995  1.00  0.00     0.056 A 
HETATM    9  C1  UNL     1     -11.168  27.737   9.302  1.00  0.00     0.085 A 
HETATM   10  S2  UNL     1     -10.668  26.576   8.157  1.00  0.00     0.006 SA
BRANCH   9  11
HETATM   11  N1  UNL     1     -10.489  28.345  10.248  1.00  0.00    -0.392 N 
ATOM     12  H12 UNL     1     -10.655  28.394  11.253  1.00  0.00     0.156 HD
ATOM     13  H11 UNL     1      -9.638  28.898  10.144  1.00  0.00     0.156 HD
ENDBRANCH   9  11
ENDBRANCH   1   6
BRANCH   5  14
HETATM   14  O3  UNL     1     -12.563  23.248   7.098  1.00  0.00    -0.390 OA
ATOM     15  H3  UNL     1     -11.840  23.036   6.520  1.00  0.00     0.210 HD
ENDBRANCH   5  14
BRANCH   3  16
HETATM   16  C6  UNL     1     -15.296  25.019   3.520  1.00  0.00     0.181 C 
BRANCH  16  17
HETATM   17  O1  UNL     1     -16.369  24.149   3.425  1.00  0.00    -0.400 OA
ATOM     18  H1  UNL     1     -16.928  24.398   2.698  1.00  0.00     0.209 HD
ENDBRANCH  16  17
ENDBRANCH   3  16
BRANCH   4  19
HETATM   19  O2  UNL     1     -14.905  22.869   5.623  1.00  0.00    -0.392 OA
ATOM     20  H2  UNL     1     -14.972  22.313   4.856  1.00  0.00     0.210 HD
ENDBRANCH   4  19
TORSDOF 6
ENDMDL
MODEL 4
REMARK VINA RESULT: -4.250455521      0.984      1.020
REMARK  6 active torsions:
REMARK  status: ('A' for Active; 'I' for Inactive)
REMARK    1  A    between atoms: N1_1  and  C1_4 
REMARK    2  A    between atoms: N2_7  and  C4_8 
REMARK    3  A    between atoms: C5_10  and  C6_11 
REMARK    4  A    between atoms: C6_11  and  O1_12 
REMARK    5  A    between atoms: C7_14  and  O2_15 
REMARK    6  A    between atoms: C8_17  and  O3_18 
ROOT
HETATM    1  C4  UNL     1     -12.291  25.412   6.880  1.00  0.00     0.189 C 
HETATM    2  S1  UNL     1     -11.323  23.859   6.686  1.00  0.00    -0.130 SA
HETATM    3  C5  UNL     1     -11.456  23.266   8.423  1.00  0.00     0.104 C 
HETATM    4  C7  UNL     1     -11.776  24.591   9.103  1.00  0.00     0.165 C 
HETATM    5  C8  UNL     1     -12.872  25.205   8.248  1.00  0.00     0.181 C 
ENDROOT
BRANCH   1   6
HETATM    6  N2  UNL     1     -13.314  25.369   5.834  1.00  0.00    -0.309 N 
HETATM    7  C3  UNL     1     -13.748  26.361   5.057  1.00  0.00     0.103 A 
HETATM    8  C2  UNL     1     -14.707  26.076   4.160  1.00  0.00     0.056 A 
HETATM    9  C1  UNL     1     -15.157  24.787   4.120  1.00  0.00     0.085 A 
HETATM   10  S2  UNL     1     -14.221  24.041   5.335  1.00  0.00     0.006 SA
BRANCH   9  11
HETATM   11  N1  UNL     1     -16.080  24.287   3.330  1.00  0.00    -0.392 N 
ATOM     12  H12 UNL     1     -16.022  23.544   2.634  1.00  0.00     0.156 HD
ATOM     13  H11 UNL     1     -17.060  24.563   3.269  1.00  0.00     0.156 HD
ENDBRANCH   9  11
ENDBRANCH   1   6
BRANCH   5  14
HETATM   14  O3  UNL     1     -13.281  26.397   8.796  1.00  0.00    -0.390 OA
ATOM     15  H3  UNL     1     -13.106  26.422   9.730  1.00  0.00     0.210 HD
ENDBRANCH   5  14
BRANCH   3  16
HETATM   16  C6  UNL     1     -10.125  22.731   8.890  1.00  0.00     0.181 C 
BRANCH  16  17
HETATM   17  O1  UNL     1      -9.451  23.698   9.616  1.00  0.00    -0.400 OA
ATOM     18  H1  UNL     1      -8.729  24.045   9.106  1.00  0.00     0.209 HD
ENDBRANCH  16  17
ENDBRANCH   3  16
BRANCH   4  19
HETATM   19  O2  UNL     1     -12.233  24.337  10.365  1.00  0.00    -0.392 OA
ATOM     20  H2  UNL     1     -12.060  23.427  10.576  1.00  0.00     0.210 HD
ENDBRANCH   4  19
TORSDOF 6
ENDMDL
MODEL 5
REMARK VINA RESULT: -4.207947367      1.947      2.560
REMARK  6 active torsions:
REMARK  status: ('A' for Active; 'I' for Inactive)
REMARK    1  A    between atoms: N1_1  and  C1_4 
REMARK    2  A    between atoms: N2_7  and  C4_8 
REMARK    3  A    between atoms: C5_10  and  C6_11 
REMARK    4  A    between atoms: C6_11  and  O1_12 
REMARK    5  A    between atoms: C7_14  and  O2_15 
REMARK    6  A    between atoms: C8_17  and  O3_18 
ROOT
HETATM    1  C4  UNL     1     -12.679  24.488   7.362  1.00  0.00     0.189 C 
HETATM    2  S1  UNL     1     -11.832  26.092   7.669  1.00  0.00    -0.130 SA
HETATM    3  C5  UNL     1     -10.115  25.443   7.804  1.00  0.00     0.104 C 
HETATM    4  C7  UNL     1     -10.434  23.991   8.134  1.00  0.00     0.165 C 
HETATM    5  C8  UNL     1     -11.498  23.593   7.123  1.00  0.00     0.181 C 
ENDROOT
BRANCH   1   6
HETATM    6  N2  UNL     1     -13.472  24.690   6.148  1.00  0.00    -0.309 N 
HETATM    7  C3  UNL     1     -13.529  25.765   5.364  1.00  0.00     0.103 A 
HETATM    8  C2  UNL     1     -14.341  25.714   4.294  1.00  0.00     0.056 A 
HETATM    9  C1  UNL     1     -15.040  24.558   4.100  1.00  0.00     0.085 A 
HETATM   10  S2  UNL     1     -14.532  23.604   5.420  1.00  0.00     0.006 SA
BRANCH   9  11
HETATM   11  N1  UNL     1     -15.884  24.287   3.130  1.00  0.00    -0.392 N 
ATOM     12  H12 UNL     1     -15.926  24.640   2.174  1.00  0.00     0.156 HD
ATOM     13  H11 UNL     1     -16.680  23.650   3.160  1.00  0.00     0.156 HD
ENDBRANCH   9  11
ENDBRANCH   1   6
BRANCH   5  14
HETATM   14  O3  UNL     1     -11.836  22.273   7.294  1.00  0.00    -0.390 OA
ATOM     15  H3  UNL     1     -11.127  21.789   7.702  1.00  0.00     0.210 HD
ENDBRANCH   5  14
BRANCH   3  16
HETATM   16  C6  UNL     1      -9.399  26.109   8.952  1.00  0.00     0.181 C 
BRANCH  16  17
HETATM   17  O1  UNL     1      -9.436  25.297  10.073  1.00  0.00    -0.400 OA
ATOM     18  H1  UNL     1     -10.080  25.622  10.691  1.00  0.00     0.209 HD
ENDBRANCH  16  17
ENDBRANCH   3  16
BRANCH   4  19
HETATM   19  O2  UNL     1      -9.304  23.244   7.964  1.00  0.00    -0.392 OA
ATOM     20  H2  UNL     1      -9.546  22.327   7.928  1.00  0.00     0.210 HD
ENDBRANCH   4  19
TORSDOF 6
ENDMDL
