MODEL 1
REMARK VINA RESULT: -5.784168073      0.000      0.000
REMARK  4 active torsions:
REMARK  status: ('A' for Active; 'I' for Inactive)
REMARK    1  A    between atoms: N1_1  and  C1_5 
REMARK    2  A    between atoms: C6_11  and  C7_12 
REMARK    3  A    between atoms: C7_12  and  C8_13 
REMARK    4  A    between atoms: C8_13  and  C9_14 
ROOT
HETATM    1  C1  UNL     1      14.128   8.560  -0.121  1.00  0.00     0.194 C 
HETATM    2  C2  UNL     1      13.525   9.137   1.186  1.00  0.00     0.034 C 
HETATM    3  C3  UNL     1      14.597   9.024   2.246  1.00  0.00     0.009 C 
HETATM    4  C4  UNL     1      15.709  10.030   1.953  1.00  0.00     0.079 C 
HETATM    5  C5  UNL     1      15.652  10.415   0.518  1.00  0.00     0.133 C 
HETATM    6  O1  UNL     1      15.946  11.531   0.187  1.00  0.00    -0.298 OA
HETATM    7  C6  UNL     1      15.232   9.441  -0.538  1.00  0.00     0.085 C 
ENDROOT
BRANCH   7   8
HETATM    8  C7  UNL     1      15.149  10.098  -1.873  1.00  0.00     0.015 C 
BRANCH   8   9
HETATM    9  C8  UNL     1      13.862  10.309  -2.526  1.00  0.00     0.017 C 
BRANCH   9  10
HETATM   10  C9  UNL     1      13.626   9.991  -3.948  1.00  0.00     0.056 A 
HETATM   11  C10 UNL     1      13.797   8.479  -4.226  1.00  0.00     0.089 A 
HETATM   12  S1  UNL     1      14.874   9.632  -5.125  1.00  0.00    -0.162 SA
ENDBRANCH   9  10
ENDBRANCH   8   9
ENDBRANCH   7   8
BRANCH   1  13
HETATM   13  N1  UNL     1      14.587   7.253   0.271  1.00  0.00    -0.074 N 
ATOM     14  H13 UNL     1      13.865   6.532   0.266  1.00  0.00     0.274 HD
ATOM     15  H12 UNL     1      15.196   6.798  -0.408  1.00  0.00     0.274 HD
ATOM     16  H11 UNL     1      15.016   7.417   1.182  1.00  0.00     0.274 HD
ENDBRANCH   1  13
TORSDOF 4
ENDMDL
MODEL 2
REMARK VINA RESULT: -5.779085934      1.330      1.599
REMARK  4 active torsions:
REMARK  status: ('A' for Active; 'I' for Inactive)
REMARK    1  A    between atoms: N1_1  and  C1_5 
REMARK    2  A    between atoms: C6_11  and  C7_12 
REMARK    3  A    between atoms: C7_12  and  C8_13 
REMARK    4  A    between atoms: C8_13  and  C9_14 
ROOT
HETATM    1  C1  UNL     1      13.120  10.025   1.324  1.00  0.00     0.194 C 
HETATM    2  C2  UNL     1      13.751  10.749   2.542  1.00  0.00     0.034 C 
HETATM    3  C3  UNL     1      15.038  10.023   2.859  1.00  0.00     0.009 C 
HETATM    4  C4  UNL     1      16.067  10.311   1.767  1.00  0.00     0.079 C 
HETATM    5  C5  UNL     1      15.360  10.757   0.537  1.00  0.00     0.133 C 
HETATM    6  O1  UNL     1      15.871  11.570  -0.183  1.00  0.00    -0.298 OA
HETATM    7  C6  UNL     1      14.013  10.218   0.169  1.00  0.00     0.085 C 
ENDROOT
BRANCH   7   8
HETATM    8  C7  UNL     1      13.473  10.903  -1.039  1.00  0.00     0.015 C 
BRANCH   8   9
HETATM    9  C8  UNL     1      12.963  10.136  -2.171  1.00  0.00     0.017 C 
BRANCH   9  10
HETATM   10  C9  UNL     1      13.828   9.295  -3.020  1.00  0.00     0.056 A 
HETATM   11  C10 UNL     1      15.212   9.948  -3.240  1.00  0.00     0.089 A 
HETATM   12  S1  UNL     1      14.198   9.601  -4.705  1.00  0.00    -0.162 SA
ENDBRANCH   9  10
ENDBRANCH   8   9
ENDBRANCH   7   8
BRANCH   1  13
HETATM   13  N1  UNL     1      13.059   8.651   1.747  1.00  0.00    -0.074 N 
ATOM     14  H13 UNL     1      13.962   8.242   1.990  1.00  0.00     0.274 HD
ATOM     15  H12 UNL     1      12.629   8.508   2.661  1.00  0.00     0.274 HD
ATOM     16  H11 UNL     1      12.579   8.187   0.976  1.00  0.00     0.274 HD
ENDBRANCH   1  13
TORSDOF 4
ENDMDL
MODEL 3
REMARK VINA RESULT: -5.658260147      0.993      1.110
REMARK  4 active torsions:
REMARK  status: ('A' for Active; 'I' for Inactive)
REMARK    1  A    between atoms: N1_1  and  C1_5 
REMARK    2  A    between atoms: C6_11  and  C7_12 
REMARK    3  A    between atoms: C7_12  and  C8_13 
REMARK    4  A    between atoms: C8_13  and  C9_14 
ROOT
HETATM    1  C1  UNL     1      14.278   8.548  -0.363  1.00  0.00     0.194 C 
HETATM    2  C2  UNL     1      13.484   9.242   0.775  1.00  0.00     0.034 C 
HETATM    3  C3  UNL     1      14.378   9.237   1.994  1.00  0.00     0.009 C 
HETATM    4  C4  UNL     1      15.530  10.218   1.784  1.00  0.00     0.079 C 
HETATM    5  C5  UNL     1      15.699  10.466   0.327  1.00  0.00     0.133 C 
HETATM    6  O1  UNL     1      16.050  11.548  -0.058  1.00  0.00    -0.298 OA
HETATM    7  C6  UNL     1      15.441   9.394  -0.685  1.00  0.00     0.085 C 
ENDROOT
BRANCH   7   8
HETATM    8  C7  UNL     1      15.571   9.921  -2.072  1.00  0.00     0.015 C 
BRANCH   8   9
HETATM    9  C8  UNL     1      14.785   9.359  -3.165  1.00  0.00     0.017 C 
BRANCH   9  10
HETATM   10  C9  UNL     1      13.617  10.049  -3.745  1.00  0.00     0.056 A 
HETATM   11  C10 UNL     1      12.354   9.855  -2.874  1.00  0.00     0.089 A 
HETATM   12  S1  UNL     1      12.296   9.267  -4.591  1.00  0.00    -0.162 SA
ENDBRANCH   9  10
ENDBRANCH   8   9
ENDBRANCH   7   8
BRANCH   1  13
HETATM   13  N1  UNL     1      14.660   7.288   0.217  1.00  0.00    -0.074 N 
ATOM     14  H13 UNL     1      15.473   6.850  -0.217  1.00  0.00     0.274 HD
ATOM     15  H12 UNL     1      15.064   7.357   1.151  1.00  0.00     0.274 HD
ATOM     16  H11 UNL     1      13.805   6.735   0.167  1.00  0.00     0.274 HD
ENDBRANCH   1  13
TORSDOF 4
ENDMDL
MODEL 4
REMARK VINA RESULT: -5.528414859      3.250      5.302
REMARK  4 active torsions:
REMARK  status: ('A' for Active; 'I' for Inactive)
REMARK    1  A    between atoms: N1_1  and  C1_5 
REMARK    2  A    between atoms: C6_11  and  C7_12 
REMARK    3  A    between atoms: C7_12  and  C8_13 
REMARK    4  A    between atoms: C8_13  and  C9_14 
ROOT
HETATM    1  C1  UNL     1      14.993   9.039  -0.484  1.00  0.00     0.194 C 
HETATM    2  C2  UNL     1      15.559   9.703  -1.766  1.00  0.00     0.034 C 
HETATM    3  C3  UNL     1      14.659   9.284  -2.906  1.00  0.00     0.009 C 
HETATM    4  C4  UNL     1      13.308   9.984  -2.771  1.00  0.00     0.079 C 
HETATM    5  C5  UNL     1      13.125  10.421  -1.362  1.00  0.00     0.133 C 
HETATM    6  O1  UNL     1      12.529  11.436  -1.124  1.00  0.00    -0.298 OA
HETATM    7  C6  UNL     1      13.667   9.624  -0.217  1.00  0.00     0.085 C 
ENDROOT
BRANCH   7   8
HETATM    8  C7  UNL     1      13.451  10.327   1.078  1.00  0.00     0.015 C 
BRANCH   8   9
HETATM    9  C8  UNL     1      14.497  10.366   2.094  1.00  0.00     0.017 C 
BRANCH   9  10
HETATM   10  C9  UNL     1      14.357  11.118   3.356  1.00  0.00     0.056 A 
HETATM   11  C10 UNL     1      15.701  11.744   3.795  1.00  0.00     0.089 A 
HETATM   12  S1  UNL     1      14.905  10.569   4.928  1.00  0.00    -0.162 SA
ENDBRANCH   9  10
ENDBRANCH   8   9
ENDBRANCH   7   8
BRANCH   1  13
HETATM   13  N1  UNL     1      14.917   7.645  -0.836  1.00  0.00    -0.074 N 
ATOM     14  H13 UNL     1      14.211   7.424  -1.539  1.00  0.00     0.274 HD
ATOM     15  H12 UNL     1      15.712   7.300  -1.373  1.00  0.00     0.274 HD
ATOM     16  H11 UNL     1      14.780   7.181   0.062  1.00  0.00     0.274 HD
ENDBRANCH   1  13
TORSDOF 4
ENDMDL
MODEL 5
REMARK VINA RESULT: -5.508933997      1.212      1.480
REMARK  4 active torsions:
REMARK  status: ('A' for Active; 'I' for Inactive)
REMARK    1  A    between atoms: N1_1  and  C1_5 
REMARK    2  A    between atoms: C6_11  and  C7_12 
REMARK    3  A    between atoms: C7_12  and  C8_13 
REMARK    4  A    between atoms: C8_13  and  C9_14 
ROOT
HETATM    1  C1  UNL     1      13.868   8.478   0.560  1.00  0.00     0.194 C 
HETATM    2  C2  UNL     1      12.880   8.851   1.695  1.00  0.00     0.034 C 
HETATM    3  C3  UNL     1      13.595   8.582   2.999  1.00  0.00     0.009 C 
HETATM    4  C4  UNL     1      14.695   9.622   3.199  1.00  0.00     0.079 C 
HETATM    5  C5  UNL     1      15.048  10.218   1.883  1.00  0.00     0.133 C 
HETATM    6  O1  UNL     1      15.375  11.372   1.818  1.00  0.00    -0.298 OA
HETATM    7  C6  UNL     1      15.005   9.413   0.622  1.00  0.00     0.085 C 
ENDROOT
BRANCH   7   8
HETATM    8  C7  UNL     1      15.290  10.262  -0.568  1.00  0.00     0.015 C 
BRANCH   8   9
HETATM    9  C8  UNL     1      15.170   9.724  -1.919  1.00  0.00     0.017 C 
BRANCH   9  10
HETATM   10  C9  UNL     1      14.213  10.256  -2.908  1.00  0.00     0.056 A 
HETATM   11  C10 UNL     1      12.752   9.957  -2.498  1.00  0.00     0.089 A 
HETATM   12  S1  UNL     1      13.337   9.298  -4.085  1.00  0.00    -0.162 SA
ENDBRANCH   9  10
ENDBRANCH   8   9
ENDBRANCH   7   8
BRANCH   1  13
HETATM   13  N1  UNL     1      14.250   7.128   0.880  1.00  0.00    -0.074 N 
ATOM     14  H13 UNL     1      15.018   6.760   0.318  1.00  0.00     0.274 HD
ATOM     15  H12 UNL     1      14.718   7.023   1.781  1.00  0.00     0.274 HD
ATOM     16  H11 UNL     1      13.377   6.608   0.795  1.00  0.00     0.274 HD
ENDBRANCH   1  13
TORSDOF 4
ENDMDL
