MODEL 1
REMARK VINA RESULT: -6.455791643      0.000      0.000
REMARK  3 active torsions:
REMARK  status: ('A' for Active; 'I' for Inactive)
REMARK    1  A    between atoms: C2_2  and  C3_3 
REMARK    2  A    between atoms: C3_3  and  C4_4 
REMARK    3  A    between atoms: C4_4  and  C5_5 
ROOT
HETATM    1  C5  UNL     1      15.772  10.938   0.571  1.00  0.00     0.040 C 
HETATM    2  C6  UNL     1      16.878  10.361  -0.341  1.00  0.00     0.130 C 
HETATM    3  N1  UNL     1      18.128  11.015  -0.049  1.00  0.00    -0.364 N 
ATOM      4  H1  UNL     1      18.705  11.440  -0.774  1.00  0.00     0.162 HD
HETATM    5  C7  UNL     1      18.469  11.023   1.213  1.00  0.00     0.187 C 
HETATM    6  N2  UNL     1      19.677  11.633   1.645  1.00  0.00    -0.064 NA
HETATM    7  N3  UNL     1      17.568  10.397   2.119  1.00  0.00    -0.342 N 
HETATM    8  C8  UNL     1      18.171   9.641   3.227  1.00  0.00     0.154 C 
HETATM    9  C9  UNL     1      16.119  10.493   1.979  1.00  0.00     0.199 C 
HETATM   10  C10 UNL     1      15.704  11.471   2.981  1.00  0.00     0.085 C 
HETATM   11  N4  UNL     1      15.359  12.266   3.776  1.00  0.00    -0.195 NA
ENDROOT
BRANCH   1  12
HETATM   12  C4  UNL     1      14.512  10.322   0.064  1.00  0.00     0.009 C 
BRANCH  12  13
HETATM   13  C3  UNL     1      13.785  11.055  -1.002  1.00  0.00     0.000 C 
BRANCH  13  14
HETATM   14  C2  UNL     1      12.733  10.235  -1.662  1.00  0.00    -0.005 C 
HETATM   15  C1  UNL     1      13.158   9.882  -3.092  1.00  0.00     0.005 C 
ENDBRANCH  13  14
ENDBRANCH  12  13
ENDBRANCH   1  12
TORSDOF 3
ENDMDL
MODEL 2
REMARK VINA RESULT: -6.407691742      2.653      3.873
REMARK  3 active torsions:
REMARK  status: ('A' for Active; 'I' for Inactive)
REMARK    1  A    between atoms: C2_2  and  C3_3 
REMARK    2  A    between atoms: C3_3  and  C4_4 
REMARK    3  A    between atoms: C4_4  and  C5_5 
ROOT
HETATM    1  C5  UNL     1      15.519   9.242  -1.069  1.00  0.00     0.040 C 
HETATM    2  C6  UNL     1      14.559   8.032  -1.124  1.00  0.00     0.130 C 
HETATM    3  N1  UNL     1      14.550   7.370   0.155  1.00  0.00    -0.364 N 
ATOM      4  H1  UNL     1      14.709   6.368   0.253  1.00  0.00     0.162 HD
HETATM    5  C7  UNL     1      14.324   8.147   1.182  1.00  0.00     0.187 C 
HETATM    6  N2  UNL     1      14.287   7.629   2.503  1.00  0.00    -0.064 NA
HETATM    7  N3  UNL     1      14.124   9.527   0.902  1.00  0.00    -0.342 N 
HETATM    8  C8  UNL     1      13.109  10.221   1.710  1.00  0.00     0.154 C 
HETATM    9  C9  UNL     1      14.879  10.239  -0.123  1.00  0.00     0.199 C 
HETATM   10  C10 UNL     1      15.875  11.018   0.609  1.00  0.00     0.085 C 
HETATM   11  N4  UNL     1      16.689  11.639   1.187  1.00  0.00    -0.195 NA
ENDROOT
BRANCH   1  12
HETATM   12  C4  UNL     1      15.580   9.734  -2.476  1.00  0.00     0.009 C 
BRANCH  12  13
HETATM   13  C3  UNL     1      14.301  10.156  -3.098  1.00  0.00     0.000 C 
BRANCH  13  14
HETATM   14  C2  UNL     1      14.029   9.478  -4.394  1.00  0.00    -0.005 C 
HETATM   15  C1  UNL     1      15.154   9.774  -5.392  1.00  0.00     0.005 C 
ENDBRANCH  13  14
ENDBRANCH  12  13
ENDBRANCH   1  12
TORSDOF 3
ENDMDL
MODEL 3
REMARK VINA RESULT: -6.348416195      1.461      2.974
REMARK  3 active torsions:
REMARK  status: ('A' for Active; 'I' for Inactive)
REMARK    1  A    between atoms: C2_2  and  C3_3 
REMARK    2  A    between atoms: C3_3  and  C4_4 
REMARK    3  A    between atoms: C4_4  and  C5_5 
ROOT
HETATM    1  C5  UNL     1      16.810  10.146  -0.231  1.00  0.00     0.040 C 
HETATM    2  C6  UNL     1      15.537   9.920   0.615  1.00  0.00     0.130 C 
HETATM    3  N1  UNL     1      15.913   9.564   1.959  1.00  0.00    -0.364 N 
ATOM      4  H1  UNL     1      15.543   8.738   2.429  1.00  0.00     0.162 HD
HETATM    5  C7  UNL     1      16.761  10.377   2.533  1.00  0.00     0.187 C 
HETATM    6  N2  UNL     1      17.218  10.148   3.857  1.00  0.00    -0.064 NA
HETATM    7  N3  UNL     1      17.198  11.488   1.759  1.00  0.00    -0.342 N 
HETATM    8  C8  UNL     1      17.378  12.757   2.479  1.00  0.00     0.154 C 
HETATM    9  C9  UNL     1      17.466  11.393   0.329  1.00  0.00     0.199 C 
HETATM   10  C10 UNL     1      18.921  11.346   0.216  1.00  0.00     0.085 C 
HETATM   11  N4  UNL     1      20.092  11.294   0.114  1.00  0.00    -0.195 NA
ENDROOT
BRANCH   1  12
HETATM   12  C4  UNL     1      16.306  10.331  -1.622  1.00  0.00     0.009 C 
BRANCH  12  13
HETATM   13  C3  UNL     1      15.221   9.425  -2.073  1.00  0.00     0.000 C 
BRANCH  13  14
HETATM   14  C2  UNL     1      14.163  10.122  -2.854  1.00  0.00    -0.005 C 
HETATM   15  C1  UNL     1      12.898  10.285  -2.003  1.00  0.00     0.005 C 
ENDBRANCH  13  14
ENDBRANCH  12  13
ENDBRANCH   1  12
TORSDOF 3
ENDMDL
MODEL 4
REMARK VINA RESULT: -6.105404911      2.145      3.442
REMARK  3 active torsions:
REMARK  status: ('A' for Active; 'I' for Inactive)
REMARK    1  A    between atoms: C2_2  and  C3_3 
REMARK    2  A    between atoms: C3_3  and  C4_4 
REMARK    3  A    between atoms: C4_4  and  C5_5 
ROOT
HETATM    1  C5  UNL     1      14.825   9.164  -0.219  1.00  0.00     0.040 C 
HETATM    2  C6  UNL     1      14.038   8.086   0.560  1.00  0.00     0.130 C 
HETATM    3  N1  UNL     1      14.758   7.741   1.759  1.00  0.00    -0.364 N 
ATOM      4  H1  UNL     1      14.981   6.777   2.004  1.00  0.00     0.162 HD
HETATM    5  C7  UNL     1      15.104   8.754   2.510  1.00  0.00     0.187 C 
HETATM    6  N2  UNL     1      15.817   8.560   3.722  1.00  0.00    -0.064 NA
HETATM    7  N3  UNL     1      14.732  10.045   2.046  1.00  0.00    -0.342 N 
HETATM    8  C8  UNL     1      14.302  11.012   3.067  1.00  0.00     0.154 C 
HETATM    9  C9  UNL     1      14.773  10.416   0.635  1.00  0.00     0.199 C 
HETATM   10  C10 UNL     1      15.977  11.229   0.490  1.00  0.00     0.085 C 
HETATM   11  N4  UNL     1      16.951  11.875   0.359  1.00  0.00    -0.195 NA
ENDROOT
BRANCH   1  12
HETATM   12  C4  UNL     1      14.085   9.309  -1.505  1.00  0.00     0.009 C 
BRANCH  12  13
HETATM   13  C3  UNL     1      14.881   9.673  -2.704  1.00  0.00     0.000 C 
BRANCH  13  14
HETATM   14  C2  UNL     1      14.152   9.445  -3.981  1.00  0.00    -0.005 C 
HETATM   15  C1  UNL     1      15.056   9.780  -5.173  1.00  0.00     0.005 C 
ENDBRANCH  13  14
ENDBRANCH  12  13
ENDBRANCH   1  12
TORSDOF 3
ENDMDL
MODEL 5
REMARK VINA RESULT: -6.050861628      1.499      2.099
REMARK  3 active torsions:
REMARK  status: ('A' for Active; 'I' for Inactive)
REMARK    1  A    between atoms: C2_2  and  C3_3 
REMARK    2  A    between atoms: C3_3  and  C4_4 
REMARK    3  A    between atoms: C4_4  and  C5_5 
ROOT
HETATM    1  C5  UNL     1      15.581  10.782   0.701  1.00  0.00     0.040 C 
HETATM    2  C6  UNL     1      16.421  10.127  -0.418  1.00  0.00     0.130 C 
HETATM    3  N1  UNL     1      17.660  10.845  -0.568  1.00  0.00    -0.364 N 
ATOM      4  H1  UNL     1      17.985  11.193  -1.470  1.00  0.00     0.162 HD
HETATM    5  C7  UNL     1      18.339  11.020   0.535  1.00  0.00     0.187 C 
HETATM    6  N2  UNL     1      19.579  11.711   0.535  1.00  0.00    -0.064 NA
HETATM    7  N3  UNL     1      17.767  10.487   1.724  1.00  0.00    -0.342 N 
HETATM    8  C8  UNL     1      18.700   9.891   2.691  1.00  0.00     0.154 C 
HETATM    9  C9  UNL     1      16.333  10.526   1.992  1.00  0.00     0.199 C 
HETATM   10  C10 UNL     1      16.155  11.608   2.955  1.00  0.00     0.085 C 
HETATM   11  N4  UNL     1      15.998  12.487   3.722  1.00  0.00    -0.195 NA
ENDROOT
BRANCH   1  12
HETATM   12  C4  UNL     1      14.269  10.075   0.645  1.00  0.00     0.009 C 
BRANCH  12  13
HETATM   13  C3  UNL     1      14.300   8.592   0.677  1.00  0.00     0.000 C 
BRANCH  13  14
HETATM   14  C2  UNL     1      13.538   8.015   1.817  1.00  0.00    -0.005 C 
HETATM   15  C1  UNL     1      12.470   9.007   2.295  1.00  0.00     0.005 C 
ENDBRANCH  13  14
ENDBRANCH  12  13
ENDBRANCH   1  12
TORSDOF 3
ENDMDL
