MODEL 1
REMARK VINA RESULT: -6.616056374      0.000      0.000
REMARK  6 active torsions:
REMARK  status: ('A' for Active; 'I' for Inactive)
REMARK    1  A    between atoms: C3_3  and  C4_4 
REMARK    2  A    between atoms: C4_4  and  O1_7 
REMARK    3  A    between atoms: C8_10  and  C9_11 
REMARK    4  A    between atoms: C9_11  and  C10_12 
REMARK    5  A    between atoms: C10_12  and  O2_13 
REMARK    6  A    between atoms: N1_15  and  O3_17 
ROOT
HETATM    1  C1  UNL     1     -10.309  53.159   9.439  1.00  0.00     0.027 C 
HETATM    2  C2  UNL     1      -9.097  54.020   9.570  1.00  0.00     0.112 C 
HETATM    3  C3  UNL     1      -9.143  55.014  10.680  1.00  0.00     0.038 C 
HETATM    4  C7  UNL     1      -8.954  54.405  12.056  1.00  0.00     0.015 C 
HETATM    5  C8  UNL     1      -7.548  53.914  12.192  1.00  0.00     0.016 C 
HETATM    6  C11 UNL     1      -7.336  52.618  11.443  1.00  0.00     0.061 C 
HETATM    7  C12 UNL     1      -8.171  51.482  11.926  1.00  0.00     0.032 C 
HETATM    8  C13 UNL     1      -5.868  52.261  11.545  1.00  0.00     0.032 C 
HETATM    9  S1  UNL     1      -7.660  52.989   9.729  1.00  0.00     0.157 S 
HETATM   10  O4  UNL     1      -6.452  53.699   9.187  1.00  0.00    -0.227 OA
HETATM   11  O5  UNL     1      -7.807  51.706   8.970  1.00  0.00    -0.227 OA
ENDROOT
BRANCH   5  12
HETATM   12  C9  UNL     1      -6.980  53.906  13.552  1.00  0.00     0.092 C 
BRANCH  12  13
HETATM   13  C10 UNL     1      -6.216  55.055  13.993  1.00  0.00     0.135 C 
HETATM   14  N1  UNL     1      -5.268  55.523  13.285  1.00  0.00    -0.251 N 
ATOM     15  H1  UNL     1      -5.048  55.079  12.393  1.00  0.00     0.196 HD
BRANCH  13  16
HETATM   16  O2  UNL     1      -6.487  55.678  15.188  1.00  0.00    -0.348 OA
ATOM     17  H2  UNL     1      -7.160  56.345  15.256  1.00  0.00     0.219 HD
ENDBRANCH  13  16
BRANCH  14  18
HETATM   18  O3  UNL     1      -4.536  56.608  13.688  1.00  0.00    -0.288 OA
ATOM     19  H3  UNL     1      -3.695  56.816  13.299  1.00  0.00     0.244 HD
ENDBRANCH  14  18
ENDBRANCH  12  13
ENDBRANCH   5  12
BRANCH   3  20
HETATM   20  C4  UNL     1     -10.364  55.872  10.689  1.00  0.00     0.055 C 
HETATM   21  C5  UNL     1     -10.232  56.923  11.772  1.00  0.00     0.045 C 
HETATM   22  C6  UNL     1     -10.572  56.607   9.385  1.00  0.00     0.045 C 
BRANCH  20  23
HETATM   23  O1  UNL     1     -11.507  55.118  11.017  1.00  0.00    -0.390 OA
ATOM     24  H1  UNL     1     -12.210  55.681  11.317  1.00  0.00     0.210 HD
ENDBRANCH  20  23
ENDBRANCH   3  20
TORSDOF 6
ENDMDL
MODEL 2
REMARK VINA RESULT: -6.506808421      2.397      3.480
REMARK  6 active torsions:
REMARK  status: ('A' for Active; 'I' for Inactive)
REMARK    1  A    between atoms: C3_3  and  C4_4 
REMARK    2  A    between atoms: C4_4  and  O1_7 
REMARK    3  A    between atoms: C8_10  and  C9_11 
REMARK    4  A    between atoms: C9_11  and  C10_12 
REMARK    5  A    between atoms: C10_12  and  O2_13 
REMARK    6  A    between atoms: N1_15  and  O3_17 
ROOT
HETATM    1  C1  UNL     1      -8.978  52.230  11.471  1.00  0.00     0.027 C 
HETATM    2  C2  UNL     1      -7.859  53.072  10.955  1.00  0.00     0.112 C 
HETATM    3  C3  UNL     1      -6.952  53.628  11.998  1.00  0.00     0.038 C 
HETATM    4  C7  UNL     1      -6.008  52.604  12.598  1.00  0.00     0.015 C 
HETATM    5  C8  UNL     1      -5.008  52.187  11.566  1.00  0.00     0.016 C 
HETATM    6  C11 UNL     1      -5.613  51.235  10.559  1.00  0.00     0.061 C 
HETATM    7  C12 UNL     1      -6.103  49.953  11.137  1.00  0.00     0.032 C 
HETATM    8  C13 UNL     1      -4.567  50.959   9.500  1.00  0.00     0.032 C 
HETATM    9  S1  UNL     1      -6.927  52.142   9.764  1.00  0.00     0.157 S 
HETATM   10  O4  UNL     1      -6.294  53.068   8.765  1.00  0.00    -0.227 OA
HETATM   11  O5  UNL     1      -7.792  51.183   9.004  1.00  0.00    -0.227 OA
ENDROOT
BRANCH   5  12
HETATM   12  C9  UNL     1      -3.689  51.757  12.062  1.00  0.00     0.092 C 
BRANCH  12  13
HETATM   13  C10 UNL     1      -2.799  52.752  12.624  1.00  0.00     0.135 C 
HETATM   14  N1  UNL     1      -1.795  52.412  13.329  1.00  0.00    -0.251 N 
ATOM     15  H1  UNL     1      -1.619  51.422  13.497  1.00  0.00     0.196 HD
BRANCH  13  16
HETATM   16  O2  UNL     1      -3.006  54.095  12.416  1.00  0.00    -0.348 OA
ATOM     17  H2  UNL     1      -3.856  54.493  12.564  1.00  0.00     0.219 HD
ENDBRANCH  13  16
BRANCH  14  18
HETATM   18  O3  UNL     1      -0.946  53.341  13.868  1.00  0.00    -0.288 OA
ATOM     19  H3  UNL     1      -1.204  53.890  14.598  1.00  0.00     0.244 HD
ENDBRANCH  14  18
ENDBRANCH  12  13
ENDBRANCH   5  12
BRANCH   3  20
HETATM   20  C4  UNL     1      -7.650  54.353  13.100  1.00  0.00     0.055 C 
HETATM   21  C5  UNL     1      -6.623  55.004  14.004  1.00  0.00     0.045 C 
HETATM   22  C6  UNL     1      -8.554  55.454  12.594  1.00  0.00     0.045 C 
BRANCH  20  23
HETATM   23  O1  UNL     1      -8.371  53.459  13.914  1.00  0.00    -0.390 OA
ATOM     24  H1  UNL     1      -9.264  53.363  13.604  1.00  0.00     0.210 HD
ENDBRANCH  20  23
ENDBRANCH   3  20
TORSDOF 6
ENDMDL
MODEL 3
REMARK VINA RESULT: -6.435676664      3.073      4.269
REMARK  6 active torsions:
REMARK  status: ('A' for Active; 'I' for Inactive)
REMARK    1  A    between atoms: C3_3  and  C4_4 
REMARK    2  A    between atoms: C4_4  and  O1_7 
REMARK    3  A    between atoms: C8_10  and  C9_11 
REMARK    4  A    between atoms: C9_11  and  C10_12 
REMARK    5  A    between atoms: C10_12  and  O2_13 
REMARK    6  A    between atoms: N1_15  and  O3_17 
ROOT
HETATM    1  C1  UNL     1      -8.477  51.579  11.960  1.00  0.00     0.027 C 
HETATM    2  C2  UNL     1      -7.511  52.553  11.373  1.00  0.00     0.112 C 
HETATM    3  C3  UNL     1      -6.458  53.042  12.308  1.00  0.00     0.038 C 
HETATM    4  C7  UNL     1      -5.373  52.022  12.596  1.00  0.00     0.015 C 
HETATM    5  C8  UNL     1      -4.557  51.803  11.361  1.00  0.00     0.016 C 
HETATM    6  C11 UNL     1      -5.288  50.941  10.357  1.00  0.00     0.061 C 
HETATM    7  C12 UNL     1      -5.603  49.566  10.837  1.00  0.00     0.032 C 
HETATM    8  C13 UNL     1      -4.438  50.870   9.106  1.00  0.00     0.032 C 
HETATM    9  S1  UNL     1      -6.766  51.842   9.927  1.00  0.00     0.157 S 
HETATM   10  O4  UNL     1      -6.368  52.925   8.965  1.00  0.00    -0.227 OA
HETATM   11  O5  UNL     1      -7.707  50.924   9.209  1.00  0.00    -0.227 OA
ENDROOT
BRANCH   5  12
HETATM   12  C9  UNL     1      -3.151  51.411  11.560  1.00  0.00     0.092 C 
BRANCH  12  13
HETATM   13  C10 UNL     1      -2.235  52.374  12.136  1.00  0.00     0.135 C 
HETATM   14  N1  UNL     1      -1.792  52.232  13.321  1.00  0.00    -0.251 N 
ATOM     15  H1  UNL     1      -2.089  51.425  13.868  1.00  0.00     0.196 HD
BRANCH  13  16
HETATM   16  O2  UNL     1      -1.812  53.472  11.424  1.00  0.00    -0.348 OA
ATOM     17  H2  UNL     1      -1.563  53.403  10.510  1.00  0.00     0.219 HD
ENDBRANCH  13  16
BRANCH  14  18
HETATM   18  O3  UNL     1      -0.926  53.135  13.879  1.00  0.00    -0.288 OA
ATOM     19  H3  UNL     1      -1.016  53.422  14.779  1.00  0.00     0.244 HD
ENDBRANCH  14  18
ENDBRANCH  12  13
ENDBRANCH   5  12
BRANCH   3  20
HETATM   20  C4  UNL     1      -6.979  53.577  13.600  1.00  0.00     0.055 C 
HETATM   21  C5  UNL     1      -6.505  52.698  14.738  1.00  0.00     0.045 C 
HETATM   22  C6  UNL     1      -6.492  54.978  13.891  1.00  0.00     0.045 C 
BRANCH  20  23
HETATM   23  O1  UNL     1      -8.387  53.529  13.633  1.00  0.00    -0.390 OA
ATOM     24  H1  UNL     1      -8.698  53.332  14.508  1.00  0.00     0.210 HD
ENDBRANCH  20  23
ENDBRANCH   3  20
TORSDOF 6
ENDMDL
MODEL 4
REMARK VINA RESULT: -6.408928554      2.279      4.757
REMARK  6 active torsions:
REMARK  status: ('A' for Active; 'I' for Inactive)
REMARK    1  A    between atoms: C3_3  and  C4_4 
REMARK    2  A    between atoms: C4_4  and  O1_7 
REMARK    3  A    between atoms: C8_10  and  C9_11 
REMARK    4  A    between atoms: C9_11  and  C10_12 
REMARK    5  A    between atoms: C10_12  and  O2_13 
REMARK    6  A    between atoms: N1_15  and  O3_17 
ROOT
HETATM    1  C1  UNL     1      -6.277  51.849  11.992  1.00  0.00     0.027 C 
HETATM    2  C2  UNL     1      -7.507  52.337  12.681  1.00  0.00     0.112 C 
HETATM    3  C3  UNL     1      -7.458  53.757  13.134  1.00  0.00     0.038 C 
HETATM    4  C7  UNL     1      -7.595  54.764  12.008  1.00  0.00     0.015 C 
HETATM    5  C8  UNL     1      -8.984  54.705  11.456  1.00  0.00     0.016 C 
HETATM    6  C11 UNL     1      -9.181  53.493  10.574  1.00  0.00     0.061 C 
HETATM    7  C12 UNL     1      -8.305  53.456   9.370  1.00  0.00     0.032 C 
HETATM    8  C13 UNL     1     -10.636  53.458  10.156  1.00  0.00     0.032 C 
HETATM    9  S1  UNL     1      -8.912  52.078  11.627  1.00  0.00     0.157 S 
HETATM   10  O4  UNL     1     -10.152  51.891  12.454  1.00  0.00    -0.227 OA
HETATM   11  O5  UNL     1      -8.751  50.857  10.773  1.00  0.00    -0.227 OA
ENDROOT
BRANCH   5  12
HETATM   12  C9  UNL     1      -9.516  55.949  10.872  1.00  0.00     0.092 C 
BRANCH  12  13
HETATM   13  C10 UNL     1     -10.153  56.911  11.747  1.00  0.00     0.135 C 
HETATM   14  N1  UNL     1     -10.721  57.949  11.278  1.00  0.00    -0.251 N 
ATOM     15  H1  UNL     1     -10.726  58.100  10.270  1.00  0.00     0.196 HD
BRANCH  13  16
HETATM   16  O2  UNL     1     -10.166  56.738  13.111  1.00  0.00    -0.348 OA
ATOM     17  H2  UNL     1      -9.840  55.940  13.511  1.00  0.00     0.219 HD
ENDBRANCH  13  16
BRANCH  14  18
HETATM   18  O3  UNL     1     -11.327  58.869  12.093  1.00  0.00    -0.288 OA
ATOM     19  H3  UNL     1     -11.170  59.800  11.998  1.00  0.00     0.244 HD
ENDBRANCH  14  18
ENDBRANCH  12  13
ENDBRANCH   5  12
BRANCH   3  20
HETATM   20  C4  UNL     1      -6.261  54.101  13.955  1.00  0.00     0.055 C 
HETATM   21  C5  UNL     1      -5.901  52.926  14.839  1.00  0.00     0.045 C 
HETATM   22  C6  UNL     1      -5.044  54.409  13.113  1.00  0.00     0.045 C 
BRANCH  20  23
HETATM   23  O1  UNL     1      -6.540  55.171  14.827  1.00  0.00    -0.390 OA
ATOM     24  H1  UNL     1      -5.778  55.727  14.937  1.00  0.00     0.210 HD
ENDBRANCH  20  23
ENDBRANCH   3  20
TORSDOF 6
ENDMDL
MODEL 5
REMARK VINA RESULT: -6.394446013      2.882      5.969
REMARK  6 active torsions:
REMARK  status: ('A' for Active; 'I' for Inactive)
REMARK    1  A    between atoms: C3_3  and  C4_4 
REMARK    2  A    between atoms: C4_4  and  O1_7 
REMARK    3  A    between atoms: C8_10  and  C9_11 
REMARK    4  A    between atoms: C9_11  and  C10_12 
REMARK    5  A    between atoms: C10_12  and  O2_13 
REMARK    6  A    between atoms: N1_15  and  O3_17 
ROOT
HETATM    1  C1  UNL     1      -4.193  50.798  13.470  1.00  0.00     0.027 C 
HETATM    2  C2  UNL     1      -3.942  52.007  12.632  1.00  0.00     0.112 C 
HETATM    3  C3  UNL     1      -4.473  51.935  11.241  1.00  0.00     0.038 C 
HETATM    4  C7  UNL     1      -5.979  52.090  11.151  1.00  0.00     0.015 C 
HETATM    5  C8  UNL     1      -6.355  53.492  11.511  1.00  0.00     0.016 C 
HETATM    6  C11 UNL     1      -6.288  53.720  13.004  1.00  0.00     0.061 C 
HETATM    7  C12 UNL     1      -7.218  52.873  13.802  1.00  0.00     0.032 C 
HETATM    8  C13 UNL     1      -6.574  55.185  13.260  1.00  0.00     0.032 C 
HETATM    9  S1  UNL     1      -4.587  53.439  13.461  1.00  0.00     0.157 S 
HETATM   10  O4  UNL     1      -3.806  54.660  13.066  1.00  0.00    -0.227 OA
HETATM   11  O5  UNL     1      -4.496  53.308  14.951  1.00  0.00    -0.227 OA
ENDROOT
BRANCH   5  12
HETATM   12  C9  UNL     1      -7.580  54.027  10.890  1.00  0.00     0.092 C 
BRANCH  12  13
HETATM   13  C10 UNL     1      -7.452  54.929   9.765  1.00  0.00     0.135 C 
HETATM   14  N1  UNL     1      -6.580  54.729   8.860  1.00  0.00    -0.251 N 
ATOM     15  H1  UNL     1      -5.964  53.920   8.933  1.00  0.00     0.196 HD
BRANCH  13  16
HETATM   16  O2  UNL     1      -8.266  56.029   9.634  1.00  0.00    -0.348 OA
ATOM     17  H2  UNL     1      -8.602  56.298   8.787  1.00  0.00     0.219 HD
ENDBRANCH  13  16
BRANCH  14  18
HETATM   18  O3  UNL     1      -6.446  55.574   7.790  1.00  0.00    -0.288 OA
ATOM     19  H3  UNL     1      -5.667  55.572   7.246  1.00  0.00     0.244 HD
ENDBRANCH  14  18
ENDBRANCH  12  13
ENDBRANCH   5  12
BRANCH   3  20
HETATM   20  C4  UNL     1      -4.061  50.716  10.486  1.00  0.00     0.055 C 
HETATM   21  C5  UNL     1      -4.380  50.902   9.017  1.00  0.00     0.045 C 
HETATM   22  C6  UNL     1      -2.579  50.440  10.585  1.00  0.00     0.045 C 
BRANCH  20  23
HETATM   23  O1  UNL     1      -4.800  49.592  10.904  1.00  0.00    -0.390 OA
ATOM     24  H1  UNL     1      -4.250  48.981  11.378  1.00  0.00     0.210 HD
ENDBRANCH  20  23
ENDBRANCH   3  20
TORSDOF 6
ENDMDL
