MODEL 1
REMARK VINA RESULT: -6.946543933      0.000      0.000
REMARK  6 active torsions:
REMARK  status: ('A' for Active; 'I' for Inactive)
REMARK    1  A    between atoms: N1_1  and  C1_5 
REMARK    2  A    between atoms: C4_8  and  N2_9 
REMARK    3  A    between atoms: N2_9  and  C5_12 
REMARK    4  A    between atoms: C5_12  and  C6_13 
REMARK       I    between atoms: C6_13  and  N3_15 
REMARK    5  A    between atoms: N3_15  and  C7_17 
REMARK    6  A    between atoms: C11_21  and  N4_22 
ROOT
HETATM    1  C6  UNL     1      -2.682  52.808  12.897  1.00  0.00     0.243 C 
HETATM    2  O1  UNL     1      -1.451  52.958  13.218  1.00  0.00    -0.272 OA
HETATM    3  N3  UNL     1      -3.025  51.575  12.283  1.00  0.00    -0.353 N 
ATOM      4  H3  UNL     1      -4.002  51.418  12.035  1.00  0.00     0.163 HD
ENDROOT
BRANCH   1   5
HETATM    5  C5  UNL     1      -3.631  53.870  13.172  1.00  0.00     0.335 C 
BRANCH   5   6
HETATM    6  N2  UNL     1      -4.473  53.586  14.285  1.00  0.00    -0.063 N 
ATOM      7  H22 UNL     1      -4.055  53.916  15.154  1.00  0.00     0.278 HD
ATOM      8  H21 UNL     1      -4.494  52.585  14.481  1.00  0.00     0.278 HD
BRANCH   6   9
HETATM    9  C4  UNL     1      -5.823  54.116  14.117  1.00  0.00     0.186 C 
HETATM   10  C3  UNL     1      -5.886  55.306  13.208  1.00  0.00     0.035 C 
HETATM   11  C2  UNL     1      -6.722  55.055  11.963  1.00  0.00     0.034 C 
HETATM   12  C1  UNL     1      -8.131  54.677  12.298  1.00  0.00     0.183 C 
HETATM   13  C18 UNL     1      -8.086  53.512  13.251  1.00  0.00     0.034 C 
HETATM   14  C17 UNL     1      -6.731  53.029  13.594  1.00  0.00     0.035 C 
BRANCH  12  15
HETATM   15  N1  UNL     1      -8.929  55.752  12.787  1.00  0.00    -0.075 N 
ATOM     16  H13 UNL     1      -8.337  56.524  13.093  1.00  0.00     0.274 HD
ATOM     17  H12 UNL     1      -9.424  56.206  12.019  1.00  0.00     0.274 HD
ATOM     18  H11 UNL     1      -9.582  55.491  13.526  1.00  0.00     0.274 HD
ENDBRANCH  12  15
ENDBRANCH   6   9
ENDBRANCH   5   6
ENDBRANCH   1   5
BRANCH   3  19
HETATM   19  C7  UNL     1      -2.078  50.535  11.989  1.00  0.00     0.107 C 
HETATM   20  C8  UNL     1      -2.664  49.217  12.564  1.00  0.00     0.027 C 
HETATM   21  C9  UNL     1      -2.673  48.233  11.453  1.00  0.00     0.004 C 
HETATM   22  C10 UNL     1      -1.551  48.731  10.569  1.00  0.00     0.027 C 
HETATM   23  C11 UNL     1      -1.891  50.239  10.546  1.00  0.00     0.101 C 
BRANCH  23  24
HETATM   24  N4  UNL     1      -1.013  50.974   9.789  1.00  0.00    -0.406 N 
HETATM   25  C12 UNL     1       0.113  51.587  10.316  1.00  0.00     0.117 C 
HETATM   26  C13 UNL     1       0.765  52.559   9.312  1.00  0.00     0.019 C 
HETATM   27  C14 UNL     1      -0.207  53.512   8.711  1.00  0.00     0.003 C 
HETATM   28  C15 UNL     1      -1.486  52.831   8.343  1.00  0.00     0.019 C 
HETATM   29  C16 UNL     1      -1.290  51.333   8.451  1.00  0.00     0.117 C 
ENDBRANCH  23  24
ENDBRANCH   3  19
TORSDOF 6
ENDMDL
MODEL 2
REMARK VINA RESULT: -6.867049598      3.594      7.823
REMARK  6 active torsions:
REMARK  status: ('A' for Active; 'I' for Inactive)
REMARK    1  A    between atoms: N1_1  and  C1_5 
REMARK    2  A    between atoms: C4_8  and  N2_9 
REMARK    3  A    between atoms: N2_9  and  C5_12 
REMARK    4  A    between atoms: C5_12  and  C6_13 
REMARK       I    between atoms: C6_13  and  N3_15 
REMARK    5  A    between atoms: N3_15  and  C7_17 
REMARK    6  A    between atoms: C11_21  and  N4_22 
ROOT
HETATM    1  C6  UNL     1      -7.869  55.290  13.050  1.00  0.00     0.243 C 
HETATM    2  O1  UNL     1      -8.877  54.538  13.295  1.00  0.00    -0.272 OA
HETATM    3  N3  UNL     1      -8.025  56.221  11.991  1.00  0.00    -0.353 N 
ATOM      4  H3  UNL     1      -7.247  56.849  11.785  1.00  0.00     0.163 HD
ENDROOT
BRANCH   1   5
HETATM    5  C5  UNL     1      -6.663  55.157  13.844  1.00  0.00     0.335 C 
BRANCH   5   6
HETATM    6  N2  UNL     1      -6.338  53.801  14.134  1.00  0.00    -0.063 N 
ATOM      7  H22 UNL     1      -6.875  53.163  13.547  1.00  0.00     0.278 HD
ATOM      8  H21 UNL     1      -6.697  53.526  15.048  1.00  0.00     0.278 HD
BRANCH   6   9
HETATM    9  C4  UNL     1      -4.907  53.531  14.030  1.00  0.00     0.186 C 
HETATM   10  C3  UNL     1      -4.593  52.099  13.721  1.00  0.00     0.035 C 
HETATM   11  C2  UNL     1      -3.882  51.923  12.388  1.00  0.00     0.034 C 
HETATM   12  C1  UNL     1      -2.593  52.683  12.334  1.00  0.00     0.183 C 
HETATM   13  C18 UNL     1      -2.882  54.117  12.690  1.00  0.00     0.034 C 
HETATM   14  C17 UNL     1      -4.302  54.423  12.973  1.00  0.00     0.035 C 
BRANCH  12  15
HETATM   15  N1  UNL     1      -1.546  52.124  13.125  1.00  0.00    -0.075 N 
ATOM     16  H13 UNL     1      -1.875  51.291  13.614  1.00  0.00     0.274 HD
ATOM     17  H12 UNL     1      -0.833  51.707  12.528  1.00  0.00     0.274 HD
ATOM     18  H11 UNL     1      -1.120  52.777  13.783  1.00  0.00     0.274 HD
ENDBRANCH  12  15
ENDBRANCH   6   9
ENDBRANCH   5   6
ENDBRANCH   1   5
BRANCH   3  19
HETATM   19  C7  UNL     1      -9.213  56.334  11.189  1.00  0.00     0.107 C 
HETATM   20  C8  UNL     1     -10.140  57.356  11.901  1.00  0.00     0.027 C 
HETATM   21  C9  UNL     1     -10.492  58.386  10.893  1.00  0.00     0.004 C 
HETATM   22  C10 UNL     1     -10.364  57.626   9.592  1.00  0.00     0.027 C 
HETATM   23  C11 UNL     1      -9.012  56.918   9.839  1.00  0.00     0.101 C 
BRANCH  23  24
HETATM   24  N4  UNL     1      -8.620  56.130   8.787  1.00  0.00    -0.406 N 
HETATM   25  C12 UNL     1      -7.319  55.678   8.622  1.00  0.00     0.117 C 
HETATM   26  C13 UNL     1      -7.099  55.047   7.232  1.00  0.00     0.019 C 
HETATM   27  C14 UNL     1      -7.575  55.913   6.119  1.00  0.00     0.003 C 
HETATM   28  C15 UNL     1      -8.896  56.537   6.437  1.00  0.00     0.019 C 
HETATM   29  C16 UNL     1      -9.460  55.879   7.679  1.00  0.00     0.117 C 
ENDBRANCH  23  24
ENDBRANCH   3  19
TORSDOF 6
ENDMDL
MODEL 3
REMARK VINA RESULT: -6.848588942      3.348      7.061
REMARK  6 active torsions:
REMARK  status: ('A' for Active; 'I' for Inactive)
REMARK    1  A    between atoms: N1_1  and  C1_5 
REMARK    2  A    between atoms: C4_8  and  N2_9 
REMARK    3  A    between atoms: N2_9  and  C5_12 
REMARK    4  A    between atoms: C5_12  and  C6_13 
REMARK       I    between atoms: C6_13  and  N3_15 
REMARK    5  A    between atoms: N3_15  and  C7_17 
REMARK    6  A    between atoms: C11_21  and  N4_22 
ROOT
HETATM    1  C6  UNL     1      -7.513  55.451  13.211  1.00  0.00     0.243 C 
HETATM    2  O1  UNL     1      -8.526  54.691  13.405  1.00  0.00    -0.272 OA
HETATM    3  N3  UNL     1      -7.473  56.140  11.972  1.00  0.00    -0.353 N 
ATOM      4  H3  UNL     1      -6.690  56.769  11.797  1.00  0.00     0.163 HD
ENDROOT
BRANCH   1   5
HETATM    5  C5  UNL     1      -6.494  55.565  14.238  1.00  0.00     0.335 C 
BRANCH   5   6
HETATM    6  N2  UNL     1      -5.879  54.319  14.549  1.00  0.00    -0.063 N 
ATOM      7  H22 UNL     1      -6.546  53.680  14.983  1.00  0.00     0.278 HD
ATOM      8  H21 UNL     1      -5.220  54.418  15.321  1.00  0.00     0.278 HD
BRANCH   6   9
HETATM    9  C4  UNL     1      -5.241  53.703  13.389  1.00  0.00     0.186 C 
HETATM   10  C3  UNL     1      -4.118  54.519  12.826  1.00  0.00     0.035 C 
HETATM   11  C2  UNL     1      -2.775  53.811  12.903  1.00  0.00     0.034 C 
HETATM   12  C1  UNL     1      -2.786  52.504  12.172  1.00  0.00     0.183 C 
HETATM   13  C18 UNL     1      -3.939  51.688  12.693  1.00  0.00     0.034 C 
HETATM   14  C17 UNL     1      -4.734  52.331  13.762  1.00  0.00     0.035 C 
BRANCH  12  15
HETATM   15  N1  UNL     1      -2.798  52.624  10.751  1.00  0.00    -0.075 N 
ATOM     16  H13 UNL     1      -1.852  52.773  10.399  1.00  0.00     0.274 HD
ATOM     17  H12 UNL     1      -3.005  51.723  10.320  1.00  0.00     0.274 HD
ATOM     18  H11 UNL     1      -3.428  53.342  10.394  1.00  0.00     0.274 HD
ENDBRANCH  12  15
ENDBRANCH   6   9
ENDBRANCH   5   6
ENDBRANCH   1   5
BRANCH   3  19
HETATM   19  C7  UNL     1      -8.472  56.005  10.947  1.00  0.00     0.107 C 
HETATM   20  C8  UNL     1      -9.551  57.087  11.224  1.00  0.00     0.027 C 
HETATM   21  C9  UNL     1      -9.710  57.862   9.969  1.00  0.00     0.004 C 
HETATM   22  C10 UNL     1      -9.297  56.861   8.913  1.00  0.00     0.027 C 
HETATM   23  C11 UNL     1      -8.010  56.311   9.569  1.00  0.00     0.101 C 
BRANCH  23  24
HETATM   24  N4  UNL     1      -7.390  55.351   8.809  1.00  0.00    -0.406 N 
HETATM   25  C12 UNL     1      -6.832  55.613   7.567  1.00  0.00     0.117 C 
HETATM   26  C13 UNL     1      -6.447  54.317   6.823  1.00  0.00     0.019 C 
HETATM   27  C14 UNL     1      -7.552  53.321   6.783  1.00  0.00     0.003 C 
HETATM   28  C15 UNL     1      -8.251  53.225   8.101  1.00  0.00     0.019 C 
HETATM   29  C16 UNL     1      -7.444  53.979   9.138  1.00  0.00     0.117 C 
ENDBRANCH  23  24
ENDBRANCH   3  19
TORSDOF 6
ENDMDL
MODEL 4
REMARK VINA RESULT: -6.782249273      3.076      7.372
REMARK  6 active torsions:
REMARK  status: ('A' for Active; 'I' for Inactive)
REMARK    1  A    between atoms: N1_1  and  C1_5 
REMARK    2  A    between atoms: C4_8  and  N2_9 
REMARK    3  A    between atoms: N2_9  and  C5_12 
REMARK    4  A    between atoms: C5_12  and  C6_13 
REMARK       I    between atoms: C6_13  and  N3_15 
REMARK    5  A    between atoms: N3_15  and  C7_17 
REMARK    6  A    between atoms: C11_21  and  N4_22 
ROOT
HETATM    1  C6  UNL     1      -7.649  55.359  13.226  1.00  0.00     0.243 C 
HETATM    2  O1  UNL     1      -8.529  54.479  13.529  1.00  0.00    -0.272 OA
HETATM    3  N3  UNL     1      -7.902  56.123  12.058  1.00  0.00    -0.353 N 
ATOM      4  H3  UNL     1      -7.230  56.847  11.803  1.00  0.00     0.163 HD
ENDROOT
BRANCH   1   5
HETATM    5  C5  UNL     1      -6.480  55.525  14.069  1.00  0.00     0.335 C 
BRANCH   5   6
HETATM    6  N2  UNL     1      -5.863  54.288  14.409  1.00  0.00    -0.063 N 
ATOM      7  H22 UNL     1      -6.540  53.641  14.815  1.00  0.00     0.278 HD
ATOM      8  H21 UNL     1      -5.240  54.398  15.210  1.00  0.00     0.278 HD
BRANCH   6   9
HETATM    9  C4  UNL     1      -5.166  53.679  13.281  1.00  0.00     0.186 C 
HETATM   10  C3  UNL     1      -4.052  54.525  12.744  1.00  0.00     0.035 C 
HETATM   11  C2  UNL     1      -2.689  53.863  12.876  1.00  0.00     0.034 C 
HETATM   12  C1  UNL     1      -2.632  52.547  12.164  1.00  0.00     0.183 C 
HETATM   13  C18 UNL     1      -3.775  51.700  12.657  1.00  0.00     0.034 C 
HETATM   14  C17 UNL     1      -4.627  52.330  13.690  1.00  0.00     0.035 C 
BRANCH  12  15
HETATM   15  N1  UNL     1      -2.600  52.648  10.742  1.00  0.00    -0.075 N 
ATOM     16  H13 UNL     1      -3.547  52.636  10.363  1.00  0.00     0.274 HD
ATOM     17  H12 UNL     1      -2.309  53.583  10.458  1.00  0.00     0.274 HD
ATOM     18  H11 UNL     1      -2.024  51.942  10.282  1.00  0.00     0.274 HD
ENDBRANCH  12  15
ENDBRANCH   6   9
ENDBRANCH   5   6
ENDBRANCH   1   5
BRANCH   3  19
HETATM   19  C7  UNL     1      -9.050  55.939  11.211  1.00  0.00     0.107 C 
HETATM   20  C8  UNL     1      -9.418  57.336  10.642  1.00  0.00     0.027 C 
HETATM   21  C9  UNL     1      -9.476  57.193   9.166  1.00  0.00     0.004 C 
HETATM   22  C10 UNL     1      -9.815  55.729   8.994  1.00  0.00     0.027 C 
HETATM   23  C11 UNL     1      -8.816  55.113  10.000  1.00  0.00     0.101 C 
BRANCH  23  24
HETATM   24  N4  UNL     1      -8.893  53.745  10.060  1.00  0.00    -0.406 N 
HETATM   25  C12 UNL     1      -9.946  53.071  10.661  1.00  0.00     0.117 C 
HETATM   26  C13 UNL     1      -9.650  51.566  10.825  1.00  0.00     0.019 C 
HETATM   27  C14 UNL     1      -8.330  51.299  11.460  1.00  0.00     0.003 C 
HETATM   28  C15 UNL     1      -7.268  52.197  10.914  1.00  0.00     0.019 C 
HETATM   29  C16 UNL     1      -7.812  52.912   9.694  1.00  0.00     0.117 C 
ENDBRANCH  23  24
ENDBRANCH   3  19
TORSDOF 6
ENDMDL
MODEL 5
REMARK VINA RESULT: -6.745724029      2.250      6.587
REMARK  6 active torsions:
REMARK  status: ('A' for Active; 'I' for Inactive)
REMARK    1  A    between atoms: N1_1  and  C1_5 
REMARK    2  A    between atoms: C4_8  and  N2_9 
REMARK    3  A    between atoms: N2_9  and  C5_12 
REMARK    4  A    between atoms: C5_12  and  C6_13 
REMARK       I    between atoms: C6_13  and  N3_15 
REMARK    5  A    between atoms: N3_15  and  C7_17 
REMARK    6  A    between atoms: C11_21  and  N4_22 
ROOT
HETATM    1  C6  UNL     1      -3.759  54.092  13.167  1.00  0.00     0.243 C 
HETATM    2  O1  UNL     1      -4.197  53.507  14.219  1.00  0.00    -0.272 OA
HETATM    3  N3  UNL     1      -4.739  54.545  12.246  1.00  0.00    -0.353 N 
ATOM      4  H3  UNL     1      -4.421  55.033  11.409  1.00  0.00     0.163 HD
ENDROOT
BRANCH   1   5
HETATM    5  C5  UNL     1      -2.329  54.258  12.980  1.00  0.00     0.335 C 
BRANCH   5   6
HETATM    6  N2  UNL     1      -1.610  53.035  13.097  1.00  0.00    -0.063 N 
ATOM      7  H22 UNL     1      -1.753  52.613  14.015  1.00  0.00     0.278 HD
ATOM      8  H21 UNL     1      -0.606  53.204  13.148  1.00  0.00     0.278 HD
BRANCH   6   9
HETATM    9  C4  UNL     1      -1.931  52.091  12.031  1.00  0.00     0.186 C 
HETATM   10  C3  UNL     1      -1.004  52.183  10.857  1.00  0.00     0.035 C 
HETATM   11  C2  UNL     1      -0.215  50.905  10.623  1.00  0.00     0.034 C 
HETATM   12  C1  UNL     1      -1.110  49.727  10.392  1.00  0.00     0.183 C 
HETATM   13  C18 UNL     1      -2.081  49.646  11.539  1.00  0.00     0.034 C 
HETATM   14  C17 UNL     1      -1.915  50.685  12.580  1.00  0.00     0.035 C 
BRANCH  12  15
HETATM   15  N1  UNL     1      -1.762  49.722   9.123  1.00  0.00    -0.075 N 
ATOM     16  H13 UNL     1      -2.738  50.000   9.224  1.00  0.00     0.274 HD
ATOM     17  H12 UNL     1      -1.420  50.489   8.545  1.00  0.00     0.274 HD
ATOM     18  H11 UNL     1      -1.694  48.838   8.618  1.00  0.00     0.274 HD
ENDBRANCH  12  15
ENDBRANCH   6   9
ENDBRANCH   5   6
ENDBRANCH   1   5
BRANCH   3  19
HETATM   19  C7  UNL     1      -6.153  54.357  12.422  1.00  0.00     0.107 C 
HETATM   20  C8  UNL     1      -6.734  55.720  12.887  1.00  0.00     0.027 C 
HETATM   21  C9  UNL     1      -7.842  56.050  11.957  1.00  0.00     0.004 C 
HETATM   22  C10 UNL     1      -8.288  54.684  11.484  1.00  0.00     0.027 C 
HETATM   23  C11 UNL     1      -6.910  54.053  11.182  1.00  0.00     0.101 C 
BRANCH  23  24
HETATM   24  N4  UNL     1      -7.002  52.766  10.715  1.00  0.00    -0.406 N 
HETATM   25  C12 UNL     1      -7.809  51.803  11.302  1.00  0.00     0.117 C 
HETATM   26  C13 UNL     1      -7.519  50.392  10.749  1.00  0.00     0.019 C 
HETATM   27  C14 UNL     1      -6.071  50.048  10.767  1.00  0.00     0.003 C 
HETATM   28  C15 UNL     1      -5.229  51.198  10.313  1.00  0.00     0.019 C 
HETATM   29  C16 UNL     1      -6.133  52.261   9.723  1.00  0.00     0.117 C 
ENDBRANCH  23  24
ENDBRANCH   3  19
TORSDOF 6
ENDMDL
