MODEL 1
REMARK VINA RESULT: -5.254707565      0.000      0.000
REMARK  2 active torsions:
REMARK  status: ('A' for Active; 'I' for Inactive)
REMARK    1  A    between atoms: N1_2  and  C2_4 
REMARK    2  A    between atoms: C3_5  and  N2_6 
ROOT
HETATM    1  C2  UNL     1      14.204  10.221   0.974  1.00  0.00     0.081 A 
HETATM    2  C3  UNL     1      15.431  10.281   1.672  1.00  0.00     0.144 A 
HETATM    3  N3  UNL     1      16.556  10.295   0.938  1.00  0.00    -0.284 N 
ATOM      4  H3  UNL     1      17.452  10.339   1.423  1.00  0.00     0.188 HD
HETATM    5  N4  UNL     1      16.558  10.255  -0.381  1.00  0.00    -0.303 N 
ATOM      6  H4  UNL     1      17.446  10.269  -0.882  1.00  0.00     0.186 HD
HETATM    7  C6  UNL     1      15.427  10.199  -1.066  1.00  0.00     0.030 A 
HETATM    8  C7  UNL     1      15.425  10.155  -2.528  1.00  0.00     0.070 C 
HETATM    9  C8  UNL     1      14.188  10.179  -0.401  1.00  0.00    -0.008 A 
HETATM   10  C9  UNL     1      12.954  10.117  -1.210  1.00  0.00     0.052 C 
ENDROOT
BRANCH   1  11
HETATM   11  N1  UNL     1      13.163  10.209   1.644  1.00  0.00    -0.391 N 
HETATM   12  C1  UNL     1      12.291   9.318   2.269  1.00  0.00     0.146 C 
ATOM     13  H1  UNL     1      12.836  11.165   1.784  1.00  0.00     0.159 HD
ENDBRANCH   1  11
BRANCH   2  14
HETATM   14  N2  UNL     1      15.444  10.324   3.078  1.00  0.00    -0.373 N 
HETATM   15  C4  UNL     1      15.735   9.042   3.750  1.00  0.00     0.150 C 
HETATM   16  C5  UNL     1      15.211  11.449   3.923  1.00  0.00     0.150 C 
ENDBRANCH   2  14
TORSDOF 2
ENDMDL
MODEL 2
REMARK VINA RESULT: -5.187745625      1.309      3.078
REMARK  2 active torsions:
REMARK  status: ('A' for Active; 'I' for Inactive)
REMARK    1  A    between atoms: N1_2  and  C2_4 
REMARK    2  A    between atoms: C3_5  and  N2_6 
ROOT
HETATM    1  C2  UNL     1      15.911  10.505   0.223  1.00  0.00     0.081 A 
HETATM    2  C3  UNL     1      15.384  10.563   1.532  1.00  0.00     0.144 A 
HETATM    3  N3  UNL     1      14.048  10.514   1.660  1.00  0.00    -0.284 N 
ATOM      4  H3  UNL     1      13.648  10.554   2.597  1.00  0.00     0.188 HD
HETATM    5  N4  UNL     1      13.227  10.415   0.631  1.00  0.00    -0.303 N 
ATOM      6  H4  UNL     1      12.221  10.382   0.793  1.00  0.00     0.186 HD
HETATM    7  C6  UNL     1      13.687  10.357  -0.609  1.00  0.00     0.030 A 
HETATM    8  C7  UNL     1      12.781  10.247  -1.751  1.00  0.00     0.070 C 
HETATM    9  C8  UNL     1      15.070  10.402  -0.861  1.00  0.00    -0.008 A 
HETATM   10  C9  UNL     1      15.533  10.333  -2.262  1.00  0.00     0.052 C 
ENDROOT
BRANCH   1  11
HETATM   11  N1  UNL     1      17.142  10.549   0.097  1.00  0.00    -0.391 N 
HETATM   12  C1  UNL     1      18.170  11.457  -0.151  1.00  0.00     0.146 C 
ATOM     13  H1  UNL     1      17.531   9.613   0.213  1.00  0.00     0.159 HD
ENDBRANCH   1  11
BRANCH   2  14
HETATM   14  N2  UNL     1      16.247  10.669   2.638  1.00  0.00    -0.373 N 
HETATM   15  C4  UNL     1      16.438  12.034   3.166  1.00  0.00     0.150 C 
HETATM   16  C5  UNL     1      16.952   9.622   3.303  1.00  0.00     0.150 C 
ENDBRANCH   2  14
TORSDOF 2
ENDMDL
MODEL 3
REMARK VINA RESULT: -5.119563512      1.193      2.844
REMARK  2 active torsions:
REMARK  status: ('A' for Active; 'I' for Inactive)
REMARK    1  A    between atoms: N1_2  and  C2_4 
REMARK    2  A    between atoms: C3_5  and  N2_6 
ROOT
HETATM    1  C2  UNL     1      15.851  10.428   0.581  1.00  0.00     0.081 A 
HETATM    2  C3  UNL     1      15.237  10.439   1.853  1.00  0.00     0.144 A 
HETATM    3  N3  UNL     1      13.895  10.460   1.889  1.00  0.00    -0.284 N 
ATOM      4  H3  UNL     1      13.433  10.468   2.798  1.00  0.00     0.188 HD
HETATM    5  N4  UNL     1      13.144  10.472   0.803  1.00  0.00    -0.303 N 
ATOM      6  H4  UNL     1      12.128  10.488   0.897  1.00  0.00     0.186 HD
HETATM    7  C6  UNL     1      13.685  10.462  -0.404  1.00  0.00     0.030 A 
HETATM    8  C7  UNL     1      12.857  10.474  -1.609  1.00  0.00     0.070 C 
HETATM    9  C8  UNL     1      15.083  10.440  -0.560  1.00  0.00    -0.008 A 
HETATM   10  C9  UNL     1      15.639  10.429  -1.930  1.00  0.00     0.052 C 
ENDROOT
BRANCH   1  11
HETATM   11  N1  UNL     1      17.087  10.408   0.540  1.00  0.00    -0.391 N 
HETATM   12  C1  UNL     1      18.177  11.263   0.383  1.00  0.00     0.146 C 
ATOM     13  H1  UNL     1      17.418   9.451   0.661  1.00  0.00     0.159 HD
ENDBRANCH   1  11
BRANCH   2  14
HETATM   14  N2  UNL     1      16.025  10.427   3.019  1.00  0.00    -0.373 N 
HETATM   15  C4  UNL     1      16.341   9.090   3.558  1.00  0.00     0.150 C 
HETATM   16  C5  UNL     1      16.548  11.544   3.735  1.00  0.00     0.150 C 
ENDBRANCH   2  14
TORSDOF 2
ENDMDL
MODEL 4
REMARK VINA RESULT: -5.098095873      1.497      4.703
REMARK  2 active torsions:
REMARK  status: ('A' for Active; 'I' for Inactive)
REMARK    1  A    between atoms: N1_2  and  C2_4 
REMARK    2  A    between atoms: C3_5  and  N2_6 
ROOT
HETATM    1  C2  UNL     1      15.603  10.451   1.381  1.00  0.00     0.081 A 
HETATM    2  C3  UNL     1      14.301  10.394   0.836  1.00  0.00     0.144 A 
HETATM    3  N3  UNL     1      13.271  10.490   1.692  1.00  0.00    -0.284 N 
ATOM      4  H3  UNL     1      12.323  10.451   1.317  1.00  0.00     0.188 HD
HETATM    5  N4  UNL     1      13.425  10.633   2.995  1.00  0.00    -0.303 N 
ATOM      6  H4  UNL     1      12.602  10.701   3.593  1.00  0.00     0.186 HD
HETATM    7  C6  UNL     1      14.630  10.691   3.539  1.00  0.00     0.030 A 
HETATM    8  C7  UNL     1      14.806  10.850   4.982  1.00  0.00     0.070 C 
HETATM    9  C8  UNL     1      15.782  10.600   2.737  1.00  0.00    -0.008 A 
HETATM   10  C9  UNL     1      17.105  10.671   3.392  1.00  0.00     0.052 C 
ENDROOT
BRANCH   1  11
HETATM   11  N1  UNL     1      16.557  10.363   0.598  1.00  0.00    -0.391 N 
HETATM   12  C1  UNL     1      17.413  11.166  -0.156  1.00  0.00     0.146 C 
ATOM     13  H1  UNL     1      16.796   9.382   0.459  1.00  0.00     0.159 HD
ENDBRANCH   1  11
BRANCH   2  14
HETATM   14  N2  UNL     1      14.121  10.241  -0.551  1.00  0.00    -0.373 N 
HETATM   15  C4  UNL     1      14.193   8.854  -1.053  1.00  0.00     0.150 C 
HETATM   16  C5  UNL     1      13.879  11.259  -1.521  1.00  0.00     0.150 C 
ENDBRANCH   2  14
TORSDOF 2
ENDMDL
MODEL 5
REMARK VINA RESULT: -5.075703490      1.821      2.756
REMARK  2 active torsions:
REMARK  status: ('A' for Active; 'I' for Inactive)
REMARK    1  A    between atoms: N1_2  and  C2_4 
REMARK    2  A    between atoms: C3_5  and  N2_6 
ROOT
HETATM    1  C2  UNL     1      15.249  10.615  -0.299  1.00  0.00     0.081 A 
HETATM    2  C3  UNL     1      16.595  10.906  -0.613  1.00  0.00     0.144 A 
HETATM    3  N3  UNL     1      16.953  10.840  -1.906  1.00  0.00    -0.284 N 
ATOM      4  H3  UNL     1      17.921  11.047  -2.153  1.00  0.00     0.188 HD
HETATM    5  N4  UNL     1      16.113  10.521  -2.872  1.00  0.00    -0.303 N 
ATOM      6  H4  UNL     1      16.446  10.488  -3.836  1.00  0.00     0.186 HD
HETATM    7  C6  UNL     1      14.846  10.243  -2.613  1.00  0.00     0.030 A 
HETATM    8  C7  UNL     1      13.912   9.890  -3.682  1.00  0.00     0.070 C 
HETATM    9  C8  UNL     1      14.360  10.281  -1.294  1.00  0.00    -0.008 A 
HETATM   10  C9  UNL     1      12.937   9.964  -1.057  1.00  0.00     0.052 C 
ENDROOT
BRANCH   1  11
HETATM   11  N1  UNL     1      14.911  10.675   0.890  1.00  0.00    -0.391 N 
HETATM   12  C1  UNL     1      14.672   9.848   1.988  1.00  0.00     0.146 C 
ATOM     13  H1  UNL     1      14.757  11.648   1.154  1.00  0.00     0.159 HD
ENDBRANCH   1  11
BRANCH   2  14
HETATM   14  N2  UNL     1      17.502  11.248   0.407  1.00  0.00    -0.373 N 
HETATM   15  C4  UNL     1      17.741  12.694   0.586  1.00  0.00     0.150 C 
HETATM   16  C5  UNL     1      18.212  10.371   1.280  1.00  0.00     0.150 C 
ENDBRANCH   2  14
TORSDOF 2
ENDMDL
