MODEL 1
REMARK VINA RESULT: -6.975490514      0.000      0.000
REMARK  4 active torsions:
REMARK  status: ('A' for Active; 'I' for Inactive)
REMARK    1  A    between atoms: N1_4  and  N2_6 
REMARK    2  A    between atoms: N2_6  and  C4_8 
REMARK    3  A    between atoms: C7_19  and  C8_20 
REMARK    4  A    between atoms: C8_20  and  O2_23 
ROOT
HETATM    1  C4  UNL     1      23.868  43.129  38.106  1.00  0.00     0.157 A 
HETATM    2  N3  UNL     1      25.061  43.375  38.675  1.00  0.00    -0.241 N 
ATOM      3  H3  UNL     1      25.907  43.671  38.188  1.00  0.00     0.196 HD
HETATM    4  O1  UNL     1      24.947  43.167  39.959  1.00  0.00    -0.217 OA
HETATM    5  C5  UNL     1      23.716  42.792  40.259  1.00  0.00     0.188 A 
HETATM    6  N4  UNL     1      23.136  42.478  41.409  1.00  0.00    -0.311 N 
ATOM      7  H4  UNL     1      23.668  42.503  42.279  1.00  0.00     0.170 HD
HETATM    8  C6  UNL     1      21.852  42.130  41.413  1.00  0.00     0.178 A 
HETATM    9  S1  UNL     1      21.184  41.751  42.864  1.00  0.00    -0.040 SA
HETATM   10  N5  UNL     1      21.143  42.093  40.275  1.00  0.00    -0.333 N 
ATOM     11  H5  UNL     1      20.162  41.821  40.330  1.00  0.00     0.168 HD
HETATM   12  C7  UNL     1      21.652  42.398  39.053  1.00  0.00     0.064 A 
HETATM   13  C11 UNL     1      22.986  42.757  39.070  1.00  0.00     0.090 A 
ENDROOT
BRANCH   1  14
HETATM   14  N2  UNL     1      23.601  43.230  36.874  1.00  0.00    -0.283 N 
ATOM     15  H2  UNL     1      22.617  43.248  36.603  1.00  0.00     0.188 HD
BRANCH  14  16
HETATM   16  N1  UNL     1      24.555  43.318  35.856  1.00  0.00    -0.308 N 
HETATM   17  C2  UNL     1      24.440  44.232  34.975  1.00  0.00    -0.004 C 
HETATM   18  C1  UNL     1      23.329  45.203  34.995  1.00  0.00     0.064 C 
HETATM   19  C3  UNL     1      25.452  44.327  33.895  1.00  0.00     0.064 C 
ATOM     20  H1  UNL     1      25.333  42.660  35.819  1.00  0.00     0.186 HD
ENDBRANCH  14  16
ENDBRANCH   1  14
BRANCH  12  21
HETATM   21  C8  UNL     1      20.832  42.332  37.831  1.00  0.00     0.094 C 
HETATM   22  C9  UNL     1      20.468  43.657  37.265  1.00  0.00     0.052 C 
HETATM   23  C10 UNL     1      19.491  41.694  38.253  1.00  0.00     0.052 C 
BRANCH  21  24
HETATM   24  O2  UNL     1      21.261  41.410  36.879  1.00  0.00    -0.384 OA
ATOM     25  H2  UNL     1      21.280  40.507  37.173  1.00  0.00     0.211 HD
ENDBRANCH  21  24
ENDBRANCH  12  21
TORSDOF 4
ENDMDL
MODEL 2
REMARK VINA RESULT: -6.967281338      2.790      4.665
REMARK  4 active torsions:
REMARK  status: ('A' for Active; 'I' for Inactive)
REMARK    1  A    between atoms: N1_4  and  N2_6 
REMARK    2  A    between atoms: N2_6  and  C4_8 
REMARK    3  A    between atoms: C7_19  and  C8_20 
REMARK    4  A    between atoms: C8_20  and  O2_23 
ROOT
HETATM    1  C4  UNL     1      19.276  42.009  38.110  1.00  0.00     0.157 A 
HETATM    2  N3  UNL     1      18.085  41.760  38.681  1.00  0.00    -0.241 N 
ATOM      3  H3  UNL     1      17.238  41.463  38.196  1.00  0.00     0.196 HD
HETATM    4  O1  UNL     1      18.201  41.966  39.965  1.00  0.00    -0.217 OA
HETATM    5  C5  UNL     1      19.432  42.343  40.263  1.00  0.00     0.188 A 
HETATM    6  N4  UNL     1      20.014  42.657  41.412  1.00  0.00    -0.311 N 
ATOM      7  H4  UNL     1      19.484  42.630  42.283  1.00  0.00     0.170 HD
HETATM    8  C6  UNL     1      21.297  43.008  41.414  1.00  0.00     0.178 A 
HETATM    9  S1  UNL     1      21.968  43.386  42.863  1.00  0.00    -0.040 SA
HETATM   10  N5  UNL     1      22.004  43.046  40.274  1.00  0.00    -0.333 N 
ATOM     11  H5  UNL     1      22.984  43.320  40.328  1.00  0.00     0.168 HD
HETATM   12  C7  UNL     1      21.493  42.742  39.053  1.00  0.00     0.064 A 
HETATM   13  C11 UNL     1      20.159  42.381  39.073  1.00  0.00     0.090 A 
ENDROOT
BRANCH   1  14
HETATM   14  N2  UNL     1      19.540  41.909  36.877  1.00  0.00    -0.283 N 
ATOM     15  H2  UNL     1      20.523  41.903  36.603  1.00  0.00     0.188 HD
BRANCH  14  16
HETATM   16  N1  UNL     1      18.585  41.807  35.863  1.00  0.00    -0.308 N 
HETATM   17  C2  UNL     1      18.716  40.902  34.975  1.00  0.00    -0.004 C 
HETATM   18  C1  UNL     1      19.847  39.954  34.985  1.00  0.00     0.064 C 
HETATM   19  C3  UNL     1      17.702  40.792  33.898  1.00  0.00     0.064 C 
ATOM     20  H1  UNL     1      17.793  42.449  35.833  1.00  0.00     0.186 HD
ENDBRANCH  14  16
ENDBRANCH   1  14
BRANCH  12  21
HETATM   21  C8  UNL     1      22.310  42.810  37.830  1.00  0.00     0.094 C 
HETATM   22  C9  UNL     1      22.664  41.486  37.255  1.00  0.00     0.052 C 
HETATM   23  C10 UNL     1      23.656  43.437  38.252  1.00  0.00     0.052 C 
BRANCH  21  24
HETATM   24  O2  UNL     1      21.884  43.741  36.885  1.00  0.00    -0.384 OA
ATOM     25  H2  UNL     1      22.540  44.374  36.617  1.00  0.00     0.211 HD
ENDBRANCH  21  24
ENDBRANCH  12  21
TORSDOF 4
ENDMDL
MODEL 3
REMARK VINA RESULT: -6.746041698      3.244      6.051
REMARK  4 active torsions:
REMARK  status: ('A' for Active; 'I' for Inactive)
REMARK    1  A    between atoms: N1_4  and  N2_6 
REMARK    2  A    between atoms: N2_6  and  C4_8 
REMARK    3  A    between atoms: C7_19  and  C8_20 
REMARK    4  A    between atoms: C8_20  and  O2_23 
ROOT
HETATM    1  C4  UNL     1      19.708  42.337  39.685  1.00  0.00     0.157 A 
HETATM    2  N3  UNL     1      18.413  42.082  39.938  1.00  0.00    -0.241 N 
ATOM      3  H3  UNL     1      17.933  42.238  40.825  1.00  0.00     0.196 HD
HETATM    4  O1  UNL     1      17.876  41.601  38.849  1.00  0.00    -0.217 OA
HETATM    5  C5  UNL     1      18.775  41.529  37.884  1.00  0.00     0.188 A 
HETATM    6  N4  UNL     1      18.700  41.115  36.627  1.00  0.00    -0.311 N 
ATOM      7  H4  UNL     1      17.818  40.768  36.249  1.00  0.00     0.170 HD
HETATM    8  C6  UNL     1      19.790  41.157  35.865  1.00  0.00     0.178 A 
HETATM    9  S1  UNL     1      19.642  40.633  34.317  1.00  0.00    -0.040 SA
HETATM   10  N5  UNL     1      20.955  41.611  36.351  1.00  0.00    -0.333 N 
ATOM     11  H5  UNL     1      21.762  41.624  35.728  1.00  0.00     0.168 HD
HETATM   12  C7  UNL     1      21.126  42.054  37.624  1.00  0.00     0.064 A 
HETATM   13  C11 UNL     1      19.982  42.002  38.398  1.00  0.00     0.090 A 
ENDROOT
BRANCH   1  14
HETATM   14  N2  UNL     1      20.541  42.816  40.508  1.00  0.00    -0.283 N 
ATOM     15  H2  UNL     1      21.028  43.673  40.243  1.00  0.00     0.188 HD
BRANCH  14  16
HETATM   16  N1  UNL     1      20.845  42.257  41.752  1.00  0.00    -0.308 N 
HETATM   17  C2  UNL     1      21.343  42.999  42.661  1.00  0.00    -0.004 C 
HETATM   18  C1  UNL     1      21.611  44.434  42.441  1.00  0.00     0.064 C 
HETATM   19  C3  UNL     1      21.665  42.407  43.982  1.00  0.00     0.064 C 
ATOM     20  H1  UNL     1      20.669  41.268  41.931  1.00  0.00     0.186 HD
ENDBRANCH  14  16
ENDBRANCH   1  14
BRANCH  12  21
HETATM   21  C8  UNL     1      22.430  42.533  38.111  1.00  0.00     0.094 C 
HETATM   22  C9  UNL     1      23.437  42.764  37.042  1.00  0.00     0.052 C 
HETATM   23  C10 UNL     1      23.011  41.389  38.968  1.00  0.00     0.052 C 
BRANCH  21  24
HETATM   24  O2  UNL     1      22.370  43.553  39.059  1.00  0.00    -0.384 OA
ATOM     25  H2  UNL     1      22.292  44.430  38.703  1.00  0.00     0.211 HD
ENDBRANCH  21  24
ENDBRANCH  12  21
TORSDOF 4
ENDMDL
MODEL 4
REMARK VINA RESULT: -6.720293020      2.541      5.300
REMARK  4 active torsions:
REMARK  status: ('A' for Active; 'I' for Inactive)
REMARK    1  A    between atoms: N1_4  and  N2_6 
REMARK    2  A    between atoms: N2_6  and  C4_8 
REMARK    3  A    between atoms: C7_19  and  C8_20 
REMARK    4  A    between atoms: C8_20  and  O2_23 
ROOT
HETATM    1  C4  UNL     1      23.336  42.650  40.017  1.00  0.00     0.157 A 
HETATM    2  N3  UNL     1      24.640  42.869  40.262  1.00  0.00    -0.241 N 
ATOM      3  H3  UNL     1      25.123  42.692  41.143  1.00  0.00     0.196 HD
HETATM    4  O1  UNL     1      25.181  43.347  39.174  1.00  0.00    -0.217 OA
HETATM    5  C5  UNL     1      24.276  43.452  38.216  1.00  0.00     0.188 A 
HETATM    6  N4  UNL     1      24.352  43.877  36.963  1.00  0.00    -0.311 N 
ATOM      7  H4  UNL     1      25.240  44.204  36.582  1.00  0.00     0.170 HD
HETATM    8  C6  UNL     1      23.255  43.871  36.209  1.00  0.00     0.178 A 
HETATM    9  S1  UNL     1      23.405  44.407  34.665  1.00  0.00    -0.040 SA
HETATM   10  N5  UNL     1      22.083  43.443  36.701  1.00  0.00    -0.333 N 
ATOM     11  H5  UNL     1      21.272  43.457  36.084  1.00  0.00     0.168 HD
HETATM   12  C7  UNL     1      21.911  42.991  37.970  1.00  0.00     0.064 A 
HETATM   13  C11 UNL     1      23.061  43.005  38.736  1.00  0.00     0.090 A 
ENDROOT
BRANCH   1  14
HETATM   14  N2  UNL     1      22.497  42.185  40.842  1.00  0.00    -0.283 N 
ATOM     15  H2  UNL     1      21.983  41.347  40.570  1.00  0.00     0.188 HD
BRANCH  14  16
HETATM   16  N1  UNL     1      22.223  42.735  42.097  1.00  0.00    -0.308 N 
HETATM   17  C2  UNL     1      21.755  41.985  43.014  1.00  0.00    -0.004 C 
HETATM   18  C1  UNL     1      21.493  40.550  42.794  1.00  0.00     0.064 C 
HETATM   19  C3  UNL     1      21.464  42.568  44.347  1.00  0.00     0.064 C 
ATOM     20  H1  UNL     1      22.396  43.725  42.276  1.00  0.00     0.186 HD
ENDBRANCH  14  16
ENDBRANCH   1  14
BRANCH  12  21
HETATM   21  C8  UNL     1      20.598  42.541  38.463  1.00  0.00     0.094 C 
HETATM   22  C9  UNL     1      19.590  42.308  37.396  1.00  0.00     0.052 C 
HETATM   23  C10 UNL     1      20.034  43.710  39.299  1.00  0.00     0.052 C 
BRANCH  21  24
HETATM   24  O2  UNL     1      20.641  41.538  39.429  1.00  0.00    -0.384 OA
ATOM     25  H2  UNL     1      20.305  40.695  39.149  1.00  0.00     0.211 HD
ENDBRANCH  21  24
ENDBRANCH  12  21
TORSDOF 4
ENDMDL
MODEL 5
REMARK VINA RESULT: -6.527139742      2.629      5.250
REMARK  4 active torsions:
REMARK  status: ('A' for Active; 'I' for Inactive)
REMARK    1  A    between atoms: N1_4  and  N2_6 
REMARK    2  A    between atoms: N2_6  and  C4_8 
REMARK    3  A    between atoms: C7_19  and  C8_20 
REMARK    4  A    between atoms: C8_20  and  O2_23 
ROOT
HETATM    1  C4  UNL     1      23.468  42.726  39.165  1.00  0.00     0.157 A 
HETATM    2  N3  UNL     1      24.655  43.226  39.553  1.00  0.00    -0.241 N 
ATOM      3  H3  UNL     1      25.079  43.119  40.474  1.00  0.00     0.196 HD
HETATM    4  O1  UNL     1      25.169  43.873  38.542  1.00  0.00    -0.217 OA
HETATM    5  C5  UNL     1      24.361  43.818  37.498  1.00  0.00     0.188 A 
HETATM    6  N4  UNL     1      24.455  44.315  36.273  1.00  0.00    -0.311 N 
ATOM      7  H4  UNL     1      25.273  44.858  35.997  1.00  0.00     0.170 HD
HETATM    8  C6  UNL     1      23.467  44.096  35.408  1.00  0.00     0.178 A 
HETATM    9  S1  UNL     1      23.634  44.733  33.905  1.00  0.00    -0.040 SA
HETATM   10  N5  UNL     1      22.387  43.383  35.760  1.00  0.00    -0.333 N 
ATOM     11  H5  UNL     1      21.658  43.242  35.061  1.00  0.00     0.168 HD
HETATM   12  C7  UNL     1      22.205  42.837  36.990  1.00  0.00     0.064 A 
HETATM   13  C11 UNL     1      23.242  43.075  37.873  1.00  0.00     0.090 A 
ENDROOT
BRANCH   1  14
HETATM   14  N2  UNL     1      22.687  42.037  39.883  1.00  0.00    -0.283 N 
ATOM     15  H2  UNL     1      22.335  41.162  39.492  1.00  0.00     0.188 HD
BRANCH  14  16
HETATM   16  N1  UNL     1      22.272  42.384  41.171  1.00  0.00    -0.308 N 
HETATM   17  C2  UNL     1      21.799  41.481  41.936  1.00  0.00    -0.004 C 
HETATM   18  C1  UNL     1      21.676  40.075  41.504  1.00  0.00     0.064 C 
HETATM   19  C3  UNL     1      21.359  41.848  43.303  1.00  0.00     0.064 C 
ATOM     20  H1  UNL     1      22.347  43.348  41.495  1.00  0.00     0.186 HD
ENDBRANCH  14  16
ENDBRANCH   1  14
BRANCH  12  21
HETATM   21  C8  UNL     1      20.994  42.070  37.329  1.00  0.00     0.094 C 
HETATM   22  C9  UNL     1      21.102  40.610  37.074  1.00  0.00     0.052 C 
HETATM   23  C10 UNL     1      19.894  42.565  36.365  1.00  0.00     0.052 C 
BRANCH  21  24
HETATM   24  O2  UNL     1      20.416  42.389  38.556  1.00  0.00    -0.384 OA
ATOM     25  H2  UNL     1      20.014  41.660  39.013  1.00  0.00     0.211 HD
ENDBRANCH  21  24
ENDBRANCH  12  21
TORSDOF 4
ENDMDL
