MODEL 1
REMARK VINA RESULT: -7.012705413      0.000      0.000
REMARK  2 active torsions:
REMARK  status: ('A' for Active; 'I' for Inactive)
REMARK    1  A    between atoms: C8_10  and  C9_11 
REMARK    2  A    between atoms: C12_17  and  O1_18 
ROOT
HETATM    1  C9  UNL     1      19.065  41.501  35.832  1.00  0.00     0.091 A 
HETATM    2  N2  UNL     1      17.898  41.198  35.236  1.00  0.00    -0.333 N 
ATOM      3  H2  UNL     1      16.976  41.348  35.646  1.00  0.00     0.168 HD
HETATM    4  C10 UNL     1      18.125  40.666  34.018  1.00  0.00     0.166 A 
HETATM    5  C11 UNL     1      17.094  40.231  33.115  1.00  0.00     0.122 C 
HETATM    6  N3  UNL     1      16.255  39.879  32.397  1.00  0.00    -0.190 NA
HETATM    7  C12 UNL     1      19.501  40.633  33.839  1.00  0.00     0.180 A 
HETATM    8  N4  UNL     1      20.022  41.145  34.955  1.00  0.00    -0.324 N 
ATOM      9  H4  UNL     1      21.022  41.253  35.123  1.00  0.00     0.169 HD
ENDROOT
BRANCH   7  10
HETATM   10  O1  UNL     1      20.149  40.149  32.697  1.00  0.00    -0.344 OA
ATOM     11  H1  UNL     1      19.766  40.112  31.829  1.00  0.00     0.219 HD
ENDBRANCH   7  10
BRANCH   1  12
HETATM   12  C8  UNL     1      19.187  42.103  37.183  1.00  0.00     0.091 C 
HETATM   13  C7  UNL     1      18.202  41.433  38.163  1.00  0.00     0.133 C 
HETATM   14  N1  UNL     1      18.883  41.584  39.465  1.00  0.00    -0.392 N 
HETATM   15  C6  UNL     1      20.142  42.238  39.251  1.00  0.00     0.016 C 
ATOM     16  H1  UNL     1      18.518  41.275  40.366  1.00  0.00     0.159 HD
HETATM   17  C5  UNL     1      20.880  43.001  40.006  1.00  0.00     0.001 C 
HETATM   18  C13 UNL     1      20.474  41.823  37.859  1.00  0.00     0.110 C 
HETATM   19  C4  UNL     1      22.176  43.631  39.675  1.00  0.00     0.049 C 
HETATM   20  C2  UNL     1      23.012  42.828  38.723  1.00  0.00     0.005 C 
HETATM   21  C1  UNL     1      24.268  43.547  38.364  1.00  0.00     0.027 C 
HETATM   22  C3  UNL     1      23.331  41.487  39.320  1.00  0.00     0.027 C 
HETATM   23  S1  UNL     1      21.936  42.619  37.231  1.00  0.00    -0.148 SA
ENDBRANCH   1  12
TORSDOF 2
ENDMDL
MODEL 2
REMARK VINA RESULT: -6.965075837      3.891      5.973
REMARK  2 active torsions:
REMARK  status: ('A' for Active; 'I' for Inactive)
REMARK    1  A    between atoms: C8_10  and  C9_11 
REMARK    2  A    between atoms: C12_17  and  O1_18 
ROOT
HETATM    1  C9  UNL     1      24.128  43.684  35.748  1.00  0.00     0.091 A 
HETATM    2  N2  UNL     1      25.294  43.941  35.129  1.00  0.00    -0.333 N 
ATOM      3  H2  UNL     1      26.217  43.739  35.514  1.00  0.00     0.168 HD
HETATM    4  C10 UNL     1      25.064  44.506  33.926  1.00  0.00     0.166 A 
HETATM    5  C11 UNL     1      26.093  44.907  33.006  1.00  0.00     0.122 C 
HETATM    6  N3  UNL     1      26.932  45.232  32.274  1.00  0.00    -0.190 NA
HETATM    7  C12 UNL     1      23.688  44.609  33.782  1.00  0.00     0.180 A 
HETATM    8  N4  UNL     1      23.169  44.102  34.902  1.00  0.00    -0.324 N 
ATOM      9  H4  UNL     1      22.169  44.039  35.092  1.00  0.00     0.169 HD
ENDROOT
BRANCH   7  10
HETATM   10  O1  UNL     1      23.038  45.145  32.666  1.00  0.00    -0.344 OA
ATOM     11  H1  UNL     1      22.712  44.639  31.931  1.00  0.00     0.219 HD
ENDBRANCH   7  10
BRANCH   1  12
HETATM   12  C8  UNL     1      24.009  43.063  37.091  1.00  0.00     0.091 C 
HETATM   13  C7  UNL     1      24.988  43.727  38.081  1.00  0.00     0.133 C 
HETATM   14  N1  UNL     1      24.306  43.554  39.380  1.00  0.00    -0.392 N 
HETATM   15  C6  UNL     1      23.052  42.893  39.155  1.00  0.00     0.016 C 
ATOM     16  H1  UNL     1      24.666  43.854  40.286  1.00  0.00     0.159 HD
HETATM   17  C5  UNL     1      22.319  42.115  39.899  1.00  0.00     0.001 C 
HETATM   18  C13 UNL     1      22.718  43.324  37.769  1.00  0.00     0.110 C 
HETATM   19  C4  UNL     1      21.028  41.479  39.558  1.00  0.00     0.049 C 
HETATM   20  C2  UNL     1      20.187  42.287  38.616  1.00  0.00     0.005 C 
HETATM   21  C1  UNL     1      18.938  41.564  38.245  1.00  0.00     0.027 C 
HETATM   22  C3  UNL     1      19.857  43.618  39.229  1.00  0.00     0.027 C 
HETATM   23  S1  UNL     1      21.264  42.525  37.128  1.00  0.00    -0.148 SA
ENDBRANCH   1  12
TORSDOF 2
ENDMDL
MODEL 3
REMARK VINA RESULT: -6.627535979      4.075      7.160
REMARK  2 active torsions:
REMARK  status: ('A' for Active; 'I' for Inactive)
REMARK    1  A    between atoms: C8_10  and  C9_11 
REMARK    2  A    between atoms: C12_17  and  O1_18 
ROOT
HETATM    1  C9  UNL     1      21.211  42.865  41.222  1.00  0.00     0.091 A 
HETATM    2  N2  UNL     1      21.289  42.251  42.416  1.00  0.00    -0.333 N 
ATOM      3  H2  UNL     1      21.183  41.247  42.565  1.00  0.00     0.168 HD
HETATM    4  C10 UNL     1      21.527  43.156  43.387  1.00  0.00     0.166 A 
HETATM    5  C11 UNL     1      21.668  42.834  44.781  1.00  0.00     0.122 C 
HETATM    6  N3  UNL     1      21.773  42.565  45.903  1.00  0.00    -0.190 NA
HETATM    7  C12 UNL     1      21.602  44.399  42.775  1.00  0.00     0.180 A 
HETATM    8  N4  UNL     1      21.406  44.173  41.474  1.00  0.00    -0.324 N 
ATOM      9  H4  UNL     1      21.405  44.901  40.760  1.00  0.00     0.169 HD
ENDROOT
BRANCH   7  10
HETATM   10  O1  UNL     1      21.839  45.606  43.440  1.00  0.00    -0.344 OA
ATOM     11  H1  UNL     1      21.915  46.454  43.018  1.00  0.00     0.219 HD
ENDBRANCH   7  10
BRANCH   1  12
HETATM   12  C8  UNL     1      20.958  42.171  39.935  1.00  0.00     0.091 C 
HETATM   13  C7  UNL     1      19.442  42.011  39.697  1.00  0.00     0.133 C 
HETATM   14  N1  UNL     1      19.343  41.995  38.223  1.00  0.00    -0.392 N 
HETATM   15  C6  UNL     1      20.657  42.166  37.673  1.00  0.00     0.016 C 
ATOM     16  H1  UNL     1      18.483  41.882  37.686  1.00  0.00     0.159 HD
HETATM   17  C5  UNL     1      21.202  41.782  36.554  1.00  0.00     0.001 C 
HETATM   18  C13 UNL     1      21.338  42.955  38.737  1.00  0.00     0.110 C 
HETATM   19  C4  UNL     1      22.585  42.015  36.086  1.00  0.00     0.049 C 
HETATM   20  C2  UNL     1      23.176  43.305  36.569  1.00  0.00     0.005 C 
HETATM   21  C1  UNL     1      24.595  43.449  36.135  1.00  0.00     0.027 C 
HETATM   22  C3  UNL     1      22.360  44.466  36.075  1.00  0.00     0.027 C 
HETATM   23  S1  UNL     1      23.071  43.197  38.415  1.00  0.00    -0.148 SA
ENDBRANCH   1  12
TORSDOF 2
ENDMDL
MODEL 4
REMARK VINA RESULT: -6.620069084      4.302      7.334
REMARK  2 active torsions:
REMARK  status: ('A' for Active; 'I' for Inactive)
REMARK    1  A    between atoms: C8_10  and  C9_11 
REMARK    2  A    between atoms: C12_17  and  O1_18 
ROOT
HETATM    1  C9  UNL     1      21.960  42.180  41.131  1.00  0.00     0.091 A 
HETATM    2  N2  UNL     1      21.870  42.808  42.317  1.00  0.00    -0.333 N 
ATOM      3  H2  UNL     1      21.968  43.814  42.454  1.00  0.00     0.168 HD
HETATM    4  C10 UNL     1      21.632  41.914  43.298  1.00  0.00     0.166 A 
HETATM    5  C11 UNL     1      21.481  42.251  44.687  1.00  0.00     0.122 C 
HETATM    6  N3  UNL     1      21.366  42.535  45.805  1.00  0.00    -0.190 NA
HETATM    7  C12 UNL     1      21.570  40.663  42.701  1.00  0.00     0.180 A 
HETATM    8  N4  UNL     1      21.773  40.874  41.399  1.00  0.00    -0.324 N 
ATOM      9  H4  UNL     1      21.785  40.137  40.694  1.00  0.00     0.169 HD
ENDROOT
BRANCH   7  10
HETATM   10  O1  UNL     1      21.338  39.462  43.380  1.00  0.00    -0.344 OA
ATOM     11  H1  UNL     1      21.878  38.683  43.308  1.00  0.00     0.219 HD
ENDBRANCH   7  10
BRANCH   1  12
HETATM   12  C8  UNL     1      22.216  42.860  39.837  1.00  0.00     0.091 C 
HETATM   13  C7  UNL     1      23.733  42.984  39.585  1.00  0.00     0.133 C 
HETATM   14  N1  UNL     1      23.819  42.988  38.110  1.00  0.00    -0.392 N 
HETATM   15  C6  UNL     1      22.496  42.843  37.573  1.00  0.00     0.016 C 
ATOM     16  H1  UNL     1      24.676  43.078  37.564  1.00  0.00     0.159 HD
HETATM   17  C5  UNL     1      21.949  43.232  36.456  1.00  0.00     0.001 C 
HETATM   18  C13 UNL     1      21.807  42.077  38.649  1.00  0.00     0.110 C 
HETATM   19  C4  UNL     1      20.557  43.027  36.003  1.00  0.00     0.049 C 
HETATM   20  C2  UNL     1      19.941  41.754  36.501  1.00  0.00     0.005 C 
HETATM   21  C1  UNL     1      18.515  41.640  36.081  1.00  0.00     0.027 C 
HETATM   22  C3  UNL     1      20.726  40.572  36.007  1.00  0.00     0.027 C 
HETATM   23  S1  UNL     1      20.066  41.872  38.345  1.00  0.00    -0.148 SA
ENDBRANCH   1  12
TORSDOF 2
ENDMDL
MODEL 5
REMARK VINA RESULT: -6.516460928      3.325      4.650
REMARK  2 active torsions:
REMARK  status: ('A' for Active; 'I' for Inactive)
REMARK    1  A    between atoms: C8_10  and  C9_11 
REMARK    2  A    between atoms: C12_17  and  O1_18 
ROOT
HETATM    1  C9  UNL     1      22.209  43.428  36.449  1.00  0.00     0.091 A 
HETATM    2  N2  UNL     1      22.191  44.023  35.242  1.00  0.00    -0.333 N 
ATOM      3  H2  UNL     1      21.354  44.363  34.770  1.00  0.00     0.168 HD
HETATM    4  C10 UNL     1      23.444  44.104  34.749  1.00  0.00     0.166 A 
HETATM    5  C11 UNL     1      23.781  44.685  33.478  1.00  0.00     0.122 C 
HETATM    6  N3  UNL     1      24.041  45.150  32.448  1.00  0.00    -0.190 NA
HETATM    7  C12 UNL     1      24.289  43.532  35.689  1.00  0.00     0.180 A 
HETATM    8  N4  UNL     1      23.501  43.141  36.692  1.00  0.00    -0.324 N 
ATOM      9  H4  UNL     1      23.837  42.682  37.539  1.00  0.00     0.169 HD
ENDROOT
BRANCH   7  10
HETATM   10  O1  UNL     1      25.677  43.419  35.555  1.00  0.00    -0.344 OA
ATOM     11  H1  UNL     1      26.124  43.086  34.786  1.00  0.00     0.219 HD
ENDBRANCH   7  10
BRANCH   1  12
HETATM   12  C8  UNL     1      21.004  43.176  37.278  1.00  0.00     0.091 C 
HETATM   13  C7  UNL     1      20.039  42.219  36.550  1.00  0.00     0.133 C 
HETATM   14  N1  UNL     1      19.343  41.546  37.666  1.00  0.00    -0.392 N 
HETATM   15  C6  UNL     1      19.879  42.037  38.903  1.00  0.00     0.016 C 
ATOM     16  H1  UNL     1      18.605  40.848  37.572  1.00  0.00     0.159 HD
HETATM   17  C5  UNL     1      19.372  42.160  40.097  1.00  0.00     0.001 C 
HETATM   18  C13 UNL     1      21.269  42.405  38.515  1.00  0.00     0.110 C 
HETATM   19  C4  UNL     1      20.024  42.690  41.314  1.00  0.00     0.049 C 
HETATM   20  C2  UNL     1      21.500  42.432  41.368  1.00  0.00     0.005 C 
HETATM   21  C1  UNL     1      22.116  43.056  42.574  1.00  0.00     0.027 C 
HETATM   22  C3  UNL     1      21.767  40.953  41.352  1.00  0.00     0.027 C 
HETATM   23  S1  UNL     1      22.161  43.212  39.825  1.00  0.00    -0.148 SA
ENDBRANCH   1  12
TORSDOF 2
ENDMDL
