MODEL 1
REMARK VINA RESULT: -6.482687533      0.000      0.000
REMARK  2 active torsions:
REMARK  status: ('A' for Active; 'I' for Inactive)
REMARK    1  A    between atoms: N1_1  and  C1_4 
REMARK    2  A    between atoms: N4_13  and  C5_14 
ROOT
HETATM    1  C1  UNL     1      21.886  40.198  42.750  1.00  0.00     0.678 A 
HETATM    2  N2  UNL     1      21.936  40.958  43.859  1.00  0.00    -0.179 N 
ATOM      3  H2  UNL     1      21.849  40.531  44.781  1.00  0.00     0.185 HD
HETATM    4  C2  UNL     1      22.105  42.293  43.737  1.00  0.00     0.147 A 
HETATM    5  S1  UNL     1      22.169  43.227  45.054  1.00  0.00    -0.057 SA
HETATM    6  C3  UNL     1      22.222  42.875  42.501  1.00  0.00     0.117 A 
HETATM    7  N3  UNL     1      22.393  44.158  42.145  1.00  0.00    -0.347 N 
ATOM      8  H3  UNL     1      22.468  44.962  42.769  1.00  0.00     0.167 HD
HETATM    9  C4  UNL     1      22.445  44.174  40.800  1.00  0.00     0.185 A 
HETATM   10  N4  UNL     1      22.310  42.918  40.317  1.00  0.00    -0.321 N 
HETATM   11  C10 UNL     1      22.169  42.088  41.359  1.00  0.00     0.154 A 
HETATM   12  N5  UNL     1      22.001  40.773  41.542  1.00  0.00    -0.174 N 
ATOM     13  H5  UNL     1      21.959  40.174  40.718  1.00  0.00     0.186 HD
ENDROOT
BRANCH  10  14
HETATM   14  C5  UNL     1      22.310  42.492  38.930  1.00  0.00     0.101 C 
HETATM   15  C6  UNL     1      20.890  42.344  38.494  1.00  0.00     0.027 C 
HETATM   16  C7  UNL     1      20.737  41.672  37.162  1.00  0.00     0.012 C 
HETATM   17  C8  UNL     1      21.360  42.422  36.027  1.00  0.00     0.074 C 
HETATM   18  S2  UNL     1      23.047  42.977  36.401  1.00  0.00    -0.167 SA
HETATM   19  C9  UNL     1      23.013  43.595  38.129  1.00  0.00     0.099 C 
ENDBRANCH  10  14
BRANCH   1  20
HETATM   20  N1  UNL     1      21.727  38.916  42.800  1.00  0.00    -0.234 N 
ATOM     21  H12 UNL     1      21.178  38.473  42.064  1.00  0.00     0.174 HD
ATOM     22  H11 UNL     1      22.130  38.346  43.544  1.00  0.00     0.174 HD
ENDBRANCH   1  20
TORSDOF 2
ENDMDL
MODEL 2
REMARK VINA RESULT: -6.456591476      1.392      3.052
REMARK  2 active torsions:
REMARK  status: ('A' for Active; 'I' for Inactive)
REMARK    1  A    between atoms: N1_1  and  C1_4 
REMARK    2  A    between atoms: N4_13  and  C5_14 
ROOT
HETATM    1  C1  UNL     1      21.838  44.948  42.762  1.00  0.00     0.678 A 
HETATM    2  N2  UNL     1      21.799  44.188  43.870  1.00  0.00    -0.179 N 
ATOM      3  H2  UNL     1      21.887  44.615  44.793  1.00  0.00     0.185 HD
HETATM    4  C2  UNL     1      21.643  42.851  43.748  1.00  0.00     0.147 A 
HETATM    5  S1  UNL     1      21.593  41.916  45.065  1.00  0.00    -0.057 SA
HETATM    6  C3  UNL     1      21.526  42.269  42.513  1.00  0.00     0.117 A 
HETATM    7  N3  UNL     1      21.366  40.983  42.157  1.00  0.00    -0.347 N 
ATOM      8  H3  UNL     1      21.302  40.179  42.781  1.00  0.00     0.167 HD
HETATM    9  C4  UNL     1      21.308  40.968  40.812  1.00  0.00     0.185 A 
HETATM   10  N4  UNL     1      21.429  42.226  40.329  1.00  0.00    -0.321 N 
HETATM   11  C10 UNL     1      21.567  43.056  41.371  1.00  0.00     0.154 A 
HETATM   12  N5  UNL     1      21.723  44.372  41.554  1.00  0.00    -0.174 N 
ATOM     13  H5  UNL     1      21.756  44.973  40.730  1.00  0.00     0.186 HD
ENDROOT
BRANCH  10  14
HETATM   14  C5  UNL     1      21.419  42.652  38.942  1.00  0.00     0.101 C 
HETATM   15  C6  UNL     1      22.836  42.811  38.499  1.00  0.00     0.027 C 
HETATM   16  C7  UNL     1      22.977  43.485  37.167  1.00  0.00     0.012 C 
HETATM   17  C8  UNL     1      22.354  42.731  36.035  1.00  0.00     0.074 C 
HETATM   18  S2  UNL     1      20.673  42.163  36.417  1.00  0.00    -0.167 SA
HETATM   19  C9  UNL     1      20.720  41.545  38.144  1.00  0.00     0.099 C 
ENDBRANCH  10  14
BRANCH   1  20
HETATM   20  N1  UNL     1      21.984  46.232  42.812  1.00  0.00    -0.234 N 
ATOM     21  H12 UNL     1      21.342  46.764  43.398  1.00  0.00     0.174 HD
ATOM     22  H11 UNL     1      22.712  46.717  42.288  1.00  0.00     0.174 HD
ENDBRANCH   1  20
TORSDOF 2
ENDMDL
MODEL 3
REMARK VINA RESULT: -6.007159769      1.100      1.505
REMARK  2 active torsions:
REMARK  status: ('A' for Active; 'I' for Inactive)
REMARK    1  A    between atoms: N1_1  and  C1_4 
REMARK    2  A    between atoms: N4_13  and  C5_14 
ROOT
HETATM    1  C1  UNL     1      21.818  40.320  42.768  1.00  0.00     0.678 A 
HETATM    2  N2  UNL     1      21.862  40.864  43.997  1.00  0.00    -0.179 N 
ATOM      3  H2  UNL     1      21.926  40.268  44.823  1.00  0.00     0.185 HD
HETATM    4  C2  UNL     1      21.821  42.208  44.126  1.00  0.00     0.147 A 
HETATM    5  S1  UNL     1      21.873  42.885  45.593  1.00  0.00    -0.057 SA
HETATM    6  C3  UNL     1      21.734  43.016  43.022  1.00  0.00     0.117 A 
HETATM    7  N3  UNL     1      21.681  44.354  42.912  1.00  0.00    -0.347 N 
ATOM      8  H3  UNL     1      21.697  45.031  43.674  1.00  0.00     0.167 HD
HETATM    9  C4  UNL     1      21.603  44.622  41.595  1.00  0.00     0.185 A 
HETATM   10  N4  UNL     1      21.607  43.469  40.887  1.00  0.00    -0.321 N 
HETATM   11  C10 UNL     1      21.689  42.452  41.756  1.00  0.00     0.154 A 
HETATM   12  N5  UNL     1      21.733  41.117  41.690  1.00  0.00    -0.174 N 
ATOM     13  H5  UNL     1      21.700  40.678  40.769  1.00  0.00     0.186 HD
ENDROOT
BRANCH  10  14
HETATM   14  C5  UNL     1      21.538  43.309  39.447  1.00  0.00     0.101 C 
HETATM   15  C6  UNL     1      22.931  43.347  38.912  1.00  0.00     0.027 C 
HETATM   16  C7  UNL     1      22.999  43.442  37.417  1.00  0.00     0.012 C 
HETATM   17  C8  UNL     1      22.399  42.271  36.706  1.00  0.00     0.074 C 
HETATM   18  S2  UNL     1      20.766  41.821  37.358  1.00  0.00    -0.167 SA
HETATM   19  C9  UNL     1      20.892  41.942  39.184  1.00  0.00     0.099 C 
ENDBRANCH  10  14
BRANCH   1  20
HETATM   20  N1  UNL     1      21.854  39.042  42.578  1.00  0.00    -0.234 N 
ATOM     21  H12 UNL     1      21.890  38.437  43.397  1.00  0.00     0.174 HD
ATOM     22  H11 UNL     1      21.848  38.630  41.645  1.00  0.00     0.174 HD
ENDBRANCH   1  20
TORSDOF 2
ENDMDL
MODEL 4
REMARK VINA RESULT: -6.005545848      1.162      2.772
REMARK  2 active torsions:
REMARK  status: ('A' for Active; 'I' for Inactive)
REMARK    1  A    between atoms: N1_1  and  C1_4 
REMARK    2  A    between atoms: N4_13  and  C5_14 
ROOT
HETATM    1  C1  UNL     1      21.906  44.852  42.741  1.00  0.00     0.678 A 
HETATM    2  N2  UNL     1      21.863  44.311  43.972  1.00  0.00    -0.179 N 
ATOM      3  H2  UNL     1      21.798  44.908  44.796  1.00  0.00     0.185 HD
HETATM    4  C2  UNL     1      21.907  42.967  44.103  1.00  0.00     0.147 A 
HETATM    5  S1  UNL     1      21.856  42.292  45.571  1.00  0.00    -0.057 SA
HETATM    6  C3  UNL     1      21.996  42.157  43.001  1.00  0.00     0.117 A 
HETATM    7  N3  UNL     1      22.052  40.819  42.893  1.00  0.00    -0.347 N 
ATOM      8  H3  UNL     1      22.037  40.143  43.657  1.00  0.00     0.167 HD
HETATM    9  C4  UNL     1      22.131  40.548  41.577  1.00  0.00     0.185 A 
HETATM   10  N4  UNL     1      22.124  41.700  40.867  1.00  0.00    -0.321 N 
HETATM   11  C10 UNL     1      22.040  42.718  41.733  1.00  0.00     0.154 A 
HETATM   12  N5  UNL     1      21.993  44.054  41.665  1.00  0.00    -0.174 N 
ATOM     13  H5  UNL     1      22.025  44.490  40.743  1.00  0.00     0.186 HD
ENDROOT
BRANCH  10  14
HETATM   14  C5  UNL     1      22.193  41.858  39.426  1.00  0.00     0.101 C 
HETATM   15  C6  UNL     1      20.800  41.815  38.891  1.00  0.00     0.027 C 
HETATM   16  C7  UNL     1      20.732  41.717  37.397  1.00  0.00     0.012 C 
HETATM   17  C8  UNL     1      21.330  42.888  36.683  1.00  0.00     0.074 C 
HETATM   18  S2  UNL     1      22.962  43.343  37.334  1.00  0.00    -0.167 SA
HETATM   19  C9  UNL     1      22.836  43.224  39.161  1.00  0.00     0.099 C 
ENDBRANCH  10  14
BRANCH   1  20
HETATM   20  N1  UNL     1      21.867  46.130  42.548  1.00  0.00    -0.234 N 
ATOM     21  H12 UNL     1      22.082  46.740  43.337  1.00  0.00     0.174 HD
ATOM     22  H11 UNL     1      21.631  46.536  41.644  1.00  0.00     0.174 HD
ENDBRANCH   1  20
TORSDOF 2
ENDMDL
MODEL 5
REMARK VINA RESULT: -5.642154905      1.916      5.548
REMARK  2 active torsions:
REMARK  status: ('A' for Active; 'I' for Inactive)
REMARK    1  A    between atoms: N1_1  and  C1_4 
REMARK    2  A    between atoms: N4_13  and  C5_14 
ROOT
HETATM    1  C1  UNL     1      21.307  42.219  37.114  1.00  0.00     0.678 A 
HETATM    2  N2  UNL     1      22.174  43.004  36.452  1.00  0.00    -0.179 N 
ATOM      3  H2  UNL     1      22.113  43.101  35.438  1.00  0.00     0.185 HD
HETATM    4  C2  UNL     1      23.129  43.663  37.145  1.00  0.00     0.147 A 
HETATM    5  S1  UNL     1      24.183  44.613  36.372  1.00  0.00    -0.057 SA
HETATM    6  C3  UNL     1      23.220  43.537  38.507  1.00  0.00     0.117 A 
HETATM    7  N3  UNL     1      24.073  44.088  39.387  1.00  0.00    -0.347 N 
ATOM      8  H3  UNL     1      24.839  44.728  39.178  1.00  0.00     0.167 HD
HETATM    9  C4  UNL     1      23.714  43.627  40.600  1.00  0.00     0.185 A 
HETATM   10  N4  UNL     1      22.651  42.798  40.484  1.00  0.00    -0.321 N 
HETATM   11  C10 UNL     1      22.324  42.726  39.187  1.00  0.00     0.154 A 
HETATM   12  N5  UNL     1      21.401  42.099  38.449  1.00  0.00    -0.174 N 
ATOM     13  H5  UNL     1      20.730  41.496  38.926  1.00  0.00     0.186 HD
ENDROOT
BRANCH  10  14
HETATM   14  C5  UNL     1      21.955  42.091  41.542  1.00  0.00     0.101 C 
HETATM   15  C6  UNL     1      22.313  40.645  41.442  1.00  0.00     0.027 C 
HETATM   16  C7  UNL     1      21.476  39.756  42.313  1.00  0.00     0.012 C 
HETATM   17  C8  UNL     1      21.613  40.036  43.777  1.00  0.00     0.074 C 
HETATM   18  S2  UNL     1      21.487  41.805  44.163  1.00  0.00    -0.167 SA
HETATM   19  C9  UNL     1      22.446  42.683  42.869  1.00  0.00     0.099 C 
ENDBRANCH  10  14
BRANCH   1  20
HETATM   20  N1  UNL     1      20.371  41.562  36.510  1.00  0.00    -0.234 N 
ATOM     21  H12 UNL     1      20.369  41.561  35.490  1.00  0.00     0.174 HD
ATOM     22  H11 UNL     1      19.647  41.056  37.018  1.00  0.00     0.174 HD
ENDBRANCH   1  20
TORSDOF 2
ENDMDL
