MODEL 1
REMARK VINA RESULT: -4.692240544      0.000      0.000
REMARK  3 active torsions:
REMARK  status: ('A' for Active; 'I' for Inactive)
REMARK    1  A    between atoms: C6_7  and  N1_8 
REMARK    2  A    between atoms: N3_15  and  N4_16 
REMARK    3  A    between atoms: N4_16  and  C8_18 
ROOT
HETATM    1  C1  UNL     1      19.166  40.566  36.088  1.00  0.00     0.056 C 
HETATM    2  C2  UNL     1      20.288  41.352  36.690  1.00  0.00    -0.018 A 
HETATM    3  C3  UNL     1      20.770  41.287  37.966  1.00  0.00     0.047 A 
HETATM    4  C4  UNL     1      21.807  42.105  38.298  1.00  0.00     0.080 A 
HETATM    5  C5  UNL     1      22.261  42.914  37.299  1.00  0.00     0.077 A 
HETATM    6  S1  UNL     1      21.265  42.531  35.968  1.00  0.00    -0.089 SA
HETATM    7  C6  UNL     1      23.325  43.811  37.462  1.00  0.00     0.120 A 
HETATM    8  N2  UNL     1      23.936  43.893  38.639  1.00  0.00    -0.317 N 
ATOM      9  H2  UNL     1      24.714  44.535  38.788  1.00  0.00     0.170 HD
HETATM   10  C7  UNL     1      23.480  43.079  39.647  1.00  0.00     0.199 A 
HETATM   11  S2  UNL     1      24.329  43.336  41.054  1.00  0.00    -0.039 SA
HETATM   12  N3  UNL     1      22.480  42.221  39.532  1.00  0.00    -0.232 N 
ENDROOT
BRANCH  12  13
HETATM   13  N4  UNL     1      22.029  41.454  40.573  1.00  0.00    -0.318 N 
ATOM     14  H4  UNL     1      22.515  40.557  40.567  1.00  0.00     0.181 HD
BRANCH  13  15
HETATM   15  C8  UNL     1      21.122  41.486  41.646  1.00  0.00     0.035 C 
HETATM   16  C9  UNL     1      21.637  42.092  42.925  1.00  0.00     0.039 C 
HETATM   17  C10 UNL     1      20.971  39.946  42.086  1.00  0.00     0.039 C 
HETATM   18  C11 UNL     1      19.716  41.886  41.399  1.00  0.00     0.039 C 
ENDBRANCH  13  15
ENDBRANCH  12  13
BRANCH   7  19
HETATM   19  N1  UNL     1      23.634  44.504  36.427  1.00  0.00    -0.384 N 
ATOM     20  H12 UNL     1      23.654  44.145  35.473  1.00  0.00     0.157 HD
ATOM     21  H11 UNL     1      23.872  45.480  36.603  1.00  0.00     0.157 HD
ENDBRANCH   7  19
TORSDOF 3
ENDMDL
MODEL 2
REMARK VINA RESULT: -4.677632348      2.323      3.809
REMARK  3 active torsions:
REMARK  status: ('A' for Active; 'I' for Inactive)
REMARK    1  A    between atoms: C6_7  and  N1_8 
REMARK    2  A    between atoms: N3_15  and  N4_16 
REMARK    3  A    between atoms: N4_16  and  C8_18 
ROOT
HETATM    1  C1  UNL     1      24.594  44.627  36.130  1.00  0.00     0.056 C 
HETATM    2  C2  UNL     1      23.470  43.839  36.725  1.00  0.00    -0.018 A 
HETATM    3  C3  UNL     1      22.989  43.894  38.002  1.00  0.00     0.047 A 
HETATM    4  C4  UNL     1      21.949  43.077  38.327  1.00  0.00     0.080 A 
HETATM    5  C5  UNL     1      21.492  42.279  37.322  1.00  0.00     0.077 A 
HETATM    6  S1  UNL     1      22.488  42.671  35.993  1.00  0.00    -0.089 SA
HETATM    7  C6  UNL     1      20.425  41.385  37.477  1.00  0.00     0.120 A 
HETATM    8  N2  UNL     1      19.814  41.294  38.653  1.00  0.00    -0.317 N 
ATOM      9  H2  UNL     1      19.033  40.654  38.797  1.00  0.00     0.170 HD
HETATM   10  C7  UNL     1      20.274  42.097  39.669  1.00  0.00     0.199 A 
HETATM   11  S2  UNL     1      19.425  41.829  41.074  1.00  0.00    -0.039 SA
HETATM   12  N3  UNL     1      21.277  42.952  39.561  1.00  0.00    -0.232 N 
ENDROOT
BRANCH  12  13
HETATM   13  N4  UNL     1      21.732  43.707  40.608  1.00  0.00    -0.318 N 
ATOM     14  H4  UNL     1      21.255  44.609  40.606  1.00  0.00     0.181 HD
BRANCH  13  15
HETATM   15  C8  UNL     1      22.634  43.659  41.685  1.00  0.00     0.035 C 
HETATM   16  C9  UNL     1      22.118  43.022  42.948  1.00  0.00     0.039 C 
HETATM   17  C10 UNL     1      22.772  45.190  42.158  1.00  0.00     0.039 C 
HETATM   18  C11 UNL     1      24.044  43.274  41.436  1.00  0.00     0.039 C 
ENDBRANCH  13  15
ENDBRANCH  12  13
BRANCH   7  19
HETATM   19  N1  UNL     1      20.112  40.703  36.436  1.00  0.00    -0.384 N 
ATOM     20  H12 UNL     1      20.777  40.373  35.736  1.00  0.00     0.157 HD
ATOM     21  H11 UNL     1      19.120  40.491  36.327  1.00  0.00     0.157 HD
ENDBRANCH   7  19
TORSDOF 3
ENDMDL
MODEL 3
REMARK VINA RESULT: -4.640020641      7.055     10.187
REMARK  3 active torsions:
REMARK  status: ('A' for Active; 'I' for Inactive)
REMARK    1  A    between atoms: C6_7  and  N1_8 
REMARK    2  A    between atoms: N3_15  and  N4_16 
REMARK    3  A    between atoms: N4_16  and  C8_18 
ROOT
HETATM    1  C1  UNL     1      24.958  45.308  35.750  1.00  0.00     0.056 C 
HETATM    2  C2  UNL     1      25.601  44.471  34.691  1.00  0.00    -0.018 A 
HETATM    3  C3  UNL     1      26.667  44.791  33.898  1.00  0.00     0.047 A 
HETATM    4  C4  UNL     1      27.086  43.866  32.991  1.00  0.00     0.080 A 
HETATM    5  C5  UNL     1      26.385  42.698  32.975  1.00  0.00     0.077 A 
HETATM    6  S1  UNL     1      25.197  42.908  34.181  1.00  0.00    -0.089 SA
HETATM    7  C6  UNL     1      26.685  41.635  32.114  1.00  0.00     0.120 A 
HETATM    8  N2  UNL     1      27.699  41.749  31.262  1.00  0.00    -0.317 N 
ATOM      9  H2  UNL     1      27.942  40.992  30.624  1.00  0.00     0.170 HD
HETATM   10  C7  UNL     1      28.407  42.926  31.276  1.00  0.00     0.199 A 
HETATM   11  S2  UNL     1      29.611  42.914  30.128  1.00  0.00    -0.039 SA
HETATM   12  N3  UNL     1      28.154  43.951  32.073  1.00  0.00    -0.232 N 
ENDROOT
BRANCH  12  13
HETATM   13  N4  UNL     1      28.859  45.123  32.030  1.00  0.00    -0.318 N 
ATOM     14  H4  UNL     1      29.665  45.057  32.653  1.00  0.00     0.181 HD
BRANCH  13  15
HETATM   15  C8  UNL     1      28.847  46.388  31.417  1.00  0.00     0.035 C 
HETATM   16  C9  UNL     1      27.581  46.755  30.689  1.00  0.00     0.039 C 
HETATM   17  C10 UNL     1      29.869  46.242  30.183  1.00  0.00     0.039 C 
HETATM   18  C11 UNL     1      29.396  47.556  32.147  1.00  0.00     0.039 C 
ENDBRANCH  13  15
ENDBRANCH  12  13
BRANCH   7  19
HETATM   19  N1  UNL     1      25.932  40.601  32.219  1.00  0.00    -0.384 N 
ATOM     20  H12 UNL     1      25.499  40.284  33.087  1.00  0.00     0.157 HD
ATOM     21  H11 UNL     1      25.773  40.079  31.358  1.00  0.00     0.157 HD
ENDBRANCH   7  19
TORSDOF 3
ENDMDL
MODEL 4
REMARK VINA RESULT: -4.639616351      6.673      9.841
REMARK  3 active torsions:
REMARK  status: ('A' for Active; 'I' for Inactive)
REMARK    1  A    between atoms: C6_7  and  N1_8 
REMARK    2  A    between atoms: N3_15  and  N4_16 
REMARK    3  A    between atoms: N4_16  and  C8_18 
ROOT
HETATM    1  C1  UNL     1      18.778  39.908  35.788  1.00  0.00     0.056 C 
HETATM    2  C2  UNL     1      18.129  40.737  34.725  1.00  0.00    -0.018 A 
HETATM    3  C3  UNL     1      17.074  40.401  33.925  1.00  0.00     0.047 A 
HETATM    4  C4  UNL     1      16.646  41.322  33.017  1.00  0.00     0.080 A 
HETATM    5  C5  UNL     1      17.329  42.500  33.007  1.00  0.00     0.077 A 
HETATM    6  S1  UNL     1      18.512  42.306  34.220  1.00  0.00    -0.089 SA
HETATM    7  C6  UNL     1      17.018  43.560  32.146  1.00  0.00     0.120 A 
HETATM    8  N2  UNL     1      16.011  43.432  31.288  1.00  0.00    -0.317 N 
ATOM      9  H2  UNL     1      15.761  44.185  30.649  1.00  0.00     0.170 HD
HETATM   10  C7  UNL     1      15.322  42.243  31.295  1.00  0.00     0.199 A 
HETATM   11  S2  UNL     1      14.126  42.239  30.140  1.00  0.00    -0.039 SA
HETATM   12  N3  UNL     1      15.585  41.222  32.092  1.00  0.00    -0.232 N 
ENDROOT
BRANCH  12  13
HETATM   13  N4  UNL     1      14.899  40.038  32.043  1.00  0.00    -0.318 N 
ATOM     14  H4  UNL     1      14.102  40.083  32.679  1.00  0.00     0.181 HD
BRANCH  13  15
HETATM   15  C8  UNL     1      14.922  38.783  31.411  1.00  0.00     0.035 C 
HETATM   16  C9  UNL     1      16.193  38.436  30.682  1.00  0.00     0.039 C 
HETATM   17  C10 UNL     1      13.903  38.940  30.176  1.00  0.00     0.039 C 
HETATM   18  C11 UNL     1      14.379  37.600  32.121  1.00  0.00     0.039 C 
ENDBRANCH  13  15
ENDBRANCH  12  13
BRANCH   7  19
HETATM   19  N1  UNL     1      17.754  44.605  32.258  1.00  0.00    -0.384 N 
ATOM     20  H12 UNL     1      18.667  44.722  31.819  1.00  0.00     0.157 HD
ATOM     21  H11 UNL     1      17.372  45.356  32.833  1.00  0.00     0.157 HD
ENDBRANCH   7  19
TORSDOF 3
ENDMDL
MODEL 5
REMARK VINA RESULT: -4.631686084      0.936      1.514
REMARK  3 active torsions:
REMARK  status: ('A' for Active; 'I' for Inactive)
REMARK    1  A    between atoms: C6_7  and  N1_8 
REMARK    2  A    between atoms: N3_15  and  N4_16 
REMARK    3  A    between atoms: N4_16  and  C8_18 
ROOT
HETATM    1  C1  UNL     1      19.008  40.802  35.773  1.00  0.00     0.056 C 
HETATM    2  C2  UNL     1      20.168  41.546  36.357  1.00  0.00    -0.018 A 
HETATM    3  C3  UNL     1      20.497  41.687  37.675  1.00  0.00     0.047 A 
HETATM    4  C4  UNL     1      21.607  42.416  37.979  1.00  0.00     0.080 A 
HETATM    5  C5  UNL     1      22.281  42.933  36.914  1.00  0.00     0.077 A 
HETATM    6  S1  UNL     1      21.385  42.412  35.560  1.00  0.00    -0.089 SA
HETATM    7  C6  UNL     1      23.447  43.699  37.042  1.00  0.00     0.120 A 
HETATM    8  N2  UNL     1      23.937  43.946  38.252  1.00  0.00    -0.317 N 
ATOM      9  H2  UNL     1      24.784  44.500  38.378  1.00  0.00     0.170 HD
HETATM   10  C7  UNL     1      23.258  43.427  39.328  1.00  0.00     0.199 A 
HETATM   11  S2  UNL     1      23.984  43.862  40.760  1.00  0.00    -0.039 SA
HETATM   12  N3  UNL     1      22.156  42.700  39.247  1.00  0.00    -0.232 N 
ENDROOT
BRANCH  12  13
HETATM   13  N4  UNL     1      21.486  42.232  40.345  1.00  0.00    -0.318 N 
ATOM     14  H4  UNL     1      21.774  41.272  40.533  1.00  0.00     0.181 HD
BRANCH  13  15
HETATM   15  C8  UNL     1      20.536  42.630  41.301  1.00  0.00     0.035 C 
HETATM   16  C9  UNL     1      19.138  42.111  41.095  1.00  0.00     0.039 C 
HETATM   17  C10 UNL     1      20.317  44.198  41.017  1.00  0.00     0.039 C 
HETATM   18  C11 UNL     1      20.899  42.616  42.738  1.00  0.00     0.039 C 
ENDBRANCH  13  15
ENDBRANCH  12  13
BRANCH   7  19
HETATM   19  N1  UNL     1      23.966  44.114  35.944  1.00  0.00    -0.384 N 
ATOM     20  H12 UNL     1      24.968  44.166  35.758  1.00  0.00     0.157 HD
ATOM     21  H11 UNL     1      23.305  44.407  35.225  1.00  0.00     0.157 HD
ENDBRANCH   7  19
TORSDOF 3
ENDMDL
