MODEL 1
REMARK VINA RESULT: -8.408898393      0.000      0.000
REMARK  4 active torsions:
REMARK  status: ('A' for Active; 'I' for Inactive)
REMARK    1  A    between atoms: C5_5  and  S1_6 
REMARK    2  A    between atoms: S1_6  and  C6_7 
REMARK    3  A    between atoms: N1_14  and  N2_15 
REMARK    4  A    between atoms: N2_15  and  O3_17 
ROOT
HETATM    1  C6  UNL     1      11.166  41.618  57.818  1.00  0.00     0.181 C 
HETATM    2  C7  UNL     1      10.267  42.721  57.382  1.00  0.00     0.278 C 
HETATM    3  O1  UNL     1       9.379  43.162  58.152  1.00  0.00    -0.264 OA
HETATM    4  O2  UNL     1      10.427  43.264  56.097  1.00  0.00    -0.287 OA
HETATM    5  C8  UNL     1      11.734  43.500  55.571  1.00  0.00     0.154 C 
HETATM    6  C9  UNL     1      11.746  43.378  54.059  1.00  0.00     0.072 C 
HETATM    7  C10 UNL     1      12.052  44.953  55.877  1.00  0.00     0.072 C 
HETATM    8  N1  UNL     1      12.670  42.591  56.177  1.00  0.00    -0.263 N 
HETATM    9  C11 UNL     1      12.580  42.097  57.522  1.00  0.00     0.068 C 
HETATM   10  C12 UNL     1      12.930  43.144  58.557  1.00  0.00     0.041 C 
HETATM   11  C13 UNL     1      13.546  40.952  57.731  1.00  0.00     0.041 C 
ENDROOT
BRANCH   1  12
HETATM   12  S1  UNL     1      10.990  41.219  59.556  1.00  0.00    -0.112 SA
BRANCH  12  13
HETATM   13  C5  UNL     1       9.818  39.932  59.875  1.00  0.00     0.001 A 
HETATM   14  C4  UNL     1       9.995  39.155  61.027  1.00  0.00     0.019 A 
HETATM   15  C3  UNL     1       9.119  38.134  61.321  1.00  0.00     0.008 A 
HETATM   16  C2  UNL     1       8.044  37.830  60.514  1.00  0.00    -0.062 A 
HETATM   17  C1  UNL     1       7.100  36.722  60.842  1.00  0.00     0.048 C 
HETATM   18  C15 UNL     1       7.878  38.601  59.383  1.00  0.00     0.008 A 
HETATM   19  C14 UNL     1       8.749  39.642  59.057  1.00  0.00     0.019 A 
ENDBRANCH  12  13
ENDBRANCH   1  12
BRANCH   8  20
HETATM   20  N2  UNL     1      13.741  42.158  55.404  1.00  0.00    -0.209 N 
ATOM     21  H2  UNL     1      13.642  41.291  54.876  1.00  0.00     0.215 HD
BRANCH  20  22
HETATM   22  O3  UNL     1      14.820  42.782  55.325  1.00  0.00    -0.274 OA
ATOM     23  H3  UNL     1      15.654  42.410  55.584  1.00  0.00     0.246 HD
ENDBRANCH  20  22
ENDBRANCH   8  20
TORSDOF 4
ENDMDL
MODEL 2
REMARK VINA RESULT: -8.387527991      0.196      1.050
REMARK  4 active torsions:
REMARK  status: ('A' for Active; 'I' for Inactive)
REMARK    1  A    between atoms: C5_5  and  S1_6 
REMARK    2  A    between atoms: S1_6  and  C6_7 
REMARK    3  A    between atoms: N1_14  and  N2_15 
REMARK    4  A    between atoms: N2_15  and  O3_17 
ROOT
HETATM    1  C6  UNL     1      11.204  41.564  58.005  1.00  0.00     0.181 C 
HETATM    2  C7  UNL     1      10.285  42.651  57.572  1.00  0.00     0.278 C 
HETATM    3  O1  UNL     1       9.425  43.112  58.362  1.00  0.00    -0.264 OA
HETATM    4  O2  UNL     1      10.393  43.157  56.266  1.00  0.00    -0.287 OA
HETATM    5  C8  UNL     1      11.678  43.381  55.684  1.00  0.00     0.154 C 
HETATM    6  C9  UNL     1      11.632  43.215  54.176  1.00  0.00     0.072 C 
HETATM    7  C10 UNL     1      12.001  44.843  55.935  1.00  0.00     0.072 C 
HETATM    8  N1  UNL     1      12.640  42.493  56.279  1.00  0.00    -0.263 N 
HETATM    9  C11 UNL     1      12.604  42.039  57.640  1.00  0.00     0.068 C 
HETATM   10  C12 UNL     1      12.989  43.117  58.630  1.00  0.00     0.041 C 
HETATM   11  C13 UNL     1      13.582  40.903  57.845  1.00  0.00     0.041 C 
ENDROOT
BRANCH   1  12
HETATM   12  S1  UNL     1      11.097  41.216  59.759  1.00  0.00    -0.112 SA
BRANCH  12  13
HETATM   13  C5  UNL     1       9.979  39.903  60.156  1.00  0.00     0.001 A 
HETATM   14  C4  UNL     1       8.936  39.637  59.259  1.00  0.00     0.019 A 
HETATM   15  C3  UNL     1       8.030  38.633  59.521  1.00  0.00     0.008 A 
HETATM   16  C2  UNL     1       8.101  37.854  60.656  1.00  0.00    -0.062 A 
HETATM   17  C1  UNL     1       7.114  36.768  60.931  1.00  0.00     0.048 C 
HETATM   18  C15 UNL     1       9.131  38.124  61.532  1.00  0.00     0.008 A 
HETATM   19  C14 UNL     1      10.064  39.135  61.295  1.00  0.00     0.019 A 
ENDBRANCH  12  13
ENDBRANCH   1  12
BRANCH   8  20
HETATM   20  N2  UNL     1      13.682  42.041  55.478  1.00  0.00    -0.209 N 
ATOM     21  H2  UNL     1      13.577  41.146  55.000  1.00  0.00     0.215 HD
BRANCH  20  22
HETATM   22  O3  UNL     1      14.743  42.680  55.316  1.00  0.00    -0.274 OA
ATOM     23  H3  UNL     1      15.601  42.276  55.347  1.00  0.00     0.246 HD
ENDBRANCH  20  22
ENDBRANCH   8  20
TORSDOF 4
ENDMDL
MODEL 3
REMARK VINA RESULT: -8.315411152      1.312      1.887
REMARK  4 active torsions:
REMARK  status: ('A' for Active; 'I' for Inactive)
REMARK    1  A    between atoms: C5_5  and  S1_6 
REMARK    2  A    between atoms: S1_6  and  C6_7 
REMARK    3  A    between atoms: N1_14  and  N2_15 
REMARK    4  A    between atoms: N2_15  and  O3_17 
ROOT
HETATM    1  C6  UNL     1      11.594  41.980  56.983  1.00  0.00     0.181 C 
HETATM    2  C7  UNL     1      10.718  43.125  56.615  1.00  0.00     0.278 C 
HETATM    3  O1  UNL     1       9.662  43.351  57.255  1.00  0.00    -0.264 OA
HETATM    4  O2  UNL     1      11.089  43.952  55.542  1.00  0.00    -0.287 OA
HETATM    5  C8  UNL     1      12.452  44.342  55.371  1.00  0.00     0.154 C 
HETATM    6  C9  UNL     1      12.777  44.569  53.906  1.00  0.00     0.072 C 
HETATM    7  C10 UNL     1      12.588  45.696  56.045  1.00  0.00     0.072 C 
HETATM    8  N1  UNL     1      13.316  43.349  55.950  1.00  0.00    -0.263 N 
HETATM    9  C11 UNL     1      12.997  42.559  57.106  1.00  0.00     0.068 C 
HETATM   10  C12 UNL     1      13.049  43.352  58.393  1.00  0.00     0.041 C 
HETATM   11  C13 UNL     1      13.989  41.426  57.263  1.00  0.00     0.041 C 
ENDROOT
BRANCH   1  12
HETATM   12  S1  UNL     1      11.105  41.191  58.515  1.00  0.00    -0.112 SA
BRANCH  12  13
HETATM   13  C5  UNL     1       9.743  40.076  58.337  1.00  0.00     0.001 A 
HETATM   14  C4  UNL     1       9.327  39.751  57.039  1.00  0.00     0.019 A 
HETATM   15  C3  UNL     1       8.267  38.895  56.840  1.00  0.00     0.008 A 
HETATM   16  C2  UNL     1       7.573  38.326  57.886  1.00  0.00    -0.062 A 
HETATM   17  C1  UNL     1       6.425  37.399  57.659  1.00  0.00     0.048 C 
HETATM   18  C15 UNL     1       7.990  38.651  59.159  1.00  0.00     0.008 A 
HETATM   19  C14 UNL     1       9.060  39.515  59.393  1.00  0.00     0.019 A 
ENDBRANCH  12  13
ENDBRANCH   1  12
BRANCH   8  20
HETATM   20  N2  UNL     1      14.551  43.137  55.348  1.00  0.00    -0.209 N 
ATOM     21  H2  UNL     1      14.664  42.325  54.742  1.00  0.00     0.215 HD
BRANCH  20  22
HETATM   22  O3  UNL     1      15.529  43.896  55.516  1.00  0.00    -0.274 OA
ATOM     23  H3  UNL     1      16.261  43.939  54.912  1.00  0.00     0.246 HD
ENDBRANCH  20  22
ENDBRANCH   8  20
TORSDOF 4
ENDMDL
MODEL 4
REMARK VINA RESULT: -7.865805004      2.054      3.106
REMARK  4 active torsions:
REMARK  status: ('A' for Active; 'I' for Inactive)
REMARK    1  A    between atoms: C5_5  and  S1_6 
REMARK    2  A    between atoms: S1_6  and  C6_7 
REMARK    3  A    between atoms: N1_14  and  N2_15 
REMARK    4  A    between atoms: N2_15  and  O3_17 
ROOT
HETATM    1  C6  UNL     1      11.451  43.079  55.315  1.00  0.00     0.181 C 
HETATM    2  C7  UNL     1      11.245  43.510  53.905  1.00  0.00     0.278 C 
HETATM    3  O1  UNL     1      10.098  43.810  53.491  1.00  0.00    -0.264 OA
HETATM    4  O2  UNL     1      12.352  43.580  53.044  1.00  0.00    -0.287 OA
HETATM    5  C8  UNL     1      13.596  44.106  53.509  1.00  0.00     0.154 C 
HETATM    6  C9  UNL     1      14.766  43.472  52.779  1.00  0.00     0.072 C 
HETATM    7  C10 UNL     1      13.602  45.572  53.117  1.00  0.00     0.072 C 
HETATM    8  N1  UNL     1      13.700  43.914  54.930  1.00  0.00    -0.263 N 
HETATM    9  C11 UNL     1      12.593  43.935  55.844  1.00  0.00     0.068 C 
HETATM   10  C12 UNL     1      12.047  45.328  56.074  1.00  0.00     0.041 C 
HETATM   11  C13 UNL     1      13.016  43.415  57.201  1.00  0.00     0.041 C 
ENDROOT
BRANCH   1  12
HETATM   12  S1  UNL     1       9.989  43.287  56.329  1.00  0.00    -0.112 SA
BRANCH  12  13
HETATM   13  C5  UNL     1       9.618  41.880  57.337  1.00  0.00     0.001 A 
HETATM   14  C4  UNL     1       9.239  42.108  58.667  1.00  0.00     0.019 A 
HETATM   15  C3  UNL     1       8.947  41.051  59.499  1.00  0.00     0.008 A 
HETATM   16  C2  UNL     1       9.012  39.740  59.078  1.00  0.00    -0.062 A 
HETATM   17  C1  UNL     1       8.693  38.602  59.988  1.00  0.00     0.048 C 
HETATM   18  C15 UNL     1       9.385  39.527  57.768  1.00  0.00     0.008 A 
HETATM   19  C14 UNL     1       9.688  40.577  56.899  1.00  0.00     0.019 A 
ENDBRANCH  12  13
ENDBRANCH   1  12
BRANCH   8  20
HETATM   20  N2  UNL     1      14.966  43.692  55.460  1.00  0.00    -0.209 N 
ATOM     21  H2  UNL     1      15.404  42.783  55.311  1.00  0.00     0.215 HD
BRANCH  20  22
HETATM   22  O3  UNL     1      15.593  44.555  56.110  1.00  0.00    -0.274 OA
ATOM     23  H3  UNL     1      16.441  44.890  55.844  1.00  0.00     0.246 HD
ENDBRANCH  20  22
ENDBRANCH   8  20
TORSDOF 4
ENDMDL
MODEL 5
REMARK VINA RESULT: -7.817872223      2.045      2.383
REMARK  4 active torsions:
REMARK  status: ('A' for Active; 'I' for Inactive)
REMARK    1  A    between atoms: C5_5  and  S1_6 
REMARK    2  A    between atoms: S1_6  and  C6_7 
REMARK    3  A    between atoms: N1_14  and  N2_15 
REMARK    4  A    between atoms: N2_15  and  O3_17 
ROOT
HETATM    1  C6  UNL     1       9.991  41.492  56.596  1.00  0.00     0.181 C 
HETATM    2  C7  UNL     1       9.988  42.804  57.298  1.00  0.00     0.278 C 
HETATM    3  O1  UNL     1      10.310  42.880  58.509  1.00  0.00    -0.264 OA
HETATM    4  O2  UNL     1       9.623  43.958  56.586  1.00  0.00    -0.287 OA
HETATM    5  C8  UNL     1      10.078  44.154  55.246  1.00  0.00     0.154 C 
HETATM    6  C9  UNL     1       9.084  44.972  54.444  1.00  0.00     0.072 C 
HETATM    7  C10 UNL     1      11.333  45.002  55.351  1.00  0.00     0.072 C 
HETATM    8  N1  UNL     1      10.324  42.878  54.629  1.00  0.00    -0.263 N 
HETATM    9  C11 UNL     1      10.791  41.709  55.319  1.00  0.00     0.068 C 
HETATM   10  C12 UNL     1      12.251  41.800  55.709  1.00  0.00     0.041 C 
HETATM   11  C13 UNL     1      10.661  40.486  54.438  1.00  0.00     0.041 C 
ENDROOT
BRANCH   1  12
HETATM   12  S1  UNL     1      10.716  40.178  57.575  1.00  0.00    -0.112 SA
BRANCH  12  13
HETATM   13  C5  UNL     1       9.539  39.284  58.548  1.00  0.00     0.001 A 
HETATM   14  C4  UNL     1       9.859  39.024  59.887  1.00  0.00     0.019 A 
HETATM   15  C3  UNL     1       8.984  38.325  60.689  1.00  0.00     0.008 A 
HETATM   16  C2  UNL     1       7.775  37.854  60.226  1.00  0.00    -0.062 A 
HETATM   17  C1  UNL     1       6.834  37.097  61.104  1.00  0.00     0.048 C 
HETATM   18  C15 UNL     1       7.470  38.116  58.907  1.00  0.00     0.008 A 
HETATM   19  C14 UNL     1       8.334  38.821  58.069  1.00  0.00     0.019 A 
ENDBRANCH  12  13
ENDBRANCH   1  12
BRANCH   8  20
HETATM   20  N2  UNL     1      10.094  42.768  53.262  1.00  0.00    -0.209 N 
ATOM     21  H2  UNL     1       9.197  42.398  52.948  1.00  0.00     0.215 HD
BRANCH  20  22
HETATM   22  O3  UNL     1      10.935  43.101  52.401  1.00  0.00    -0.274 OA
ATOM     23  H3  UNL     1      10.696  43.473  51.561  1.00  0.00     0.246 HD
ENDBRANCH  20  22
ENDBRANCH   8  20
TORSDOF 4
ENDMDL
