MODEL 1
REMARK VINA RESULT: -8.624654257      0.000      0.000
REMARK  3 active torsions:
REMARK  status: ('A' for Active; 'I' for Inactive)
REMARK    1  A    between atoms: C3_5  and  C4_6 
REMARK    2  A    between atoms: C11_13  and  N2_14 
REMARK    3  A    between atoms: C15_18  and  C16_19 
ROOT
HETATM    1  C4  UNL     1      10.240  40.480  58.009  1.00  0.00     0.023 C 
HETATM    2  C5  UNL     1      11.491  39.737  57.569  1.00  0.00     0.022 C 
HETATM    3  C6  UNL     1      12.658  40.670  57.483  1.00  0.00    -0.011 C 
HETATM    4  C7  UNL     1      12.900  41.234  58.847  1.00  0.00     0.009 C 
HETATM    5  C8  UNL     1      11.667  41.998  59.257  1.00  0.00    -0.011 C 
HETATM    6  C9  UNL     1      10.466  41.120  59.387  1.00  0.00     0.022 C 
HETATM    7  C10 UNL     1      11.389  43.037  58.235  1.00  0.00     0.036 C 
HETATM    8  C11 UNL     1      11.086  42.437  56.841  1.00  0.00     0.039 C 
HETATM    9  C17 UNL     1      12.349  41.727  56.449  1.00  0.00     0.036 C 
HETATM   10  C18 UNL     1       9.898  41.558  57.021  1.00  0.00     0.049 C 
ENDROOT
BRANCH   1  11
HETATM   11  C3  UNL     1       9.159  39.490  58.221  1.00  0.00     0.112 A 
HETATM   12  N1  UNL     1       8.792  38.942  59.391  1.00  0.00    -0.327 N 
HETATM   13  C2  UNL     1       7.785  38.098  59.182  1.00  0.00     0.144 A 
ATOM     14  H1  UNL     1       9.218  39.142  60.296  1.00  0.00     0.169 HD
HETATM   15  C1  UNL     1       7.073  37.270  60.229  1.00  0.00     0.100 C 
HETATM   16  O2  UNL     1       7.528  38.117  57.912  1.00  0.00    -0.223 OA
HETATM   17  N3  UNL     1       8.344  38.948  57.313  1.00  0.00    -0.246 N 
ATOM     18  H3  UNL     1       8.354  39.150  56.313  1.00  0.00     0.196 HD
ENDBRANCH   1  11
BRANCH   8  19
HETATM   19  N2  UNL     1      10.835  43.604  55.983  1.00  0.00    -0.344 N 
HETATM   20  C12 UNL     1       9.720  43.803  55.214  1.00  0.00     0.092 A 
HETATM   21  C13 UNL     1       9.790  44.996  54.539  1.00  0.00     0.020 A 
HETATM   22  C14 UNL     1      10.994  45.541  54.913  1.00  0.00     0.034 A 
HETATM   23  C15 UNL     1      11.635  44.667  55.812  1.00  0.00     0.073 A 
BRANCH  23  24
HETATM   24  C16 UNL     1      12.931  44.921  56.427  1.00  0.00     0.288 C 
HETATM   25  O1  UNL     1      13.127  46.020  57.018  1.00  0.00    -0.300 OA
ENDBRANCH  23  24
ENDBRANCH   8  19
TORSDOF 3
ENDMDL
MODEL 2
REMARK VINA RESULT: -8.401144840      1.939      6.174
REMARK  3 active torsions:
REMARK  status: ('A' for Active; 'I' for Inactive)
REMARK    1  A    between atoms: C3_5  and  C4_6 
REMARK    2  A    between atoms: C11_13  and  N2_14 
REMARK    3  A    between atoms: C15_18  and  C16_19 
ROOT
HETATM    1  C4  UNL     1      10.393  41.997  57.070  1.00  0.00     0.023 C 
HETATM    2  C5  UNL     1      10.895  42.824  58.242  1.00  0.00     0.022 C 
HETATM    3  C6  UNL     1      11.441  41.939  59.319  1.00  0.00    -0.011 C 
HETATM    4  C7  UNL     1      12.596  41.177  58.751  1.00  0.00     0.009 C 
HETATM    5  C8  UNL     1      12.078  40.335  57.612  1.00  0.00    -0.011 C 
HETATM    6  C9  UNL     1      11.541  41.158  56.489  1.00  0.00     0.022 C 
HETATM    7  C10 UNL     1      10.994  39.460  58.123  1.00  0.00     0.036 C 
HETATM    8  C11 UNL     1       9.782  40.260  58.657  1.00  0.00     0.039 C 
HETATM    9  C17 UNL     1      10.326  41.047  59.814  1.00  0.00     0.036 C 
HETATM   10  C18 UNL     1       9.292  41.077  57.513  1.00  0.00     0.049 C 
ENDROOT
BRANCH   1  11
HETATM   11  C3  UNL     1      10.006  42.921  55.979  1.00  0.00     0.112 A 
HETATM   12  N1  UNL     1       9.556  44.179  56.115  1.00  0.00    -0.327 N 
HETATM   13  C2  UNL     1       9.314  44.691  54.911  1.00  0.00     0.144 A 
ATOM     14  H1  UNL     1       9.422  44.666  57.002  1.00  0.00     0.169 HD
HETATM   15  C1  UNL     1       8.795  46.079  54.611  1.00  0.00     0.100 C 
HETATM   16  O2  UNL     1       9.605  43.774  54.042  1.00  0.00    -0.223 OA
HETATM   17  N3  UNL     1      10.023  42.699  54.662  1.00  0.00    -0.246 N 
ATOM     18  H3  UNL     1      10.316  41.832  54.212  1.00  0.00     0.196 HD
ENDBRANCH   1  11
BRANCH   8  19
HETATM   19  N2  UNL     1       8.829  39.235  59.104  1.00  0.00    -0.344 N 
HETATM   20  C12 UNL     1       7.753  38.781  58.390  1.00  0.00     0.092 A 
HETATM   21  C13 UNL     1       7.068  37.815  59.085  1.00  0.00     0.020 A 
HETATM   22  C14 UNL     1       7.756  37.678  60.265  1.00  0.00     0.034 A 
HETATM   23  C15 UNL     1       8.850  38.564  60.266  1.00  0.00     0.073 A 
BRANCH  23  24
HETATM   24  C16 UNL     1       9.810  38.689  61.355  1.00  0.00     0.288 C 
HETATM   25  O1  UNL     1       9.523  38.206  62.487  1.00  0.00    -0.300 OA
ENDBRANCH  23  24
ENDBRANCH   8  19
TORSDOF 3
ENDMDL
MODEL 3
REMARK VINA RESULT: -8.390708795      2.689      6.366
REMARK  3 active torsions:
REMARK  status: ('A' for Active; 'I' for Inactive)
REMARK    1  A    between atoms: C3_5  and  C4_6 
REMARK    2  A    between atoms: C11_13  and  N2_14 
REMARK    3  A    between atoms: C15_18  and  C16_19 
ROOT
HETATM    1  C4  UNL     1      10.278  40.603  56.722  1.00  0.00     0.023 C 
HETATM    2  C5  UNL     1       9.611  41.956  56.906  1.00  0.00     0.022 C 
HETATM    3  C6  UNL     1       9.501  42.299  58.359  1.00  0.00    -0.011 C 
HETATM    4  C7  UNL     1      10.884  42.374  58.923  1.00  0.00     0.009 C 
HETATM    5  C8  UNL     1      11.521  41.016  58.767  1.00  0.00    -0.011 C 
HETATM    6  C9  UNL     1      11.686  40.623  57.336  1.00  0.00     0.022 C 
HETATM    7  C10 UNL     1      10.667  40.009  59.443  1.00  0.00     0.036 C 
HETATM    8  C11 UNL     1       9.257  39.902  58.814  1.00  0.00     0.039 C 
HETATM    9  C17 UNL     1       8.640  41.253  59.031  1.00  0.00     0.036 C 
HETATM   10  C18 UNL     1       9.470  39.527  57.389  1.00  0.00     0.049 C 
ENDROOT
BRANCH   1  11
HETATM   11  C3  UNL     1      10.497  40.383  55.274  1.00  0.00     0.112 A 
HETATM   12  N1  UNL     1      11.537  40.820  54.545  1.00  0.00    -0.327 N 
HETATM   13  C2  UNL     1      11.384  40.426  53.283  1.00  0.00     0.144 A 
ATOM     14  H1  UNL     1      12.321  41.367  54.902  1.00  0.00     0.169 HD
HETATM   15  C1  UNL     1      12.326  40.704  52.133  1.00  0.00     0.100 C 
HETATM   16  O2  UNL     1      10.274  39.759  53.224  1.00  0.00    -0.223 OA
HETATM   17  N3  UNL     1       9.723  39.721  54.411  1.00  0.00    -0.246 N 
ATOM     18  H3  UNL     1       8.843  39.258  54.640  1.00  0.00     0.196 HD
ENDBRANCH   1  11
BRANCH   8  19
HETATM   19  N2  UNL     1       8.577  38.866  59.604  1.00  0.00    -0.344 N 
HETATM   20  C12 UNL     1       9.007  38.368  60.804  1.00  0.00     0.092 A 
HETATM   21  C13 UNL     1       8.141  37.417  61.285  1.00  0.00     0.020 A 
HETATM   22  C14 UNL     1       7.149  37.336  60.340  1.00  0.00     0.034 A 
HETATM   23  C15 UNL     1       7.429  38.241  59.299  1.00  0.00     0.073 A 
BRANCH  23  24
HETATM   24  C16 UNL     1       6.588  38.436  58.125  1.00  0.00     0.288 C 
HETATM   25  O1  UNL     1       5.352  38.189  58.207  1.00  0.00    -0.300 OA
ENDBRANCH  23  24
ENDBRANCH   8  19
TORSDOF 3
ENDMDL
MODEL 4
REMARK VINA RESULT: -8.331492993      1.945      2.364
REMARK  3 active torsions:
REMARK  status: ('A' for Active; 'I' for Inactive)
REMARK    1  A    between atoms: C3_5  and  C4_6 
REMARK    2  A    between atoms: C11_13  and  N2_14 
REMARK    3  A    between atoms: C15_18  and  C16_19 
ROOT
HETATM    1  C4  UNL     1       9.615  40.026  58.197  1.00  0.00     0.023 C 
HETATM    2  C5  UNL     1      10.962  39.363  57.958  1.00  0.00     0.022 C 
HETATM    3  C6  UNL     1      12.010  40.389  57.657  1.00  0.00    -0.011 C 
HETATM    4  C7  UNL     1      12.131  41.289  58.845  1.00  0.00     0.009 C 
HETATM    5  C8  UNL     1      10.799  41.967  59.049  1.00  0.00    -0.011 C 
HETATM    6  C9  UNL     1       9.710  41.001  59.380  1.00  0.00     0.022 C 
HETATM    7  C10 UNL     1      10.436  42.686  57.804  1.00  0.00     0.036 C 
HETATM    8  C11 UNL     1      10.260  41.736  56.594  1.00  0.00     0.039 C 
HETATM    9  C17 UNL     1      11.613  41.119  56.395  1.00  0.00     0.036 C 
HETATM   10  C18 UNL     1       9.181  40.783  56.975  1.00  0.00     0.049 C 
ENDROOT
BRANCH   1  11
HETATM   11  C3  UNL     1       8.655  38.987  58.636  1.00  0.00     0.112 A 
HETATM   12  N1  UNL     1       8.495  38.519  59.885  1.00  0.00    -0.327 N 
HETATM   13  C2  UNL     1       7.539  37.593  59.887  1.00  0.00     0.144 A 
ATOM     14  H1  UNL     1       9.023  38.825  60.702  1.00  0.00     0.169 HD
HETATM   15  C1  UNL     1       7.044  36.813  61.084  1.00  0.00     0.100 C 
HETATM   16  O2  UNL     1       7.111  37.484  58.668  1.00  0.00    -0.223 OA
HETATM   17  N3  UNL     1       7.769  38.314  57.897  1.00  0.00    -0.246 N 
ATOM     18  H3  UNL     1       7.627  38.428  56.893  1.00  0.00     0.196 HD
ENDBRANCH   1  11
BRANCH   8  19
HETATM   19  N2  UNL     1       9.900  42.622  55.478  1.00  0.00    -0.344 N 
HETATM   20  C12 UNL     1       9.895  43.990  55.515  1.00  0.00     0.092 A 
HETATM   21  C13 UNL     1       9.520  44.517  54.304  1.00  0.00     0.020 A 
HETATM   22  C14 UNL     1       9.290  43.427  53.502  1.00  0.00     0.034 A 
HETATM   23  C15 UNL     1       9.530  42.253  54.242  1.00  0.00     0.073 A 
BRANCH  23  24
HETATM   24  C16 UNL     1       9.396  40.902  53.713  1.00  0.00     0.288 C 
HETATM   25  O1  UNL     1      10.393  40.357  53.159  1.00  0.00    -0.300 OA
ENDBRANCH  23  24
ENDBRANCH   8  19
TORSDOF 3
ENDMDL
MODEL 5
REMARK VINA RESULT: -8.282371147      1.628      6.264
REMARK  3 active torsions:
REMARK  status: ('A' for Active; 'I' for Inactive)
REMARK    1  A    between atoms: C3_5  and  C4_6 
REMARK    2  A    between atoms: C11_13  and  N2_14 
REMARK    3  A    between atoms: C15_18  and  C16_19 
ROOT
HETATM    1  C4  UNL     1      10.891  42.246  57.362  1.00  0.00     0.023 C 
HETATM    2  C5  UNL     1      11.474  42.804  58.650  1.00  0.00     0.022 C 
HETATM    3  C6  UNL     1      11.886  41.696  59.568  1.00  0.00    -0.011 C 
HETATM    4  C7  UNL     1      12.945  40.895  58.880  1.00  0.00     0.009 C 
HETATM    5  C8  UNL     1      12.345  40.318  57.623  1.00  0.00    -0.011 C 
HETATM    6  C9  UNL     1      11.934  41.372  56.649  1.00  0.00     0.022 C 
HETATM    7  C10 UNL     1      11.152  39.517  57.990  1.00  0.00     0.036 C 
HETATM    8  C11 UNL     1      10.041  40.368  58.651  1.00  0.00     0.039 C 
HETATM    9  C17 UNL     1      10.660  40.884  59.917  1.00  0.00     0.036 C 
HETATM   10  C18 UNL     1       9.676  41.413  57.656  1.00  0.00     0.049 C 
ENDROOT
BRANCH   1  11
HETATM   11  C3  UNL     1      10.641  43.374  56.436  1.00  0.00     0.112 A 
HETATM   12  N1  UNL     1      11.562  44.192  55.901  1.00  0.00    -0.327 N 
HETATM   13  C2  UNL     1      10.957  45.082  55.119  1.00  0.00     0.144 A 
ATOM     14  H1  UNL     1      12.568  44.139  56.068  1.00  0.00     0.169 HD
HETATM   15  C1  UNL     1      11.623  46.185  54.328  1.00  0.00     0.100 C 
HETATM   16  O2  UNL     1       9.687  44.827  55.163  1.00  0.00    -0.223 OA
HETATM   17  N3  UNL     1       9.473  43.802  55.950  1.00  0.00    -0.246 N 
ATOM     18  H3  UNL     1       8.561  43.396  56.159  1.00  0.00     0.196 HD
ENDBRANCH   1  11
BRANCH   8  19
HETATM   19  N2  UNL     1       8.960  39.413  58.930  1.00  0.00    -0.344 N 
HETATM   20  C12 UNL     1       7.905  39.138  58.102  1.00  0.00     0.092 A 
HETATM   21  C13 UNL     1       7.076  38.192  58.652  1.00  0.00     0.020 A 
HETATM   22  C14 UNL     1       7.650  37.882  59.860  1.00  0.00     0.034 A 
HETATM   23  C15 UNL     1       8.821  38.646  60.023  1.00  0.00     0.073 A 
BRANCH  23  24
HETATM   24  C16 UNL     1       9.698  38.576  61.184  1.00  0.00     0.288 C 
HETATM   25  O1  UNL     1       9.210  38.258  62.305  1.00  0.00    -0.300 OA
ENDBRANCH  23  24
ENDBRANCH   8  19
TORSDOF 3
ENDMDL
