MODEL 1
REMARK VINA RESULT: -5.079790411      0.000      0.000
REMARK  3 active torsions:
REMARK  status: ('A' for Active; 'I' for Inactive)
REMARK    1  A    between atoms: C2_2  and  C3_3 
REMARK    2  A    between atoms: C3_3  and  N1_4 
REMARK    3  A    between atoms: C12_15  and  N3_16 
ROOT
HETATM    1  N1  UNL     1     -64.294  36.211 -44.650  1.00  0.00    -0.354 N 
HETATM    2  C4  UNL     1     -63.360  36.413 -45.684  1.00  0.00     0.176 C 
HETATM    3  N2  UNL     1     -62.566  37.401 -45.695  1.00  0.00    -0.381 N 
ATOM      4  H2  UNL     1     -61.915  37.491 -46.475  1.00  0.00     0.160 HD
HETATM    5  C5  UNL     1     -62.538  38.395 -44.666  1.00  0.00     0.090 C 
HETATM    6  C6  UNL     1     -62.385  39.775 -45.252  1.00  0.00     0.026 C 
HETATM    7  C7  UNL     1     -62.964  40.895 -44.473  1.00  0.00     0.002 C 
HETATM    8  C8  UNL     1     -62.502  41.053 -43.072  1.00  0.00     0.000 C 
HETATM    9  C9  UNL     1     -63.073  40.141 -42.052  1.00  0.00     0.001 C 
HETATM   10  C10 UNL     1     -62.900  38.688 -42.285  1.00  0.00     0.010 C 
HETATM   11  C11 UNL     1     -63.580  38.323 -43.619  1.00  0.00     0.052 C 
HETATM   12  C12 UNL     1     -64.390  37.091 -43.510  1.00  0.00     0.205 C 
ENDROOT
BRANCH  12  13
HETATM   13  N3  UNL     1     -64.024  36.273 -42.359  1.00  0.00    -0.319 N 
HETATM   14  N4  UNL     1     -64.736  36.132 -41.366  1.00  0.00    -0.348 N 
ATOM     15  H42 UNL     1     -65.631  36.621 -41.364  1.00  0.00     0.176 HD
ATOM     16  H41 UNL     1     -64.480  35.561 -40.561  1.00  0.00     0.176 HD
ATOM     17  H3  UNL     1     -63.125  35.791 -42.379  1.00  0.00     0.182 HD
ENDBRANCH  12  13
BRANCH   1  18
HETATM   18  C3  UNL     1     -65.195  35.083 -44.718  1.00  0.00     0.125 C 
BRANCH  18  19
HETATM   19  C2  UNL     1     -64.789  34.110 -45.806  1.00  0.00     0.015 C 
HETATM   20  C1  UNL     1     -64.447  32.755 -45.245  1.00  0.00     0.006 C 
ENDBRANCH  18  19
ENDBRANCH   1  18
TORSDOF 3
ENDMDL
MODEL 2
REMARK VINA RESULT: -4.854109818      1.744      2.331
REMARK  3 active torsions:
REMARK  status: ('A' for Active; 'I' for Inactive)
REMARK    1  A    between atoms: C2_2  and  C3_3 
REMARK    2  A    between atoms: C3_3  and  N1_4 
REMARK    3  A    between atoms: C12_15  and  N3_16 
ROOT
HETATM    1  N1  UNL     1     -64.633  35.384 -44.211  1.00  0.00    -0.354 N 
HETATM    2  C4  UNL     1     -63.414  35.115 -43.560  1.00  0.00     0.176 C 
HETATM    3  N2  UNL     1     -62.880  35.937 -42.757  1.00  0.00    -0.381 N 
ATOM      4  H2  UNL     1     -61.994  35.684 -42.319  1.00  0.00     0.160 HD
HETATM    5  C5  UNL     1     -63.460  37.206 -42.434  1.00  0.00     0.090 C 
HETATM    6  C6  UNL     1     -62.407  38.283 -42.380  1.00  0.00     0.026 C 
HETATM    7  C7  UNL     1     -62.850  39.660 -42.702  1.00  0.00     0.002 C 
HETATM    8  C8  UNL     1     -63.966  40.217 -41.898  1.00  0.00     0.000 C 
HETATM    9  C9  UNL     1     -65.341  39.773 -42.229  1.00  0.00     0.001 C 
HETATM   10  C10 UNL     1     -65.602  38.315 -42.175  1.00  0.00     0.010 C 
HETATM   11  C11 UNL     1     -64.668  37.615 -43.181  1.00  0.00     0.052 C 
HETATM   12  C12 UNL     1     -65.381  36.597 -43.984  1.00  0.00     0.205 C 
ENDROOT
BRANCH  12  13
HETATM   13  N3  UNL     1     -66.634  36.170 -43.373  1.00  0.00    -0.319 N 
HETATM   14  N4  UNL     1     -67.737  36.319 -43.897  1.00  0.00    -0.348 N 
ATOM     15  H42 UNL     1     -67.759  36.769 -44.812  1.00  0.00     0.176 HD
ATOM     16  H41 UNL     1     -68.613  36.021 -43.469  1.00  0.00     0.176 HD
ATOM     17  H3  UNL     1     -66.593  35.722 -42.458  1.00  0.00     0.182 HD
ENDBRANCH  12  13
BRANCH   1  18
HETATM   18  C3  UNL     1     -65.169  34.418 -45.143  1.00  0.00     0.125 C 
BRANCH  18  19
HETATM   19  C2  UNL     1     -64.226  33.247 -45.334  1.00  0.00     0.015 C 
HETATM   20  C1  UNL     1     -64.914  31.929 -45.097  1.00  0.00     0.006 C 
ENDBRANCH  18  19
ENDBRANCH   1  18
TORSDOF 3
ENDMDL
MODEL 3
REMARK VINA RESULT: -4.763241972     12.854     14.928
REMARK  3 active torsions:
REMARK  status: ('A' for Active; 'I' for Inactive)
REMARK    1  A    between atoms: C2_2  and  C3_3 
REMARK    2  A    between atoms: C3_3  and  N1_4 
REMARK    3  A    between atoms: C12_15  and  N3_16 
ROOT
HETATM    1  N1  UNL     1     -69.508  26.520 -53.427  1.00  0.00    -0.354 N 
HETATM    2  C4  UNL     1     -69.020  25.640 -54.412  1.00  0.00     0.176 C 
HETATM    3  N2  UNL     1     -67.781  25.452 -54.598  1.00  0.00    -0.381 N 
ATOM      4  H2  UNL     1     -67.493  24.803 -55.330  1.00  0.00     0.160 HD
HETATM    5  C5  UNL     1     -66.766  26.107 -53.830  1.00  0.00     0.090 C 
HETATM    6  C6  UNL     1     -65.627  26.554 -54.711  1.00  0.00     0.026 C 
HETATM    7  C7  UNL     1     -64.865  27.742 -54.259  1.00  0.00     0.002 C 
HETATM    8  C8  UNL     1     -64.262  27.683 -52.904  1.00  0.00     0.000 C 
HETATM    9  C9  UNL     1     -65.156  27.901 -51.742  1.00  0.00     0.001 C 
HETATM   10  C10 UNL     1     -66.319  26.991 -51.616  1.00  0.00     0.010 C 
HETATM   11  C11 UNL     1     -67.198  27.146 -52.872  1.00  0.00     0.052 C 
HETATM   12  C12 UNL     1     -68.635  27.244 -52.534  1.00  0.00     0.205 C 
ENDROOT
BRANCH  12  13
HETATM   13  N3  UNL     1     -68.939  26.737 -51.202  1.00  0.00    -0.319 N 
HETATM   14  N4  UNL     1     -69.537  27.384 -50.343  1.00  0.00    -0.348 N 
ATOM     15  H42 UNL     1     -69.830  28.328 -50.594  1.00  0.00     0.176 HD
ATOM     16  H41 UNL     1     -69.749  27.029 -49.411  1.00  0.00     0.176 HD
ATOM     17  H3  UNL     1     -68.639  25.790 -50.968  1.00  0.00     0.182 HD
ENDBRANCH  12  13
BRANCH   1  18
HETATM   18  C3  UNL     1     -70.934  26.715 -53.293  1.00  0.00     0.125 C 
BRANCH  18  19
HETATM   19  C2  UNL     1     -71.668  25.394 -53.184  1.00  0.00     0.015 C 
HETATM   20  C1  UNL     1     -73.116  25.587 -52.815  1.00  0.00     0.006 C 
ENDBRANCH  18  19
ENDBRANCH   1  18
TORSDOF 3
ENDMDL
MODEL 4
REMARK VINA RESULT: -4.758163784      2.641      5.402
REMARK  3 active torsions:
REMARK  status: ('A' for Active; 'I' for Inactive)
REMARK    1  A    between atoms: C2_2  and  C3_3 
REMARK    2  A    between atoms: C3_3  and  N1_4 
REMARK    3  A    between atoms: C12_15  and  N3_16 
ROOT
HETATM    1  N1  UNL     1     -63.761  39.441 -42.394  1.00  0.00    -0.354 N 
HETATM    2  C4  UNL     1     -64.596  40.350 -41.716  1.00  0.00     0.176 C 
HETATM    3  N2  UNL     1     -65.798  40.075 -41.423  1.00  0.00    -0.381 N 
ATOM      4  H2  UNL     1     -66.352  40.778 -40.935  1.00  0.00     0.160 HD
HETATM    5  C5  UNL     1     -66.416  38.824 -41.746  1.00  0.00     0.090 C 
HETATM    6  C6  UNL     1     -67.825  39.030 -42.241  1.00  0.00     0.026 C 
HETATM    7  C7  UNL     1     -68.352  38.014 -43.183  1.00  0.00     0.002 C 
HETATM    8  C8  UNL     1     -68.340  36.601 -42.729  1.00  0.00     0.000 C 
HETATM    9  C9  UNL     1     -67.049  35.874 -42.777  1.00  0.00     0.001 C 
HETATM   10  C10 UNL     1     -65.922  36.465 -42.018  1.00  0.00     0.010 C 
HETATM   11  C11 UNL     1     -65.644  37.874 -42.575  1.00  0.00     0.052 C 
HETATM   12  C12 UNL     1     -64.198  38.119 -42.770  1.00  0.00     0.205 C 
ENDROOT
BRANCH  12  13
HETATM   13  N3  UNL     1     -63.361  37.202 -42.005  1.00  0.00    -0.319 N 
HETATM   14  N4  UNL     1     -62.567  36.414 -42.514  1.00  0.00    -0.348 N 
ATOM     15  H42 UNL     1     -62.502  36.414 -43.532  1.00  0.00     0.176 HD
ATOM     16  H41 UNL     1     -61.982  35.773 -41.979  1.00  0.00     0.176 HD
ATOM     17  H3  UNL     1     -63.439  37.216 -40.988  1.00  0.00     0.182 HD
ENDBRANCH  12  13
BRANCH   1  18
HETATM   18  C3  UNL     1     -62.410  39.834 -42.729  1.00  0.00     0.125 C 
BRANCH  18  19
HETATM   19  C2  UNL     1     -62.387  41.114 -43.539  1.00  0.00     0.015 C 
HETATM   20  C1  UNL     1     -62.748  40.871 -44.980  1.00  0.00     0.006 C 
ENDBRANCH  18  19
ENDBRANCH   1  18
TORSDOF 3
ENDMDL
MODEL 5
REMARK VINA RESULT: -4.747893344      2.749      4.684
REMARK  3 active torsions:
REMARK  status: ('A' for Active; 'I' for Inactive)
REMARK    1  A    between atoms: C2_2  and  C3_3 
REMARK    2  A    between atoms: C3_3  and  N1_4 
REMARK    3  A    between atoms: C12_15  and  N3_16 
ROOT
HETATM    1  N1  UNL     1     -64.199  35.826 -48.034  1.00  0.00    -0.354 N 
HETATM    2  C4  UNL     1     -64.870  34.768 -47.392  1.00  0.00     0.176 C 
HETATM    3  N2  UNL     1     -64.897  34.651 -46.130  1.00  0.00    -0.381 N 
ATOM      4  H2  UNL     1     -65.398  33.860 -45.727  1.00  0.00     0.160 HD
HETATM    5  C5  UNL     1     -64.257  35.575 -45.244  1.00  0.00     0.090 C 
HETATM    6  C6  UNL     1     -63.569  34.851 -44.115  1.00  0.00     0.026 C 
HETATM    7  C7  UNL     1     -62.385  35.519 -43.523  1.00  0.00     0.002 C 
HETATM    8  C8  UNL     1     -62.577  36.894 -42.997  1.00  0.00     0.000 C 
HETATM    9  C9  UNL     1     -62.627  38.005 -43.977  1.00  0.00     0.001 C 
HETATM   10  C10 UNL     1     -63.662  37.917 -45.033  1.00  0.00     0.010 C 
HETATM   11  C11 UNL     1     -63.420  36.633 -45.849  1.00  0.00     0.052 C 
HETATM   12  C12 UNL     1     -63.525  36.872 -47.305  1.00  0.00     0.205 C 
ENDROOT
BRANCH  12  13
HETATM   13  N3  UNL     1     -64.249  38.096 -47.626  1.00  0.00    -0.319 N 
HETATM   14  N4  UNL     1     -63.761  39.036 -48.251  1.00  0.00    -0.348 N 
ATOM     15  H42 UNL     1     -62.792  38.938 -48.554  1.00  0.00     0.176 HD
ATOM     16  H41 UNL     1     -64.268  39.892 -48.475  1.00  0.00     0.176 HD
ATOM     17  H3  UNL     1     -65.217  38.177 -47.315  1.00  0.00     0.182 HD
ENDBRANCH  12  13
BRANCH   1  18
HETATM   18  C3  UNL     1     -64.177  35.879 -49.479  1.00  0.00     0.125 C 
BRANCH  18  19
HETATM   19  C2  UNL     1     -62.760  35.893 -50.014  1.00  0.00     0.015 C 
HETATM   20  C1  UNL     1     -62.591  36.895 -51.126  1.00  0.00     0.006 C 
ENDBRANCH  18  19
ENDBRANCH   1  18
TORSDOF 3
ENDMDL
