MODEL 1
REMARK VINA RESULT: -4.653051585      0.000      0.000
REMARK  2 active torsions:
REMARK  status: ('A' for Active; 'I' for Inactive)
REMARK    1  A    between atoms: C2_2  and  O1_4 
REMARK    2  A    between atoms: O1_4  and  C4_5 
ROOT
HETATM    1  C4  UNL     1     -67.870  28.931 -51.349  1.00  0.00     0.141 C 
HETATM    2  C5  UNL     1     -67.052  28.306 -52.112  1.00  0.00    -0.022 C 
HETATM    3  C6  UNL     1     -65.657  27.896 -51.648  1.00  0.00     0.153 C 
HETATM    4  C7  UNL     1     -65.639  26.403 -51.513  1.00  0.00     0.037 C 
HETATM    5  C8  UNL     1     -66.780  25.689 -52.130  1.00  0.00     0.004 C 
HETATM    6  C9  UNL     1     -67.334  26.294 -53.373  1.00  0.00     0.012 C 
HETATM    7  C10 UNL     1     -67.027  27.776 -53.488  1.00  0.00     0.053 C 
HETATM    8  C11 UNL     1     -65.579  28.016 -53.868  1.00  0.00     0.062 C 
HETATM    9  C12 UNL     1     -65.578  29.210 -54.835  1.00  0.00     0.046 C 
HETATM   10  C13 UNL     1     -64.937  26.887 -54.591  1.00  0.00     0.046 C 
HETATM   11  O2  UNL     1     -64.900  28.314 -52.720  1.00  0.00    -0.370 OA
ENDROOT
BRANCH   1  12
HETATM   12  O1  UNL     1     -69.106  29.340 -51.627  1.00  0.00    -0.358 OA
BRANCH  12  13
HETATM   13  C2  UNL     1     -70.338  28.793 -51.425  1.00  0.00     0.119 C 
HETATM   14  C1  UNL     1     -70.726  28.105 -52.767  1.00  0.00     0.039 C 
HETATM   15  C3  UNL     1     -70.382  27.702 -50.376  1.00  0.00     0.039 C 
ENDBRANCH  12  13
ENDBRANCH   1  12
TORSDOF 2
ENDMDL
MODEL 2
REMARK VINA RESULT: -4.506925989      1.506      2.387
REMARK  2 active torsions:
REMARK  status: ('A' for Active; 'I' for Inactive)
REMARK    1  A    between atoms: C2_2  and  O1_4 
REMARK    2  A    between atoms: O1_4  and  C4_5 
ROOT
HETATM    1  C4  UNL     1     -68.347  26.404 -52.247  1.00  0.00     0.141 C 
HETATM    2  C5  UNL     1     -67.177  26.674 -52.692  1.00  0.00    -0.022 C 
HETATM    3  C6  UNL     1     -66.187  25.583 -53.094  1.00  0.00     0.153 C 
HETATM    4  C7  UNL     1     -66.042  25.624 -54.586  1.00  0.00     0.037 C 
HETATM    5  C8  UNL     1     -66.586  26.829 -55.251  1.00  0.00     0.004 C 
HETATM    6  C9  UNL     1     -66.487  28.101 -54.481  1.00  0.00     0.012 C 
HETATM    7  C10 UNL     1     -66.367  27.872 -52.987  1.00  0.00     0.053 C 
HETATM    8  C11 UNL     1     -64.981  27.388 -52.607  1.00  0.00     0.062 C 
HETATM    9  C12 UNL     1     -64.637  28.067 -51.272  1.00  0.00     0.046 C 
HETATM   10  C13 UNL     1     -63.911  27.774 -53.565  1.00  0.00     0.046 C 
HETATM   11  O2  UNL     1     -65.046  26.031 -52.464  1.00  0.00    -0.370 OA
ENDROOT
BRANCH   1  12
HETATM   12  O1  UNL     1     -69.299  27.253 -51.867  1.00  0.00    -0.358 OA
BRANCH  12  13
HETATM   13  C2  UNL     1     -69.583  27.868 -50.684  1.00  0.00     0.119 C 
HETATM   14  C1  UNL     1     -69.124  29.347 -50.849  1.00  0.00     0.039 C 
HETATM   15  C3  UNL     1     -71.057  27.931 -50.341  1.00  0.00     0.039 C 
ENDBRANCH  12  13
ENDBRANCH   1  12
TORSDOF 2
ENDMDL
MODEL 3
REMARK VINA RESULT: -4.427627622      1.400      1.546
REMARK  2 active torsions:
REMARK  status: ('A' for Active; 'I' for Inactive)
REMARK    1  A    between atoms: C2_2  and  O1_4 
REMARK    2  A    between atoms: O1_4  and  C4_5 
ROOT
HETATM    1  C4  UNL     1     -68.770  27.546 -52.005  1.00  0.00     0.141 C 
HETATM    2  C5  UNL     1     -67.589  27.672 -52.484  1.00  0.00    -0.022 C 
HETATM    3  C6  UNL     1     -66.489  28.434 -51.749  1.00  0.00     0.153 C 
HETATM    4  C7  UNL     1     -65.476  27.434 -51.277  1.00  0.00     0.037 C 
HETATM    5  C8  UNL     1     -65.585  26.082 -51.868  1.00  0.00     0.004 C 
HETATM    6  C9  UNL     1     -66.053  26.022 -53.281  1.00  0.00     0.012 C 
HETATM    7  C10 UNL     1     -66.845  27.251 -53.686  1.00  0.00     0.053 C 
HETATM    8  C11 UNL     1     -65.941  28.448 -53.905  1.00  0.00     0.062 C 
HETATM    9  C12 UNL     1     -66.517  29.211 -55.109  1.00  0.00     0.046 C 
HETATM   10  C13 UNL     1     -64.538  28.104 -54.256  1.00  0.00     0.046 C 
HETATM   11  O2  UNL     1     -65.992  29.211 -52.773  1.00  0.00    -0.370 OA
ENDROOT
BRANCH   1  12
HETATM   12  O1  UNL     1     -69.812  26.911 -52.537  1.00  0.00    -0.358 OA
BRANCH  12  13
HETATM   13  C2  UNL     1     -71.161  27.044 -52.392  1.00  0.00     0.119 C 
HETATM   14  C1  UNL     1     -71.775  25.682 -52.830  1.00  0.00     0.039 C 
HETATM   15  C3  UNL     1     -71.624  27.265 -50.968  1.00  0.00     0.039 C 
ENDBRANCH  12  13
ENDBRANCH   1  12
TORSDOF 2
ENDMDL
MODEL 4
REMARK VINA RESULT: -4.418779264      9.085     10.381
REMARK  2 active torsions:
REMARK  status: ('A' for Active; 'I' for Inactive)
REMARK    1  A    between atoms: C2_2  and  O1_4 
REMARK    2  A    between atoms: O1_4  and  C4_5 
ROOT
HETATM    1  C4  UNL     1     -64.642  34.613 -47.746  1.00  0.00     0.141 C 
HETATM    2  C5  UNL     1     -64.247  35.666 -48.358  1.00  0.00    -0.022 C 
HETATM    3  C6  UNL     1     -63.280  35.607 -49.538  1.00  0.00     0.153 C 
HETATM    4  C7  UNL     1     -64.044  35.977 -50.774  1.00  0.00     0.037 C 
HETATM    5  C8  UNL     1     -65.371  36.592 -50.549  1.00  0.00     0.004 C 
HETATM    6  C9  UNL     1     -65.495  37.453 -49.339  1.00  0.00     0.012 C 
HETATM    7  C10 UNL     1     -64.462  37.123 -48.279  1.00  0.00     0.053 C 
HETATM    8  C11 UNL     1     -63.089  37.643 -48.661  1.00  0.00     0.062 C 
HETATM    9  C12 UNL     1     -62.441  38.147 -47.361  1.00  0.00     0.046 C 
HETATM   10  C13 UNL     1     -63.106  38.795 -49.599  1.00  0.00     0.046 C 
HETATM   11  O2  UNL     1     -62.386  36.594 -49.183  1.00  0.00    -0.370 OA
ENDROOT
BRANCH   1  12
HETATM   12  O1  UNL     1     -65.477  34.525 -46.713  1.00  0.00    -0.358 OA
BRANCH  12  13
HETATM   13  C2  UNL     1     -65.295  34.298 -45.381  1.00  0.00     0.119 C 
HETATM   14  C1  UNL     1     -64.400  33.028 -45.282  1.00  0.00     0.039 C 
HETATM   15  C3  UNL     1     -64.542  35.390 -44.651  1.00  0.00     0.039 C 
ENDBRANCH  12  13
ENDBRANCH   1  12
TORSDOF 2
ENDMDL
MODEL 5
REMARK VINA RESULT: -4.368561366     10.882     12.530
REMARK  2 active torsions:
REMARK  status: ('A' for Active; 'I' for Inactive)
REMARK    1  A    between atoms: C2_2  and  O1_4 
REMARK    2  A    between atoms: O1_4  and  C4_5 
ROOT
HETATM    1  C4  UNL     1     -62.468  37.519 -47.126  1.00  0.00     0.141 C 
HETATM    2  C5  UNL     1     -63.051  37.356 -45.997  1.00  0.00    -0.022 C 
HETATM    3  C6  UNL     1     -62.936  38.376 -44.868  1.00  0.00     0.153 C 
HETATM    4  C7  UNL     1     -64.271  39.040 -44.713  1.00  0.00     0.037 C 
HETATM    5  C8  UNL     1     -65.401  38.380 -45.404  1.00  0.00     0.004 C 
HETATM    6  C9  UNL     1     -65.339  36.893 -45.484  1.00  0.00     0.012 C 
HETATM    7  C10 UNL     1     -63.925  36.359 -45.351  1.00  0.00     0.053 C 
HETATM    8  C11 UNL     1     -63.437  36.428 -43.917  1.00  0.00     0.062 C 
HETATM    9  C12 UNL     1     -62.609  35.155 -43.680  1.00  0.00     0.046 C 
HETATM   10  C13 UNL     1     -64.519  36.424 -42.898  1.00  0.00     0.046 C 
HETATM   11  O2  UNL     1     -62.659  37.546 -43.803  1.00  0.00    -0.370 OA
ENDROOT
BRANCH   1  12
HETATM   12  O1  UNL     1     -62.488  36.714 -48.187  1.00  0.00    -0.358 OA
BRANCH  12  13
HETATM   13  C2  UNL     1     -63.466  36.351 -49.064  1.00  0.00     0.119 C 
HETATM   14  C1  UNL     1     -62.791  36.316 -50.467  1.00  0.00     0.039 C 
HETATM   15  C3  UNL     1     -64.029  34.964 -48.845  1.00  0.00     0.039 C 
ENDBRANCH  12  13
ENDBRANCH   1  12
TORSDOF 2
ENDMDL
