MODEL 1
REMARK VINA RESULT: -6.577890157      0.000      0.000
REMARK  14 active torsions:
REMARK  status: ('A' for Active; 'I' for Inactive)
REMARK    1  A    between atoms: C3_4  and  O2_5 
REMARK    2  A    between atoms: O2_5  and  C4_6 
REMARK    3  A    between atoms: C6_8  and  O3_9 
REMARK    4  A    between atoms: O3_9  and  C7_10 
REMARK    5  A    between atoms: C8_12  and  C9_13 
REMARK    6  A    between atoms: C9_13  and  N1_14 
REMARK    7  A    between atoms: C10_18  and  O5_19 
REMARK    8  A    between atoms: C11_22  and  O7_23 
REMARK    9  A    between atoms: C12_25  and  N2_26 
REMARK   10  A    between atoms: C14_31  and  N3_32 
REMARK   11  A    between atoms: N3_32  and  N4_34 
REMARK   12  A    between atoms: N4_34  and  N5_35 
REMARK   13  A    between atoms: C15_38  and  N6_39 
REMARK   14  A    between atoms: C17_44  and  N7_45 
ROOT
HETATM    1  C4  UNL     1      27.872  -6.652  11.568  1.00  0.00     0.152 C 
HETATM    2  C5  UNL     1      28.154  -7.836  10.724  1.00  0.00     0.068 C 
HETATM    3  C6  UNL     1      28.707  -9.035  11.506  1.00  0.00     0.157 C 
HETATM    4  C12 UNL     1      29.882  -8.652  12.343  1.00  0.00     0.214 C 
HETATM    5  C13 UNL     1      29.877  -7.232  12.820  1.00  0.00     0.065 C 
HETATM    6  C14 UNL     1      28.505  -6.630  12.913  1.00  0.00     0.145 C 
ENDROOT
BRANCH   1   7
HETATM    7  O2  UNL     1      26.478  -6.506  11.771  1.00  0.00    -0.352 OA
BRANCH   7   8
HETATM    8  C3  UNL     1      25.905  -5.633  10.858  1.00  0.00     0.291 C 
HETATM    9  O1  UNL     1      25.141  -6.409   9.990  1.00  0.00    -0.352 OA
HETATM   10  C2  UNL     1      23.786  -6.322  10.212  1.00  0.00     0.151 C 
HETATM   11  C1  UNL     1      23.128  -7.349   9.282  1.00  0.00     0.042 C 
HETATM   12  C17 UNL     1      23.328  -4.941   9.750  1.00  0.00     0.214 C 
HETATM   13  C16 UNL     1      24.225  -3.925  10.376  1.00  0.00     0.073 C 
HETATM   14  C15 UNL     1      25.045  -4.582  11.477  1.00  0.00     0.240 C 
BRANCH  12  15
HETATM   15  N7  UNL     1      21.937  -4.733  10.076  1.00  0.00    -0.072 N 
ATOM     16  H73 UNL     1      21.338  -5.437   9.646  1.00  0.00     0.274 HD
ATOM     17  H72 UNL     1      21.742  -4.943  11.055  1.00  0.00     0.274 HD
ATOM     18  H71 UNL     1      21.649  -3.786   9.827  1.00  0.00     0.274 HD
ENDBRANCH  12  15
BRANCH  14  19
HETATM   19  N6  UNL     1      25.812  -3.515  12.099  1.00  0.00    -0.070 N 
ATOM     20  H63 UNL     1      26.406  -3.048  11.414  1.00  0.00     0.274 HD
ATOM     21  H62 UNL     1      25.207  -2.735  12.356  1.00  0.00     0.274 HD
ATOM     22  H61 UNL     1      26.358  -3.832  12.899  1.00  0.00     0.274 HD
ENDBRANCH  14  19
ENDBRANCH   7   8
ENDBRANCH   1   7
BRANCH   6  23
HETATM   23  N3  UNL     1      27.690  -7.266  13.928  1.00  0.00    -0.245 N 
ATOM     24  H3  UNL     1      26.774  -7.648  13.693  1.00  0.00     0.197 HD
BRANCH  23  25
HETATM   25  N4  UNL     1      28.121  -7.337  15.081  1.00  0.00    -0.248 NA
BRANCH  25  26
HETATM   26  N5  UNL     1      28.416  -7.667  16.251  1.00  0.00    -0.261 N 
ATOM     27  H52 UNL     1      27.446  -7.900  16.467  1.00  0.00     0.193 HD
ATOM     28  H51 UNL     1      28.878  -7.876  17.135  1.00  0.00     0.193 HD
ENDBRANCH  25  26
ENDBRANCH  23  25
ENDBRANCH   6  23
BRANCH   3  29
HETATM   29  O3  UNL     1      29.100  -9.939  10.581  1.00  0.00    -0.349 OA
BRANCH  29  30
HETATM   30  C7  UNL     1      28.220 -10.344   9.623  1.00  0.00     0.315 C 
HETATM   31  O4  UNL     1      28.739 -10.442   8.357  1.00  0.00    -0.344 OA
HETATM   32  C8  UNL     1      29.304 -11.682   8.056  1.00  0.00     0.205 C 
HETATM   33  C10 UNL     1      28.315 -12.791   8.304  1.00  0.00     0.290 C 
HETATM   34  O6  UNL     1      27.156 -12.323   8.894  1.00  0.00    -0.324 OA
HETATM   35  C11 UNL     1      27.334 -11.464   9.934  1.00  0.00     0.315 C 
BRANCH  32  36
HETATM   36  C9  UNL     1      30.598 -11.852   8.767  1.00  0.00     0.266 C 
BRANCH  36  37
HETATM   37  N1  UNL     1      30.562 -12.860   9.807  1.00  0.00    -0.077 N 
ATOM     38  H13 UNL     1      30.949 -12.494  10.677  1.00  0.00     0.274 HD
ATOM     39  H12 UNL     1      29.603 -13.034  10.107  1.00  0.00     0.274 HD
ATOM     40  H11 UNL     1      31.022 -13.732   9.547  1.00  0.00     0.274 HD
ENDBRANCH  36  37
ENDBRANCH  32  36
BRANCH  33  41
HETATM   41  O5  UNL     1      27.989 -13.490   7.154  1.00  0.00    -0.368 OA
ATOM     42  H5  UNL     1      27.247 -14.070   7.272  1.00  0.00     0.212 HD
ENDBRANCH  33  41
BRANCH  35  43
HETATM   43  O7  UNL     1      27.775 -12.265  11.005  1.00  0.00    -0.367 OA
ATOM     44  H7  UNL     1      27.157 -12.938  11.264  1.00  0.00     0.212 HD
ENDBRANCH  35  43
ENDBRANCH  29  30
ENDBRANCH   3  29
BRANCH   4  45
HETATM   45  N2  UNL     1      29.872  -9.485  13.542  1.00  0.00    -0.072 N 
ATOM     46  H23 UNL     1      29.771  -8.941  14.399  1.00  0.00     0.274 HD
ATOM     47  H22 UNL     1      29.021 -10.039  13.631  1.00  0.00     0.274 HD
ATOM     48  H21 UNL     1      30.716 -10.057  13.536  1.00  0.00     0.274 HD
ENDBRANCH   4  45
TORSDOF 14
ENDMDL
MODEL 2
REMARK VINA RESULT: -6.379489535      1.622      2.094
REMARK  14 active torsions:
REMARK  status: ('A' for Active; 'I' for Inactive)
REMARK    1  A    between atoms: C3_4  and  O2_5 
REMARK    2  A    between atoms: O2_5  and  C4_6 
REMARK    3  A    between atoms: C6_8  and  O3_9 
REMARK    4  A    between atoms: O3_9  and  C7_10 
REMARK    5  A    between atoms: C8_12  and  C9_13 
REMARK    6  A    between atoms: C9_13  and  N1_14 
REMARK    7  A    between atoms: C10_18  and  O5_19 
REMARK    8  A    between atoms: C11_22  and  O7_23 
REMARK    9  A    between atoms: C12_25  and  N2_26 
REMARK   10  A    between atoms: C14_31  and  N3_32 
REMARK   11  A    between atoms: N3_32  and  N4_34 
REMARK   12  A    between atoms: N4_34  and  N5_35 
REMARK   13  A    between atoms: C15_38  and  N6_39 
REMARK   14  A    between atoms: C17_44  and  N7_45 
ROOT
HETATM    1  C4  UNL     1      28.622  -8.219  10.649  1.00  0.00     0.152 C 
HETATM    2  C5  UNL     1      28.587  -9.550   9.999  1.00  0.00     0.068 C 
HETATM    3  C6  UNL     1      29.274 -10.654  10.816  1.00  0.00     0.157 C 
HETATM    4  C12 UNL     1      30.657 -10.263  11.217  1.00  0.00     0.214 C 
HETATM    5  C13 UNL     1      30.866  -8.790  11.400  1.00  0.00     0.065 C 
HETATM    6  C14 UNL     1      29.612  -8.041  11.744  1.00  0.00     0.145 C 
ENDROOT
BRANCH   1   7
HETATM    7  O2  UNL     1      27.354  -7.895  11.189  1.00  0.00    -0.352 OA
BRANCH   7   8
HETATM    8  C3  UNL     1      26.822  -6.745  10.623  1.00  0.00     0.291 C 
HETATM    9  O1  UNL     1      25.751  -7.150   9.831  1.00  0.00    -0.352 OA
HETATM   10  C2  UNL     1      24.519  -6.882  10.382  1.00  0.00     0.151 C 
HETATM   11  C1  UNL     1      23.481  -7.530   9.458  1.00  0.00     0.042 C 
HETATM   12  C17 UNL     1      24.299  -5.373  10.315  1.00  0.00     0.214 C 
HETATM   13  C16 UNL     1      25.503  -4.706  10.892  1.00  0.00     0.073 C 
HETATM   14  C15 UNL     1      26.355  -5.737  11.619  1.00  0.00     0.240 C 
BRANCH  12  15
HETATM   15  N7  UNL     1      23.080  -5.008  10.998  1.00  0.00    -0.072 N 
ATOM     16  H73 UNL     1      23.137  -5.191  12.000  1.00  0.00     0.274 HD
ATOM     17  H72 UNL     1      22.955  -3.996  11.034  1.00  0.00     0.274 HD
ATOM     18  H71 UNL     1      22.278  -5.474  10.573  1.00  0.00     0.274 HD
ENDBRANCH  12  15
BRANCH  14  19
HETATM   19  N6  UNL     1      27.446  -4.997  12.231  1.00  0.00    -0.070 N 
ATOM     20  H63 UNL     1      28.330  -5.197  11.763  1.00  0.00     0.274 HD
ATOM     21  H62 UNL     1      27.370  -4.000  12.027  1.00  0.00     0.274 HD
ATOM     22  H61 UNL     1      27.522  -5.158  13.235  1.00  0.00     0.274 HD
ENDBRANCH  14  19
ENDBRANCH   7   8
ENDBRANCH   1   7
BRANCH   6  23
HETATM   23  N3  UNL     1      29.085  -8.409  13.042  1.00  0.00    -0.245 N 
ATOM     24  H3  UNL     1      28.126  -8.743  13.137  1.00  0.00     0.197 HD
BRANCH  23  25
HETATM   25  N4  UNL     1      29.815  -8.312  14.032  1.00  0.00    -0.248 NA
BRANCH  25  26
HETATM   26  N5  UNL     1      30.420  -8.462  15.115  1.00  0.00    -0.261 N 
ATOM     27  H52 UNL     1      31.296  -8.674  14.637  1.00  0.00     0.193 HD
ATOM     28  H51 UNL     1      30.701  -8.532  16.093  1.00  0.00     0.193 HD
ENDBRANCH  25  26
ENDBRANCH  23  25
ENDBRANCH   6  23
BRANCH   3  29
HETATM   29  O3  UNL     1      29.338 -11.735  10.008  1.00  0.00    -0.349 OA
BRANCH  29  30
HETATM   30  C7  UNL     1      29.582 -11.564   8.678  1.00  0.00     0.315 C 
HETATM   31  O4  UNL     1      30.888 -11.738   8.296  1.00  0.00    -0.344 OA
HETATM   32  C8  UNL     1      31.226 -13.051   7.969  1.00  0.00     0.205 C 
HETATM   33  C10 UNL     1      30.296 -13.593   6.915  1.00  0.00     0.290 C 
HETATM   34  O6  UNL     1      29.265 -12.715   6.639  1.00  0.00    -0.324 OA
HETATM   35  C11 UNL     1      28.654 -12.172   7.726  1.00  0.00     0.315 C 
BRANCH  32  36
HETATM   36  C9  UNL     1      31.311 -13.889   9.193  1.00  0.00     0.266 C 
BRANCH  36  37
HETATM   37  N1  UNL     1      32.166 -13.331  10.221  1.00  0.00    -0.077 N 
ATOM     38  H13 UNL     1      32.415 -12.367   9.999  1.00  0.00     0.274 HD
ATOM     39  H12 UNL     1      31.641 -13.176  11.082  1.00  0.00     0.274 HD
ATOM     40  H11 UNL     1      33.002 -13.885  10.404  1.00  0.00     0.274 HD
ENDBRANCH  36  37
ENDBRANCH  32  36
BRANCH  33  41
HETATM   41  O5  UNL     1      30.947 -13.915   5.736  1.00  0.00    -0.368 OA
ATOM     42  H5  UNL     1      30.523 -14.619   5.260  1.00  0.00     0.212 HD
ENDBRANCH  33  41
BRANCH  35  43
HETATM   43  O7  UNL     1      27.871 -13.209   8.269  1.00  0.00    -0.367 OA
ATOM     44  H7  UNL     1      27.024 -12.925   8.591  1.00  0.00     0.212 HD
ENDBRANCH  35  43
ENDBRANCH  29  30
ENDBRANCH   3  29
BRANCH   4  45
HETATM   45  N2  UNL     1      30.943 -10.879  12.509  1.00  0.00    -0.072 N 
ATOM     46  H23 UNL     1      31.087 -11.886  12.443  1.00  0.00     0.274 HD
ATOM     47  H22 UNL     1      31.867 -10.633  12.867  1.00  0.00     0.274 HD
ATOM     48  H21 UNL     1      30.192 -10.628  13.152  1.00  0.00     0.274 HD
ENDBRANCH   4  45
TORSDOF 14
ENDMDL
MODEL 3
REMARK VINA RESULT: -6.258489032      1.246      1.480
REMARK  14 active torsions:
REMARK  status: ('A' for Active; 'I' for Inactive)
REMARK    1  A    between atoms: C3_4  and  O2_5 
REMARK    2  A    between atoms: O2_5  and  C4_6 
REMARK    3  A    between atoms: C6_8  and  O3_9 
REMARK    4  A    between atoms: O3_9  and  C7_10 
REMARK    5  A    between atoms: C8_12  and  C9_13 
REMARK    6  A    between atoms: C9_13  and  N1_14 
REMARK    7  A    between atoms: C10_18  and  O5_19 
REMARK    8  A    between atoms: C11_22  and  O7_23 
REMARK    9  A    between atoms: C12_25  and  N2_26 
REMARK   10  A    between atoms: C14_31  and  N3_32 
REMARK   11  A    between atoms: N3_32  and  N4_34 
REMARK   12  A    between atoms: N4_34  and  N5_35 
REMARK   13  A    between atoms: C15_38  and  N6_39 
REMARK   14  A    between atoms: C17_44  and  N7_45 
ROOT
HETATM    1  C4  UNL     1      28.181  -7.078  11.170  1.00  0.00     0.152 C 
HETATM    2  C5  UNL     1      28.152  -8.438  10.582  1.00  0.00     0.068 C 
HETATM    3  C6  UNL     1      28.608  -9.539  11.550  1.00  0.00     0.157 C 
HETATM    4  C12 UNL     1      29.931  -9.221  12.162  1.00  0.00     0.214 C 
HETATM    5  C13 UNL     1      30.219  -7.759  12.314  1.00  0.00     0.065 C 
HETATM    6  C14 UNL     1      28.987  -6.907  12.408  1.00  0.00     0.145 C 
ENDROOT
BRANCH   1   7
HETATM    7  O2  UNL     1      26.870  -6.639  11.473  1.00  0.00    -0.352 OA
BRANCH   7   8
HETATM    8  C3  UNL     1      26.469  -5.588  10.661  1.00  0.00     0.291 C 
HETATM    9  O1  UNL     1      25.235  -5.946  10.125  1.00  0.00    -0.352 OA
HETATM   10  C2  UNL     1      24.169  -5.292  10.697  1.00  0.00     0.151 C 
HETATM   11  C1  UNL     1      22.904  -5.920  10.101  1.00  0.00     0.042 C 
HETATM   12  C17 UNL     1      24.211  -3.839  10.230  1.00  0.00     0.214 C 
HETATM   13  C16 UNL     1      25.588  -3.317  10.473  1.00  0.00     0.073 C 
HETATM   14  C15 UNL     1      26.345  -4.282  11.373  1.00  0.00     0.240 C 
BRANCH  12  15
HETATM   15  N7  UNL     1      23.194  -3.062  10.898  1.00  0.00    -0.072 N 
ATOM     16  H73 UNL     1      22.256  -3.321  10.592  1.00  0.00     0.274 HD
ATOM     17  H72 UNL     1      23.109  -3.316  11.883  1.00  0.00     0.274 HD
ATOM     18  H71 UNL     1      23.369  -2.064  10.778  1.00  0.00     0.274 HD
ENDBRANCH  12  15
BRANCH  14  19
HETATM   19  N6  UNL     1      27.630  -3.658  11.641  1.00  0.00    -0.070 N 
ATOM     20  H63 UNL     1      27.902  -3.789  12.615  1.00  0.00     0.274 HD
ATOM     21  H62 UNL     1      28.385  -4.170  11.185  1.00  0.00     0.274 HD
ATOM     22  H61 UNL     1      27.654  -2.671  11.386  1.00  0.00     0.274 HD
ENDBRANCH  14  19
ENDBRANCH   7   8
ENDBRANCH   1   7
BRANCH   6  23
HETATM   23  N3  UNL     1      28.226  -7.166  13.613  1.00  0.00    -0.245 N 
ATOM     24  H3  UNL     1      27.246  -7.446  13.558  1.00  0.00     0.197 HD
BRANCH  23  25
HETATM   25  N4  UNL     1      28.781  -7.043  14.708  1.00  0.00    -0.248 NA
BRANCH  25  26
HETATM   26  N5  UNL     1      29.204  -7.169  15.877  1.00  0.00    -0.261 N 
ATOM     27  H52 UNL     1      29.839  -7.920  15.604  1.00  0.00     0.193 HD
ATOM     28  H51 UNL     1      29.395  -7.095  16.876  1.00  0.00     0.193 HD
ENDBRANCH  25  26
ENDBRANCH  23  25
ENDBRANCH   6  23
BRANCH   3  29
HETATM   29  O3  UNL     1      28.722 -10.665  10.812  1.00  0.00    -0.349 OA
BRANCH  29  30
HETATM   30  C7  UNL     1      29.184 -10.584   9.533  1.00  0.00     0.315 C 
HETATM   31  O4  UNL     1      30.537 -10.759   9.388  1.00  0.00    -0.344 OA
HETATM   32  C8  UNL     1      30.936 -12.086   9.219  1.00  0.00     0.205 C 
HETATM   33  C10 UNL     1      30.200 -12.718   8.067  1.00  0.00     0.290 C 
HETATM   34  O6  UNL     1      29.223 -11.883   7.559  1.00  0.00    -0.324 OA
HETATM   35  C11 UNL     1      28.434 -11.275   8.486  1.00  0.00     0.315 C 
BRANCH  32  36
HETATM   36  C9  UNL     1      30.819 -12.833  10.499  1.00  0.00     0.266 C 
BRANCH  36  37
HETATM   37  N1  UNL     1      29.776 -13.839  10.491  1.00  0.00    -0.077 N 
ATOM     38  H13 UNL     1      29.134 -13.697  11.271  1.00  0.00     0.274 HD
ATOM     39  H12 UNL     1      29.135 -13.687   9.713  1.00  0.00     0.274 HD
ATOM     40  H11 UNL     1      30.131 -14.795  10.486  1.00  0.00     0.274 HD
ENDBRANCH  36  37
ENDBRANCH  32  36
BRANCH  33  41
HETATM   41  O5  UNL     1      31.042 -13.111   7.040  1.00  0.00    -0.368 OA
ATOM     42  H5  UNL     1      30.645 -13.750   6.461  1.00  0.00     0.212 HD
ENDBRANCH  33  41
BRANCH  35  43
HETATM   43  O7  UNL     1      27.579 -12.286   8.965  1.00  0.00    -0.367 OA
ATOM     44  H7  UNL     1      28.032 -13.014   9.374  1.00  0.00     0.212 HD
ENDBRANCH  35  43
ENDBRANCH  29  30
ENDBRANCH   3  29
BRANCH   4  45
HETATM   45  N2  UNL     1      29.952  -9.782  13.510  1.00  0.00    -0.072 N 
ATOM     46  H23 UNL     1      29.062 -10.204  13.775  1.00  0.00     0.274 HD
ATOM     47  H22 UNL     1      30.526 -10.622  13.579  1.00  0.00     0.274 HD
ATOM     48  H21 UNL     1      30.248  -9.048  14.153  1.00  0.00     0.274 HD
ENDBRANCH   4  45
TORSDOF 14
ENDMDL
MODEL 4
REMARK VINA RESULT: -5.679489071      3.158      6.374
REMARK  14 active torsions:
REMARK  status: ('A' for Active; 'I' for Inactive)
REMARK    1  A    between atoms: C3_4  and  O2_5 
REMARK    2  A    between atoms: O2_5  and  C4_6 
REMARK    3  A    between atoms: C6_8  and  O3_9 
REMARK    4  A    between atoms: O3_9  and  C7_10 
REMARK    5  A    between atoms: C8_12  and  C9_13 
REMARK    6  A    between atoms: C9_13  and  N1_14 
REMARK    7  A    between atoms: C10_18  and  O5_19 
REMARK    8  A    between atoms: C11_22  and  O7_23 
REMARK    9  A    between atoms: C12_25  and  N2_26 
REMARK   10  A    between atoms: C14_31  and  N3_32 
REMARK   11  A    between atoms: N3_32  and  N4_34 
REMARK   12  A    between atoms: N4_34  and  N5_35 
REMARK   13  A    between atoms: C15_38  and  N6_39 
REMARK   14  A    between atoms: C17_44  and  N7_45 
ROOT
HETATM    1  C4  UNL     1      29.078  -8.949  12.734  1.00  0.00     0.152 C 
HETATM    2  C5  UNL     1      28.984 -10.125  11.838  1.00  0.00     0.068 C 
HETATM    3  C6  UNL     1      28.974  -9.765  10.346  1.00  0.00     0.157 C 
HETATM    4  C12 UNL     1      27.936  -8.739  10.034  1.00  0.00     0.214 C 
HETATM    5  C13 UNL     1      27.627  -7.796  11.157  1.00  0.00     0.065 C 
HETATM    6  C14 UNL     1      28.755  -7.629  12.132  1.00  0.00     0.145 C 
ENDROOT
BRANCH   1   7
HETATM    7  O2  UNL     1      30.381  -8.841  13.279  1.00  0.00    -0.352 OA
BRANCH   7   8
HETATM    8  C3  UNL     1      30.607  -9.771  14.284  1.00  0.00     0.291 C 
HETATM    9  O1  UNL     1      31.692 -10.543  13.875  1.00  0.00    -0.352 OA
HETATM   10  C2  UNL     1      32.863 -10.247  14.533  1.00  0.00     0.151 C 
HETATM   11  C1  UNL     1      33.962 -11.072  13.851  1.00  0.00     0.042 C 
HETATM   12  C17 UNL     1      32.736 -10.765  15.963  1.00  0.00     0.214 C 
HETATM   13  C16 UNL     1      31.451 -10.256  16.525  1.00  0.00     0.073 C 
HETATM   14  C15 UNL     1      30.896  -9.167  15.617  1.00  0.00     0.240 C 
BRANCH  12  15
HETATM   15  N7  UNL     1      33.882 -10.371  16.749  1.00  0.00    -0.072 N 
ATOM     16  H73 UNL     1      34.256  -9.470  16.448  1.00  0.00     0.274 HD
ATOM     17  H72 UNL     1      33.619 -10.117  17.701  1.00  0.00     0.274 HD
ATOM     18  H71 UNL     1      34.595 -11.101  16.734  1.00  0.00     0.274 HD
ENDBRANCH  12  15
BRANCH  14  19
HETATM   19  N6  UNL     1      29.707  -8.658  16.280  1.00  0.00    -0.070 N 
ATOM     20  H63 UNL     1      28.965  -8.473  15.605  1.00  0.00     0.274 HD
ATOM     21  H62 UNL     1      29.255  -9.389  16.829  1.00  0.00     0.274 HD
ATOM     22  H61 UNL     1      29.891  -7.835  16.852  1.00  0.00     0.274 HD
ENDBRANCH  14  19
ENDBRANCH   7   8
ENDBRANCH   1   7
BRANCH   6  23
HETATM   23  N3  UNL     1      29.909  -6.984  11.539  1.00  0.00    -0.245 N 
ATOM     24  H3  UNL     1      30.815  -7.452  11.528  1.00  0.00     0.197 HD
BRANCH  23  25
HETATM   25  N4  UNL     1      29.778  -5.860  11.049  1.00  0.00    -0.248 NA
BRANCH  25  26
HETATM   26  N5  UNL     1      29.698  -4.862  10.300  1.00  0.00    -0.261 N 
ATOM     27  H52 UNL     1      29.593  -5.449   9.471  1.00  0.00     0.193 HD
ATOM     28  H51 UNL     1      29.659  -3.928   9.893  1.00  0.00     0.193 HD
ENDBRANCH  25  26
ENDBRANCH  23  25
ENDBRANCH   6  23
BRANCH   3  29
HETATM   29  O3  UNL     1      28.679 -10.906   9.685  1.00  0.00    -0.349 OA
BRANCH  29  30
HETATM   30  C7  UNL     1      29.240 -11.139   8.465  1.00  0.00     0.315 C 
HETATM   31  O4  UNL     1      30.609 -11.229   8.460  1.00  0.00    -0.344 OA
HETATM   32  C8  UNL     1      31.107 -12.511   8.693  1.00  0.00     0.205 C 
HETATM   33  C10 UNL     1      30.514 -13.496   7.721  1.00  0.00     0.290 C 
HETATM   34  O6  UNL     1      29.530 -12.920   6.940  1.00  0.00    -0.324 OA
HETATM   35  C11 UNL     1      28.627 -12.153   7.609  1.00  0.00     0.315 C 
BRANCH  32  36
HETATM   36  C9  UNL     1      30.933 -12.886  10.121  1.00  0.00     0.266 C 
BRANCH  36  37
HETATM   37  N1  UNL     1      29.918 -13.896  10.337  1.00  0.00    -0.077 N 
ATOM     38  H13 UNL     1      29.037 -13.620   9.904  1.00  0.00     0.274 HD
ATOM     39  H12 UNL     1      30.121 -14.734   9.791  1.00  0.00     0.274 HD
ATOM     40  H11 UNL     1      29.778 -14.131  11.320  1.00  0.00     0.274 HD
ENDBRANCH  36  37
ENDBRANCH  32  36
BRANCH  33  41
HETATM   41  O5  UNL     1      31.463 -14.081   6.899  1.00  0.00    -0.368 OA
ATOM     42  H5  UNL     1      31.103 -14.378   6.072  1.00  0.00     0.212 HD
ENDBRANCH  33  41
BRANCH  35  43
HETATM   43  O7  UNL     1      27.804 -13.064   8.298  1.00  0.00    -0.367 OA
ATOM     44  H7  UNL     1      27.271 -13.608   7.731  1.00  0.00     0.212 HD
ENDBRANCH  35  43
ENDBRANCH  29  30
ENDBRANCH   3  29
BRANCH   4  45
HETATM   45  N2  UNL     1      28.431  -7.915   8.935  1.00  0.00    -0.072 N 
ATOM     46  H23 UNL     1      29.353  -7.522   9.121  1.00  0.00     0.274 HD
ATOM     47  H22 UNL     1      28.681  -8.464   8.112  1.00  0.00     0.274 HD
ATOM     48  H21 UNL     1      27.731  -7.202   8.735  1.00  0.00     0.274 HD
ENDBRANCH   4  45
TORSDOF 14
ENDMDL
MODEL 5
REMARK VINA RESULT: -5.582940186      3.915      5.810
REMARK  14 active torsions:
REMARK  status: ('A' for Active; 'I' for Inactive)
REMARK    1  A    between atoms: C3_4  and  O2_5 
REMARK    2  A    between atoms: O2_5  and  C4_6 
REMARK    3  A    between atoms: C6_8  and  O3_9 
REMARK    4  A    between atoms: O3_9  and  C7_10 
REMARK    5  A    between atoms: C8_12  and  C9_13 
REMARK    6  A    between atoms: C9_13  and  N1_14 
REMARK    7  A    between atoms: C10_18  and  O5_19 
REMARK    8  A    between atoms: C11_22  and  O7_23 
REMARK    9  A    between atoms: C12_25  and  N2_26 
REMARK   10  A    between atoms: C14_31  and  N3_32 
REMARK   11  A    between atoms: N3_32  and  N4_34 
REMARK   12  A    between atoms: N4_34  and  N5_35 
REMARK   13  A    between atoms: C15_38  and  N6_39 
REMARK   14  A    between atoms: C17_44  and  N7_45 
ROOT
HETATM    1  C4  UNL     1      32.025 -10.339  13.712  1.00  0.00     0.152 C 
HETATM    2  C5  UNL     1      31.725 -10.934  12.390  1.00  0.00     0.068 C 
HETATM    3  C6  UNL     1      32.026 -12.437  12.307  1.00  0.00     0.157 C 
HETATM    4  C12 UNL     1      33.415 -12.746  12.758  1.00  0.00     0.214 C 
HETATM    5  C13 UNL     1      33.965 -11.807  13.787  1.00  0.00     0.065 C 
HETATM    6  C14 UNL     1      32.910 -11.128  14.610  1.00  0.00     0.145 C 
ENDROOT
BRANCH   1   7
HETATM    7  O2  UNL     1      30.829 -10.095  14.431  1.00  0.00    -0.352 OA
BRANCH   7   8
HETATM    8  C3  UNL     1      30.755  -8.789  14.896  1.00  0.00     0.291 C 
HETATM    9  O1  UNL     1      29.848  -8.125  14.074  1.00  0.00    -0.352 OA
HETATM   10  C2  UNL     1      28.624  -7.905  14.662  1.00  0.00     0.151 C 
HETATM   11  C1  UNL     1      27.720  -7.315  13.573  1.00  0.00     0.042 C 
HETATM   12  C17 UNL     1      28.807  -6.825  15.726  1.00  0.00     0.214 C 
HETATM   13  C16 UNL     1      29.958  -7.221  16.590  1.00  0.00     0.073 C 
HETATM   14  C15 UNL     1      30.321  -8.673  16.318  1.00  0.00     0.240 C 
BRANCH  12  15
HETATM   15  N7  UNL     1      27.586  -6.638  16.474  1.00  0.00    -0.072 N 
ATOM     16  H73 UNL     1      27.705  -5.964  17.231  1.00  0.00     0.274 HD
ATOM     17  H72 UNL     1      26.883  -6.136  15.932  1.00  0.00     0.274 HD
ATOM     18  H71 UNL     1      27.235  -7.533  16.815  1.00  0.00     0.274 HD
ENDBRANCH  12  15
BRANCH  14  19
HETATM   19  N6  UNL     1      31.374  -9.008  17.263  1.00  0.00    -0.070 N 
ATOM     20  H63 UNL     1      31.345  -8.391  18.074  1.00  0.00     0.274 HD
ATOM     21  H62 UNL     1      31.182  -9.898  17.722  1.00  0.00     0.274 HD
ATOM     22  H61 UNL     1      32.302  -9.009  16.840  1.00  0.00     0.274 HD
ENDBRANCH  14  19
ENDBRANCH   7   8
ENDBRANCH   1   7
BRANCH   6  23
HETATM   23  N3  UNL     1      32.178 -12.056  15.447  1.00  0.00    -0.245 N 
ATOM     24  H3  UNL     1      31.478 -12.678  15.042  1.00  0.00     0.197 HD
BRANCH  23  25
HETATM   25  N4  UNL     1      32.413 -12.082  16.657  1.00  0.00    -0.248 NA
BRANCH  25  26
HETATM   26  N5  UNL     1      32.421 -12.288  17.891  1.00  0.00    -0.261 N 
ATOM     27  H52 UNL     1      31.852 -13.130  17.789  1.00  0.00     0.193 HD
ATOM     28  H51 UNL     1      32.559 -12.258  18.901  1.00  0.00     0.193 HD
ENDBRANCH  25  26
ENDBRANCH  23  25
ENDBRANCH   6  23
BRANCH   3  29
HETATM   29  O3  UNL     1      31.901 -12.775  11.004  1.00  0.00    -0.349 OA
BRANCH  29  30
HETATM   30  C7  UNL     1      30.934 -12.181  10.248  1.00  0.00     0.315 C 
HETATM   31  O4  UNL     1      31.377 -11.599   9.087  1.00  0.00    -0.344 OA
HETATM   32  C8  UNL     1      31.410 -12.455   7.985  1.00  0.00     0.205 C 
HETATM   33  C10 UNL     1      30.064 -13.096   7.770  1.00  0.00     0.290 C 
HETATM   34  O6  UNL     1      29.180 -12.791   8.787  1.00  0.00    -0.324 OA
HETATM   35  C11 UNL     1      29.679 -12.903  10.048  1.00  0.00     0.315 C 
BRANCH  32  36
HETATM   36  C9  UNL     1      32.531 -13.421   8.110  1.00  0.00     0.266 C 
BRANCH  36  37
HETATM   37  N1  UNL     1      32.821 -14.136   6.883  1.00  0.00    -0.077 N 
ATOM     38  H13 UNL     1      32.076 -13.997   6.200  1.00  0.00     0.274 HD
ATOM     39  H12 UNL     1      33.594 -13.696   6.384  1.00  0.00     0.274 HD
ATOM     40  H11 UNL     1      33.002 -15.130   7.022  1.00  0.00     0.274 HD
ENDBRANCH  36  37
ENDBRANCH  32  36
BRANCH  33  41
HETATM   41  O5  UNL     1      29.493 -12.757   6.555  1.00  0.00    -0.368 OA
ATOM     42  H5  UNL     1      28.637 -12.356   6.647  1.00  0.00     0.212 HD
ENDBRANCH  33  41
BRANCH  35  43
HETATM   43  O7  UNL     1      29.767 -14.287  10.291  1.00  0.00    -0.367 OA
ATOM     44  H7  UNL     1      30.047 -14.794   9.538  1.00  0.00     0.212 HD
ENDBRANCH  35  43
ENDBRANCH  29  30
ENDBRANCH   3  29
BRANCH   4  45
HETATM   45  N2  UNL     1      33.404 -14.069  13.378  1.00  0.00    -0.072 N 
ATOM     46  H23 UNL     1      34.341 -14.442  13.527  1.00  0.00     0.274 HD
ATOM     47  H22 UNL     1      33.110 -14.044  14.354  1.00  0.00     0.274 HD
ATOM     48  H21 UNL     1      32.822 -14.680  12.806  1.00  0.00     0.274 HD
ENDBRANCH   4  45
TORSDOF 14
ENDMDL
