MODEL 1
REMARK VINA RESULT: -9.116076822      0.000      0.000
REMARK  17 active torsions:
REMARK  status: ('A' for Active; 'I' for Inactive)
REMARK    1  A    between atoms: C2_2  and  C3_3 
REMARK    2  A    between atoms: C3_3  and  C5_5 
REMARK    3  A    between atoms: C5_5  and  N1_6 
REMARK    4  A    between atoms: C5_5  and  C12_17 
REMARK       I    between atoms: N1_6  and  C6_8 
REMARK    5  A    between atoms: C6_8  and  C7_10 
REMARK    6  A    between atoms: C7_10  and  C8_12 
REMARK    7  A    between atoms: C8_12  and  C9_13 
REMARK    8  A    between atoms: C9_13  and  C11_15 
REMARK    9  A    between atoms: C12_17  and  C13_19 
REMARK   10  A    between atoms: C13_19  and  C14_20 
REMARK       I    between atoms: C14_20  and  N2_22 
REMARK   11  A    between atoms: N2_22  and  C15_24 
REMARK   12  A    between atoms: C15_24  and  C17_26 
REMARK   13  A    between atoms: C17_26  and  C19_29 
REMARK   14  A    between atoms: C19_29  and  C21_31 
REMARK   15  A    between atoms: C21_31  and  C22_33 
REMARK       I    between atoms: C22_33  and  N3_35 
REMARK   16  A    between atoms: C23_37  and  O7_38 
REMARK   17  A    between atoms: C23_37  and  C24_40 
ROOT
HETATM    1  C13 UNL     1      18.975  29.521  13.957  1.00  0.00     0.103 C 
HETATM    2  C28 UNL     1      18.541  29.904  12.543  1.00  0.00     0.027 C 
HETATM    3  C29 UNL     1      18.110  28.811  11.670  1.00  0.00     0.002 C 
HETATM    4  C30 UNL     1      17.916  27.482  12.293  1.00  0.00     0.000 C 
HETATM    5  C31 UNL     1      17.491  27.478  13.703  1.00  0.00     0.002 C 
HETATM    6  C32 UNL     1      18.028  28.553  14.589  1.00  0.00     0.027 C 
ENDROOT
BRANCH   1   7
HETATM    7  C12 UNL     1      20.378  29.052  13.967  1.00  0.00     0.167 C 
HETATM    8  O3  UNL     1      20.663  28.348  14.961  1.00  0.00    -0.294 OA
BRANCH   7   9
HETATM    9  C5  UNL     1      21.462  29.287  13.012  1.00  0.00     0.159 C 
BRANCH   9  10
HETATM   10  C3  UNL     1      22.370  28.137  12.695  1.00  0.00     0.011 C 
HETATM   11  C4  UNL     1      21.751  26.961  12.015  1.00  0.00     0.012 C 
BRANCH  10  12
HETATM   12  C2  UNL     1      23.494  28.581  11.752  1.00  0.00     0.002 C 
HETATM   13  C1  UNL     1      24.593  27.596  11.604  1.00  0.00     0.005 C 
ENDBRANCH  10  12
ENDBRANCH   9  10
BRANCH   9  14
HETATM   14  N1  UNL     1      22.294  30.303  13.727  1.00  0.00    -0.343 N 
HETATM   15  C6  UNL     1      22.215  31.658  13.464  1.00  0.00     0.288 C 
HETATM   16  O1  UNL     1      21.427  32.096  12.590  1.00  0.00    -0.264 OA
ATOM     17  H1  UNL     1      22.948  29.983  14.441  1.00  0.00     0.163 HD
BRANCH  15  18
HETATM   18  C7  UNL     1      23.032  32.604  14.189  1.00  0.00     0.216 C 
HETATM   19  O2  UNL     1      24.271  32.497  14.182  1.00  0.00    -0.287 OA
BRANCH  18  20
HETATM   20  C8  UNL     1      22.411  33.711  14.950  1.00  0.00     0.095 C 
BRANCH  20  21
HETATM   21  C9  UNL     1      22.374  33.370  16.425  1.00  0.00     0.018 C 
HETATM   22  C10 UNL     1      23.466  34.026  17.209  1.00  0.00     0.012 C 
BRANCH  21  23
HETATM   23  C11 UNL     1      21.018  33.840  16.928  1.00  0.00     0.226 C 
HETATM   24  F1  UNL     1      20.383  34.573  15.961  1.00  0.00    -0.255 F 
ENDBRANCH  21  23
ENDBRANCH  20  21
ENDBRANCH  18  20
ENDBRANCH  15  18
ENDBRANCH   9  14
ENDBRANCH   7   9
ENDBRANCH   1   7
BRANCH   1  25
HETATM   25  C14 UNL     1      18.912  30.804  14.686  1.00  0.00     0.234 C 
HETATM   26  O4  UNL     1      19.765  31.085  15.549  1.00  0.00    -0.272 OA
HETATM   27  N2  UNL     1      17.887  31.772  14.437  1.00  0.00    -0.353 N 
ATOM     28  H2  UNL     1      17.186  31.553  13.730  1.00  0.00     0.163 HD
BRANCH  27  29
HETATM   29  C15 UNL     1      17.783  33.038  15.122  1.00  0.00     0.120 C 
HETATM   30  C16 UNL     1      17.333  34.178  14.261  1.00  0.00     0.035 C 
BRANCH  29  31
HETATM   31  C17 UNL     1      17.042  32.962  16.418  1.00  0.00     0.130 C 
HETATM   32  C18 UNL     1      15.972  31.835  16.250  1.00  0.00     0.055 C 
HETATM   33  F2  UNL     1      17.874  32.471  17.393  1.00  0.00    -0.240 F 
BRANCH  31  34
HETATM   34  C19 UNL     1      16.257  34.174  16.787  1.00  0.00     0.103 C 
HETATM   35  C20 UNL     1      14.798  33.802  17.117  1.00  0.00     0.022 C 
BRANCH  34  36
HETATM   36  C21 UNL     1      16.720  35.029  17.843  1.00  0.00     0.223 C 
HETATM   37  O5  UNL     1      16.101  35.007  18.964  1.00  0.00    -0.287 OA
BRANCH  36  38
HETATM   38  C22 UNL     1      17.863  35.971  17.804  1.00  0.00     0.293 C 
HETATM   39  O6  UNL     1      17.858  36.732  16.824  1.00  0.00    -0.264 OA
HETATM   40  N3  UNL     1      18.839  35.986  18.786  1.00  0.00    -0.304 N 
HETATM   41  C23 UNL     1      19.970  36.670  19.077  1.00  0.00     0.126 C 
ATOM     42  H3  UNL     1      18.652  35.276  19.494  1.00  0.00     0.171 HD
BRANCH  41  43
HETATM   43  O7  UNL     1      20.571  36.275  20.206  1.00  0.00    -0.349 OA
ATOM     44  H7  UNL     1      21.389  35.812  20.067  1.00  0.00     0.219 HD
ENDBRANCH  41  43
BRANCH  41  45
HETATM   45  C24 UNL     1      20.716  37.756  18.453  1.00  0.00     0.021 A 
HETATM   46  C25 UNL     1      20.418  39.227  18.678  1.00  0.00     0.024 C 
HETATM   47  C26 UNL     1      22.194  37.470  18.174  1.00  0.00     0.018 A 
HETATM   48  C27 UNL     1      21.231  37.500  17.038  1.00  0.00     0.018 A 
ENDBRANCH  41  45
ENDBRANCH  36  38
ENDBRANCH  34  36
ENDBRANCH  31  34
ENDBRANCH  29  31
ENDBRANCH  27  29
ENDBRANCH   1  25
TORSDOF 17
ENDMDL
MODEL 2
REMARK VINA RESULT: -9.055329604      1.105      1.460
REMARK  17 active torsions:
REMARK  status: ('A' for Active; 'I' for Inactive)
REMARK    1  A    between atoms: C2_2  and  C3_3 
REMARK    2  A    between atoms: C3_3  and  C5_5 
REMARK    3  A    between atoms: C5_5  and  N1_6 
REMARK    4  A    between atoms: C5_5  and  C12_17 
REMARK       I    between atoms: N1_6  and  C6_8 
REMARK    5  A    between atoms: C6_8  and  C7_10 
REMARK    6  A    between atoms: C7_10  and  C8_12 
REMARK    7  A    between atoms: C8_12  and  C9_13 
REMARK    8  A    between atoms: C9_13  and  C11_15 
REMARK    9  A    between atoms: C12_17  and  C13_19 
REMARK   10  A    between atoms: C13_19  and  C14_20 
REMARK       I    between atoms: C14_20  and  N2_22 
REMARK   11  A    between atoms: N2_22  and  C15_24 
REMARK   12  A    between atoms: C15_24  and  C17_26 
REMARK   13  A    between atoms: C17_26  and  C19_29 
REMARK   14  A    between atoms: C19_29  and  C21_31 
REMARK   15  A    between atoms: C21_31  and  C22_33 
REMARK       I    between atoms: C22_33  and  N3_35 
REMARK   16  A    between atoms: C23_37  and  O7_38 
REMARK   17  A    between atoms: C23_37  and  C24_40 
ROOT
HETATM    1  C13 UNL     1      18.962  29.570  14.017  1.00  0.00     0.103 C 
HETATM    2  C28 UNL     1      18.559  29.918  12.585  1.00  0.00     0.027 C 
HETATM    3  C29 UNL     1      18.112  28.808  11.742  1.00  0.00     0.002 C 
HETATM    4  C30 UNL     1      17.875  27.505  12.405  1.00  0.00     0.000 C 
HETATM    5  C31 UNL     1      17.430  27.558  13.807  1.00  0.00     0.002 C 
HETATM    6  C32 UNL     1      17.982  28.647  14.666  1.00  0.00     0.027 C 
ENDROOT
BRANCH   1   7
HETATM    7  C12 UNL     1      20.352  29.067  14.065  1.00  0.00     0.167 C 
HETATM    8  O3  UNL     1      20.585  28.332  15.050  1.00  0.00    -0.294 OA
BRANCH   7   9
HETATM    9  C5  UNL     1      21.475  29.298  13.154  1.00  0.00     0.159 C 
BRANCH   9  10
HETATM   10  C3  UNL     1      22.304  28.113  12.758  1.00  0.00     0.011 C 
HETATM   11  C4  UNL     1      21.613  27.039  11.986  1.00  0.00     0.012 C 
BRANCH  10  12
HETATM   12  C2  UNL     1      23.468  28.546  11.860  1.00  0.00     0.002 C 
HETATM   13  C1  UNL     1      24.428  27.461  11.539  1.00  0.00     0.005 C 
ENDBRANCH  10  12
ENDBRANCH   9  10
BRANCH   9  14
HETATM   14  N1  UNL     1      22.361  30.186  13.968  1.00  0.00    -0.343 N 
HETATM   15  C6  UNL     1      22.439  31.552  13.773  1.00  0.00     0.288 C 
HETATM   16  O1  UNL     1      21.757  32.112  12.880  1.00  0.00    -0.264 OA
ATOM     17  H1  UNL     1      22.932  29.765  14.701  1.00  0.00     0.163 HD
BRANCH  15  18
HETATM   18  C7  UNL     1      23.303  32.371  14.593  1.00  0.00     0.216 C 
HETATM   19  O2  UNL     1      24.378  32.799  14.139  1.00  0.00    -0.287 OA
BRANCH  18  20
HETATM   20  C8  UNL     1      22.923  32.711  15.983  1.00  0.00     0.095 C 
BRANCH  20  21
HETATM   21  C9  UNL     1      22.556  34.177  16.077  1.00  0.00     0.018 C 
HETATM   22  C10 UNL     1      21.146  34.459  15.666  1.00  0.00     0.012 C 
BRANCH  21  23
HETATM   23  C11 UNL     1      22.760  34.565  17.534  1.00  0.00     0.226 C 
HETATM   24  F1  UNL     1      23.828  33.887  18.059  1.00  0.00    -0.255 F 
ENDBRANCH  21  23
ENDBRANCH  20  21
ENDBRANCH  18  20
ENDBRANCH  15  18
ENDBRANCH   9  14
ENDBRANCH   7   9
ENDBRANCH   1   7
BRANCH   1  25
HETATM   25  C14 UNL     1      18.922  30.878  14.704  1.00  0.00     0.234 C 
HETATM   26  O4  UNL     1      19.785  31.176  15.550  1.00  0.00    -0.272 OA
HETATM   27  N2  UNL     1      17.907  31.851  14.430  1.00  0.00    -0.353 N 
ATOM     28  H2  UNL     1      17.197  31.617  13.736  1.00  0.00     0.163 HD
BRANCH  27  29
HETATM   29  C15 UNL     1      17.825  33.139  15.073  1.00  0.00     0.120 C 
HETATM   30  C16 UNL     1      17.407  34.261  14.171  1.00  0.00     0.035 C 
BRANCH  29  31
HETATM   31  C17 UNL     1      17.071  33.122  16.363  1.00  0.00     0.130 C 
HETATM   32  C18 UNL     1      15.881  32.128  16.167  1.00  0.00     0.055 C 
HETATM   33  F2  UNL     1      17.835  32.519  17.331  1.00  0.00    -0.240 F 
BRANCH  31  34
HETATM   34  C19 UNL     1      16.427  34.408  16.755  1.00  0.00     0.103 C 
HETATM   35  C20 UNL     1      14.925  34.204  17.037  1.00  0.00     0.022 C 
BRANCH  34  36
HETATM   36  C21 UNL     1      16.959  35.167  17.850  1.00  0.00     0.223 C 
HETATM   37  O5  UNL     1      16.408  35.051  19.001  1.00  0.00    -0.287 OA
BRANCH  36  38
HETATM   38  C22 UNL     1      18.105  36.106  17.823  1.00  0.00     0.293 C 
HETATM   39  O6  UNL     1      19.089  35.721  18.474  1.00  0.00    -0.264 OA
HETATM   40  N3  UNL     1      18.062  37.302  17.127  1.00  0.00    -0.304 N 
HETATM   41  C23 UNL     1      18.873  38.357  16.880  1.00  0.00     0.126 C 
ATOM     42  H3  UNL     1      17.159  37.422  16.668  1.00  0.00     0.171 HD
BRANCH  41  43
HETATM   43  O7  UNL     1      18.322  39.296  16.101  1.00  0.00    -0.349 OA
ATOM     44  H7  UNL     1      17.673  38.962  15.492  1.00  0.00     0.219 HD
ENDBRANCH  41  43
BRANCH  41  45
HETATM   45  C24 UNL     1      20.228  38.736  17.258  1.00  0.00     0.021 A 
HETATM   46  C25 UNL     1      20.600  39.313  18.611  1.00  0.00     0.024 C 
HETATM   47  C26 UNL     1      21.349  37.911  16.619  1.00  0.00     0.018 A 
HETATM   48  C27 UNL     1      21.110  39.302  16.146  1.00  0.00     0.018 A 
ENDBRANCH  41  45
ENDBRANCH  36  38
ENDBRANCH  34  36
ENDBRANCH  31  34
ENDBRANCH  29  31
ENDBRANCH  27  29
ENDBRANCH   1  25
TORSDOF 17
ENDMDL
MODEL 3
REMARK VINA RESULT: -8.851414760      1.390      1.865
REMARK  17 active torsions:
REMARK  status: ('A' for Active; 'I' for Inactive)
REMARK    1  A    between atoms: C2_2  and  C3_3 
REMARK    2  A    between atoms: C3_3  and  C5_5 
REMARK    3  A    between atoms: C5_5  and  N1_6 
REMARK    4  A    between atoms: C5_5  and  C12_17 
REMARK       I    between atoms: N1_6  and  C6_8 
REMARK    5  A    between atoms: C6_8  and  C7_10 
REMARK    6  A    between atoms: C7_10  and  C8_12 
REMARK    7  A    between atoms: C8_12  and  C9_13 
REMARK    8  A    between atoms: C9_13  and  C11_15 
REMARK    9  A    between atoms: C12_17  and  C13_19 
REMARK   10  A    between atoms: C13_19  and  C14_20 
REMARK       I    between atoms: C14_20  and  N2_22 
REMARK   11  A    between atoms: N2_22  and  C15_24 
REMARK   12  A    between atoms: C15_24  and  C17_26 
REMARK   13  A    between atoms: C17_26  and  C19_29 
REMARK   14  A    between atoms: C19_29  and  C21_31 
REMARK   15  A    between atoms: C21_31  and  C22_33 
REMARK       I    between atoms: C22_33  and  N3_35 
REMARK   16  A    between atoms: C23_37  and  O7_38 
REMARK   17  A    between atoms: C23_37  and  C24_40 
ROOT
HETATM    1  C13 UNL     1      18.860  31.108  14.388  1.00  0.00     0.103 C 
HETATM    2  C28 UNL     1      18.825  30.971  12.867  1.00  0.00     0.027 C 
HETATM    3  C29 UNL     1      18.706  29.614  12.332  1.00  0.00     0.002 C 
HETATM    4  C30 UNL     1      18.404  28.530  13.295  1.00  0.00     0.000 C 
HETATM    5  C31 UNL     1      17.600  28.906  14.469  1.00  0.00     0.002 C 
HETATM    6  C32 UNL     1      17.817  30.265  15.049  1.00  0.00     0.027 C 
ENDROOT
BRANCH   1   7
HETATM    7  C12 UNL     1      20.222  30.858  14.908  1.00  0.00     0.167 C 
HETATM    8  O3  UNL     1      20.257  30.642  16.139  1.00  0.00    -0.294 OA
BRANCH   7   9
HETATM    9  C5  UNL     1      21.511  30.832  14.213  1.00  0.00     0.159 C 
BRANCH   9  10
HETATM   10  C3  UNL     1      22.233  29.521  14.138  1.00  0.00     0.011 C 
HETATM   11  C4  UNL     1      21.465  28.307  14.542  1.00  0.00     0.012 C 
BRANCH  10  12
HETATM   12  C2  UNL     1      22.681  29.234  12.701  1.00  0.00     0.002 C 
HETATM   13  C1  UNL     1      22.072  28.021  12.101  1.00  0.00     0.005 C 
ENDBRANCH  10  12
ENDBRANCH   9  10
BRANCH   9  14
HETATM   14  N1  UNL     1      22.345  31.732  15.068  1.00  0.00    -0.343 N 
HETATM   15  C6  UNL     1      22.852  32.937  14.619  1.00  0.00     0.288 C 
HETATM   16  O1  UNL     1      22.630  33.329  13.447  1.00  0.00    -0.264 OA
ATOM     17  H1  UNL     1      22.549  31.444  16.024  1.00  0.00     0.163 HD
BRANCH  15  18
HETATM   18  C7  UNL     1      23.645  33.778  15.486  1.00  0.00     0.216 C 
HETATM   19  O2  UNL     1      24.882  33.650  15.525  1.00  0.00    -0.287 OA
BRANCH  18  20
HETATM   20  C8  UNL     1      23.002  34.801  16.340  1.00  0.00     0.095 C 
BRANCH  20  21
HETATM   21  C9  UNL     1      22.408  34.150  17.572  1.00  0.00     0.018 C 
HETATM   22  C10 UNL     1      22.811  34.821  18.846  1.00  0.00     0.012 C 
BRANCH  21  23
HETATM   23  C11 UNL     1      20.899  34.228  17.398  1.00  0.00     0.226 C 
HETATM   24  F1  UNL     1      20.588  34.948  16.275  1.00  0.00    -0.255 F 
ENDBRANCH  21  23
ENDBRANCH  20  21
ENDBRANCH  18  20
ENDBRANCH  15  18
ENDBRANCH   9  14
ENDBRANCH   7   9
ENDBRANCH   1   7
BRANCH   1  25
HETATM   25  C14 UNL     1      18.537  32.532  14.605  1.00  0.00     0.234 C 
HETATM   26  O4  UNL     1      19.183  33.424  14.023  1.00  0.00    -0.272 OA
HETATM   27  N2  UNL     1      17.480  32.951  15.476  1.00  0.00    -0.353 N 
ATOM     28  H2  UNL     1      16.943  32.228  15.955  1.00  0.00     0.163 HD
BRANCH  27  29
HETATM   29  C15 UNL     1      17.127  34.328  15.720  1.00  0.00     0.120 C 
HETATM   30  C16 UNL     1      16.440  35.008  14.575  1.00  0.00     0.035 C 
BRANCH  29  31
HETATM   31  C17 UNL     1      16.434  34.549  17.025  1.00  0.00     0.130 C 
HETATM   32  C18 UNL     1      15.375  33.409  17.164  1.00  0.00     0.055 C 
HETATM   33  F2  UNL     1      17.308  34.301  18.055  1.00  0.00    -0.240 F 
BRANCH  31  34
HETATM   34  C19 UNL     1      15.646  35.810  17.135  1.00  0.00     0.103 C 
HETATM   35  C20 UNL     1      14.266  35.540  17.767  1.00  0.00     0.022 C 
BRANCH  34  36
HETATM   36  C21 UNL     1      16.204  36.943  17.817  1.00  0.00     0.223 C 
HETATM   37  O5  UNL     1      15.477  37.562  18.671  1.00  0.00    -0.287 OA
BRANCH  36  38
HETATM   38  C22 UNL     1      17.562  37.512  17.657  1.00  0.00     0.293 C 
HETATM   39  O6  UNL     1      17.687  38.252  16.669  1.00  0.00    -0.264 OA
HETATM   40  N3  UNL     1      18.588  37.231  18.544  1.00  0.00    -0.304 N 
HETATM   41  C23 UNL     1      19.891  37.554  18.717  1.00  0.00     0.126 C 
ATOM     42  H3  UNL     1      18.270  36.599  19.278  1.00  0.00     0.171 HD
BRANCH  41  43
HETATM   43  O7  UNL     1      20.454  36.989  19.792  1.00  0.00    -0.349 OA
ATOM     44  H7  UNL     1      21.063  37.556  20.253  1.00  0.00     0.219 HD
ENDBRANCH  41  43
BRANCH  41  45
HETATM   45  C24 UNL     1      20.858  38.384  18.008  1.00  0.00     0.021 A 
HETATM   46  C25 UNL     1      21.344  38.102  16.599  1.00  0.00     0.024 C 
HETATM   47  C26 UNL     1      20.834  39.875  18.358  1.00  0.00     0.018 A 
HETATM   48  C27 UNL     1      21.951  39.028  18.859  1.00  0.00     0.018 A 
ENDBRANCH  41  45
ENDBRANCH  36  38
ENDBRANCH  34  36
ENDBRANCH  31  34
ENDBRANCH  29  31
ENDBRANCH  27  29
ENDBRANCH   1  25
TORSDOF 17
ENDMDL
MODEL 4
REMARK VINA RESULT: -8.806952355      1.391      1.807
REMARK  17 active torsions:
REMARK  status: ('A' for Active; 'I' for Inactive)
REMARK    1  A    between atoms: C2_2  and  C3_3 
REMARK    2  A    between atoms: C3_3  and  C5_5 
REMARK    3  A    between atoms: C5_5  and  N1_6 
REMARK    4  A    between atoms: C5_5  and  C12_17 
REMARK       I    between atoms: N1_6  and  C6_8 
REMARK    5  A    between atoms: C6_8  and  C7_10 
REMARK    6  A    between atoms: C7_10  and  C8_12 
REMARK    7  A    between atoms: C8_12  and  C9_13 
REMARK    8  A    between atoms: C9_13  and  C11_15 
REMARK    9  A    between atoms: C12_17  and  C13_19 
REMARK   10  A    between atoms: C13_19  and  C14_20 
REMARK       I    between atoms: C14_20  and  N2_22 
REMARK   11  A    between atoms: N2_22  and  C15_24 
REMARK   12  A    between atoms: C15_24  and  C17_26 
REMARK   13  A    between atoms: C17_26  and  C19_29 
REMARK   14  A    between atoms: C19_29  and  C21_31 
REMARK   15  A    between atoms: C21_31  and  C22_33 
REMARK       I    between atoms: C22_33  and  N3_35 
REMARK   16  A    between atoms: C23_37  and  O7_38 
REMARK   17  A    between atoms: C23_37  and  C24_40 
ROOT
HETATM    1  C13 UNL     1      18.956  29.561  13.984  1.00  0.00     0.103 C 
HETATM    2  C28 UNL     1      18.583  29.935  12.550  1.00  0.00     0.027 C 
HETATM    3  C29 UNL     1      18.165  28.839  11.674  1.00  0.00     0.002 C 
HETATM    4  C30 UNL     1      17.924  27.521  12.304  1.00  0.00     0.000 C 
HETATM    5  C31 UNL     1      17.446  27.541  13.697  1.00  0.00     0.002 C 
HETATM    6  C32 UNL     1      17.968  28.617  14.590  1.00  0.00     0.027 C 
ENDROOT
BRANCH   1   7
HETATM    7  C12 UNL     1      20.348  29.068  14.053  1.00  0.00     0.167 C 
HETATM    8  O3  UNL     1      20.574  28.341  15.046  1.00  0.00    -0.294 OA
BRANCH   7   9
HETATM    9  C5  UNL     1      21.482  29.301  13.155  1.00  0.00     0.159 C 
BRANCH   9  10
HETATM   10  C3  UNL     1      22.315  28.117  12.766  1.00  0.00     0.011 C 
HETATM   11  C4  UNL     1      21.633  27.045  11.983  1.00  0.00     0.012 C 
BRANCH  10  12
HETATM   12  C2  UNL     1      23.490  28.552  11.883  1.00  0.00     0.002 C 
HETATM   13  C1  UNL     1      24.411  27.452  11.507  1.00  0.00     0.005 C 
ENDBRANCH  10  12
ENDBRANCH   9  10
BRANCH   9  14
HETATM   14  N1  UNL     1      22.358  30.187  13.982  1.00  0.00    -0.343 N 
HETATM   15  C6  UNL     1      22.448  31.552  13.783  1.00  0.00     0.288 C 
HETATM   16  O1  UNL     1      21.787  32.112  12.876  1.00  0.00    -0.264 OA
ATOM     17  H1  UNL     1      22.914  29.765  14.726  1.00  0.00     0.163 HD
BRANCH  15  18
HETATM   18  C7  UNL     1      23.302  32.369  14.615  1.00  0.00     0.216 C 
HETATM   19  O2  UNL     1      24.392  32.782  14.181  1.00  0.00    -0.287 OA
BRANCH  18  20
HETATM   20  C8  UNL     1      22.896  32.724  15.994  1.00  0.00     0.095 C 
BRANCH  20  21
HETATM   21  C9  UNL     1      22.556  34.198  16.071  1.00  0.00     0.018 C 
HETATM   22  C10 UNL     1      21.112  34.484  15.810  1.00  0.00     0.012 C 
BRANCH  21  23
HETATM   23  C11 UNL     1      22.928  34.638  17.478  1.00  0.00     0.226 C 
HETATM   24  F1  UNL     1      21.920  34.327  18.353  1.00  0.00    -0.255 F 
ENDBRANCH  21  23
ENDBRANCH  20  21
ENDBRANCH  18  20
ENDBRANCH  15  18
ENDBRANCH   9  14
ENDBRANCH   7   9
ENDBRANCH   1   7
BRANCH   1  25
HETATM   25  C14 UNL     1      18.888  30.854  14.695  1.00  0.00     0.234 C 
HETATM   26  O4  UNL     1      19.759  31.164  15.530  1.00  0.00    -0.272 OA
HETATM   27  N2  UNL     1      17.839  31.799  14.461  1.00  0.00    -0.353 N 
ATOM     28  H2  UNL     1      17.122  31.556  13.776  1.00  0.00     0.163 HD
BRANCH  27  29
HETATM   29  C15 UNL     1      17.729  33.072  15.129  1.00  0.00     0.120 C 
HETATM   30  C16 UNL     1      17.266  34.198  14.255  1.00  0.00     0.035 C 
BRANCH  29  31
HETATM   31  C17 UNL     1      16.995  33.009  16.430  1.00  0.00     0.130 C 
HETATM   32  C18 UNL     1      15.808  32.014  16.220  1.00  0.00     0.055 C 
HETATM   33  F2  UNL     1      17.778  32.379  17.366  1.00  0.00    -0.240 F 
BRANCH  31  34
HETATM   34  C19 UNL     1      16.350  34.277  16.872  1.00  0.00     0.103 C 
HETATM   35  C20 UNL     1      15.058  33.988  17.662  1.00  0.00     0.022 C 
BRANCH  34  36
HETATM   36  C21 UNL     1      17.102  35.231  17.636  1.00  0.00     0.223 C 
HETATM   37  O5  UNL     1      17.678  34.838  18.710  1.00  0.00    -0.287 OA
BRANCH  36  38
HETATM   38  C22 UNL     1      17.306  36.667  17.335  1.00  0.00     0.293 C 
HETATM   39  O6  UNL     1      16.860  37.021  16.232  1.00  0.00    -0.264 OA
HETATM   40  N3  UNL     1      17.940  37.523  18.219  1.00  0.00    -0.304 N 
HETATM   41  C23 UNL     1      18.285  38.830  18.289  1.00  0.00     0.126 C 
ATOM     42  H3  UNL     1      18.231  37.025  19.060  1.00  0.00     0.171 HD
BRANCH  41  43
HETATM   43  O7  UNL     1      18.910  39.168  19.423  1.00  0.00    -0.349 OA
ATOM     44  H7  UNL     1      19.209  40.070  19.446  1.00  0.00     0.219 HD
ENDBRANCH  41  43
BRANCH  41  45
HETATM   45  C24 UNL     1      18.143  39.990  17.417  1.00  0.00     0.021 A 
HETATM   46  C25 UNL     1      19.055  40.282  16.240  1.00  0.00     0.024 C 
HETATM   47  C26 UNL     1      16.712  40.499  17.220  1.00  0.00     0.018 A 
HETATM   48  C27 UNL     1      17.649  41.277  18.076  1.00  0.00     0.018 A 
ENDBRANCH  41  45
ENDBRANCH  36  38
ENDBRANCH  34  36
ENDBRANCH  31  34
ENDBRANCH  29  31
ENDBRANCH  27  29
ENDBRANCH   1  25
TORSDOF 17
ENDMDL
MODEL 5
REMARK VINA RESULT: -8.552066966      3.217      8.924
REMARK  17 active torsions:
REMARK  status: ('A' for Active; 'I' for Inactive)
REMARK    1  A    between atoms: C2_2  and  C3_3 
REMARK    2  A    between atoms: C3_3  and  C5_5 
REMARK    3  A    between atoms: C5_5  and  N1_6 
REMARK    4  A    between atoms: C5_5  and  C12_17 
REMARK       I    between atoms: N1_6  and  C6_8 
REMARK    5  A    between atoms: C6_8  and  C7_10 
REMARK    6  A    between atoms: C7_10  and  C8_12 
REMARK    7  A    between atoms: C8_12  and  C9_13 
REMARK    8  A    between atoms: C9_13  and  C11_15 
REMARK    9  A    between atoms: C12_17  and  C13_19 
REMARK   10  A    between atoms: C13_19  and  C14_20 
REMARK       I    between atoms: C14_20  and  N2_22 
REMARK   11  A    between atoms: N2_22  and  C15_24 
REMARK   12  A    between atoms: C15_24  and  C17_26 
REMARK   13  A    between atoms: C17_26  and  C19_29 
REMARK   14  A    between atoms: C19_29  and  C21_31 
REMARK   15  A    between atoms: C21_31  and  C22_33 
REMARK       I    between atoms: C22_33  and  N3_35 
REMARK   16  A    between atoms: C23_37  and  O7_38 
REMARK   17  A    between atoms: C23_37  and  C24_40 
ROOT
HETATM    1  C13 UNL     1      18.631  32.340  14.740  1.00  0.00     0.103 C 
HETATM    2  C28 UNL     1      17.382  31.481  14.931  1.00  0.00     0.027 C 
HETATM    3  C29 UNL     1      16.260  32.101  15.637  1.00  0.00     0.002 C 
HETATM    4  C30 UNL     1      16.345  33.556  15.899  1.00  0.00     0.000 C 
HETATM    5  C31 UNL     1      17.096  34.353  14.915  1.00  0.00     0.002 C 
HETATM    6  C32 UNL     1      18.293  33.723  14.285  1.00  0.00     0.027 C 
ENDROOT
BRANCH   1   7
HETATM    7  C12 UNL     1      19.475  32.318  15.955  1.00  0.00     0.167 C 
HETATM    8  O3  UNL     1      19.222  31.365  16.724  1.00  0.00    -0.294 OA
BRANCH   7   9
HETATM    9  C5  UNL     1      20.537  33.230  16.387  1.00  0.00     0.159 C 
BRANCH   9  10
HETATM   10  C3  UNL     1      21.769  32.625  16.988  1.00  0.00     0.011 C 
HETATM   11  C4  UNL     1      22.618  31.794  16.085  1.00  0.00     0.012 C 
BRANCH  10  12
HETATM   12  C2  UNL     1      22.710  33.720  17.502  1.00  0.00     0.002 C 
HETATM   13  C1  UNL     1      23.475  34.418  16.439  1.00  0.00     0.005 C 
ENDBRANCH  10  12
ENDBRANCH   9  10
BRANCH   9  14
HETATM   14  N1  UNL     1      19.863  34.000  17.477  1.00  0.00    -0.343 N 
HETATM   15  C6  UNL     1      19.752  35.379  17.465  1.00  0.00     0.288 C 
HETATM   16  O1  UNL     1      20.228  36.052  16.519  1.00  0.00    -0.264 OA
ATOM     17  H1  UNL     1      19.467  33.487  18.264  1.00  0.00     0.163 HD
BRANCH  15  18
HETATM   18  C7  UNL     1      19.082  36.079  18.538  1.00  0.00     0.216 C 
HETATM   19  O2  UNL     1      19.723  36.835  19.289  1.00  0.00    -0.287 OA
BRANCH  18  20
HETATM   20  C8  UNL     1      17.629  35.906  18.760  1.00  0.00     0.095 C 
BRANCH  20  21
HETATM   21  C9  UNL     1      16.898  37.192  18.435  1.00  0.00     0.018 C 
HETATM   22  C10 UNL     1      17.052  37.613  17.008  1.00  0.00     0.012 C 
BRANCH  21  23
HETATM   23  C11 UNL     1      15.432  36.928  18.744  1.00  0.00     0.226 C 
HETATM   24  F1  UNL     1      14.868  36.172  17.750  1.00  0.00    -0.255 F 
ENDBRANCH  21  23
ENDBRANCH  20  21
ENDBRANCH  18  20
ENDBRANCH  15  18
ENDBRANCH   9  14
ENDBRANCH   7   9
ENDBRANCH   1   7
BRANCH   1  25
HETATM   25  C14 UNL     1      19.358  31.640  13.661  1.00  0.00     0.234 C 
HETATM   26  O4  UNL     1      19.440  32.142  12.525  1.00  0.00    -0.272 OA
HETATM   27  N2  UNL     1      19.996  30.375  13.868  1.00  0.00    -0.353 N 
ATOM     28  H2  UNL     1      19.937  29.957  14.797  1.00  0.00     0.163 HD
BRANCH  27  29
HETATM   29  C15 UNL     1      20.716  29.654  12.848  1.00  0.00     0.120 C 
HETATM   30  C16 UNL     1      22.132  30.101  12.649  1.00  0.00     0.035 C 
BRANCH  29  31
HETATM   31  C17 UNL     1      20.588  28.168  12.957  1.00  0.00     0.130 C 
HETATM   32  C18 UNL     1      21.623  27.561  11.955  1.00  0.00     0.055 C 
HETATM   33  F2  UNL     1      21.050  27.757  14.182  1.00  0.00    -0.240 F 
BRANCH  31  34
HETATM   34  C19 UNL     1      19.277  27.599  12.535  1.00  0.00     0.103 C 
HETATM   35  C20 UNL     1      18.291  27.560  13.719  1.00  0.00     0.022 C 
BRANCH  34  36
HETATM   36  C21 UNL     1      18.574  28.174  11.424  1.00  0.00     0.223 C 
HETATM   37  O5  UNL     1      18.014  29.315  11.578  1.00  0.00    -0.287 OA
BRANCH  36  38
HETATM   38  C22 UNL     1      18.403  27.597  10.070  1.00  0.00     0.293 C 
HETATM   39  O6  UNL     1      17.296  27.828   9.558  1.00  0.00    -0.264 OA
HETATM   40  N3  UNL     1      19.402  26.869   9.448  1.00  0.00    -0.304 N 
HETATM   41  C23 UNL     1      19.602  26.226   8.273  1.00  0.00     0.126 C 
ATOM     42  H3  UNL     1      20.224  26.796  10.046  1.00  0.00     0.171 HD
BRANCH  41  43
HETATM   43  O7  UNL     1      20.809  25.657   8.163  1.00  0.00    -0.349 OA
ATOM     44  H7  UNL     1      20.993  25.303   7.300  1.00  0.00     0.219 HD
ENDBRANCH  41  43
BRANCH  41  45
HETATM   45  C24 UNL     1      18.814  25.991   7.070  1.00  0.00     0.021 A 
HETATM   46  C25 UNL     1      17.633  25.041   7.003  1.00  0.00     0.024 C 
HETATM   47  C26 UNL     1      18.692  27.183   6.116  1.00  0.00     0.018 A 
HETATM   48  C27 UNL     1      19.570  26.040   5.743  1.00  0.00     0.018 A 
ENDBRANCH  41  45
ENDBRANCH  36  38
ENDBRANCH  34  36
ENDBRANCH  31  34
ENDBRANCH  29  31
ENDBRANCH  27  29
ENDBRANCH   1  25
TORSDOF 17
ENDMDL
