MODEL 1
REMARK VINA RESULT: -8.859831985      0.000      0.000
REMARK  15 active torsions:
REMARK  status: ('A' for Active; 'I' for Inactive)
REMARK    1  A    between atoms: C2_2  and  C4_4 
REMARK    2  A    between atoms: C4_4  and  C5_5 
REMARK    3  A    between atoms: C5_5  and  C6_7 
REMARK    4  A    between atoms: C6_7  and  C7_8 
REMARK    5  A    between atoms: C6_7  and  N1_15 
REMARK    6  A    between atoms: C7_8  and  C8_9 
REMARK       I    between atoms: N1_15  and  C14_17 
REMARK    7  A    between atoms: C14_17  and  C15_19 
REMARK    8  A    between atoms: C15_19  and  C16_20 
REMARK    9  A    between atoms: C15_19  and  N2_22 
REMARK       I    between atoms: N2_22  and  C17_24 
REMARK   10  A    between atoms: C17_24  and  C18_26 
REMARK   11  A    between atoms: C18_26  and  N3_28 
REMARK       I    between atoms: N3_28  and  C20_30 
REMARK   12  A    between atoms: C20_30  and  C21_32 
REMARK   13  A    between atoms: C21_32  and  O6_33 
REMARK   14  A    between atoms: O6_33  and  C22_34 
REMARK   15  A    between atoms: N4_39  and  O7_40 
ROOT
HETATM    1  N2  UNL     1      -3.984  -5.896 -18.052  1.00  0.00    -0.340 N 
ATOM      2  H2  UNL     1      -4.596  -5.081 -18.108  1.00  0.00     0.163 HD
HETATM    3  C17 UNL     1      -3.039  -5.925 -17.015  1.00  0.00     0.241 C 
HETATM    4  O4  UNL     1      -2.259  -6.902 -16.910  1.00  0.00    -0.271 OA
ENDROOT
BRANCH   1   5
HETATM    5  C15 UNL     1      -4.160  -6.929 -19.049  1.00  0.00     0.238 C 
BRANCH   5   6
HETATM    6  C14 UNL     1      -5.556  -7.429 -18.910  1.00  0.00     0.247 C 
HETATM    7  N1  UNL     1      -6.645  -6.588 -18.487  1.00  0.00    -0.348 N 
ATOM      8  H1  UNL     1      -6.469  -5.609 -18.264  1.00  0.00     0.163 HD
HETATM    9  O2  UNL     1      -5.846  -8.637 -19.162  1.00  0.00    -0.271 OA
BRANCH   7  10
HETATM   10  C6  UNL     1      -7.963  -7.108 -18.375  1.00  0.00     0.154 C 
BRANCH  10  11
HETATM   11  C5  UNL     1      -8.870  -5.904 -18.166  1.00  0.00     0.149 C 
HETATM   12  O1  UNL     1      -9.927  -5.813 -18.747  1.00  0.00    -0.296 OA
BRANCH  11  13
HETATM   13  C4  UNL     1      -8.400  -4.855 -17.223  1.00  0.00     0.084 C 
BRANCH  13  14
HETATM   14  C2  UNL     1      -9.366  -4.731 -16.067  1.00  0.00    -0.016 C 
HETATM   15  C1  UNL     1      -8.726  -5.416 -14.868  1.00  0.00     0.010 C 
HETATM   16  C3  UNL     1      -9.517  -3.241 -15.762  1.00  0.00     0.010 C 
ENDBRANCH  13  14
ENDBRANCH  11  13
ENDBRANCH  10  11
BRANCH  10  17
HETATM   17  C7  UNL     1      -8.251  -8.092 -17.299  1.00  0.00     0.037 C 
BRANCH  17  18
HETATM   18  C8  UNL     1      -9.118  -9.269 -17.652  1.00  0.00    -0.012 C 
HETATM   19  C9  UNL     1      -9.647  -9.312 -19.029  1.00  0.00     0.005 C 
HETATM   20  C10 UNL     1      -9.723 -10.606 -19.742  1.00  0.00     0.000 C 
HETATM   21  C11 UNL     1      -9.197 -11.813 -19.046  1.00  0.00     0.000 C 
HETATM   22  C12 UNL     1      -7.946 -11.355 -18.283  1.00  0.00     0.000 C 
HETATM   23  C13 UNL     1      -8.499 -10.544 -17.128  1.00  0.00     0.005 C 
ENDBRANCH  17  18
ENDBRANCH  10  17
ENDBRANCH   7  10
ENDBRANCH   5   6
BRANCH   5  24
HETATM   24  C16 UNL     1      -4.007  -6.312 -20.393  1.00  0.00     0.266 C 
HETATM   25  O3  UNL     1      -2.990  -6.532 -21.021  1.00  0.00    -0.304 OA
ENDBRANCH   5  24
ENDBRANCH   1   5
BRANCH   3  26
HETATM   26  C18 UNL     1      -2.915  -4.834 -16.015  1.00  0.00     0.172 C 
HETATM   27  C19 UNL     1      -1.413  -4.700 -15.748  1.00  0.00     0.042 C 
BRANCH  26  28
HETATM   28  N3  UNL     1      -3.482  -3.597 -16.438  1.00  0.00    -0.346 N 
HETATM   29  C20 UNL     1      -4.798  -3.228 -15.965  1.00  0.00     0.242 C 
HETATM   30  O5  UNL     1      -5.416  -3.997 -15.188  1.00  0.00    -0.271 OA
ATOM     31  H3  UNL     1      -2.967  -2.981 -17.068  1.00  0.00     0.163 HD
BRANCH  29  32
HETATM   32  C21 UNL     1      -5.422  -1.962 -16.383  1.00  0.00     0.270 C 
BRANCH  32  33
HETATM   33  O6  UNL     1      -5.967  -1.279 -15.343  1.00  0.00    -0.377 OA
BRANCH  33  34
HETATM   34  C22 UNL     1      -5.670   0.056 -15.224  1.00  0.00     0.126 C 
HETATM   35  C23 UNL     1      -6.621   0.559 -14.101  1.00  0.00     0.058 C 
HETATM   36  C24 UNL     1      -6.567  -0.400 -12.961  1.00  0.00     0.034 C 
HETATM   37  C25 UNL     1      -7.728  -1.382 -13.123  1.00  0.00     0.034 C 
HETATM   38  C26 UNL     1      -6.821   0.332 -11.647  1.00  0.00     0.034 C 
HETATM   39  N4  UNL     1      -5.362  -1.193 -12.938  1.00  0.00    -0.182 NA
HETATM   40  C27 UNL     1      -4.195  -0.501 -13.359  1.00  0.00     0.034 C 
HETATM   41  C28 UNL     1      -3.687   0.477 -12.288  1.00  0.00     0.034 C 
HETATM   42  C29 UNL     1      -3.085  -1.533 -13.508  1.00  0.00     0.034 C 
HETATM   43  C30 UNL     1      -4.301   0.253 -14.654  1.00  0.00     0.058 C 
BRANCH  39  44
HETATM   44  O7  UNL     1      -5.187  -1.638 -11.667  1.00  0.00    -0.312 OA
ATOM     45  H7  UNL     1      -5.613  -2.485 -11.598  1.00  0.00     0.237 HD
ENDBRANCH  39  44
ENDBRANCH  33  34
ENDBRANCH  32  33
ENDBRANCH  29  32
ENDBRANCH  26  28
ENDBRANCH   3  26
TORSDOF 15
ENDMDL
MODEL 2
REMARK VINA RESULT: -8.842973936      4.507     11.371
REMARK  15 active torsions:
REMARK  status: ('A' for Active; 'I' for Inactive)
REMARK    1  A    between atoms: C2_2  and  C4_4 
REMARK    2  A    between atoms: C4_4  and  C5_5 
REMARK    3  A    between atoms: C5_5  and  C6_7 
REMARK    4  A    between atoms: C6_7  and  C7_8 
REMARK    5  A    between atoms: C6_7  and  N1_15 
REMARK    6  A    between atoms: C7_8  and  C8_9 
REMARK       I    between atoms: N1_15  and  C14_17 
REMARK    7  A    between atoms: C14_17  and  C15_19 
REMARK    8  A    between atoms: C15_19  and  C16_20 
REMARK    9  A    between atoms: C15_19  and  N2_22 
REMARK       I    between atoms: N2_22  and  C17_24 
REMARK   10  A    between atoms: C17_24  and  C18_26 
REMARK   11  A    between atoms: C18_26  and  N3_28 
REMARK       I    between atoms: N3_28  and  C20_30 
REMARK   12  A    between atoms: C20_30  and  C21_32 
REMARK   13  A    between atoms: C21_32  and  O6_33 
REMARK   14  A    between atoms: O6_33  and  C22_34 
REMARK   15  A    between atoms: N4_39  and  O7_40 
ROOT
HETATM    1  N2  UNL     1      -2.639   3.023  -9.695  1.00  0.00    -0.340 N 
ATOM      2  H2  UNL     1      -3.127   2.164  -9.442  1.00  0.00     0.163 HD
HETATM    3  C17 UNL     1      -1.973   3.046 -10.931  1.00  0.00     0.241 C 
HETATM    4  O4  UNL     1      -1.351   4.077 -11.284  1.00  0.00    -0.271 OA
ENDROOT
BRANCH   1   5
HETATM    5  C15 UNL     1      -2.687   4.119  -8.753  1.00  0.00     0.238 C 
BRANCH   5   6
HETATM    6  C14 UNL     1      -4.126   4.412  -8.507  1.00  0.00     0.247 C 
HETATM    7  N1  UNL     1      -5.058   3.413  -8.055  1.00  0.00    -0.348 N 
ATOM      8  H1  UNL     1      -4.737   2.458  -7.896  1.00  0.00     0.163 HD
HETATM    9  O2  UNL     1      -4.597   5.575  -8.691  1.00  0.00    -0.271 OA
BRANCH   7  10
HETATM   10  C6  UNL     1      -6.422   3.741  -7.827  1.00  0.00     0.154 C 
BRANCH  10  11
HETATM   11  C5  UNL     1      -6.664   3.513  -6.343  1.00  0.00     0.149 C 
HETATM   12  O1  UNL     1      -5.871   3.904  -5.516  1.00  0.00    -0.296 OA
BRANCH  11  13
HETATM   13  C4  UNL     1      -7.908   2.795  -5.959  1.00  0.00     0.084 C 
BRANCH  13  14
HETATM   14  C2  UNL     1      -7.657   1.949  -4.732  1.00  0.00    -0.016 C 
HETATM   15  C1  UNL     1      -8.986   1.807  -4.002  1.00  0.00     0.010 C 
HETATM   16  C3  UNL     1      -7.211   0.571  -5.217  1.00  0.00     0.010 C 
ENDBRANCH  13  14
ENDBRANCH  11  13
ENDBRANCH  10  11
BRANCH  10  17
HETATM   17  C7  UNL     1      -7.467   3.002  -8.583  1.00  0.00     0.037 C 
BRANCH  17  18
HETATM   18  C8  UNL     1      -7.008   2.069  -9.668  1.00  0.00    -0.012 C 
HETATM   19  C9  UNL     1      -7.828   0.863  -9.896  1.00  0.00     0.005 C 
HETATM   20  C10 UNL     1      -8.055   0.387 -11.278  1.00  0.00     0.000 C 
HETATM   21  C11 UNL     1      -7.487   1.194 -12.393  1.00  0.00     0.000 C 
HETATM   22  C12 UNL     1      -7.649   2.665 -11.982  1.00  0.00     0.000 C 
HETATM   23  C13 UNL     1      -6.611   2.857 -10.895  1.00  0.00     0.005 C 
ENDBRANCH  17  18
ENDBRANCH  10  17
ENDBRANCH   7  10
ENDBRANCH   5   6
BRANCH   5  24
HETATM   24  C16 UNL     1      -2.069   3.667  -7.479  1.00  0.00     0.266 C 
HETATM   25  O3  UNL     1      -2.747   3.671  -6.470  1.00  0.00    -0.304 OA
ENDBRANCH   5  24
ENDBRANCH   1   5
BRANCH   3  26
HETATM   26  C18 UNL     1      -1.969   1.888 -11.860  1.00  0.00     0.172 C 
HETATM   27  C19 UNL     1      -0.505   1.447 -11.950  1.00  0.00     0.042 C 
BRANCH  26  28
HETATM   28  N3  UNL     1      -2.813   0.816 -11.448  1.00  0.00    -0.346 N 
HETATM   29  C20 UNL     1      -3.704   0.211 -12.412  1.00  0.00     0.242 C 
HETATM   30  O5  UNL     1      -3.719   0.635 -13.595  1.00  0.00    -0.271 OA
ATOM     31  H3  UNL     1      -2.788   0.480 -10.484  1.00  0.00     0.163 HD
BRANCH  29  32
HETATM   32  C21 UNL     1      -4.595  -0.895 -12.026  1.00  0.00     0.270 C 
BRANCH  32  33
HETATM   33  O6  UNL     1      -5.153  -1.516 -13.097  1.00  0.00    -0.377 OA
BRANCH  33  34
HETATM   34  C22 UNL     1      -5.334  -2.876 -13.029  1.00  0.00     0.126 C 
HETATM   35  C23 UNL     1      -6.538  -3.147 -13.977  1.00  0.00     0.058 C 
HETATM   36  C24 UNL     1      -6.318  -2.409 -15.254  1.00  0.00     0.034 C 
HETATM   37  C25 UNL     1      -7.056  -1.073 -15.153  1.00  0.00     0.034 C 
HETATM   38  C26 UNL     1      -6.971  -3.158 -16.412  1.00  0.00     0.034 C 
HETATM   39  N4  UNL     1      -4.932  -2.093 -15.500  1.00  0.00    -0.182 NA
HETATM   40  C27 UNL     1      -4.017  -3.092 -15.074  1.00  0.00     0.034 C 
HETATM   41  C28 UNL     1      -4.007  -4.305 -16.017  1.00  0.00     0.034 C 
HETATM   42  C29 UNL     1      -2.617  -2.500 -15.181  1.00  0.00     0.034 C 
HETATM   43  C30 UNL     1      -4.196  -3.602 -13.672  1.00  0.00     0.058 C 
BRANCH  39  44
HETATM   44  O7  UNL     1      -4.788  -1.891 -16.836  1.00  0.00    -0.312 OA
ATOM     45  H7  UNL     1      -4.005  -1.367 -16.964  1.00  0.00     0.237 HD
ENDBRANCH  39  44
ENDBRANCH  33  34
ENDBRANCH  32  33
ENDBRANCH  29  32
ENDBRANCH  26  28
ENDBRANCH   3  26
TORSDOF 15
ENDMDL
MODEL 3
REMARK VINA RESULT: -8.800405106      2.446      5.889
REMARK  15 active torsions:
REMARK  status: ('A' for Active; 'I' for Inactive)
REMARK    1  A    between atoms: C2_2  and  C4_4 
REMARK    2  A    between atoms: C4_4  and  C5_5 
REMARK    3  A    between atoms: C5_5  and  C6_7 
REMARK    4  A    between atoms: C6_7  and  C7_8 
REMARK    5  A    between atoms: C6_7  and  N1_15 
REMARK    6  A    between atoms: C7_8  and  C8_9 
REMARK       I    between atoms: N1_15  and  C14_17 
REMARK    7  A    between atoms: C14_17  and  C15_19 
REMARK    8  A    between atoms: C15_19  and  C16_20 
REMARK    9  A    between atoms: C15_19  and  N2_22 
REMARK       I    between atoms: N2_22  and  C17_24 
REMARK   10  A    between atoms: C17_24  and  C18_26 
REMARK   11  A    between atoms: C18_26  and  N3_28 
REMARK       I    between atoms: N3_28  and  C20_30 
REMARK   12  A    between atoms: C20_30  and  C21_32 
REMARK   13  A    between atoms: C21_32  and  O6_33 
REMARK   14  A    between atoms: O6_33  and  C22_34 
REMARK   15  A    between atoms: N4_39  and  O7_40 
ROOT
HETATM    1  N2  UNL     1      -8.072  -7.400 -16.870  1.00  0.00    -0.340 N 
ATOM      2  H2  UNL     1      -7.852  -7.602 -15.894  1.00  0.00     0.163 HD
HETATM    3  C17 UNL     1      -8.420  -6.079 -17.194  1.00  0.00     0.241 C 
HETATM    4  O4  UNL     1      -8.707  -5.783 -18.379  1.00  0.00    -0.271 OA
ENDROOT
BRANCH   1   5
HETATM    5  C15 UNL     1      -8.002  -8.498 -17.809  1.00  0.00     0.238 C 
BRANCH   5   6
HETATM    6  C14 UNL     1      -6.559  -8.730 -18.092  1.00  0.00     0.247 C 
HETATM    7  N1  UNL     1      -5.521  -8.435 -17.140  1.00  0.00    -0.348 N 
ATOM      8  H1  UNL     1      -5.767  -8.045 -16.230  1.00  0.00     0.163 HD
HETATM    9  O2  UNL     1      -6.180  -9.205 -19.205  1.00  0.00    -0.271 OA
BRANCH   7  10
HETATM   10  C6  UNL     1      -4.157  -8.680 -17.452  1.00  0.00     0.154 C 
BRANCH  10  11
HETATM   11  C5  UNL     1      -3.888 -10.122 -17.049  1.00  0.00     0.149 C 
HETATM   12  O1  UNL     1      -3.229 -10.852 -17.754  1.00  0.00    -0.296 OA
BRANCH  11  13
HETATM   13  C4  UNL     1      -4.468 -10.587 -15.762  1.00  0.00     0.084 C 
BRANCH  13  14
HETATM   14  C2  UNL     1      -3.424 -11.342 -14.970  1.00  0.00    -0.016 C 
HETATM   15  C1  UNL     1      -3.632 -10.993 -13.502  1.00  0.00     0.010 C 
HETATM   16  C3  UNL     1      -3.698 -12.832 -15.168  1.00  0.00     0.010 C 
ENDBRANCH  13  14
ENDBRANCH  11  13
ENDBRANCH  10  11
BRANCH  10  17
HETATM   17  C7  UNL     1      -3.117  -7.825 -16.821  1.00  0.00     0.037 C 
BRANCH  17  18
HETATM   18  C8  UNL     1      -3.352  -6.340 -16.815  1.00  0.00    -0.012 C 
HETATM   19  C9  UNL     1      -4.003  -5.777 -15.616  1.00  0.00     0.005 C 
HETATM   20  C10 UNL     1      -3.555  -4.469 -15.089  1.00  0.00     0.000 C 
HETATM   21  C11 UNL     1      -2.411  -3.802 -15.771  1.00  0.00     0.000 C 
HETATM   22  C12 UNL     1      -1.434  -4.921 -16.161  1.00  0.00     0.000 C 
HETATM   23  C13 UNL     1      -2.123  -5.619 -17.317  1.00  0.00     0.005 C 
ENDBRANCH  17  18
ENDBRANCH  10  17
ENDBRANCH   7  10
ENDBRANCH   5   6
BRANCH   5  24
HETATM   24  C16 UNL     1      -8.559  -9.710 -17.152  1.00  0.00     0.266 C 
HETATM   25  O3  UNL     1      -7.854 -10.328 -16.379  1.00  0.00    -0.304 OA
ENDBRANCH   5  24
ENDBRANCH   1   5
BRANCH   3  26
HETATM   26  C18 UNL     1      -8.465  -4.992 -16.183  1.00  0.00     0.172 C 
HETATM   27  C19 UNL     1      -8.803  -5.684 -14.860  1.00  0.00     0.042 C 
BRANCH  26  28
HETATM   28  N3  UNL     1      -7.254  -4.245 -16.087  1.00  0.00    -0.346 N 
HETATM   29  C20 UNL     1      -7.318  -2.800 -16.075  1.00  0.00     0.242 C 
HETATM   30  O5  UNL     1      -8.434  -2.228 -16.145  1.00  0.00    -0.271 OA
ATOM     31  H3  UNL     1      -6.355  -4.724 -16.028  1.00  0.00     0.163 HD
BRANCH  29  32
HETATM   32  C21 UNL     1      -6.091  -1.992 -15.982  1.00  0.00     0.270 C 
BRANCH  32  33
HETATM   33  O6  UNL     1      -6.021  -1.280 -14.827  1.00  0.00    -0.377 OA
BRANCH  33  34
HETATM   34  C22 UNL     1      -6.329  -1.926 -13.655  1.00  0.00     0.126 C 
HETATM   35  C23 UNL     1      -5.002  -1.895 -12.843  1.00  0.00     0.058 C 
HETATM   36  C24 UNL     1      -4.437  -0.517 -12.900  1.00  0.00     0.034 C 
HETATM   37  C25 UNL     1      -3.418  -0.477 -14.039  1.00  0.00     0.034 C 
HETATM   38  C26 UNL     1      -3.651  -0.219 -11.626  1.00  0.00     0.034 C 
HETATM   39  N4  UNL     1      -5.424   0.493 -13.198  1.00  0.00    -0.182 NA
HETATM   40  C27 UNL     1      -6.701   0.256 -12.623  1.00  0.00     0.034 C 
HETATM   41  C28 UNL     1      -6.717   0.549 -11.114  1.00  0.00     0.034 C 
HETATM   42  C29 UNL     1      -7.666   1.266 -13.230  1.00  0.00     0.034 C 
HETATM   43  C30 UNL     1      -7.278  -1.116 -12.829  1.00  0.00     0.058 C 
BRANCH  39  44
HETATM   44  O7  UNL     1      -4.943   1.683 -12.751  1.00  0.00    -0.312 OA
ATOM     45  H7  UNL     1      -5.419   2.372 -13.199  1.00  0.00     0.237 HD
ENDBRANCH  39  44
ENDBRANCH  33  34
ENDBRANCH  32  33
ENDBRANCH  29  32
ENDBRANCH  26  28
ENDBRANCH   3  26
TORSDOF 15
ENDMDL
MODEL 4
REMARK VINA RESULT: -8.674350114      1.072      3.430
REMARK  15 active torsions:
REMARK  status: ('A' for Active; 'I' for Inactive)
REMARK    1  A    between atoms: C2_2  and  C4_4 
REMARK    2  A    between atoms: C4_4  and  C5_5 
REMARK    3  A    between atoms: C5_5  and  C6_7 
REMARK    4  A    between atoms: C6_7  and  C7_8 
REMARK    5  A    between atoms: C6_7  and  N1_15 
REMARK    6  A    between atoms: C7_8  and  C8_9 
REMARK       I    between atoms: N1_15  and  C14_17 
REMARK    7  A    between atoms: C14_17  and  C15_19 
REMARK    8  A    between atoms: C15_19  and  C16_20 
REMARK    9  A    between atoms: C15_19  and  N2_22 
REMARK       I    between atoms: N2_22  and  C17_24 
REMARK   10  A    between atoms: C17_24  and  C18_26 
REMARK   11  A    between atoms: C18_26  and  N3_28 
REMARK       I    between atoms: N3_28  and  C20_30 
REMARK   12  A    between atoms: C20_30  and  C21_32 
REMARK   13  A    between atoms: C21_32  and  O6_33 
REMARK   14  A    between atoms: O6_33  and  C22_34 
REMARK   15  A    between atoms: N4_39  and  O7_40 
ROOT
HETATM    1  N2  UNL     1      -4.396  -6.049 -17.682  1.00  0.00    -0.340 N 
ATOM      2  H2  UNL     1      -5.013  -5.242 -17.586  1.00  0.00     0.163 HD
HETATM    3  C17 UNL     1      -3.197  -6.035 -16.953  1.00  0.00     0.241 C 
HETATM    4  O4  UNL     1      -2.401  -7.001 -17.044  1.00  0.00    -0.271 OA
ENDROOT
BRANCH   1   5
HETATM    5  C15 UNL     1      -4.827  -7.116 -18.559  1.00  0.00     0.238 C 
BRANCH   5   6
HETATM    6  C14 UNL     1      -6.103  -7.643 -17.999  1.00  0.00     0.247 C 
HETATM    7  N1  UNL     1      -7.355  -7.561 -18.704  1.00  0.00    -0.348 N 
ATOM      8  H1  UNL     1      -7.389  -7.122 -19.623  1.00  0.00     0.163 HD
HETATM    9  O2  UNL     1      -6.137  -8.195 -16.858  1.00  0.00    -0.271 OA
BRANCH   7  10
HETATM   10  C6  UNL     1      -8.546  -8.085 -18.133  1.00  0.00     0.154 C 
BRANCH  10  11
HETATM   11  C5  UNL     1      -8.866  -9.348 -18.919  1.00  0.00     0.149 C 
HETATM   12  O1  UNL     1      -9.683  -9.334 -19.812  1.00  0.00    -0.296 OA
BRANCH  11  13
HETATM   13  C4  UNL     1      -8.134 -10.586 -18.543  1.00  0.00     0.084 C 
BRANCH  13  14
HETATM   14  C2  UNL     1      -8.444 -10.954 -17.110  1.00  0.00    -0.016 C 
HETATM   15  C1  UNL     1      -9.545 -12.005 -17.142  1.00  0.00     0.010 C 
HETATM   16  C3  UNL     1      -7.181 -11.578 -16.521  1.00  0.00     0.010 C 
ENDBRANCH  13  14
ENDBRANCH  11  13
ENDBRANCH  10  11
BRANCH  10  17
HETATM   17  C7  UNL     1      -9.763  -7.232 -18.118  1.00  0.00     0.037 C 
BRANCH  17  18
HETATM   18  C8  UNL     1      -9.970  -6.343 -16.923  1.00  0.00    -0.012 C 
HETATM   19  C9  UNL     1      -9.176  -6.656 -15.719  1.00  0.00     0.005 C 
HETATM   20  C10 UNL     1      -8.622  -5.553 -14.903  1.00  0.00     0.000 C 
HETATM   21  C11 UNL     1      -8.843  -4.159 -15.379  1.00  0.00     0.000 C 
HETATM   22  C12 UNL     1      -8.724  -4.205 -16.909  1.00  0.00     0.000 C 
HETATM   23  C13 UNL     1      -9.998  -4.894 -17.354  1.00  0.00     0.005 C 
ENDBRANCH  17  18
ENDBRANCH  10  17
ENDBRANCH   7  10
ENDBRANCH   5   6
BRANCH   5  24
HETATM   24  C16 UNL     1      -5.099  -6.536 -19.900  1.00  0.00     0.266 C 
HETATM   25  O3  UNL     1      -4.198  -6.509 -20.715  1.00  0.00    -0.304 OA
ENDBRANCH   5  24
ENDBRANCH   1   5
BRANCH   3  26
HETATM   26  C18 UNL     1      -2.815  -4.912 -16.060  1.00  0.00     0.172 C 
HETATM   27  C19 UNL     1      -1.284  -4.908 -16.048  1.00  0.00     0.042 C 
BRANCH  26  28
HETATM   28  N3  UNL     1      -3.337  -3.650 -16.468  1.00  0.00    -0.346 N 
HETATM   29  C20 UNL     1      -4.654  -3.254 -16.020  1.00  0.00     0.242 C 
HETATM   30  O5  UNL     1      -5.313  -4.024 -15.278  1.00  0.00    -0.271 OA
ATOM     31  H3  UNL     1      -2.788  -3.034 -17.069  1.00  0.00     0.163 HD
BRANCH  29  32
HETATM   32  C21 UNL     1      -5.231  -1.962 -16.423  1.00  0.00     0.270 C 
BRANCH  32  33
HETATM   33  O6  UNL     1      -5.822  -1.308 -15.390  1.00  0.00    -0.377 OA
BRANCH  33  34
HETATM   34  C22 UNL     1      -5.504   0.014 -15.200  1.00  0.00     0.126 C 
HETATM   35  C23 UNL     1      -6.494   0.489 -14.097  1.00  0.00     0.058 C 
HETATM   36  C24 UNL     1      -6.508  -0.520 -12.999  1.00  0.00     0.034 C 
HETATM   37  C25 UNL     1      -7.680  -1.469 -13.254  1.00  0.00     0.034 C 
HETATM   38  C26 UNL     1      -6.805   0.160 -11.666  1.00  0.00     0.034 C 
HETATM   39  N4  UNL     1      -5.321  -1.338 -12.960  1.00  0.00    -0.182 NA
HETATM   40  C27 UNL     1      -4.124  -0.654 -13.300  1.00  0.00     0.034 C 
HETATM   41  C28 UNL     1      -3.644   0.266 -12.165  1.00  0.00     0.034 C 
HETATM   42  C29 UNL     1      -3.028  -1.702 -13.446  1.00  0.00     0.034 C 
HETATM   43  C30 UNL     1      -4.158   0.157 -14.564  1.00  0.00     0.058 C 
BRANCH  39  44
HETATM   44  O7  UNL     1      -5.210  -1.842 -11.703  1.00  0.00    -0.312 OA
ATOM     45  H7  UNL     1      -4.510  -2.485 -11.711  1.00  0.00     0.237 HD
ENDBRANCH  39  44
ENDBRANCH  33  34
ENDBRANCH  32  33
ENDBRANCH  29  32
ENDBRANCH  26  28
ENDBRANCH   3  26
TORSDOF 15
ENDMDL
MODEL 5
REMARK VINA RESULT: -8.611532513      2.781      5.993
REMARK  15 active torsions:
REMARK  status: ('A' for Active; 'I' for Inactive)
REMARK    1  A    between atoms: C2_2  and  C4_4 
REMARK    2  A    between atoms: C4_4  and  C5_5 
REMARK    3  A    between atoms: C5_5  and  C6_7 
REMARK    4  A    between atoms: C6_7  and  C7_8 
REMARK    5  A    between atoms: C6_7  and  N1_15 
REMARK    6  A    between atoms: C7_8  and  C8_9 
REMARK       I    between atoms: N1_15  and  C14_17 
REMARK    7  A    between atoms: C14_17  and  C15_19 
REMARK    8  A    between atoms: C15_19  and  C16_20 
REMARK    9  A    between atoms: C15_19  and  N2_22 
REMARK       I    between atoms: N2_22  and  C17_24 
REMARK   10  A    between atoms: C17_24  and  C18_26 
REMARK   11  A    between atoms: C18_26  and  N3_28 
REMARK       I    between atoms: N3_28  and  C20_30 
REMARK   12  A    between atoms: C20_30  and  C21_32 
REMARK   13  A    between atoms: C21_32  and  O6_33 
REMARK   14  A    between atoms: O6_33  and  C22_34 
REMARK   15  A    between atoms: N4_39  and  O7_40 
ROOT
HETATM    1  N2  UNL     1      -8.229  -7.554 -17.691  1.00  0.00    -0.340 N 
ATOM      2  H2  UNL     1      -7.610  -7.428 -16.889  1.00  0.00     0.163 HD
HETATM    3  C17 UNL     1      -8.983  -6.446 -18.106  1.00  0.00     0.241 C 
HETATM    4  O4  UNL     1      -9.764  -6.554 -19.082  1.00  0.00    -0.271 OA
ENDROOT
BRANCH   1   5
HETATM    5  C15 UNL     1      -8.258  -8.862 -18.310  1.00  0.00     0.238 C 
BRANCH   5   6
HETATM    6  C14 UNL     1      -6.867  -9.393 -18.256  1.00  0.00     0.247 C 
HETATM    7  N1  UNL     1      -6.001  -9.195 -17.124  1.00  0.00    -0.348 N 
ATOM      8  H1  UNL     1      -6.336  -8.666 -16.319  1.00  0.00     0.163 HD
HETATM    9  O2  UNL     1      -6.383 -10.054 -19.224  1.00  0.00    -0.271 OA
BRANCH   7  10
HETATM   10  C6  UNL     1      -4.684  -9.728 -17.115  1.00  0.00     0.154 C 
BRANCH  10  11
HETATM   11  C5  UNL     1      -4.633 -10.695 -15.942  1.00  0.00     0.149 C 
HETATM   12  O1  UNL     1      -5.623 -11.294 -15.585  1.00  0.00    -0.296 OA
BRANCH  11  13
HETATM   13  C4  UNL     1      -3.323 -10.869 -15.260  1.00  0.00     0.084 C 
BRANCH  13  14
HETATM   14  C2  UNL     1      -3.501 -11.685 -14.000  1.00  0.00    -0.016 C 
HETATM   15  C1  UNL     1      -2.304 -12.619 -13.894  1.00  0.00     0.010 C 
HETATM   16  C3  UNL     1      -3.473 -10.710 -12.824  1.00  0.00     0.010 C 
ENDBRANCH  13  14
ENDBRANCH  11  13
ENDBRANCH  10  11
BRANCH  10  17
HETATM   17  C7  UNL     1      -3.538  -8.790 -16.988  1.00  0.00     0.037 C 
BRANCH  17  18
HETATM   18  C8  UNL     1      -3.836  -7.319 -17.065  1.00  0.00    -0.012 C 
HETATM   19  C9  UNL     1      -3.420  -6.497 -15.912  1.00  0.00     0.005 C 
HETATM   20  C10 UNL     1      -2.863  -5.146 -16.142  1.00  0.00     0.000 C 
HETATM   21  C11 UNL     1      -2.691  -4.697 -17.551  1.00  0.00     0.000 C 
HETATM   22  C12 UNL     1      -2.232  -5.932 -18.340  1.00  0.00     0.000 C 
HETATM   23  C13 UNL     1      -3.479  -6.788 -18.435  1.00  0.00     0.005 C 
ENDBRANCH  17  18
ENDBRANCH  10  17
ENDBRANCH   7  10
ENDBRANCH   5   6
BRANCH   5  24
HETATM   24  C16 UNL     1      -9.136  -9.743 -17.498  1.00  0.00     0.266 C 
HETATM   25  O3  UNL     1      -8.635 -10.404 -16.609  1.00  0.00    -0.304 OA
ENDBRANCH   5  24
ENDBRANCH   1   5
BRANCH   3  26
HETATM   26  C18 UNL     1      -8.902  -5.124 -17.433  1.00  0.00     0.172 C 
HETATM   27  C19 UNL     1     -10.343  -4.610 -17.377  1.00  0.00     0.042 C 
BRANCH  26  28
HETATM   28  N3  UNL     1      -8.315  -5.175 -16.135  1.00  0.00    -0.346 N 
HETATM   29  C20 UNL     1      -6.988  -4.632 -15.941  1.00  0.00     0.242 C 
HETATM   30  O5  UNL     1      -6.378  -4.123 -16.915  1.00  0.00    -0.271 OA
ATOM     31  H3  UNL     1      -8.824  -5.589 -15.353  1.00  0.00     0.163 HD
BRANCH  29  32
HETATM   32  C21 UNL     1      -6.344  -4.669 -14.618  1.00  0.00     0.270 C 
BRANCH  32  33
HETATM   33  O6  UNL     1      -5.695  -3.514 -14.321  1.00  0.00    -0.377 OA
BRANCH  33  34
HETATM   34  C22 UNL     1      -6.051  -2.855 -13.169  1.00  0.00     0.126 C 
HETATM   35  C23 UNL     1      -4.856  -1.897 -12.895  1.00  0.00     0.058 C 
HETATM   36  C24 UNL     1      -4.499  -1.201 -14.164  1.00  0.00     0.034 C 
HETATM   37  C25 UNL     1      -3.360  -1.983 -14.820  1.00  0.00     0.034 C 
HETATM   38  C26 UNL     1      -3.932   0.184 -13.862  1.00  0.00     0.034 C 
HETATM   39  N4  UNL     1      -5.577  -1.168 -15.122  1.00  0.00    -0.182 NA
HETATM   40  C27 UNL     1      -6.867  -1.013 -14.549  1.00  0.00     0.034 C 
HETATM   41  C28 UNL     1      -7.118   0.427 -14.074  1.00  0.00     0.034 C 
HETATM   42  C29 UNL     1      -7.886  -1.245 -15.657  1.00  0.00     0.034 C 
HETATM   43  C30 UNL     1      -7.205  -1.935 -13.412  1.00  0.00     0.058 C 
BRANCH  39  44
HETATM   44  O7  UNL     1      -5.337  -0.140 -15.977  1.00  0.00    -0.312 OA
ATOM     45  H7  UNL     1      -5.536  -0.444 -16.855  1.00  0.00     0.237 HD
ENDBRANCH  39  44
ENDBRANCH  33  34
ENDBRANCH  32  33
ENDBRANCH  29  32
ENDBRANCH  26  28
ENDBRANCH   3  26
TORSDOF 15
ENDMDL
