MODEL 1
REMARK VINA RESULT: -8.355487442      0.000      0.000
REMARK  15 active torsions:
REMARK  status: ('A' for Active; 'I' for Inactive)
REMARK    1  A    between atoms: C2_2  and  C3_4 
REMARK    2  A    between atoms: C3_4  and  N1_5 
REMARK    3  A    between atoms: C3_4  and  C18_24 
REMARK       I    between atoms: N1_5  and  C4_7 
REMARK    4  A    between atoms: C4_7  and  C5_9 
REMARK    5  A    between atoms: C5_9  and  C6_11 
REMARK    6  A    between atoms: C6_11  and  C7_12 
REMARK    7  A    between atoms: C9_15  and  C10_16 
REMARK    8  A    between atoms: C13_19  and  C14_20 
REMARK       I    between atoms: C18_24  and  N2_26 
REMARK    9  A    between atoms: N2_26  and  C19_28 
REMARK   10  A    between atoms: C19_28  and  C20_29 
REMARK   11  A    between atoms: C19_28  and  C27_41 
REMARK       I    between atoms: C20_29  and  N3_31 
REMARK   12  A    between atoms: N3_31  and  C21_32 
REMARK   13  A    between atoms: C21_32  and  C22_33 
REMARK   14  A    between atoms: C21_32  and  C24_38 
REMARK   15  A    between atoms: C22_33  and  C23_35 
ROOT
HETATM    1  C3  UNL     1      21.385  32.146  15.622  1.00  0.00     0.246 C 
ENDROOT
BRANCH   1   2
HETATM    2  C2  UNL     1      22.748  32.316  15.050  1.00  0.00     0.154 C 
HETATM    3  C1  UNL     1      23.661  33.434  15.348  1.00  0.00     0.093 C 
HETATM    4  O1  UNL     1      23.126  31.431  14.262  1.00  0.00    -0.296 OA
ENDBRANCH   1   2
BRANCH   1   5
HETATM    5  N1  UNL     1      20.547  31.472  14.630  1.00  0.00    -0.335 N 
HETATM    6  C4  UNL     1      19.888  30.263  14.888  1.00  0.00     0.288 C 
HETATM    7  O2  UNL     1      19.991  29.728  16.014  1.00  0.00    -0.264 OA
ATOM      8  H1  UNL     1      20.439  31.900  13.711  1.00  0.00     0.164 HD
BRANCH   6   9
HETATM    9  C5  UNL     1      19.094  29.604  13.871  1.00  0.00     0.220 C 
HETATM   10  O3  UNL     1      18.165  28.850  14.201  1.00  0.00    -0.287 OA
BRANCH   9  11
HETATM   11  C6  UNL     1      19.428  29.874  12.393  1.00  0.00     0.128 C 
BRANCH  11  12
HETATM   12  C7  UNL     1      20.352  28.757  11.897  1.00  0.00    -0.036 A 
HETATM   13  C8  UNL     1      21.688  28.950  12.143  1.00  0.00     0.058 A 
HETATM   14  S1  UNL     1      22.437  27.593  11.489  1.00  0.00    -0.105 SA
HETATM   15  C9  UNL     1      21.023  26.762  10.894  1.00  0.00    -0.007 A 
HETATM   16  C13 UNL     1      20.006  27.597  11.239  1.00  0.00    -0.030 A 
BRANCH  15  17
HETATM   17  C10 UNL     1      21.167  25.473  10.165  1.00  0.00     0.018 C 
HETATM   18  C11 UNL     1      21.156  24.329  11.204  1.00  0.00     0.015 C 
HETATM   19  C12 UNL     1      22.571  25.365   9.549  1.00  0.00     0.015 C 
ENDBRANCH  15  17
BRANCH  16  20
HETATM   20  C14 UNL     1      18.545  27.294  10.933  1.00  0.00    -0.022 C 
HETATM   21  C15 UNL     1      17.943  26.257  11.828  1.00  0.00     0.019 C 
HETATM   22  C16 UNL     1      18.557  26.592   9.519  1.00  0.00     0.019 C 
HETATM   23  C17 UNL     1      17.696  28.486  10.667  1.00  0.00     0.019 C 
ENDBRANCH  16  20
ENDBRANCH  11  12
ENDBRANCH   9  11
ENDBRANCH   6   9
ENDBRANCH   1   5
BRANCH   1  24
HETATM   24  C18 UNL     1      20.799  33.451  15.962  1.00  0.00     0.248 C 
HETATM   25  O4  UNL     1      20.389  34.198  15.038  1.00  0.00    -0.271 OA
HETATM   26  N2  UNL     1      20.682  33.885  17.291  1.00  0.00    -0.344 N 
ATOM     27  H2  UNL     1      21.017  33.267  18.030  1.00  0.00     0.163 HD
BRANCH  26  28
HETATM   28  C19 UNL     1      20.103  35.182  17.681  1.00  0.00     0.195 C 
BRANCH  28  29
HETATM   29  C20 UNL     1      18.660  34.982  18.038  1.00  0.00     0.315 C 
HETATM   30  O5  UNL     1      18.471  34.688  19.289  1.00  0.00    -0.255 OA
HETATM   31  N3  UNL     1      17.603  35.066  17.246  1.00  0.00    -0.369 NA
BRANCH  31  32
HETATM   32  C21 UNL     1      16.692  35.043  16.496  1.00  0.00     0.148 C 
BRANCH  32  33
HETATM   33  C22 UNL     1      16.723  34.343  15.208  1.00  0.00     0.284 C 
HETATM   34  O6  UNL     1      16.354  35.027  14.170  1.00  0.00    -0.278 OA
BRANCH  33  35
HETATM   35  C23 UNL     1      17.113  33.000  14.965  1.00  0.00     0.254 C 
HETATM   36  O7  UNL     1      17.722  32.694  13.905  1.00  0.00    -0.641 OA
HETATM   37  O8  UNL     1      16.840  31.989  15.862  1.00  0.00    -0.641 OA
ENDBRANCH  33  35
ENDBRANCH  32  33
BRANCH  32  38
HETATM   38  C24 UNL     1      15.417  35.748  16.815  1.00  0.00     0.046 C 
HETATM   39  C25 UNL     1      14.417  34.902  17.541  1.00  0.00     0.017 C 
HETATM   40  C26 UNL     1      15.810  36.910  17.742  1.00  0.00     0.017 C 
ENDBRANCH  32  38
ENDBRANCH  31  32
ENDBRANCH  28  29
BRANCH  28  41
HETATM   41  C27 UNL     1      20.915  35.838  18.744  1.00  0.00     0.010 C 
HETATM   42  C28 UNL     1      21.136  37.304  18.505  1.00  0.00     0.012 C 
HETATM   43  C29 UNL     1      22.221  35.142  19.015  1.00  0.00     0.012 C 
ENDBRANCH  28  41
ENDBRANCH  26  28
ENDBRANCH   1  24
TORSDOF 15
ENDMDL
MODEL 2
REMARK VINA RESULT: -8.147756195      2.646      5.782
REMARK  15 active torsions:
REMARK  status: ('A' for Active; 'I' for Inactive)
REMARK    1  A    between atoms: C2_2  and  C3_4 
REMARK    2  A    between atoms: C3_4  and  N1_5 
REMARK    3  A    between atoms: C3_4  and  C18_24 
REMARK       I    between atoms: N1_5  and  C4_7 
REMARK    4  A    between atoms: C4_7  and  C5_9 
REMARK    5  A    between atoms: C5_9  and  C6_11 
REMARK    6  A    between atoms: C6_11  and  C7_12 
REMARK    7  A    between atoms: C9_15  and  C10_16 
REMARK    8  A    between atoms: C13_19  and  C14_20 
REMARK       I    between atoms: C18_24  and  N2_26 
REMARK    9  A    between atoms: N2_26  and  C19_28 
REMARK   10  A    between atoms: C19_28  and  C20_29 
REMARK   11  A    between atoms: C19_28  and  C27_41 
REMARK       I    between atoms: C20_29  and  N3_31 
REMARK   12  A    between atoms: N3_31  and  C21_32 
REMARK   13  A    between atoms: C21_32  and  C22_33 
REMARK   14  A    between atoms: C21_32  and  C24_38 
REMARK   15  A    between atoms: C22_33  and  C23_35 
ROOT
HETATM    1  C3  UNL     1      19.289  28.662  11.833  1.00  0.00     0.246 C 
ENDROOT
BRANCH   1   2
HETATM    2  C2  UNL     1      18.205  28.487  10.828  1.00  0.00     0.154 C 
HETATM    3  C1  UNL     1      18.253  27.564   9.680  1.00  0.00     0.093 C 
HETATM    4  O1  UNL     1      17.188  29.184  10.991  1.00  0.00    -0.296 OA
ENDBRANCH   1   2
BRANCH   1   5
HETATM    5  N1  UNL     1      20.046  27.413  11.920  1.00  0.00    -0.335 N 
HETATM    6  C4  UNL     1      21.310  27.249  11.339  1.00  0.00     0.288 C 
HETATM    7  O2  UNL     1      21.842  28.204  10.731  1.00  0.00    -0.264 OA
ATOM      8  H1  UNL     1      19.636  26.628  12.425  1.00  0.00     0.164 HD
BRANCH   6   9
HETATM    9  C5  UNL     1      22.018  25.988  11.414  1.00  0.00     0.220 C 
HETATM   10  O3  UNL     1      23.256  25.965  11.339  1.00  0.00    -0.287 OA
BRANCH   9  11
HETATM   11  C6  UNL     1      21.198  24.699  11.598  1.00  0.00     0.128 C 
BRANCH  11  12
HETATM   12  C7  UNL     1      20.476  24.394  10.281  1.00  0.00    -0.036 A 
HETATM   13  C8  UNL     1      21.228  24.572   9.147  1.00  0.00     0.058 A 
HETATM   14  S1  UNL     1      20.187  24.179   7.886  1.00  0.00    -0.105 SA
HETATM   15  C9  UNL     1      18.769  23.776   8.819  1.00  0.00    -0.007 A 
HETATM   16  C13 UNL     1      19.178  23.971  10.102  1.00  0.00    -0.030 A 
BRANCH  15  17
HETATM   17  C10 UNL     1      17.510  23.387   8.131  1.00  0.00     0.018 C 
HETATM   18  C11 UNL     1      17.879  22.534   6.896  1.00  0.00     0.015 C 
HETATM   19  C12 UNL     1      16.840  24.623   7.508  1.00  0.00     0.015 C 
ENDBRANCH  15  17
BRANCH  16  20
HETATM   20  C14 UNL     1      18.273  23.736  11.304  1.00  0.00    -0.022 C 
HETATM   21  C15 UNL     1      18.917  22.946  12.400  1.00  0.00     0.019 C 
HETATM   22  C16 UNL     1      17.135  22.775  10.783  1.00  0.00     0.019 C 
HETATM   23  C17 UNL     1      17.487  24.921  11.742  1.00  0.00     0.019 C 
ENDBRANCH  16  20
ENDBRANCH  11  12
ENDBRANCH   9  11
ENDBRANCH   6   9
ENDBRANCH   1   5
BRANCH   1  24
HETATM   24  C18 UNL     1      18.725  28.994  13.150  1.00  0.00     0.248 C 
HETATM   25  O4  UNL     1      18.482  28.067  13.964  1.00  0.00    -0.271 OA
HETATM   26  N2  UNL     1      18.452  30.318  13.525  1.00  0.00    -0.344 N 
ATOM     27  H2  UNL     1      18.656  31.059  12.855  1.00  0.00     0.163 HD
BRANCH  26  28
HETATM   28  C19 UNL     1      17.889  30.699  14.832  1.00  0.00     0.195 C 
BRANCH  28  29
HETATM   29  C20 UNL     1      19.011  31.060  15.758  1.00  0.00     0.315 C 
HETATM   30  O5  UNL     1      18.828  30.655  16.978  1.00  0.00    -0.255 OA
HETATM   31  N3  UNL     1      20.122  31.723  15.477  1.00  0.00    -0.369 NA
BRANCH  31  32
HETATM   32  C21 UNL     1      21.050  32.407  15.222  1.00  0.00     0.148 C 
BRANCH  32  33
HETATM   33  C22 UNL     1      21.811  32.303  13.973  1.00  0.00     0.284 C 
HETATM   34  O6  UNL     1      22.661  33.252  13.733  1.00  0.00    -0.278 OA
BRANCH  33  35
HETATM   35  C23 UNL     1      21.723  31.280  12.992  1.00  0.00     0.254 C 
HETATM   36  O7  UNL     1      22.309  30.178  13.165  1.00  0.00    -0.641 OA
HETATM   37  O8  UNL     1      21.009  31.451  11.824  1.00  0.00    -0.641 OA
ENDBRANCH  33  35
ENDBRANCH  32  33
BRANCH  32  38
HETATM   38  C24 UNL     1      21.526  33.444  16.182  1.00  0.00     0.046 C 
HETATM   39  C25 UNL     1      20.426  34.158  16.904  1.00  0.00     0.017 C 
HETATM   40  C26 UNL     1      22.359  32.685  17.228  1.00  0.00     0.017 C 
ENDBRANCH  32  38
ENDBRANCH  31  32
ENDBRANCH  28  29
BRANCH  28  41
HETATM   41  C27 UNL     1      16.849  31.755  14.683  1.00  0.00     0.010 C 
HETATM   42  C28 UNL     1      17.418  33.120  14.420  1.00  0.00     0.012 C 
HETATM   43  C29 UNL     1      15.872  31.799  15.827  1.00  0.00     0.012 C 
ENDBRANCH  28  41
ENDBRANCH  26  28
ENDBRANCH   1  24
TORSDOF 15
ENDMDL
MODEL 3
REMARK VINA RESULT: -8.105107880      1.837      4.706
REMARK  15 active torsions:
REMARK  status: ('A' for Active; 'I' for Inactive)
REMARK    1  A    between atoms: C2_2  and  C3_4 
REMARK    2  A    between atoms: C3_4  and  N1_5 
REMARK    3  A    between atoms: C3_4  and  C18_24 
REMARK       I    between atoms: N1_5  and  C4_7 
REMARK    4  A    between atoms: C4_7  and  C5_9 
REMARK    5  A    between atoms: C5_9  and  C6_11 
REMARK    6  A    between atoms: C6_11  and  C7_12 
REMARK    7  A    between atoms: C9_15  and  C10_16 
REMARK    8  A    between atoms: C13_19  and  C14_20 
REMARK       I    between atoms: C18_24  and  N2_26 
REMARK    9  A    between atoms: N2_26  and  C19_28 
REMARK   10  A    between atoms: C19_28  and  C20_29 
REMARK   11  A    between atoms: C19_28  and  C27_41 
REMARK       I    between atoms: C20_29  and  N3_31 
REMARK   12  A    between atoms: N3_31  and  C21_32 
REMARK   13  A    between atoms: C21_32  and  C22_33 
REMARK   14  A    between atoms: C21_32  and  C24_38 
REMARK   15  A    between atoms: C22_33  and  C23_35 
ROOT
HETATM    1  C3  UNL     1      18.937  31.773  14.229  1.00  0.00     0.246 C 
ENDROOT
BRANCH   1   2
HETATM    2  C2  UNL     1      17.705  31.227  13.598  1.00  0.00     0.154 C 
HETATM    3  C1  UNL     1      17.674  30.180  12.561  1.00  0.00     0.093 C 
HETATM    4  O1  UNL     1      16.627  31.706  13.993  1.00  0.00    -0.296 OA
ENDBRANCH   1   2
BRANCH   1   5
HETATM    5  N1  UNL     1      19.963  30.731  14.221  1.00  0.00    -0.335 N 
HETATM    6  C4  UNL     1      20.930  30.625  13.213  1.00  0.00     0.288 C 
HETATM    7  O2  UNL     1      20.946  31.458  12.279  1.00  0.00    -0.264 OA
ATOM      8  H1  UNL     1      19.975  30.051  14.981  1.00  0.00     0.164 HD
BRANCH   6   9
HETATM    9  C5  UNL     1      21.911  29.559  13.215  1.00  0.00     0.220 C 
HETATM   10  O3  UNL     1      22.273  29.052  14.288  1.00  0.00    -0.287 OA
BRANCH   9  11
HETATM   11  C6  UNL     1      22.472  29.078  11.865  1.00  0.00     0.128 C 
BRANCH  11  12
HETATM   12  C7  UNL     1      21.723  27.804  11.460  1.00  0.00    -0.036 A 
HETATM   13  C8  UNL     1      20.355  27.880  11.533  1.00  0.00     0.058 A 
HETATM   14  S1  UNL     1      19.822  26.360  11.047  1.00  0.00    -0.105 SA
HETATM   15  C9  UNL     1      21.369  25.615  10.740  1.00  0.00    -0.007 A 
HETATM   16  C13 UNL     1      22.254  26.605  11.037  1.00  0.00    -0.030 A 
BRANCH  15  17
HETATM   17  C10 UNL     1      21.439  24.193  10.309  1.00  0.00     0.018 C 
HETATM   18  C11 UNL     1      21.391  24.155   8.765  1.00  0.00     0.015 C 
HETATM   19  C12 UNL     1      20.155  23.451  10.712  1.00  0.00     0.015 C 
ENDBRANCH  15  17
BRANCH  16  20
HETATM   20  C14 UNL     1      23.762  26.433  10.915  1.00  0.00    -0.022 C 
HETATM   21  C15 UNL     1      24.549  27.391  11.752  1.00  0.00     0.019 C 
HETATM   22  C16 UNL     1      24.108  26.870   9.439  1.00  0.00     0.019 C 
HETATM   23  C17 UNL     1      24.239  25.024  10.930  1.00  0.00     0.019 C 
ENDBRANCH  16  20
ENDBRANCH  11  12
ENDBRANCH   9  11
ENDBRANCH   6   9
ENDBRANCH   1   5
BRANCH   1  24
HETATM   24  C18 UNL     1      18.667  32.193  15.613  1.00  0.00     0.248 C 
HETATM   25  O4  UNL     1      18.801  31.359  16.543  1.00  0.00    -0.271 OA
HETATM   26  N2  UNL     1      18.266  33.502  15.923  1.00  0.00    -0.344 N 
ATOM     27  H2  UNL     1      18.164  34.167  15.157  1.00  0.00     0.163 HD
BRANCH  26  28
HETATM   28  C19 UNL     1      17.985  33.969  17.291  1.00  0.00     0.195 C 
BRANCH  28  29
HETATM   29  C20 UNL     1      19.167  34.744  17.791  1.00  0.00     0.315 C 
HETATM   30  O5  UNL     1      18.887  35.537  18.782  1.00  0.00    -0.255 OA
HETATM   31  N3  UNL     1      20.414  34.711  17.348  1.00  0.00    -0.369 NA
BRANCH  31  32
HETATM   32  C21 UNL     1      21.490  34.740  16.864  1.00  0.00     0.148 C 
BRANCH  32  33
HETATM   33  C22 UNL     1      22.126  33.575  16.241  1.00  0.00     0.284 C 
HETATM   34  O6  UNL     1      21.920  32.429  16.811  1.00  0.00    -0.278 OA
BRANCH  33  35
HETATM   35  C23 UNL     1      22.945  33.557  15.081  1.00  0.00     0.254 C 
HETATM   36  O7  UNL     1      22.429  33.649  13.934  1.00  0.00    -0.641 OA
HETATM   37  O8  UNL     1      24.316  33.435  15.159  1.00  0.00    -0.641 OA
ENDBRANCH  33  35
ENDBRANCH  32  33
BRANCH  32  38
HETATM   38  C24 UNL     1      22.298  35.994  16.862  1.00  0.00     0.046 C 
HETATM   39  C25 UNL     1      21.631  37.147  16.179  1.00  0.00     0.017 C 
HETATM   40  C26 UNL     1      22.483  36.367  18.341  1.00  0.00     0.017 C 
ENDBRANCH  32  38
ENDBRANCH  31  32
ENDBRANCH  28  29
BRANCH  28  41
HETATM   41  C27 UNL     1      16.693  34.707  17.355  1.00  0.00     0.010 C 
HETATM   42  C28 UNL     1      15.520  33.827  17.683  1.00  0.00     0.012 C 
HETATM   43  C29 UNL     1      16.411  35.529  16.127  1.00  0.00     0.012 C 
ENDBRANCH  28  41
ENDBRANCH  26  28
ENDBRANCH   1  24
TORSDOF 15
ENDMDL
MODEL 4
REMARK VINA RESULT: -8.095346220      3.476      9.528
REMARK  15 active torsions:
REMARK  status: ('A' for Active; 'I' for Inactive)
REMARK    1  A    between atoms: C2_2  and  C3_4 
REMARK    2  A    between atoms: C3_4  and  N1_5 
REMARK    3  A    between atoms: C3_4  and  C18_24 
REMARK       I    between atoms: N1_5  and  C4_7 
REMARK    4  A    between atoms: C4_7  and  C5_9 
REMARK    5  A    between atoms: C5_9  and  C6_11 
REMARK    6  A    between atoms: C6_11  and  C7_12 
REMARK    7  A    between atoms: C9_15  and  C10_16 
REMARK    8  A    between atoms: C13_19  and  C14_20 
REMARK       I    between atoms: C18_24  and  N2_26 
REMARK    9  A    between atoms: N2_26  and  C19_28 
REMARK   10  A    between atoms: C19_28  and  C20_29 
REMARK   11  A    between atoms: C19_28  and  C27_41 
REMARK       I    between atoms: C20_29  and  N3_31 
REMARK   12  A    between atoms: N3_31  and  C21_32 
REMARK   13  A    between atoms: C21_32  and  C22_33 
REMARK   14  A    between atoms: C21_32  and  C24_38 
REMARK   15  A    between atoms: C22_33  and  C23_35 
ROOT
HETATM    1  C3  UNL     1      19.828  29.477  13.850  1.00  0.00     0.246 C 
ENDROOT
BRANCH   1   2
HETATM    2  C2  UNL     1      19.101  29.874  12.614  1.00  0.00     0.154 C 
HETATM    3  C1  UNL     1      17.671  29.634  12.354  1.00  0.00     0.093 C 
HETATM    4  O1  UNL     1      19.775  30.457  11.745  1.00  0.00    -0.296 OA
ENDBRANCH   1   2
BRANCH   1   5
HETATM    5  N1  UNL     1      20.463  30.666  14.417  1.00  0.00    -0.335 N 
HETATM    6  C4  UNL     1      20.373  31.001  15.774  1.00  0.00     0.288 C 
HETATM    7  O2  UNL     1      19.744  30.255  16.557  1.00  0.00    -0.264 OA
ATOM      8  H1  UNL     1      20.994  31.279  13.798  1.00  0.00     0.164 HD
BRANCH   6   9
HETATM    9  C5  UNL     1      20.985  32.205  16.298  1.00  0.00     0.220 C 
HETATM   10  O3  UNL     1      21.788  32.134  17.240  1.00  0.00    -0.287 OA
BRANCH   9  11
HETATM   11  C6  UNL     1      20.619  33.552  15.649  1.00  0.00     0.128 C 
BRANCH  11  12
HETATM   12  C7  UNL     1      19.498  34.195  16.474  1.00  0.00    -0.036 A 
HETATM   13  C8  UNL     1      19.908  34.848  17.609  1.00  0.00     0.058 A 
HETATM   14  S1  UNL     1      18.487  35.429  18.296  1.00  0.00    -0.105 SA
HETATM   15  C9  UNL     1      17.350  34.835  17.114  1.00  0.00    -0.007 A 
HETATM   16  C13 UNL     1      18.145  34.194  16.215  1.00  0.00    -0.030 A 
BRANCH  15  17
HETATM   17  C10 UNL     1      15.892  35.065  17.300  1.00  0.00     0.018 C 
HETATM   18  C11 UNL     1      15.707  36.066  18.463  1.00  0.00     0.015 C 
HETATM   19  C12 UNL     1      15.217  33.790  17.831  1.00  0.00     0.015 C 
ENDBRANCH  15  17
BRANCH  16  20
HETATM   20  C14 UNL     1      17.601  33.503  14.972  1.00  0.00    -0.022 C 
HETATM   21  C15 UNL     1      18.564  33.475  13.826  1.00  0.00     0.019 C 
HETATM   22  C16 UNL     1      16.444  34.442  14.451  1.00  0.00     0.019 C 
HETATM   23  C17 UNL     1      16.866  32.235  15.225  1.00  0.00     0.019 C 
ENDBRANCH  16  20
ENDBRANCH  11  12
ENDBRANCH   9  11
ENDBRANCH   6   9
ENDBRANCH   1   5
BRANCH   1  24
HETATM   24  C18 UNL     1      20.851  28.464  13.546  1.00  0.00     0.248 C 
HETATM   25  O4  UNL     1      21.648  28.109  14.451  1.00  0.00    -0.271 OA
HETATM   26  N2  UNL     1      20.961  27.882  12.274  1.00  0.00    -0.344 N 
ATOM     27  H2  UNL     1      20.306  28.179  11.552  1.00  0.00     0.163 HD
BRANCH  26  28
HETATM   28  C19 UNL     1      21.967  26.865  11.923  1.00  0.00     0.195 C 
BRANCH  28  29
HETATM   29  C20 UNL     1      21.271  25.678  11.330  1.00  0.00     0.315 C 
HETATM   30  O5  UNL     1      21.972  24.586  11.381  1.00  0.00    -0.255 OA
HETATM   31  N3  UNL     1      20.069  25.626  10.778  1.00  0.00    -0.369 NA
BRANCH  31  32
HETATM   32  C21 UNL     1      19.041  25.633  10.199  1.00  0.00     0.148 C 
BRANCH  32  33
HETATM   33  C22 UNL     1      18.893  26.114   8.822  1.00  0.00     0.284 C 
HETATM   34  O6  UNL     1      18.464  27.329   8.677  1.00  0.00    -0.278 OA
BRANCH  33  35
HETATM   35  C23 UNL     1      19.166  25.401   7.625  1.00  0.00     0.254 C 
HETATM   36  O7  UNL     1      19.247  24.143   7.635  1.00  0.00    -0.641 OA
HETATM   37  O8  UNL     1      19.355  26.046   6.420  1.00  0.00    -0.641 OA
ENDBRANCH  33  35
ENDBRANCH  32  33
BRANCH  32  38
HETATM   38  C24 UNL     1      17.790  25.146  10.849  1.00  0.00     0.046 C 
HETATM   39  C25 UNL     1      17.855  23.723  11.308  1.00  0.00     0.017 C 
HETATM   40  C26 UNL     1      17.600  26.032  12.091  1.00  0.00     0.017 C 
ENDBRANCH  32  38
ENDBRANCH  31  32
ENDBRANCH  28  29
BRANCH  28  41
HETATM   41  C27 UNL     1      23.041  27.442  11.067  1.00  0.00     0.010 C 
HETATM   42  C28 UNL     1      24.404  27.376  11.694  1.00  0.00     0.012 C 
HETATM   43  C29 UNL     1      22.743  28.839  10.592  1.00  0.00     0.012 C 
ENDBRANCH  28  41
ENDBRANCH  26  28
ENDBRANCH   1  24
TORSDOF 15
ENDMDL
MODEL 5
REMARK VINA RESULT: -8.010410702      1.038      1.945
REMARK  15 active torsions:
REMARK  status: ('A' for Active; 'I' for Inactive)
REMARK    1  A    between atoms: C2_2  and  C3_4 
REMARK    2  A    between atoms: C3_4  and  N1_5 
REMARK    3  A    between atoms: C3_4  and  C18_24 
REMARK       I    between atoms: N1_5  and  C4_7 
REMARK    4  A    between atoms: C4_7  and  C5_9 
REMARK    5  A    between atoms: C5_9  and  C6_11 
REMARK    6  A    between atoms: C6_11  and  C7_12 
REMARK    7  A    between atoms: C9_15  and  C10_16 
REMARK    8  A    between atoms: C13_19  and  C14_20 
REMARK       I    between atoms: C18_24  and  N2_26 
REMARK    9  A    between atoms: N2_26  and  C19_28 
REMARK   10  A    between atoms: C19_28  and  C20_29 
REMARK   11  A    between atoms: C19_28  and  C27_41 
REMARK       I    between atoms: C20_29  and  N3_31 
REMARK   12  A    between atoms: N3_31  and  C21_32 
REMARK   13  A    between atoms: C21_32  and  C22_33 
REMARK   14  A    between atoms: C21_32  and  C24_38 
REMARK   15  A    between atoms: C22_33  and  C23_35 
ROOT
HETATM    1  C3  UNL     1      20.800  31.904  15.443  1.00  0.00     0.246 C 
ENDROOT
BRANCH   1   2
HETATM    2  C2  UNL     1      22.130  31.976  14.780  1.00  0.00     0.154 C 
HETATM    3  C1  UNL     1      22.758  33.205  14.265  1.00  0.00     0.093 C 
HETATM    4  O1  UNL     1      22.743  30.900  14.662  1.00  0.00    -0.296 OA
ENDBRANCH   1   2
BRANCH   1   5
HETATM    5  N1  UNL     1      19.860  31.255  14.529  1.00  0.00    -0.335 N 
HETATM    6  C4  UNL     1      19.475  29.915  14.661  1.00  0.00     0.288 C 
HETATM    7  O2  UNL     1      19.926  29.230  15.606  1.00  0.00    -0.264 OA
ATOM      8  H1  UNL     1      19.470  31.801  13.761  1.00  0.00     0.164 HD
BRANCH   6   9
HETATM    9  C5  UNL     1      18.569  29.292  13.718  1.00  0.00     0.220 C 
HETATM   10  O3  UNL     1      17.687  28.518  14.122  1.00  0.00    -0.287 OA
BRANCH   9  11
HETATM   11  C6  UNL     1      18.727  29.626  12.224  1.00  0.00     0.128 C 
BRANCH  11  12
HETATM   12  C7  UNL     1      19.050  28.330  11.473  1.00  0.00    -0.036 A 
HETATM   13  C8  UNL     1      17.966  27.662  10.963  1.00  0.00     0.058 A 
HETATM   14  S1  UNL     1      18.620  26.304  10.218  1.00  0.00    -0.105 SA
HETATM   15  C9  UNL     1      20.307  26.592  10.557  1.00  0.00    -0.007 A 
HETATM   16  C13 UNL     1      20.286  27.761  11.253  1.00  0.00    -0.030 A 
BRANCH  15  17
HETATM   17  C10 UNL     1      21.334  25.609  10.123  1.00  0.00     0.018 C 
HETATM   18  C11 UNL     1      20.847  24.951   8.812  1.00  0.00     0.015 C 
HETATM   19  C12 UNL     1      21.386  24.426  11.103  1.00  0.00     0.015 C 
ENDBRANCH  15  17
BRANCH  16  20
HETATM   20  C14 UNL     1      21.547  28.439  11.774  1.00  0.00    -0.022 C 
HETATM   21  C15 UNL     1      21.553  29.924  11.594  1.00  0.00     0.019 C 
HETATM   22  C16 UNL     1      22.702  27.952  10.815  1.00  0.00     0.019 C 
HETATM   23  C17 UNL     1      22.027  27.948  13.093  1.00  0.00     0.019 C 
ENDBRANCH  16  20
ENDBRANCH  11  12
ENDBRANCH   9  11
ENDBRANCH   6   9
ENDBRANCH   1   5
BRANCH   1  24
HETATM   24  C18 UNL     1      20.315  33.252  15.779  1.00  0.00     0.248 C 
HETATM   25  O4  UNL     1      19.662  33.899  14.922  1.00  0.00    -0.271 OA
HETATM   26  N2  UNL     1      20.559  33.834  17.032  1.00  0.00    -0.344 N 
ATOM     27  H2  UNL     1      21.089  33.296  17.717  1.00  0.00     0.163 HD
BRANCH  26  28
HETATM   28  C19 UNL     1      20.095  35.178  17.415  1.00  0.00     0.195 C 
BRANCH  28  29
HETATM   29  C20 UNL     1      18.705  35.072  17.969  1.00  0.00     0.315 C 
HETATM   30  O5  UNL     1      18.672  34.814  19.241  1.00  0.00    -0.255 OA
HETATM   31  N3  UNL     1      17.556  35.205  17.325  1.00  0.00    -0.369 NA
BRANCH  31  32
HETATM   32  C21 UNL     1      16.551  35.222  16.707  1.00  0.00     0.148 C 
BRANCH  32  33
HETATM   33  C22 UNL     1      16.327  34.410  15.507  1.00  0.00     0.284 C 
HETATM   34  O6  UNL     1      16.210  35.053  14.387  1.00  0.00    -0.278 OA
BRANCH  33  35
HETATM   35  C23 UNL     1      16.223  32.996  15.429  1.00  0.00     0.254 C 
HETATM   36  O7  UNL     1      15.482  32.366  16.231  1.00  0.00    -0.641 OA
HETATM   37  O8  UNL     1      16.920  32.265  14.490  1.00  0.00    -0.641 OA
ENDBRANCH  33  35
ENDBRANCH  32  33
BRANCH  32  38
HETATM   38  C24 UNL     1      15.416  36.101  17.111  1.00  0.00     0.046 C 
HETATM   39  C25 UNL     1      14.173  35.356  17.487  1.00  0.00     0.017 C 
HETATM   40  C26 UNL     1      15.904  36.857  18.357  1.00  0.00     0.017 C 
ENDBRANCH  32  38
ENDBRANCH  31  32
ENDBRANCH  28  29
BRANCH  28  41
HETATM   41  C27 UNL     1      21.069  35.849  18.320  1.00  0.00     0.010 C 
HETATM   42  C28 UNL     1      21.665  37.097  17.734  1.00  0.00     0.012 C 
HETATM   43  C29 UNL     1      22.150  34.930  18.822  1.00  0.00     0.012 C 
ENDBRANCH  28  41
ENDBRANCH  26  28
ENDBRANCH   1  24
TORSDOF 15
ENDMDL
