MODEL 1
REMARK VINA RESULT: -7.257207777      0.000      0.000
REMARK  3 active torsions:
REMARK  status: ('A' for Active; 'I' for Inactive)
REMARK    1  A    between atoms: C1_2  and  C2_4 
REMARK       I    between atoms: C2_4  and  N2_6 
REMARK       I    between atoms: N2_6  and  C3_8 
REMARK    2  A    between atoms: C3_8  and  C4_10 
REMARK    3  A    between atoms: C6_12  and  N3_13 
ROOT
HETATM    1  C4  UNL     1      20.746  11.938  20.603  1.00  0.00     0.111 A 
HETATM    2  C5  UNL     1      21.598  12.108  21.854  1.00  0.00     0.050 A 
HETATM    3  C6  UNL     1      21.950  11.105  20.804  1.00  0.00     0.204 A 
ENDROOT
BRANCH   1   4
HETATM    4  C3  UNL     1      19.453  11.259  20.864  1.00  0.00     0.230 C 
HETATM    5  N2  UNL     1      19.089  10.134  20.107  1.00  0.00    -0.289 N 
HETATM    6  C2  UNL     1      17.851   9.486  20.358  1.00  0.00     0.313 C 
ATOM      7  H2  UNL     1      19.711   9.785  19.379  1.00  0.00     0.172 HD
HETATM    8  O2  UNL     1      17.092   9.935  21.267  1.00  0.00    -0.262 OA
HETATM    9  O3  UNL     1      18.684  11.680  21.756  1.00  0.00    -0.273 OA
BRANCH   6  10
HETATM   10  C1  UNL     1      17.468   8.321  19.575  1.00  0.00     0.322 C 
HETATM   11  N1  UNL     1      16.172   7.749  19.744  1.00  0.00    -0.053 NA
HETATM   12  O1  UNL     1      18.297   7.845  18.765  1.00  0.00    -0.266 OA
ENDBRANCH   6  10
ENDBRANCH   1   4
BRANCH   3  13
HETATM   13  N3  UNL     1      23.152  11.311  20.040  1.00  0.00    -0.062 N 
HETATM   14  C7  UNL     1      23.428  10.071  19.328  1.00  0.00     0.238 C 
HETATM   15  C8  UNL     1      24.412  10.291  18.216  1.00  0.00     0.032 C 
HETATM   16  C9  UNL     1      25.129  11.605  18.511  1.00  0.00    -0.010 C 
HETATM   17  C10 UNL     1      24.139  12.717  18.334  1.00  0.00     0.032 C 
HETATM   18  C12 UNL     1      25.520  11.556  19.976  1.00  0.00     0.032 C 
HETATM   19  C11 UNL     1      22.871  12.379  19.074  1.00  0.00     0.238 C 
HETATM   20  C13 UNL     1      24.271  11.743  20.826  1.00  0.00     0.238 C 
ENDBRANCH   3  13
TORSDOF 3
ENDMDL
MODEL 2
REMARK VINA RESULT: -7.208142541      0.785      1.558
REMARK  3 active torsions:
REMARK  status: ('A' for Active; 'I' for Inactive)
REMARK    1  A    between atoms: C1_2  and  C2_4 
REMARK       I    between atoms: C2_4  and  N2_6 
REMARK       I    between atoms: N2_6  and  C3_8 
REMARK    2  A    between atoms: C3_8  and  C4_10 
REMARK    3  A    between atoms: C6_12  and  N3_13 
ROOT
HETATM    1  C4  UNL     1      20.608  11.846  20.620  1.00  0.00     0.111 A 
HETATM    2  C5  UNL     1      21.487  11.913  21.862  1.00  0.00     0.050 A 
HETATM    3  C6  UNL     1      21.783  10.960  20.750  1.00  0.00     0.204 A 
ENDROOT
BRANCH   1   4
HETATM    4  C3  UNL     1      19.294  11.202  20.867  1.00  0.00     0.230 C 
HETATM    5  N2  UNL     1      18.927  10.061  20.136  1.00  0.00    -0.289 N 
HETATM    6  C2  UNL     1      17.670   9.445  20.373  1.00  0.00     0.313 C 
ATOM      7  H2  UNL     1      19.562   9.677  19.436  1.00  0.00     0.172 HD
HETATM    8  O2  UNL     1      16.897   9.938  21.246  1.00  0.00    -0.262 OA
HETATM    9  O3  UNL     1      18.511  11.666  21.724  1.00  0.00    -0.273 OA
BRANCH   6  10
HETATM   10  C1  UNL     1      17.285   8.264  19.617  1.00  0.00     0.322 C 
HETATM   11  N1  UNL     1      18.218   7.661  18.721  1.00  0.00    -0.053 NA
HETATM   12  O1  UNL     1      16.131   7.802  19.774  1.00  0.00    -0.266 OA
ENDBRANCH   6  10
ENDBRANCH   1   4
BRANCH   3  13
HETATM   13  N3  UNL     1      22.978  11.165  19.976  1.00  0.00    -0.062 N 
HETATM   14  C7  UNL     1      22.711  12.259  19.052  1.00  0.00     0.238 C 
HETATM   15  C8  UNL     1      23.985  12.811  18.482  1.00  0.00     0.032 C 
HETATM   16  C9  UNL     1      25.062  11.751  18.692  1.00  0.00    -0.010 C 
HETATM   17  C10 UNL     1      25.339  11.665  20.163  1.00  0.00     0.032 C 
HETATM   18  C12 UNL     1      24.452  10.433  18.254  1.00  0.00     0.032 C 
HETATM   19  C11 UNL     1      24.036  11.561  20.911  1.00  0.00     0.238 C 
HETATM   20  C13 UNL     1      23.439   9.987  19.299  1.00  0.00     0.238 C 
ENDBRANCH   3  13
TORSDOF 3
ENDMDL
MODEL 3
REMARK VINA RESULT: -7.085220089      0.164      1.320
REMARK  3 active torsions:
REMARK  status: ('A' for Active; 'I' for Inactive)
REMARK    1  A    between atoms: C1_2  and  C2_4 
REMARK       I    between atoms: C2_4  and  N2_6 
REMARK       I    between atoms: N2_6  and  C3_8 
REMARK    2  A    between atoms: C3_8  and  C4_10 
REMARK    3  A    between atoms: C6_12  and  N3_13 
ROOT
HETATM    1  C4  UNL     1      20.758  11.958  20.529  1.00  0.00     0.111 A 
HETATM    2  C5  UNL     1      21.626  12.144  21.767  1.00  0.00     0.050 A 
HETATM    3  C6  UNL     1      21.975  11.141  20.717  1.00  0.00     0.204 A 
ENDROOT
BRANCH   1   4
HETATM    4  C3  UNL     1      19.477  11.264  20.811  1.00  0.00     0.230 C 
HETATM    5  N2  UNL     1      19.120  10.128  20.069  1.00  0.00    -0.289 N 
HETATM    6  C2  UNL     1      17.894   9.465  20.340  1.00  0.00     0.313 C 
ATOM      7  H2  UNL     1      19.739   9.780  19.337  1.00  0.00     0.172 HD
HETATM    8  O2  UNL     1      17.139   9.913  21.253  1.00  0.00    -0.262 OA
HETATM    9  O3  UNL     1      18.712  11.684  21.707  1.00  0.00    -0.273 OA
BRANCH   6  10
HETATM   10  C1  UNL     1      17.519   8.288  19.572  1.00  0.00     0.322 C 
HETATM   11  N1  UNL     1      16.263   7.655  19.815  1.00  0.00    -0.053 NA
HETATM   12  O1  UNL     1      18.317   7.856  18.710  1.00  0.00    -0.266 OA
ENDBRANCH   6  10
ENDBRANCH   1   4
BRANCH   3  13
HETATM   13  N3  UNL     1      23.163  11.359  19.935  1.00  0.00    -0.062 N 
HETATM   14  C7  UNL     1      24.262  11.563  20.868  1.00  0.00     0.238 C 
HETATM   15  C8  UNL     1      25.590  11.407  20.185  1.00  0.00     0.032 C 
HETATM   16  C9  UNL     1      25.340  11.559  18.687  1.00  0.00    -0.010 C 
HETATM   17  C10 UNL     1      24.563  10.361  18.229  1.00  0.00     0.032 C 
HETATM   18  C12 UNL     1      24.455  12.780  18.527  1.00  0.00     0.032 C 
HETATM   19  C11 UNL     1      23.400  10.136  19.159  1.00  0.00     0.238 C 
HETATM   20  C13 UNL     1      23.048  12.434  18.993  1.00  0.00     0.238 C 
ENDBRANCH   3  13
TORSDOF 3
ENDMDL
MODEL 4
REMARK VINA RESULT: -6.988724731      1.225      1.839
REMARK  3 active torsions:
REMARK  status: ('A' for Active; 'I' for Inactive)
REMARK    1  A    between atoms: C1_2  and  C2_4 
REMARK       I    between atoms: C2_4  and  N2_6 
REMARK       I    between atoms: N2_6  and  C3_8 
REMARK    2  A    between atoms: C3_8  and  C4_10 
REMARK    3  A    between atoms: C6_12  and  N3_13 
ROOT
HETATM    1  C4  UNL     1      20.358  11.189  19.745  1.00  0.00     0.111 A 
HETATM    2  C5  UNL     1      20.722  11.531  21.184  1.00  0.00     0.050 A 
HETATM    3  C6  UNL     1      21.610  10.675  20.339  1.00  0.00     0.204 A 
ENDROOT
BRANCH   1   4
HETATM    4  C3  UNL     1      19.253  10.204  19.638  1.00  0.00     0.230 C 
HETATM    5  N2  UNL     1      18.198  10.235  20.563  1.00  0.00    -0.289 N 
HETATM    6  C2  UNL     1      17.142   9.292  20.460  1.00  0.00     0.313 C 
ATOM      7  H2  UNL     1      18.191  10.932  21.307  1.00  0.00     0.172 HD
HETATM    8  O2  UNL     1      17.169   8.434  19.529  1.00  0.00    -0.262 OA
HETATM    9  O3  UNL     1      19.254   9.346  18.728  1.00  0.00    -0.273 OA
BRANCH   6  10
HETATM   10  C1  UNL     1      16.047   9.319  21.417  1.00  0.00     0.322 C 
HETATM   11  N1  UNL     1      15.135   8.224  21.480  1.00  0.00    -0.053 NA
HETATM   12  O1  UNL     1      15.932  10.315  22.168  1.00  0.00    -0.266 OA
ENDBRANCH   6  10
ENDBRANCH   1   4
BRANCH   3  13
HETATM   13  N3  UNL     1      22.898  11.193  19.962  1.00  0.00    -0.062 N 
HETATM   14  C7  UNL     1      23.591  10.137  19.237  1.00  0.00     0.238 C 
HETATM   15  C8  UNL     1      24.759  10.683  18.468  1.00  0.00     0.032 C 
HETATM   16  C9  UNL     1      25.096  12.041  19.076  1.00  0.00    -0.010 C 
HETATM   17  C10 UNL     1      23.978  12.983  18.742  1.00  0.00     0.032 C 
HETATM   18  C12 UNL     1      25.104  11.842  20.580  1.00  0.00     0.032 C 
HETATM   19  C11 UNL     1      22.661  12.329  19.064  1.00  0.00     0.238 C 
HETATM   20  C13 UNL     1      23.669  11.687  21.065  1.00  0.00     0.238 C 
ENDBRANCH   3  13
TORSDOF 3
ENDMDL
MODEL 5
REMARK VINA RESULT: -6.973734151      1.277      2.296
REMARK  3 active torsions:
REMARK  status: ('A' for Active; 'I' for Inactive)
REMARK    1  A    between atoms: C1_2  and  C2_4 
REMARK       I    between atoms: C2_4  and  N2_6 
REMARK       I    between atoms: N2_6  and  C3_8 
REMARK    2  A    between atoms: C3_8  and  C4_10 
REMARK    3  A    between atoms: C6_12  and  N3_13 
ROOT
HETATM    1  C4  UNL     1      20.426  11.112  19.868  1.00  0.00     0.111 A 
HETATM    2  C5  UNL     1      20.938  11.199  21.299  1.00  0.00     0.050 A 
HETATM    3  C6  UNL     1      21.713  10.488  20.238  1.00  0.00     0.204 A 
ENDROOT
BRANCH   1   4
HETATM    4  C3  UNL     1      19.287  10.175  19.710  1.00  0.00     0.230 C 
HETATM    5  N2  UNL     1      18.228  10.200  20.630  1.00  0.00    -0.289 N 
HETATM    6  C2  UNL     1      17.138   9.302  20.478  1.00  0.00     0.313 C 
ATOM      7  H2  UNL     1      18.241  10.861  21.407  1.00  0.00     0.172 HD
HETATM    8  O2  UNL     1      17.140   8.489  19.507  1.00  0.00    -0.262 OA
HETATM    9  O3  UNL     1      19.261   9.362  18.760  1.00  0.00    -0.273 OA
BRANCH   6  10
HETATM   10  C1  UNL     1      16.039   9.324  21.430  1.00  0.00     0.322 C 
HETATM   11  N1  UNL     1      15.127   8.228  21.483  1.00  0.00    -0.053 NA
HETATM   12  O1  UNL     1      15.921  10.315  22.186  1.00  0.00    -0.266 OA
ENDBRANCH   6  10
ENDBRANCH   1   4
BRANCH   3  13
HETATM   13  N3  UNL     1      22.973  11.045  19.825  1.00  0.00    -0.062 N 
HETATM   14  C7  UNL     1      22.688  12.308  19.157  1.00  0.00     0.238 C 
HETATM   15  C8  UNL     1      23.926  13.150  19.038  1.00  0.00     0.032 C 
HETATM   16  C9  UNL     1      25.118  12.216  19.223  1.00  0.00    -0.010 C 
HETATM   17  C10 UNL     1      25.131  11.767  20.653  1.00  0.00     0.032 C 
HETATM   18  C12 UNL     1      24.846  11.003  18.354  1.00  0.00     0.032 C 
HETATM   19  C11 UNL     1      23.753  11.300  21.041  1.00  0.00     0.238 C 
HETATM   20  C13 UNL     1      23.755  10.165  19.006  1.00  0.00     0.238 C 
ENDBRANCH   3  13
TORSDOF 3
ENDMDL
