MODEL 1
REMARK VINA RESULT: -8.669109167      0.000      0.000
REMARK  3 active torsions:
REMARK  status: ('A' for Active; 'I' for Inactive)
REMARK       I    between atoms: N1_2  and  C2_4 
REMARK    1  A    between atoms: C2_4  and  C3_6 
REMARK    2  A    between atoms: C6_9  and  N2_10 
REMARK       I    between atoms: N2_10  and  C7_12 
REMARK    3  A    between atoms: C7_12  and  C8_14 
REMARK       I    between atoms: C8_14  and  N3_16 
ROOT
HETATM    1  N2  UNL     1      20.151   9.921  20.291  1.00  0.00    -0.348 N 
ATOM      2  H2  UNL     1      20.255   9.121  20.916  1.00  0.00     0.163 HD
HETATM    3  C7  UNL     1      18.846  10.241  19.789  1.00  0.00     0.309 C 
HETATM    4  O2  UNL     1      18.766  11.231  19.025  1.00  0.00    -0.262 OA
ENDROOT
BRANCH   1   5
HETATM    5  C6  UNL     1      21.300  10.677  19.949  1.00  0.00     0.085 C 
HETATM    6  C5  UNL     1      22.525   9.801  19.659  1.00  0.00     0.026 C 
HETATM    7  C4  UNL     1      23.482  10.702  18.892  1.00  0.00     0.016 C 
HETATM    8  C3  UNL     1      23.801  11.970  19.605  1.00  0.00     0.078 C 
HETATM    9  C18 UNL     1      22.642  12.682  20.207  1.00  0.00     0.016 C 
HETATM   10  C17 UNL     1      21.727  11.700  20.951  1.00  0.00     0.026 C 
BRANCH   8  11
HETATM   11  C2  UNL     1      24.453  12.890  18.627  1.00  0.00     0.221 C 
HETATM   12  N1  UNL     1      25.771  13.322  18.899  1.00  0.00    -0.365 N 
HETATM   13  C1  UNL     1      26.421  14.215  17.960  1.00  0.00     0.149 C 
ATOM     14  H1  UNL     1      26.257  13.011  19.740  1.00  0.00     0.161 HD
HETATM   15  O1  UNL     1      23.874  13.283  17.590  1.00  0.00    -0.273 OA
ENDBRANCH   8  11
ENDBRANCH   1   5
BRANCH   3  16
HETATM   16  C8  UNL     1      17.679   9.465  20.143  1.00  0.00     0.311 C 
HETATM   17  O3  UNL     1      17.305   8.545  19.376  1.00  0.00    -0.262 OA
HETATM   18  N3  UNL     1      16.896   9.672  21.335  1.00  0.00    -0.344 N 
HETATM   19  C9  UNL     1      15.739   8.831  21.600  1.00  0.00     0.126 C 
HETATM   20  C16 UNL     1      17.228  10.694  22.283  1.00  0.00     0.131 C 
HETATM   21  C10 UNL     1      14.584   9.712  21.947  1.00  0.00     0.025 C 
HETATM   22  C11 UNL     1      14.868  10.615  23.115  1.00  0.00    -0.007 C 
HETATM   23  C12 UNL     1      14.208  10.053  24.332  1.00  0.00     0.005 C 
HETATM   24  C15 UNL     1      16.313  10.688  23.462  1.00  0.00     0.008 C 
HETATM   25  C13 UNL     1      15.214   9.111  24.900  1.00  0.00     0.001 C 
HETATM   26  C14 UNL     1      16.577   9.624  24.467  1.00  0.00     0.007 C 
ENDBRANCH   3  16
TORSDOF 3
ENDMDL
MODEL 2
REMARK VINA RESULT: -7.983200884      2.597      9.077
REMARK  3 active torsions:
REMARK  status: ('A' for Active; 'I' for Inactive)
REMARK       I    between atoms: N1_2  and  C2_4 
REMARK    1  A    between atoms: C2_4  and  C3_6 
REMARK    2  A    between atoms: C6_9  and  N2_10 
REMARK       I    between atoms: N2_10  and  C7_12 
REMARK    3  A    between atoms: C7_12  and  C8_14 
REMARK       I    between atoms: C8_14  and  N3_16 
ROOT
HETATM    1  N2  UNL     1      21.854  11.417  19.527  1.00  0.00    -0.348 N 
ATOM      2  H2  UNL     1      22.082  12.275  19.025  1.00  0.00     0.163 HD
HETATM    3  C7  UNL     1      22.830  10.367  19.579  1.00  0.00     0.309 C 
HETATM    4  O2  UNL     1      22.505   9.332  20.207  1.00  0.00    -0.262 OA
ENDROOT
BRANCH   1   5
HETATM    5  C6  UNL     1      20.585  11.303  20.147  1.00  0.00     0.085 C 
HETATM    6  C5  UNL     1      19.434  11.205  19.138  1.00  0.00     0.026 C 
HETATM    7  C4  UNL     1      18.262  10.644  19.929  1.00  0.00     0.016 C 
HETATM    8  C3  UNL     1      17.932  11.440  21.143  1.00  0.00     0.078 C 
HETATM    9  C18 UNL     1      19.091  11.853  21.980  1.00  0.00     0.016 C 
HETATM   10  C17 UNL     1      20.229  12.396  21.103  1.00  0.00     0.026 C 
BRANCH   8  11
HETATM   11  C2  UNL     1      17.019  10.619  21.992  1.00  0.00     0.221 C 
HETATM   12  N1  UNL     1      16.354   9.528  21.387  1.00  0.00    -0.365 N 
HETATM   13  C1  UNL     1      15.464   8.719  22.195  1.00  0.00     0.149 C 
ATOM     14  H1  UNL     1      16.497   9.315  20.400  1.00  0.00     0.161 HD
HETATM   15  O1  UNL     1      16.829  10.865  23.204  1.00  0.00    -0.273 OA
ENDBRANCH   8  11
ENDBRANCH   1   5
BRANCH   3  16
HETATM   16  C8  UNL     1      24.121  10.491  18.944  1.00  0.00     0.311 C 
HETATM   17  O3  UNL     1      24.287   9.999  17.801  1.00  0.00    -0.262 OA
HETATM   18  N3  UNL     1      25.258  11.150  19.535  1.00  0.00    -0.344 N 
HETATM   19  C9  UNL     1      26.516  11.223  18.808  1.00  0.00     0.126 C 
HETATM   20  C16 UNL     1      25.187  11.747  20.835  1.00  0.00     0.131 C 
HETATM   21  C10 UNL     1      27.616  10.786  19.719  1.00  0.00     0.025 C 
HETATM   22  C11 UNL     1      27.681  11.595  20.984  1.00  0.00    -0.007 C 
HETATM   23  C12 UNL     1      28.798  12.582  20.869  1.00  0.00     0.005 C 
HETATM   24  C15 UNL     1      26.465  12.418  21.218  1.00  0.00     0.008 C 
HETATM   25  C13 UNL     1      28.176  13.771  20.219  1.00  0.00     0.001 C 
HETATM   26  C14 UNL     1      26.702  13.742  20.587  1.00  0.00     0.007 C 
ENDBRANCH   3  16
TORSDOF 3
ENDMDL
MODEL 3
REMARK VINA RESULT: -7.788970519      1.730      2.117
REMARK  3 active torsions:
REMARK  status: ('A' for Active; 'I' for Inactive)
REMARK       I    between atoms: N1_2  and  C2_4 
REMARK    1  A    between atoms: C2_4  and  C3_6 
REMARK    2  A    between atoms: C6_9  and  N2_10 
REMARK       I    between atoms: N2_10  and  C7_12 
REMARK    3  A    between atoms: C7_12  and  C8_14 
REMARK       I    between atoms: C8_14  and  N3_16 
ROOT
HETATM    1  N2  UNL     1      19.774  11.425  20.637  1.00  0.00    -0.348 N 
ATOM      2  H2  UNL     1      19.117  12.204  20.586  1.00  0.00     0.163 HD
HETATM    3  C7  UNL     1      19.258  10.090  20.737  1.00  0.00     0.309 C 
HETATM    4  O2  UNL     1      20.102   9.166  20.796  1.00  0.00    -0.262 OA
ENDROOT
BRANCH   1   5
HETATM    5  C6  UNL     1      21.164  11.698  20.606  1.00  0.00     0.085 C 
HETATM    6  C5  UNL     1      21.561  12.871  21.511  1.00  0.00     0.026 C 
HETATM    7  C4  UNL     1      23.063  12.728  21.707  1.00  0.00     0.016 C 
HETATM    8  C3  UNL     1      23.824  12.668  20.428  1.00  0.00     0.078 C 
HETATM    9  C18 UNL     1      23.258  11.777  19.381  1.00  0.00     0.016 C 
HETATM   10  C17 UNL     1      21.742  11.979  19.256  1.00  0.00     0.026 C 
BRANCH   8  11
HETATM   11  C2  UNL     1      25.205  12.193  20.743  1.00  0.00     0.221 C 
HETATM   12  N1  UNL     1      25.634  10.974  20.170  1.00  0.00    -0.365 N 
HETATM   13  C1  UNL     1      26.971  10.498  20.462  1.00  0.00     0.149 C 
ATOM     14  H1  UNL     1      25.013  10.439  19.562  1.00  0.00     0.161 HD
HETATM   15  O1  UNL     1      25.980  12.834  21.487  1.00  0.00    -0.273 OA
ENDBRANCH   8  11
ENDBRANCH   1   5
BRANCH   3  16
HETATM   16  C8  UNL     1      17.839   9.820  20.767  1.00  0.00     0.311 C 
HETATM   17  O3  UNL     1      17.287   9.346  19.745  1.00  0.00    -0.262 OA
HETATM   18  N3  UNL     1      16.991  10.059  21.907  1.00  0.00    -0.344 N 
HETATM   19  C9  UNL     1      15.571   9.748  21.835  1.00  0.00     0.126 C 
HETATM   20  C16 UNL     1      17.508  10.599  23.129  1.00  0.00     0.131 C 
HETATM   21  C10 UNL     1      14.802  10.929  22.332  1.00  0.00     0.025 C 
HETATM   22  C11 UNL     1      15.191  11.334  23.726  1.00  0.00    -0.007 C 
HETATM   23  C12 UNL     1      14.152  10.840  24.681  1.00  0.00     0.005 C 
HETATM   24  C15 UNL     1      16.461  10.709  24.186  1.00  0.00     0.008 C 
HETATM   25  C13 UNL     1      14.593   9.460  25.029  1.00  0.00     0.001 C 
HETATM   26  C14 UNL     1      16.103   9.435  24.863  1.00  0.00     0.007 C 
ENDBRANCH   3  16
TORSDOF 3
ENDMDL
MODEL 4
REMARK VINA RESULT: -7.755904607      3.215      9.149
REMARK  3 active torsions:
REMARK  status: ('A' for Active; 'I' for Inactive)
REMARK       I    between atoms: N1_2  and  C2_4 
REMARK    1  A    between atoms: C2_4  and  C3_6 
REMARK    2  A    between atoms: C6_9  and  N2_10 
REMARK       I    between atoms: N2_10  and  C7_12 
REMARK    3  A    between atoms: C7_12  and  C8_14 
REMARK       I    between atoms: C8_14  and  N3_16 
ROOT
HETATM    1  N2  UNL     1      18.209  10.051  23.260  1.00  0.00    -0.348 N 
ATOM      2  H2  UNL     1      18.404   9.514  22.415  1.00  0.00     0.163 HD
HETATM    3  C7  UNL     1      19.307  10.603  23.999  1.00  0.00     0.309 C 
HETATM    4  O2  UNL     1      19.018  11.256  25.029  1.00  0.00    -0.262 OA
ENDROOT
BRANCH   1   5
HETATM    5  C6  UNL     1      16.861  10.226  23.663  1.00  0.00     0.085 C 
HETATM    6  C5  UNL     1      16.294   9.003  24.394  1.00  0.00     0.026 C 
HETATM    7  C4  UNL     1      15.064   9.516  25.127  1.00  0.00     0.016 C 
HETATM    8  C3  UNL     1      14.083  10.195  24.236  1.00  0.00     0.078 C 
HETATM    9  C18 UNL     1      14.657  11.158  23.259  1.00  0.00     0.016 C 
HETATM   10  C17 UNL     1      15.895  10.565  22.574  1.00  0.00     0.026 C 
BRANCH   8  11
HETATM   11  C2  UNL     1      13.117  10.934  25.102  1.00  0.00     0.221 C 
HETATM   12  N1  UNL     1      13.195  10.739  26.500  1.00  0.00    -0.365 N 
HETATM   13  C1  UNL     1      12.267  11.449  27.357  1.00  0.00     0.149 C 
ATOM     14  H1  UNL     1      13.892  10.109  26.898  1.00  0.00     0.161 HD
HETATM   15  O1  UNL     1      12.255  11.709  24.632  1.00  0.00    -0.273 OA
ENDBRANCH   8  11
ENDBRANCH   1   5
BRANCH   3  16
HETATM   16  C8  UNL     1      20.678  10.420  23.582  1.00  0.00     0.311 C 
HETATM   17  O3  UNL     1      21.396   9.594  24.195  1.00  0.00    -0.262 OA
HETATM   18  N3  UNL     1      21.297  11.131  22.492  1.00  0.00    -0.344 N 
HETATM   19  C9  UNL     1      22.687  10.870  22.149  1.00  0.00     0.126 C 
HETATM   20  C16 UNL     1      20.576  12.099  21.720  1.00  0.00     0.131 C 
HETATM   21  C10 UNL     1      23.398  12.178  22.029  1.00  0.00     0.025 C 
HETATM   22  C11 UNL     1      22.763  13.097  21.023  1.00  0.00    -0.007 C 
HETATM   23  C12 UNL     1      23.571  13.070  19.766  1.00  0.00     0.005 C 
HETATM   24  C15 UNL     1      21.400  12.666  20.612  1.00  0.00     0.008 C 
HETATM   25  C13 UNL     1      23.005  11.933  18.985  1.00  0.00     0.001 C 
HETATM   26  C14 UNL     1      21.557  11.787  19.423  1.00  0.00     0.007 C 
ENDBRANCH   3  16
TORSDOF 3
ENDMDL
MODEL 5
REMARK VINA RESULT: -7.731925181      1.127      1.497
REMARK  3 active torsions:
REMARK  status: ('A' for Active; 'I' for Inactive)
REMARK       I    between atoms: N1_2  and  C2_4 
REMARK    1  A    between atoms: C2_4  and  C3_6 
REMARK    2  A    between atoms: C6_9  and  N2_10 
REMARK       I    between atoms: N2_10  and  C7_12 
REMARK    3  A    between atoms: C7_12  and  C8_14 
REMARK       I    between atoms: C8_14  and  N3_16 
ROOT
HETATM    1  N2  UNL     1      20.249   9.720  20.575  1.00  0.00    -0.348 N 
ATOM      2  H2  UNL     1      20.216   9.052  21.345  1.00  0.00     0.163 HD
HETATM    3  C7  UNL     1      19.047   9.990  19.840  1.00  0.00     0.309 C 
HETATM    4  O2  UNL     1      19.136  10.819  18.905  1.00  0.00    -0.262 OA
ENDROOT
BRANCH   1   5
HETATM    5  C6  UNL     1      21.481  10.350  20.268  1.00  0.00     0.085 C 
HETATM    6  C5  UNL     1      21.301  11.753  19.674  1.00  0.00     0.026 C 
HETATM    7  C4  UNL     1      22.656  12.427  19.837  1.00  0.00     0.016 C 
HETATM    8  C3  UNL     1      23.777  11.656  19.233  1.00  0.00     0.078 C 
HETATM    9  C18 UNL     1      23.784  10.195  19.518  1.00  0.00     0.016 C 
HETATM   10  C17 UNL     1      22.381   9.600  19.339  1.00  0.00     0.026 C 
BRANCH   8  11
HETATM   11  C2  UNL     1      25.055  12.233  19.747  1.00  0.00     0.221 C 
HETATM   12  N1  UNL     1      26.149  11.358  19.936  1.00  0.00    -0.365 N 
HETATM   13  C1  UNL     1      27.398  11.900  20.433  1.00  0.00     0.149 C 
ATOM     14  H1  UNL     1      26.062  10.364  19.728  1.00  0.00     0.161 HD
HETATM   15  O1  UNL     1      25.181  13.449  20.010  1.00  0.00    -0.273 OA
ENDBRANCH   8  11
ENDBRANCH   1   5
BRANCH   3  16
HETATM   16  C8  UNL     1      17.794   9.344  20.160  1.00  0.00     0.311 C 
HETATM   17  O3  UNL     1      17.345   8.470  19.380  1.00  0.00    -0.262 OA
HETATM   18  N3  UNL     1      17.006   9.633  21.331  1.00  0.00    -0.344 N 
HETATM   19  C9  UNL     1      15.758   8.921  21.561  1.00  0.00     0.126 C 
HETATM   20  C16 UNL     1      17.419  10.612  22.291  1.00  0.00     0.131 C 
HETATM   21  C10 UNL     1      14.695   9.920  21.880  1.00  0.00     0.025 C 
HETATM   22  C11 UNL     1      15.043  10.786  23.059  1.00  0.00    -0.007 C 
HETATM   23  C12 UNL     1      14.293  10.297  24.256  1.00  0.00     0.005 C 
HETATM   24  C15 UNL     1      16.477  10.703  23.445  1.00  0.00     0.008 C 
HETATM   25  C13 UNL     1      15.176   9.252  24.847  1.00  0.00     0.001 C 
HETATM   26  C14 UNL     1      16.598   9.616  24.452  1.00  0.00     0.007 C 
ENDBRANCH   3  16
TORSDOF 3
ENDMDL
