MODEL 1
REMARK VINA RESULT: -5.671403479      0.000      0.000
REMARK  6 active torsions:
REMARK  status: ('A' for Active; 'I' for Inactive)
REMARK    1  A    between atoms: C2_2  and  N1_3 
REMARK    2  A    between atoms: N2_6  and  C5_7 
REMARK    3  A    between atoms: C5_7  and  N3_9 
REMARK    4  A    between atoms: N3_9  and  N4_11 
REMARK       I    between atoms: N4_11  and  C6_13 
REMARK    5  A    between atoms: C6_13  and  C7_15 
REMARK    6  A    between atoms: C7_15  and  C8_16 
ROOT
HETATM    1  C5  UNL     1      27.387  13.553  19.499  1.00  0.00     0.188 C 
HETATM    2  S1  UNL     1      28.221  14.976  19.751  1.00  0.00    -0.039 SA
ENDROOT
BRANCH   1   3
HETATM    3  N2  UNL     1      27.950  12.388  20.031  1.00  0.00    -0.354 N 
HETATM    4  C4  UNL     1      29.057  12.518  21.006  1.00  0.00     0.155 C 
HETATM    5  C3  UNL     1      28.730  11.492  22.086  1.00  0.00     0.292 C 
HETATM    6  N1  UNL     1      29.039  10.213  21.486  1.00  0.00     0.091 N 
HETATM    7  C11 UNL     1      28.354   9.952  20.280  1.00  0.00     0.292 C 
HETATM    8  C10 UNL     1      27.535  11.074  19.702  1.00  0.00     0.155 C 
BRANCH   6   9
HETATM    9  C2  UNL     1      28.748   9.180  22.455  1.00  0.00     0.268 C 
HETATM   10  C1  UNL     1      29.739   9.184  23.597  1.00  0.00     0.037 C 
ENDBRANCH   6   9
ENDBRANCH   1   3
BRANCH   1  11
HETATM   11  N3  UNL     1      26.205  13.656  18.780  1.00  0.00    -0.274 N 
ATOM     12  H3  UNL     1      26.317  13.805  17.776  1.00  0.00     0.189 HD
BRANCH  11  13
HETATM   13  N4  UNL     1      24.893  13.585  19.227  1.00  0.00    -0.268 N 
HETATM   14  C6  UNL     1      24.074  12.530  18.771  1.00  0.00     0.237 C 
HETATM   15  O1  UNL     1      24.489  11.651  17.975  1.00  0.00    -0.272 OA
ATOM     16  H4  UNL     1      24.528  14.284  19.874  1.00  0.00     0.190 HD
BRANCH  14  17
HETATM   17  C7  UNL     1      22.675  12.459  19.250  1.00  0.00     0.120 C 
BRANCH  17  18
HETATM   18  C8  UNL     1      22.532  11.544  20.448  1.00  0.00     0.062 C 
HETATM   19  C9  UNL     1      21.562  12.225  21.404  1.00  0.00     0.022 C 
HETATM   20 BR1  UNL     1      21.890   9.798  19.946  1.00  0.00    -0.091 Br
ENDBRANCH  17  18
ENDBRANCH  14  17
ENDBRANCH  11  13
ENDBRANCH   1  11
TORSDOF 6
ENDMDL
MODEL 2
REMARK VINA RESULT: -5.589830102      6.278      8.209
REMARK  6 active torsions:
REMARK  status: ('A' for Active; 'I' for Inactive)
REMARK    1  A    between atoms: C2_2  and  N1_3 
REMARK    2  A    between atoms: N2_6  and  C5_7 
REMARK    3  A    between atoms: C5_7  and  N3_9 
REMARK    4  A    between atoms: N3_9  and  N4_11 
REMARK       I    between atoms: N4_11  and  C6_13 
REMARK    5  A    between atoms: C6_13  and  C7_15 
REMARK    6  A    between atoms: C7_15  and  C8_16 
ROOT
HETATM    1  C5  UNL     1      22.864  12.681  24.790  1.00  0.00     0.188 C 
HETATM    2  S1  UNL     1      23.469  14.233  24.692  1.00  0.00    -0.039 SA
ENDROOT
BRANCH   1   3
HETATM    3  N2  UNL     1      22.367  12.122  23.609  1.00  0.00    -0.354 N 
HETATM    4  C4  UNL     1      21.539  12.966  22.718  1.00  0.00     0.155 C 
HETATM    5  C3  UNL     1      22.045  12.644  21.316  1.00  0.00     0.292 C 
HETATM    6  N1  UNL     1      21.513  11.332  21.023  1.00  0.00     0.091 N 
HETATM    7  C11 UNL     1      21.868  10.336  21.959  1.00  0.00     0.292 C 
HETATM    8  C10 UNL     1      22.599  10.786  23.195  1.00  0.00     0.155 C 
BRANCH   6   9
HETATM    9  C2  UNL     1      21.958  10.951  19.701  1.00  0.00     0.268 C 
HETATM   10  C1  UNL     1      22.541   9.556  19.683  1.00  0.00     0.037 C 
ENDBRANCH   6   9
ENDBRANCH   1   3
BRANCH   1  11
HETATM   11  N3  UNL     1      22.910  12.085  26.043  1.00  0.00    -0.274 N 
ATOM     12  H3  UNL     1      23.755  11.549  26.240  1.00  0.00     0.189 HD
BRANCH  11  13
HETATM   13  N4  UNL     1      21.971  12.113  27.064  1.00  0.00    -0.268 N 
HETATM   14  C6  UNL     1      22.220  12.917  28.197  1.00  0.00     0.237 C 
HETATM   15  O1  UNL     1      23.261  13.612  28.313  1.00  0.00    -0.272 OA
ATOM     16  H4  UNL     1      21.116  11.561  26.997  1.00  0.00     0.190 HD
BRANCH  14  17
HETATM   17  C7  UNL     1      21.217  12.944  29.285  1.00  0.00     0.120 C 
BRANCH  17  18
HETATM   18  C8  UNL     1      19.802  12.849  28.755  1.00  0.00     0.062 C 
HETATM   19  C9  UNL     1      18.963  12.225  29.860  1.00  0.00     0.022 C 
HETATM   20 BR1  UNL     1      19.106  14.575  28.254  1.00  0.00    -0.091 Br
ENDBRANCH  17  18
ENDBRANCH  14  17
ENDBRANCH  11  13
ENDBRANCH   1  11
TORSDOF 6
ENDMDL
MODEL 3
REMARK VINA RESULT: -5.585045298      7.162      9.462
REMARK  6 active torsions:
REMARK  status: ('A' for Active; 'I' for Inactive)
REMARK    1  A    between atoms: C2_2  and  N1_3 
REMARK    2  A    between atoms: N2_6  and  C5_7 
REMARK    3  A    between atoms: C5_7  and  N3_9 
REMARK    4  A    between atoms: N3_9  and  N4_11 
REMARK       I    between atoms: N4_11  and  C6_13 
REMARK    5  A    between atoms: C6_13  and  C7_15 
REMARK    6  A    between atoms: C7_15  and  C8_16 
ROOT
HETATM    1  C5  UNL     1      19.002  11.395  26.035  1.00  0.00     0.188 C 
HETATM    2  S1  UNL     1      19.347  12.065  27.524  1.00  0.00    -0.039 SA
ENDROOT
BRANCH   1   3
HETATM    3  N2  UNL     1      19.849  11.738  24.977  1.00  0.00    -0.354 N 
HETATM    4  C4  UNL     1      20.974  10.834  24.648  1.00  0.00     0.155 C 
HETATM    5  C3  UNL     1      20.970  10.765  23.124  1.00  0.00     0.292 C 
HETATM    6  N1  UNL     1      21.505  12.038  22.695  1.00  0.00     0.091 N 
HETATM    7  C11 UNL     1      20.801  13.161  23.180  1.00  0.00     0.292 C 
HETATM    8  C10 UNL     1      19.710  12.904  24.184  1.00  0.00     0.155 C 
BRANCH   6   9
HETATM    9  C2  UNL     1      21.527  12.052  21.250  1.00  0.00     0.268 C 
HETATM   10  C1  UNL     1      21.498  10.654  20.673  1.00  0.00     0.037 C 
ENDBRANCH   6   9
ENDBRANCH   1   3
BRANCH   1  11
HETATM   11  N3  UNL     1      17.897  10.557  25.983  1.00  0.00    -0.274 N 
ATOM     12  H3  UNL     1      17.367  10.479  26.852  1.00  0.00     0.189 HD
BRANCH  11  13
HETATM   13  N4  UNL     1      17.410   9.808  24.921  1.00  0.00    -0.268 N 
HETATM   14  C6  UNL     1      16.079   9.340  24.972  1.00  0.00     0.237 C 
HETATM   15  O1  UNL     1      15.319   9.578  25.944  1.00  0.00    -0.272 OA
ATOM     16  H4  UNL     1      18.003   9.600  24.118  1.00  0.00     0.190 HD
BRANCH  14  17
HETATM   17  C7  UNL     1      15.563   8.541  23.838  1.00  0.00     0.120 C 
BRANCH  17  18
HETATM   18  C8  UNL     1      15.818   9.215  22.506  1.00  0.00     0.062 C 
HETATM   19  C9  UNL     1      15.346   8.248  21.430  1.00  0.00     0.022 C 
HETATM   20 BR1  UNL     1      14.896  10.902  22.368  1.00  0.00    -0.091 Br
ENDBRANCH  17  18
ENDBRANCH  14  17
ENDBRANCH  11  13
ENDBRANCH   1  11
TORSDOF 6
ENDMDL
MODEL 4
REMARK VINA RESULT: -5.511679141      6.360      8.310
REMARK  6 active torsions:
REMARK  status: ('A' for Active; 'I' for Inactive)
REMARK    1  A    between atoms: C2_2  and  N1_3 
REMARK    2  A    between atoms: N2_6  and  C5_7 
REMARK    3  A    between atoms: C5_7  and  N3_9 
REMARK    4  A    between atoms: N3_9  and  N4_11 
REMARK       I    between atoms: N4_11  and  C6_13 
REMARK    5  A    between atoms: C6_13  and  C7_15 
REMARK    6  A    between atoms: C7_15  and  C8_16 
ROOT
HETATM    1  C5  UNL     1      22.632  11.415  24.650  1.00  0.00     0.188 C 
HETATM    2  S1  UNL     1      21.968   9.885  24.581  1.00  0.00    -0.039 SA
ENDROOT
BRANCH   1   3
HETATM    3  N2  UNL     1      22.909  12.038  23.430  1.00  0.00    -0.354 N 
HETATM    4  C4  UNL     1      22.330  11.465  22.193  1.00  0.00     0.155 C 
HETATM    5  C3  UNL     1      21.848  12.679  21.406  1.00  0.00     0.292 C 
HETATM    6  N1  UNL     1      23.054  13.287  20.889  1.00  0.00     0.091 N 
HETATM    7  C11 UNL     1      24.002  13.635  21.875  1.00  0.00     0.292 C 
HETATM    8  C10 UNL     1      23.716  13.194  23.285  1.00  0.00     0.155 C 
BRANCH   6   9
HETATM    9  C2  UNL     1      22.677  14.457  20.128  1.00  0.00     0.268 C 
HETATM   10  C1  UNL     1      22.904  14.263  18.646  1.00  0.00     0.037 C 
ENDBRANCH   6   9
ENDBRANCH   1   3
BRANCH   1  11
HETATM   11  N3  UNL     1      22.850  11.929  25.920  1.00  0.00    -0.274 N 
ATOM     12  H3  UNL     1      23.790  12.290  26.089  1.00  0.00     0.189 HD
BRANCH  11  13
HETATM   13  N4  UNL     1      21.976  12.024  26.994  1.00  0.00    -0.268 N 
HETATM   14  C6  UNL     1      22.256  12.950  28.021  1.00  0.00     0.237 C 
HETATM   15  O1  UNL     1      23.269  13.694  27.998  1.00  0.00    -0.272 OA
ATOM     16  H4  UNL     1      21.145  11.434  27.039  1.00  0.00     0.190 HD
BRANCH  14  17
HETATM   17  C7  UNL     1      21.322  13.048  29.165  1.00  0.00     0.120 C 
BRANCH  17  18
HETATM   18  C8  UNL     1      19.879  12.887  28.734  1.00  0.00     0.062 C 
HETATM   19  C9  UNL     1      19.139  12.268  29.912  1.00  0.00     0.022 C 
HETATM   20 BR1  UNL     1      19.088  14.570  28.232  1.00  0.00    -0.091 Br
ENDBRANCH  17  18
ENDBRANCH  14  17
ENDBRANCH  11  13
ENDBRANCH   1  11
TORSDOF 6
ENDMDL
MODEL 5
REMARK VINA RESULT: -5.485688857      5.864      7.977
REMARK  6 active torsions:
REMARK  status: ('A' for Active; 'I' for Inactive)
REMARK    1  A    between atoms: C2_2  and  N1_3 
REMARK    2  A    between atoms: N2_6  and  C5_7 
REMARK    3  A    between atoms: C5_7  and  N3_9 
REMARK    4  A    between atoms: N3_9  and  N4_11 
REMARK       I    between atoms: N4_11  and  C6_13 
REMARK    5  A    between atoms: C6_13  and  C7_15 
REMARK    6  A    between atoms: C7_15  and  C8_16 
ROOT
HETATM    1  C5  UNL     1      20.102  10.567  24.023  1.00  0.00     0.188 C 
HETATM    2  S1  UNL     1      18.445  10.459  23.854  1.00  0.00    -0.039 SA
ENDROOT
BRANCH   1   3
HETATM    3  N2  UNL     1      20.584  11.532  24.913  1.00  0.00    -0.354 N 
HETATM    4  C4  UNL     1      19.616  12.450  25.556  1.00  0.00     0.155 C 
HETATM    5  C3  UNL     1      20.075  12.524  27.008  1.00  0.00     0.292 C 
HETATM    6  N1  UNL     1      21.261  13.350  26.980  1.00  0.00     0.091 N 
HETATM    7  C11 UNL     1      22.280  12.881  26.124  1.00  0.00     0.292 C 
HETATM    8  C10 UNL     1      21.950  11.701  25.250  1.00  0.00     0.155 C 
BRANCH   6   9
HETATM    9  C2  UNL     1      21.762  13.464  28.332  1.00  0.00     0.268 C 
HETATM   10  C1  UNL     1      21.624  12.165  29.094  1.00  0.00     0.037 C 
ENDBRANCH   6   9
ENDBRANCH   1   3
BRANCH   1  11
HETATM   11  N3  UNL     1      20.853   9.685  23.260  1.00  0.00    -0.274 N 
ATOM     12  H3  UNL     1      20.905   8.732  23.619  1.00  0.00     0.189 HD
BRANCH  11  13
HETATM   13  N4  UNL     1      21.544   9.913  22.078  1.00  0.00    -0.268 N 
HETATM   14  C6  UNL     1      20.940   9.548  20.855  1.00  0.00     0.237 C 
HETATM   15  O1  UNL     1      19.799   9.025  20.797  1.00  0.00    -0.272 OA
ATOM     16  H4  UNL     1      22.471  10.337  22.093  1.00  0.00     0.190 HD
BRANCH  14  17
HETATM   17  C7  UNL     1      21.680   9.792  19.597  1.00  0.00     0.120 C 
BRANCH  17  18
HETATM   18  C8  UNL     1      22.970  10.548  19.833  1.00  0.00     0.062 C 
HETATM   19  C9  UNL     1      23.947  10.092  18.758  1.00  0.00     0.022 C 
HETATM   20 BR1  UNL     1      22.709  12.455  19.762  1.00  0.00    -0.091 Br
ENDBRANCH  17  18
ENDBRANCH  14  17
ENDBRANCH  11  13
ENDBRANCH   1  11
TORSDOF 6
ENDMDL
