MODEL 1
REMARK VINA RESULT: -6.447326982      0.000      0.000
REMARK  3 active torsions:
REMARK  status: ('A' for Active; 'I' for Inactive)
REMARK    1  A    between atoms: C2_2  and  N1_3 
REMARK       I    between atoms: N1_3  and  C3_5 
REMARK       I    between atoms: C3_5  and  N2_7 
REMARK       I    between atoms: N3_14  and  C10_15 
REMARK       I    between atoms: C10_15  and  N4_17 
REMARK    2  A    between atoms: N4_17  and  C11_19 
REMARK    3  A    between atoms: C11_19  and  C12_20 
ROOT
HETATM    1  N1  UNL     1      25.509  11.287  19.543  1.00  0.00    -0.343 N 
ATOM      2  H1  UNL     1      25.203  10.392  19.162  1.00  0.00     0.164 HD
HETATM    3  C3  UNL     1      24.890  11.810  20.701  1.00  0.00     0.318 C 
HETATM    4  O1  UNL     1      25.277  12.914  21.161  1.00  0.00    -0.247 OA
HETATM    5  N2  UNL     1      23.845  11.125  21.360  1.00  0.00    -0.332 N 
HETATM    6  C4  UNL     1      23.314   9.862  20.944  1.00  0.00     0.127 C 
HETATM    7  C5  UNL     1      21.933  10.118  20.371  1.00  0.00     0.022 C 
HETATM    8  C6  UNL     1      21.262  11.287  21.059  1.00  0.00     0.034 C 
HETATM    9  C7  UNL     1      21.746  11.402  22.477  1.00  0.00     0.085 C 
HETATM   10  C8  UNL     1      23.223  11.712  22.564  1.00  0.00     0.158 C 
HETATM   11  C9  UNL     1      21.252  10.329  23.407  1.00  0.00     0.180 C 
HETATM   12  N3  UNL     1      20.127  11.224  23.592  1.00  0.00    -0.244 N 
HETATM   13  C10 UNL     1      18.736  11.145  23.913  1.00  0.00     0.334 C 
HETATM   14  O2  UNL     1      18.087  12.219  23.977  1.00  0.00    -0.246 OA
HETATM   15  N4  UNL     1      18.085   9.929  24.154  1.00  0.00    -0.341 N 
ATOM     16  H4  UNL     1      18.637   9.073  24.102  1.00  0.00     0.164 HD
HETATM   17  N5  UNL     1      20.986  12.283  23.316  1.00  0.00    -0.121 NA
ENDROOT
BRANCH   1  18
HETATM   18  C2  UNL     1      26.590  12.027  18.890  1.00  0.00     0.120 C 
HETATM   19  C1  UNL     1      27.916  11.402  19.318  1.00  0.00     0.026 C 
ENDBRANCH   1  18
BRANCH  15  20
HETATM   20  C11 UNL     1      16.712   9.811  24.466  1.00  0.00     0.135 C 
BRANCH  20  21
HETATM   21  C12 UNL     1      15.915   9.298  23.303  1.00  0.00     0.104 C 
HETATM   22 BR1  UNL     1      14.967  10.801  22.528  1.00  0.00    -0.095 Br
ENDBRANCH  20  21
ENDBRANCH  15  20
TORSDOF 3
ENDMDL
MODEL 2
REMARK VINA RESULT: -6.202195695      2.922      3.290
REMARK  3 active torsions:
REMARK  status: ('A' for Active; 'I' for Inactive)
REMARK    1  A    between atoms: C2_2  and  N1_3 
REMARK       I    between atoms: N1_3  and  C3_5 
REMARK       I    between atoms: C3_5  and  N2_7 
REMARK       I    between atoms: N3_14  and  C10_15 
REMARK       I    between atoms: C10_15  and  N4_17 
REMARK    2  A    between atoms: N4_17  and  C11_19 
REMARK    3  A    between atoms: C11_19  and  C12_20 
ROOT
HETATM    1  N1  UNL     1      24.872  13.168  23.865  1.00  0.00    -0.343 N 
ATOM      2  H1  UNL     1      24.892  12.931  22.873  1.00  0.00     0.164 HD
HETATM    3  C3  UNL     1      23.814  12.703  24.680  1.00  0.00     0.318 C 
HETATM    4  O1  UNL     1      23.801  13.003  25.901  1.00  0.00    -0.247 OA
HETATM    5  N2  UNL     1      22.769  11.907  24.161  1.00  0.00    -0.332 N 
HETATM    6  C4  UNL     1      22.667  11.493  22.794  1.00  0.00     0.127 C 
HETATM    7  C5  UNL     1      21.531  12.277  22.166  1.00  0.00     0.022 C 
HETATM    8  C6  UNL     1      20.452  12.586  23.182  1.00  0.00     0.034 C 
HETATM    9  C7  UNL     1      20.409  11.516  24.235  1.00  0.00     0.085 C 
HETATM   10  C8  UNL     1      21.682  11.448  25.048  1.00  0.00     0.158 C 
HETATM   11  C9  UNL     1      19.861  10.193  23.777  1.00  0.00     0.180 C 
HETATM   12  N3  UNL     1      18.582  10.772  24.143  1.00  0.00    -0.244 N 
HETATM   13  C10 UNL     1      17.208  10.664  23.762  1.00  0.00     0.334 C 
HETATM   14  O2  UNL     1      16.375  11.385  24.365  1.00  0.00    -0.246 OA
HETATM   15  N4  UNL     1      16.770   9.796  22.755  1.00  0.00    -0.341 N 
ATOM     16  H4  UNL     1      17.468   9.218  22.286  1.00  0.00     0.164 HD
HETATM   17  N5  UNL     1      19.255  11.539  25.088  1.00  0.00    -0.121 NA
ENDROOT
BRANCH   1  18
HETATM   18  C2  UNL     1      25.936  13.990  24.441  1.00  0.00     0.120 C 
HETATM   19  C1  UNL     1      27.268  13.499  23.878  1.00  0.00     0.026 C 
ENDBRANCH   1  18
BRANCH  15  20
HETATM   20  C11 UNL     1      15.424   9.668  22.346  1.00  0.00     0.135 C 
BRANCH  20  21
HETATM   21  C12 UNL     1      15.134   8.305  21.789  1.00  0.00     0.104 C 
HETATM   22 BR1  UNL     1      16.230   8.070  20.208  1.00  0.00    -0.095 Br
ENDBRANCH  20  21
ENDBRANCH  15  20
TORSDOF 3
ENDMDL
MODEL 3
REMARK VINA RESULT: -6.181338949      4.139      4.804
REMARK  3 active torsions:
REMARK  status: ('A' for Active; 'I' for Inactive)
REMARK    1  A    between atoms: C2_2  and  N1_3 
REMARK       I    between atoms: N1_3  and  C3_5 
REMARK       I    between atoms: C3_5  and  N2_7 
REMARK       I    between atoms: N3_14  and  C10_15 
REMARK       I    between atoms: C10_15  and  N4_17 
REMARK    2  A    between atoms: N4_17  and  C11_19 
REMARK    3  A    between atoms: C11_19  and  C12_20 
ROOT
HETATM    1  N1  UNL     1      22.414  12.574  19.833  1.00  0.00    -0.343 N 
ATOM      2  H1  UNL     1      21.414  12.776  19.852  1.00  0.00     0.164 HD
HETATM    3  C3  UNL     1      23.078  12.183  21.018  1.00  0.00     0.318 C 
HETATM    4  O1  UNL     1      24.310  11.937  20.980  1.00  0.00    -0.247 OA
HETATM    5  N2  UNL     1      22.395  12.059  22.248  1.00  0.00    -0.332 N 
HETATM    6  C4  UNL     1      20.996  12.306  22.427  1.00  0.00     0.127 C 
HETATM    7  C5  UNL     1      20.859  13.601  23.205  1.00  0.00     0.022 C 
HETATM    8  C6  UNL     1      22.020  13.792  24.158  1.00  0.00     0.034 C 
HETATM    9  C7  UNL     1      22.551  12.459  24.603  1.00  0.00     0.085 C 
HETATM   10  C8  UNL     1      23.130  11.653  23.462  1.00  0.00     0.158 C 
HETATM   11  C9  UNL     1      21.659  11.701  25.546  1.00  0.00     0.180 C 
HETATM   12  N3  UNL     1      22.358  12.456  26.568  1.00  0.00    -0.244 N 
HETATM   13  C10 UNL     1      22.112  12.967  27.880  1.00  0.00     0.334 C 
HETATM   14  O2  UNL     1      23.038  13.600  28.446  1.00  0.00    -0.246 OA
HETATM   15  N4  UNL     1      20.892  12.787  28.543  1.00  0.00    -0.341 N 
ATOM     16  H4  UNL     1      20.160  12.264  28.063  1.00  0.00     0.164 HD
HETATM   17  N5  UNL     1      23.457  12.499  25.715  1.00  0.00    -0.121 NA
ENDROOT
BRANCH   1  18
HETATM   18  C2  UNL     1      23.158  12.690  18.578  1.00  0.00     0.120 C 
HETATM   19  C1  UNL     1      23.065  14.140  18.107  1.00  0.00     0.026 C 
ENDBRANCH   1  18
BRANCH  15  20
HETATM   20  C11 UNL     1      20.610  13.283  29.836  1.00  0.00     0.135 C 
BRANCH  20  21
HETATM   21  C12 UNL     1      19.291  12.787  30.351  1.00  0.00     0.104 C 
HETATM   22 BR1  UNL     1      17.895  13.629  29.303  1.00  0.00    -0.095 Br
ENDBRANCH  20  21
ENDBRANCH  15  20
TORSDOF 3
ENDMDL
MODEL 4
REMARK VINA RESULT: -6.101129182      3.859      4.405
REMARK  3 active torsions:
REMARK  status: ('A' for Active; 'I' for Inactive)
REMARK    1  A    between atoms: C2_2  and  N1_3 
REMARK       I    between atoms: N1_3  and  C3_5 
REMARK       I    between atoms: C3_5  and  N2_7 
REMARK       I    between atoms: N3_14  and  C10_15 
REMARK       I    between atoms: C10_15  and  N4_17 
REMARK    2  A    between atoms: N4_17  and  C11_19 
REMARK    3  A    between atoms: C11_19  and  C12_20 
ROOT
HETATM    1  N1  UNL     1      23.010  10.563  19.653  1.00  0.00    -0.343 N 
ATOM      2  H1  UNL     1      22.155  11.036  19.358  1.00  0.00     0.164 HD
HETATM    3  C3  UNL     1      23.240  10.312  21.025  1.00  0.00     0.318 C 
HETATM    4  O1  UNL     1      24.297   9.728  21.374  1.00  0.00    -0.247 OA
HETATM    5  N2  UNL     1      22.313  10.698  22.018  1.00  0.00    -0.332 N 
HETATM    6  C4  UNL     1      21.073  11.364  21.756  1.00  0.00     0.127 C 
HETATM    7  C5  UNL     1      21.219  12.797  22.231  1.00  0.00     0.022 C 
HETATM    8  C6  UNL     1      22.150  12.887  23.421  1.00  0.00     0.034 C 
HETATM    9  C7  UNL     1      22.097  11.615  24.218  1.00  0.00     0.085 C 
HETATM   10  C8  UNL     1      22.597  10.420  23.440  1.00  0.00     0.158 C 
HETATM   11  C9  UNL     1      20.825  11.400  24.991  1.00  0.00     0.180 C 
HETATM   12  N3  UNL     1      21.507  12.159  26.022  1.00  0.00    -0.244 N 
HETATM   13  C10 UNL     1      21.176  13.031  27.107  1.00  0.00     0.334 C 
HETATM   14  O2  UNL     1      22.120  13.499  27.790  1.00  0.00    -0.246 OA
HETATM   15  N4  UNL     1      19.857  13.373  27.424  1.00  0.00    -0.341 N 
ATOM     16  H4  UNL     1      19.110  12.974  26.856  1.00  0.00     0.164 HD
HETATM   17  N5  UNL     1      22.709  11.677  25.515  1.00  0.00    -0.121 NA
ENDROOT
BRANCH   1  18
HETATM   18  C2  UNL     1      23.995  10.147  18.654  1.00  0.00     0.120 C 
HETATM   19  C1  UNL     1      24.557  11.404  17.993  1.00  0.00     0.026 C 
ENDBRANCH   1  18
BRANCH  15  20
HETATM   20  C11 UNL     1      19.493  14.237  28.482  1.00  0.00     0.135 C 
BRANCH  20  21
HETATM   21  C12 UNL     1      18.697  13.526  29.537  1.00  0.00     0.104 C 
HETATM   22 BR1  UNL     1      19.943  12.838  30.852  1.00  0.00    -0.095 Br
ENDBRANCH  20  21
ENDBRANCH  15  20
TORSDOF 3
ENDMDL
MODEL 5
REMARK VINA RESULT: -6.077851118      3.360      8.027
REMARK  3 active torsions:
REMARK  status: ('A' for Active; 'I' for Inactive)
REMARK    1  A    between atoms: C2_2  and  N1_3 
REMARK       I    between atoms: N1_3  and  C3_5 
REMARK       I    between atoms: C3_5  and  N2_7 
REMARK       I    between atoms: N3_14  and  C10_15 
REMARK       I    between atoms: C10_15  and  N4_17 
REMARK    2  A    between atoms: N4_17  and  C11_19 
REMARK    3  A    between atoms: C11_19  and  C12_20 
ROOT
HETATM    1  N1  UNL     1      17.170  10.819  24.725  1.00  0.00    -0.343 N 
ATOM      2  H1  UNL     1      17.682  11.178  25.531  1.00  0.00     0.164 HD
HETATM    3  C3  UNL     1      17.875  10.361  23.589  1.00  0.00     0.318 C 
HETATM    4  O1  UNL     1      17.231   9.921  22.602  1.00  0.00    -0.247 OA
HETATM    5  N2  UNL     1      19.285  10.383  23.529  1.00  0.00    -0.332 N 
HETATM    6  C4  UNL     1      20.135  10.854  24.580  1.00  0.00     0.127 C 
HETATM    7  C5  UNL     1      20.726  12.176  24.129  1.00  0.00     0.022 C 
HETATM    8  C6  UNL     1      20.913  12.207  22.627  1.00  0.00     0.034 C 
HETATM    9  C7  UNL     1      21.160  10.821  22.106  1.00  0.00     0.085 C 
HETATM   10  C8  UNL     1      19.979   9.900  22.318  1.00  0.00     0.158 C 
HETATM   11  C9  UNL     1      22.504  10.241  22.449  1.00  0.00     0.180 C 
HETATM   12  N3  UNL     1      22.928  10.904  21.230  1.00  0.00    -0.244 N 
HETATM   13  C10 UNL     1      24.114  11.485  20.683  1.00  0.00     0.334 C 
HETATM   14  O2  UNL     1      24.046  11.979  19.530  1.00  0.00    -0.246 OA
HETATM   15  N4  UNL     1      25.328  11.520  21.380  1.00  0.00    -0.341 N 
ATOM     16  H4  UNL     1      25.355  11.107  22.312  1.00  0.00     0.164 HD
HETATM   17  N5  UNL     1      21.631  10.748  20.752  1.00  0.00    -0.121 NA
ENDROOT
BRANCH   1  18
HETATM   18  C2  UNL     1      15.707  10.780  24.749  1.00  0.00     0.120 C 
HETATM   19  C1  UNL     1      15.281   9.493  25.453  1.00  0.00     0.026 C 
ENDBRANCH   1  18
BRANCH  15  20
HETATM   20  C11 UNL     1      26.517  12.092  20.875  1.00  0.00     0.135 C 
BRANCH  20  21
HETATM   21  C12 UNL     1      27.322  11.103  20.084  1.00  0.00     0.104 C 
HETATM   22 BR1  UNL     1      27.993   9.768  21.318  1.00  0.00    -0.095 Br
ENDBRANCH  20  21
ENDBRANCH  15  20
TORSDOF 3
ENDMDL
