MODEL 1
REMARK VINA RESULT: -6.120024201      0.000      0.000
REMARK  3 active torsions:
REMARK  status: ('A' for Active; 'I' for Inactive)
REMARK    1  A    between atoms: C2_2  and  C3_3 
REMARK       I    between atoms: C3_3  and  N1_5 
REMARK    2  A    between atoms: C8_13  and  C9_14 
REMARK    3  A    between atoms: C12_17  and  C13_18 
ROOT
HETATM    1  C3  UNL     1      22.008  15.020  23.067  1.00  0.00     0.220 C 
HETATM    2  O1  UNL     1      21.385  16.056  22.676  1.00  0.00    -0.273 OA
HETATM    3  N1  UNL     1      21.685  14.486  24.351  1.00  0.00    -0.335 N 
HETATM    4  C4  UNL     1      22.332  13.315  24.902  1.00  0.00     0.152 C 
HETATM    5  C5  UNL     1      22.286  13.635  26.382  1.00  0.00     0.101 C 
HETATM    6  N2  UNL     1      22.478  12.514  27.205  1.00  0.00    -0.414 N 
ATOM      7  H2  UNL     1      23.046  11.728  26.888  1.00  0.00     0.153 HD
HETATM    8  C6  UNL     1      21.866  12.494  28.482  1.00  0.00     0.130 C 
HETATM    9  C7  UNL     1      20.603  13.278  28.626  1.00  0.00     0.080 C 
HETATM   10 BR1  UNL     1      19.411  12.705  29.975  1.00  0.00    -0.089 Br
HETATM   11  C8  UNL     1      19.940  13.534  27.259  1.00  0.00     0.010 C 
HETATM   12  C11 UNL     1      20.948  14.353  26.552  1.00  0.00     0.048 C 
HETATM   13  C12 UNL     1      20.691  15.013  25.289  1.00  0.00     0.194 C 
ENDROOT
BRANCH   1  14
HETATM   14  C2  UNL     1      23.025  14.423  22.186  1.00  0.00     0.098 C 
HETATM   15  C1  UNL     1      22.720  14.744  20.740  1.00  0.00     0.014 C 
ENDBRANCH   1  14
BRANCH  13  16
HETATM   16  C13 UNL     1      19.393  14.935  24.664  1.00  0.00     0.197 C 
HETATM   17  O2  UNL     1      18.532  15.846  24.913  1.00  0.00    -0.646 OA
HETATM   18  O3  UNL     1      18.968  13.943  23.795  1.00  0.00    -0.646 OA
ENDBRANCH  13  16
BRANCH  11  19
HETATM   19  C9  UNL     1      19.471  12.287  26.608  1.00  0.00     0.002 C 
HETATM   20  C10 UNL     1      17.995  12.095  26.570  1.00  0.00     0.005 C 
ENDBRANCH  11  19
TORSDOF 3
ENDMDL
MODEL 2
REMARK VINA RESULT: -6.074476540      4.185      6.549
REMARK  3 active torsions:
REMARK  status: ('A' for Active; 'I' for Inactive)
REMARK    1  A    between atoms: C2_2  and  C3_3 
REMARK       I    between atoms: C3_3  and  N1_5 
REMARK    2  A    between atoms: C8_13  and  C9_14 
REMARK    3  A    between atoms: C12_17  and  C13_18 
ROOT
HETATM    1  C3  UNL     1      20.600  14.198  23.744  1.00  0.00     0.220 C 
HETATM    2  O1  UNL     1      20.647  15.436  23.460  1.00  0.00    -0.273 OA
HETATM    3  N1  UNL     1      21.171  13.274  22.818  1.00  0.00    -0.335 N 
HETATM    4  C4  UNL     1      21.171  11.843  23.033  1.00  0.00     0.152 C 
HETATM    5  C5  UNL     1      21.100  11.342  21.606  1.00  0.00     0.101 C 
HETATM    6  N2  UNL     1      21.484   9.999  21.464  1.00  0.00    -0.414 N 
ATOM      7  H2  UNL     1      21.347   9.335  22.226  1.00  0.00     0.153 HD
HETATM    8  C6  UNL     1      22.066   9.584  20.240  1.00  0.00     0.130 C 
HETATM    9  C7  UNL     1      22.811  10.625  19.472  1.00  0.00     0.080 C 
HETATM   10 BR1  UNL     1      24.168  10.001  18.315  1.00  0.00    -0.089 Br
HETATM   11  C8  UNL     1      23.236  11.797  20.377  1.00  0.00     0.010 C 
HETATM   12  C11 UNL     1      21.943  12.352  20.829  1.00  0.00     0.048 C 
HETATM   13  C12 UNL     1      21.822  13.602  21.548  1.00  0.00     0.194 C 
ENDROOT
BRANCH   1  14
HETATM   14  C2  UNL     1      19.964  13.779  25.003  1.00  0.00     0.098 C 
HETATM   15  C1  UNL     1      18.462  13.705  24.833  1.00  0.00     0.014 C 
ENDBRANCH   1  14
BRANCH  13  16
HETATM   16  C13 UNL     1      22.985  14.408  21.830  1.00  0.00     0.197 C 
HETATM   17  O2  UNL     1      23.396  15.232  20.943  1.00  0.00    -0.646 OA
HETATM   18  O3  UNL     1      23.727  14.381  22.999  1.00  0.00    -0.646 OA
ENDBRANCH  13  16
BRANCH  11  19
HETATM   19  C9  UNL     1      24.222  11.394  21.408  1.00  0.00     0.002 C 
HETATM   20  C10 UNL     1      25.603  11.919  21.223  1.00  0.00     0.005 C 
ENDBRANCH  11  19
TORSDOF 3
ENDMDL
MODEL 3
REMARK VINA RESULT: -6.057752639      4.457      5.910
REMARK  3 active torsions:
REMARK  status: ('A' for Active; 'I' for Inactive)
REMARK    1  A    between atoms: C2_2  and  C3_3 
REMARK       I    between atoms: C3_3  and  N1_5 
REMARK    2  A    between atoms: C8_13  and  C9_14 
REMARK    3  A    between atoms: C12_17  and  C13_18 
ROOT
HETATM    1  C3  UNL     1      24.763  12.050  18.726  1.00  0.00     0.220 C 
HETATM    2  O1  UNL     1      24.294  11.314  17.803  1.00  0.00    -0.273 OA
HETATM    3  N1  UNL     1      23.914  12.374  19.827  1.00  0.00    -0.335 N 
HETATM    4  C4  UNL     1      24.338  13.206  20.931  1.00  0.00     0.152 C 
HETATM    5  C5  UNL     1      23.028  13.864  21.311  1.00  0.00     0.101 C 
HETATM    6  N2  UNL     1      23.034  14.424  22.598  1.00  0.00    -0.414 N 
ATOM      7  H2  UNL     1      23.899  14.777  23.008  1.00  0.00     0.153 HD
HETATM    8  C6  UNL     1      21.816  14.488  23.318  1.00  0.00     0.130 C 
HETATM    9  C7  UNL     1      20.800  13.442  23.000  1.00  0.00     0.080 C 
HETATM   10 BR1  UNL     1      19.564  13.029  24.368  1.00  0.00    -0.089 Br
HETATM   11  C8  UNL     1      21.448  12.211  22.337  1.00  0.00     0.010 C 
HETATM   12  C11 UNL     1      21.994  12.763  21.079  1.00  0.00     0.048 C 
HETATM   13  C12 UNL     1      22.528  11.939  20.015  1.00  0.00     0.194 C 
ENDROOT
BRANCH   1  14
HETATM   14  C2  UNL     1      26.150  12.532  18.619  1.00  0.00     0.098 C 
HETATM   15  C1  UNL     1      27.109  11.498  19.168  1.00  0.00     0.014 C 
ENDBRANCH   1  14
BRANCH  13  16
HETATM   16  C13 UNL     1      22.514  10.500  20.116  1.00  0.00     0.197 C 
HETATM   17  O2  UNL     1      21.486   9.862  19.704  1.00  0.00    -0.646 OA
HETATM   18  O3  UNL     1      23.531   9.712  20.630  1.00  0.00    -0.646 OA
ENDBRANCH  13  16
BRANCH  11  19
HETATM   19  C9  UNL     1      22.373  11.493  23.245  1.00  0.00     0.002 C 
HETATM   20  C10 UNL     1      21.898  10.170  23.738  1.00  0.00     0.005 C 
ENDBRANCH  11  19
TORSDOF 3
ENDMDL
MODEL 4
REMARK VINA RESULT: -6.054149011      3.672      5.841
REMARK  3 active torsions:
REMARK  status: ('A' for Active; 'I' for Inactive)
REMARK    1  A    between atoms: C2_2  and  C3_3 
REMARK       I    between atoms: C3_3  and  N1_5 
REMARK    2  A    between atoms: C8_13  and  C9_14 
REMARK    3  A    between atoms: C12_17  and  C13_18 
ROOT
HETATM    1  C3  UNL     1      19.692  11.311  26.600  1.00  0.00     0.220 C 
HETATM    2  O1  UNL     1      18.543  11.849  26.677  1.00  0.00    -0.273 OA
HETATM    3  N1  UNL     1      20.350  11.309  25.333  1.00  0.00    -0.335 N 
HETATM    4  C4  UNL     1      21.656  10.723  25.125  1.00  0.00     0.152 C 
HETATM    5  C5  UNL     1      21.536  10.264  23.687  1.00  0.00     0.101 C 
HETATM    6  N2  UNL     1      22.774  10.014  23.073  1.00  0.00    -0.414 N 
ATOM      7  H2  UNL     1      23.574   9.703  23.624  1.00  0.00     0.153 HD
HETATM    8  C6  UNL     1      22.889  10.203  21.673  1.00  0.00     0.130 C 
HETATM    9  C7  UNL     1      21.981  11.218  21.063  1.00  0.00     0.080 C 
HETATM   10 BR1  UNL     1      22.578  12.019  19.459  1.00  0.00    -0.089 Br
HETATM   11  C8  UNL     1      21.462  12.216  22.116  1.00  0.00     0.010 C 
HETATM   12  C11 UNL     1      20.687  11.353  23.034  1.00  0.00     0.048 C 
HETATM   13  C12 UNL     1      19.836  11.872  24.083  1.00  0.00     0.194 C 
ENDROOT
BRANCH   1  14
HETATM   14  C2  UNL     1      20.287  10.721  27.810  1.00  0.00     0.098 C 
HETATM   15  C1  UNL     1      20.859  11.805  28.696  1.00  0.00     0.014 C 
ENDBRANCH   1  14
BRANCH  13  16
HETATM   16  C13 UNL     1      19.666  13.294  24.263  1.00  0.00     0.197 C 
HETATM   17  O2  UNL     1      18.670  13.872  23.708  1.00  0.00    -0.646 OA
HETATM   18  O3  UNL     1      20.497  14.125  24.996  1.00  0.00    -0.646 OA
ENDBRANCH  13  16
BRANCH  11  19
HETATM   19  C9  UNL     1      22.541  13.055  22.690  1.00  0.00     0.002 C 
HETATM   20  C10 UNL     1      22.566  14.474  22.238  1.00  0.00     0.005 C 
ENDBRANCH  11  19
TORSDOF 3
ENDMDL
MODEL 5
REMARK VINA RESULT: -6.044704575      7.503      9.008
REMARK  3 active torsions:
REMARK  status: ('A' for Active; 'I' for Inactive)
REMARK    1  A    between atoms: C2_2  and  C3_3 
REMARK       I    between atoms: C3_3  and  N1_5 
REMARK    2  A    between atoms: C8_13  and  C9_14 
REMARK    3  A    between atoms: C12_17  and  C13_18 
ROOT
HETATM    1  C3  UNL     1      28.582  11.034  22.585  1.00  0.00     0.220 C 
HETATM    2  O1  UNL     1      28.839  11.723  23.621  1.00  0.00    -0.273 OA
HETATM    3  N1  UNL     1      27.512  11.459  21.742  1.00  0.00    -0.335 N 
HETATM    4  C4  UNL     1      27.128  10.751  20.540  1.00  0.00     0.152 C 
HETATM    5  C5  UNL     1      25.641  11.040  20.504  1.00  0.00     0.101 C 
HETATM    6  N2  UNL     1      25.058  10.822  19.245  1.00  0.00    -0.414 N 
ATOM      7  H2  UNL     1      25.439  10.120  18.610  1.00  0.00     0.153 HD
HETATM    8  C6  UNL     1      23.931  11.596  18.874  1.00  0.00     0.130 C 
HETATM    9  C7  UNL     1      23.830  12.956  19.482  1.00  0.00     0.080 C 
HETATM   10 BR1  UNL     1      22.847  14.239  18.505  1.00  0.00    -0.089 Br
HETATM   11  C8  UNL     1      25.199  13.452  19.985  1.00  0.00     0.010 C 
HETATM   12  C11 UNL     1      25.541  12.469  21.035  1.00  0.00     0.048 C 
HETATM   13  C12 UNL     1      26.657  12.631  21.942  1.00  0.00     0.194 C 
ENDROOT
BRANCH   1  14
HETATM   14  C2  UNL     1      29.394   9.838  22.305  1.00  0.00     0.098 C 
HETATM   15  C1  UNL     1      29.734   9.121  23.593  1.00  0.00     0.014 C 
ENDBRANCH   1  14
BRANCH  13  16
HETATM   16  C13 UNL     1      27.487  13.811  21.891  1.00  0.00     0.197 C 
HETATM   17  O2  UNL     1      27.288  14.743  22.742  1.00  0.00    -0.646 OA
HETATM   18  O3  UNL     1      28.509  14.046  20.985  1.00  0.00    -0.646 OA
ENDBRANCH  13  16
BRANCH  11  19
HETATM   19  C9  UNL     1      26.169  13.665  18.884  1.00  0.00     0.002 C 
HETATM   20  C10 UNL     1      26.412  15.084  18.503  1.00  0.00     0.005 C 
ENDBRANCH  11  19
TORSDOF 3
ENDMDL
