MODEL 1
REMARK VINA RESULT: -7.606450142      0.000      0.000
REMARK  4 active torsions:
REMARK  status: ('A' for Active; 'I' for Inactive)
REMARK       I    between atoms: C1_2  and  N1_3 
REMARK       I    between atoms: C1_2  and  N3_21 
REMARK    1  A    between atoms: N1_3  and  C2_5 
REMARK    2  A    between atoms: C2_5  and  C3_6 
REMARK    3  A    between atoms: C3_6  and  N2_7 
REMARK       I    between atoms: N2_7  and  C4_9 
REMARK    4  A    between atoms: C4_9  and  C5_11 
ROOT
HETATM    1  N2  UNL     1      27.135  10.186  21.207  1.00  0.00    -0.359 N 
ATOM      2  H2  UNL     1      26.406  10.307  21.910  1.00  0.00     0.162 HD
HETATM    3  C4  UNL     1      26.895  10.733  19.939  1.00  0.00     0.226 C 
HETATM    4  O2  UNL     1      27.742  10.628  19.031  1.00  0.00    -0.273 OA
ENDROOT
BRANCH   1   5
HETATM    5  C3  UNL     1      28.330   9.461  21.609  1.00  0.00     0.142 C 
BRANCH   5   6
HETATM    6  C2  UNL     1      29.424  10.394  22.032  1.00  0.00     0.144 C 
BRANCH   6   7
HETATM    7  N1  UNL     1      28.886  11.419  22.879  1.00  0.00    -0.341 N 
HETATM    8  C1  UNL     1      28.686  12.726  22.440  1.00  0.00     0.332 C 
HETATM    9  O1  UNL     1      28.945  13.113  21.291  1.00  0.00    -0.246 OA
HETATM   10  N3  UNL     1      28.152  13.689  23.356  1.00  0.00    -0.210 N 
HETATM   11  C15 UNL     1      27.717  15.094  23.597  1.00  0.00     0.309 A 
HETATM   12  S1  UNL     1      27.551  14.102  24.943  1.00  0.00     0.255 S 
HETATM   13  O3  UNL     1      26.234  13.552  25.359  1.00  0.00    -0.204 OA
HETATM   14  O4  UNL     1      28.557  14.200  26.056  1.00  0.00    -0.204 OA
ATOM     15  H1  UNL     1      28.640  11.181  23.840  1.00  0.00     0.164 HD
ENDBRANCH   6   7
ENDBRANCH   5   6
ENDBRANCH   1   5
BRANCH   3  16
HETATM   16  C5  UNL     1      25.627  11.443  19.668  1.00  0.00     0.042 C 
HETATM   17  C6  UNL     1      24.657  11.064  20.771  1.00  0.00     0.024 C 
HETATM   18  C7  UNL     1      23.360  11.856  20.620  1.00  0.00    -0.013 C 
HETATM   19  C8  UNL     1      22.761  11.448  19.294  1.00  0.00     0.009 C 
HETATM   20  C12 UNL     1      23.727  13.312  20.669  1.00  0.00     0.009 C 
HETATM   21  C9  UNL     1      23.721  11.772  18.189  1.00  0.00    -0.013 C 
HETATM   22  C10 UNL     1      23.935  13.270  18.189  1.00  0.00     0.009 C 
HETATM   23  C14 UNL     1      25.017  11.025  18.345  1.00  0.00     0.024 C 
HETATM   24  C11 UNL     1      24.579  13.680  19.485  1.00  0.00    -0.013 C 
HETATM   25  C13 UNL     1      25.896  12.922  19.622  1.00  0.00     0.024 C 
ENDBRANCH   3  16
TORSDOF 4
ENDMDL
MODEL 2
REMARK VINA RESULT: -7.587030002      0.119      1.551
REMARK  4 active torsions:
REMARK  status: ('A' for Active; 'I' for Inactive)
REMARK       I    between atoms: C1_2  and  N1_3 
REMARK       I    between atoms: C1_2  and  N3_21 
REMARK    1  A    between atoms: N1_3  and  C2_5 
REMARK    2  A    between atoms: C2_5  and  C3_6 
REMARK    3  A    between atoms: C3_6  and  N2_7 
REMARK       I    between atoms: N2_7  and  C4_9 
REMARK    4  A    between atoms: C4_9  and  C5_11 
ROOT
HETATM    1  N2  UNL     1      27.121  10.232  21.246  1.00  0.00    -0.359 N 
ATOM      2  H2  UNL     1      26.435  10.366  21.989  1.00  0.00     0.162 HD
HETATM    3  C4  UNL     1      26.824  10.787  19.994  1.00  0.00     0.226 C 
HETATM    4  O2  UNL     1      27.617  10.667  19.041  1.00  0.00    -0.273 OA
ENDROOT
BRANCH   1   5
HETATM    5  C3  UNL     1      28.321   9.481  21.581  1.00  0.00     0.142 C 
BRANCH   5   6
HETATM    6  C2  UNL     1      29.425  10.384  22.041  1.00  0.00     0.144 C 
BRANCH   6   7
HETATM    7  N1  UNL     1      28.890  11.412  22.885  1.00  0.00    -0.341 N 
HETATM    8  C1  UNL     1      28.693  12.718  22.443  1.00  0.00     0.332 C 
HETATM    9  O1  UNL     1      28.952  13.101  21.292  1.00  0.00    -0.246 OA
HETATM   10  N3  UNL     1      28.162  13.686  23.356  1.00  0.00    -0.210 N 
HETATM   11  C15 UNL     1      27.729  15.093  23.593  1.00  0.00     0.309 A 
HETATM   12  S1  UNL     1      27.563  14.105  24.942  1.00  0.00     0.255 S 
HETATM   13  O3  UNL     1      26.244  13.559  25.361  1.00  0.00    -0.204 OA
HETATM   14  O4  UNL     1      28.569  14.204  26.054  1.00  0.00    -0.204 OA
ATOM     15  H1  UNL     1      28.644  11.178  23.847  1.00  0.00     0.164 HD
ENDBRANCH   6   7
ENDBRANCH   5   6
ENDBRANCH   1   5
BRANCH   3  16
HETATM   16  C5  UNL     1      25.559  11.525  19.794  1.00  0.00     0.042 C 
HETATM   17  C6  UNL     1      25.011  11.114  18.439  1.00  0.00     0.024 C 
HETATM   18  C7  UNL     1      23.641  11.749  18.216  1.00  0.00    -0.013 C 
HETATM   19  C8  UNL     1      23.857  13.245  18.212  1.00  0.00     0.009 C 
HETATM   20  C12 UNL     1      22.757  11.293  19.342  1.00  0.00     0.009 C 
HETATM   21  C9  UNL     1      24.441  13.671  19.526  1.00  0.00    -0.013 C 
HETATM   22  C10 UNL     1      23.441  13.324  20.608  1.00  0.00     0.009 C 
HETATM   23  C14 UNL     1      25.776  13.024  19.775  1.00  0.00     0.024 C 
HETATM   24  C11 UNL     1      23.256  11.833  20.655  1.00  0.00    -0.013 C 
HETATM   25  C13 UNL     1      24.617  11.193  20.918  1.00  0.00     0.024 C 
ENDBRANCH   3  16
TORSDOF 4
ENDMDL
MODEL 3
REMARK VINA RESULT: -7.472325688      6.815      8.592
REMARK  4 active torsions:
REMARK  status: ('A' for Active; 'I' for Inactive)
REMARK       I    between atoms: C1_2  and  N1_3 
REMARK       I    between atoms: C1_2  and  N3_21 
REMARK    1  A    between atoms: N1_3  and  C2_5 
REMARK    2  A    between atoms: C2_5  and  C3_6 
REMARK    3  A    between atoms: C3_6  and  N2_7 
REMARK       I    between atoms: N2_7  and  C4_9 
REMARK    4  A    between atoms: C4_9  and  C5_11 
ROOT
HETATM    1  N2  UNL     1      21.637  10.703  22.947  1.00  0.00    -0.359 N 
ATOM      2  H2  UNL     1      22.375  11.270  23.364  1.00  0.00     0.162 HD
HETATM    3  C4  UNL     1      21.471  10.792  21.558  1.00  0.00     0.226 C 
HETATM    4  O2  UNL     1      20.593  10.125  20.979  1.00  0.00    -0.273 OA
ENDROOT
BRANCH   1   5
HETATM    5  C3  UNL     1      20.850   9.874  23.847  1.00  0.00     0.142 C 
BRANCH   5   6
HETATM    6  C2  UNL     1      19.578  10.556  24.252  1.00  0.00     0.144 C 
BRANCH   6   7
HETATM    7  N1  UNL     1      18.476   9.997  23.523  1.00  0.00    -0.341 N 
HETATM    8  C1  UNL     1      17.188  10.520  23.593  1.00  0.00     0.332 C 
HETATM    9  O1  UNL     1      16.884  11.510  24.278  1.00  0.00    -0.246 OA
HETATM   10  N3  UNL     1      16.143   9.894  22.839  1.00  0.00    -0.210 N 
HETATM   11  C15 UNL     1      14.704   9.874  22.453  1.00  0.00     0.309 A 
HETATM   12  S1  UNL     1      15.604   8.649  21.740  1.00  0.00     0.255 S 
HETATM   13  O3  UNL     1      16.052   8.722  20.323  1.00  0.00    -0.204 OA
HETATM   14  O4  UNL     1      15.501   7.251  22.281  1.00  0.00    -0.204 OA
ATOM     15  H1  UNL     1      18.643   9.183  22.930  1.00  0.00     0.164 HD
ENDBRANCH   6   7
ENDBRANCH   5   6
ENDBRANCH   1   5
BRANCH   3  16
HETATM   16  C5  UNL     1      22.344  11.684  20.765  1.00  0.00     0.042 C 
HETATM   17  C6  UNL     1      23.753  11.530  21.307  1.00  0.00     0.024 C 
HETATM   18  C7  UNL     1      24.730  12.336  20.456  1.00  0.00    -0.013 C 
HETATM   19  C8  UNL     1      24.321  13.785  20.588  1.00  0.00     0.009 C 
HETATM   20  C12 UNL     1      24.610  11.825  19.048  1.00  0.00     0.009 C 
HETATM   21  C9  UNL     1      22.913  13.956  20.101  1.00  0.00    -0.013 C 
HETATM   22  C10 UNL     1      22.884  13.571  18.637  1.00  0.00     0.009 C 
HETATM   23  C14 UNL     1      21.944  13.138  20.909  1.00  0.00     0.024 C 
HETATM   24  C11 UNL     1      23.241  12.117  18.497  1.00  0.00    -0.013 C 
HETATM   25  C13 UNL     1      22.242  11.303  19.315  1.00  0.00     0.024 C 
ENDBRANCH   3  16
TORSDOF 4
ENDMDL
MODEL 4
REMARK VINA RESULT: -7.468330192      2.433      3.622
REMARK  4 active torsions:
REMARK  status: ('A' for Active; 'I' for Inactive)
REMARK       I    between atoms: C1_2  and  N1_3 
REMARK       I    between atoms: C1_2  and  N3_21 
REMARK    1  A    between atoms: N1_3  and  C2_5 
REMARK    2  A    between atoms: C2_5  and  C3_6 
REMARK    3  A    between atoms: C3_6  and  N2_7 
REMARK       I    between atoms: N2_7  and  C4_9 
REMARK    4  A    between atoms: C4_9  and  C5_11 
ROOT
HETATM    1  N2  UNL     1      23.676  11.113  22.838  1.00  0.00    -0.359 N 
ATOM      2  H2  UNL     1      24.648  10.818  22.744  1.00  0.00     0.162 HD
HETATM    3  C4  UNL     1      23.065  11.669  21.706  1.00  0.00     0.226 C 
HETATM    4  O2  UNL     1      21.879  12.049  21.746  1.00  0.00    -0.273 OA
ENDROOT
BRANCH   1   5
HETATM    5  C3  UNL     1      23.048  10.921  24.137  1.00  0.00     0.142 C 
BRANCH   5   6
HETATM    6  C2  UNL     1      23.271  12.100  25.035  1.00  0.00     0.144 C 
BRANCH   6   7
HETATM    7  N1  UNL     1      24.616  12.574  24.886  1.00  0.00    -0.341 N 
HETATM    8  C1  UNL     1      24.929  13.729  24.173  1.00  0.00     0.332 C 
HETATM    9  O1  UNL     1      24.082  14.445  23.618  1.00  0.00    -0.246 OA
HETATM   10  N3  UNL     1      26.301  14.127  24.065  1.00  0.00    -0.210 N 
HETATM   11  C15 UNL     1      27.294  15.106  23.539  1.00  0.00     0.309 A 
HETATM   12  S1  UNL     1      27.990  13.858  24.422  1.00  0.00     0.255 S 
HETATM   13  O3  UNL     1      28.449  14.046  25.824  1.00  0.00    -0.204 OA
HETATM   14  O4  UNL     1      28.677  12.738  23.695  1.00  0.00    -0.204 OA
ATOM     15  H1  UNL     1      25.374  12.045  25.319  1.00  0.00     0.164 HD
ENDBRANCH   6   7
ENDBRANCH   5   6
ENDBRANCH   1   5
BRANCH   3  16
HETATM   16  C5  UNL     1      23.828  11.809  20.448  1.00  0.00     0.042 C 
HETATM   17  C6  UNL     1      22.833  12.161  19.357  1.00  0.00     0.024 C 
HETATM   18  C7  UNL     1      23.569  12.438  18.049  1.00  0.00    -0.013 C 
HETATM   19  C8  UNL     1      24.264  11.151  17.667  1.00  0.00     0.009 C 
HETATM   20  C12 UNL     1      24.531  13.560  18.316  1.00  0.00     0.009 C 
HETATM   21  C9  UNL     1      25.222  10.757  18.751  1.00  0.00    -0.013 C 
HETATM   22  C10 UNL     1      26.257  11.855  18.871  1.00  0.00     0.009 C 
HETATM   23  C14 UNL     1      24.513  10.516  20.056  1.00  0.00     0.024 C 
HETATM   24  C11 UNL     1      25.583  13.129  19.301  1.00  0.00    -0.013 C 
HETATM   25  C13 UNL     1      24.878  12.869  20.629  1.00  0.00     0.024 C 
ENDBRANCH   3  16
TORSDOF 4
ENDMDL
MODEL 5
REMARK VINA RESULT: -7.437599667      6.912      8.651
REMARK  4 active torsions:
REMARK  status: ('A' for Active; 'I' for Inactive)
REMARK       I    between atoms: C1_2  and  N1_3 
REMARK       I    between atoms: C1_2  and  N3_21 
REMARK    1  A    between atoms: N1_3  and  C2_5 
REMARK    2  A    between atoms: C2_5  and  C3_6 
REMARK    3  A    between atoms: C3_6  and  N2_7 
REMARK       I    between atoms: N2_7  and  C4_9 
REMARK    4  A    between atoms: C4_9  and  C5_11 
ROOT
HETATM    1  N2  UNL     1      21.457  10.838  23.047  1.00  0.00    -0.359 N 
ATOM      2  H2  UNL     1      22.158  11.459  23.452  1.00  0.00     0.162 HD
HETATM    3  C4  UNL     1      21.390  10.777  21.648  1.00  0.00     0.226 C 
HETATM    4  O2  UNL     1      20.562  10.037  21.083  1.00  0.00    -0.273 OA
ENDROOT
BRANCH   1   5
HETATM    5  C3  UNL     1      20.616  10.095  23.973  1.00  0.00     0.142 C 
BRANCH   5   6
HETATM    6  C2  UNL     1      19.317  10.800  24.223  1.00  0.00     0.144 C 
BRANCH   6   7
HETATM    7  N1  UNL     1      18.269  10.162  23.480  1.00  0.00    -0.341 N 
HETATM    8  C1  UNL     1      16.946  10.594  23.529  1.00  0.00     0.332 C 
HETATM    9  O1  UNL     1      16.563  11.562  24.204  1.00  0.00    -0.246 OA
HETATM   10  N3  UNL     1      15.959   9.893  22.762  1.00  0.00    -0.210 N 
HETATM   11  C15 UNL     1      14.531   9.770  22.354  1.00  0.00     0.309 A 
HETATM   12  S1  UNL     1      15.527   8.608  21.661  1.00  0.00     0.255 S 
HETATM   13  O3  UNL     1      15.991   8.707  20.251  1.00  0.00    -0.204 OA
HETATM   14  O4  UNL     1      15.514   7.208  22.207  1.00  0.00    -0.204 OA
ATOM     15  H1  UNL     1      18.502   9.360  22.894  1.00  0.00     0.164 HD
ENDBRANCH   6   7
ENDBRANCH   5   6
ENDBRANCH   1   5
BRANCH   3  16
HETATM   16  C5  UNL     1      22.308  11.595  20.828  1.00  0.00     0.042 C 
HETATM   17  C6  UNL     1      21.912  13.047  21.025  1.00  0.00     0.024 C 
HETATM   18  C7  UNL     1      22.895  13.960  20.298  1.00  0.00    -0.013 C 
HETATM   19  C8  UNL     1      22.781  13.628  18.827  1.00  0.00     0.009 C 
HETATM   20  C12 UNL     1      24.260  13.667  20.855  1.00  0.00     0.009 C 
HETATM   21  C9  UNL     1      23.124  12.185  18.611  1.00  0.00    -0.013 C 
HETATM   22  C10 UNL     1      24.559  11.982  19.047  1.00  0.00     0.009 C 
HETATM   23  C14 UNL     1      22.184  11.275  19.352  1.00  0.00     0.024 C 
HETATM   24  C11 UNL     1      24.674  12.261  20.521  1.00  0.00    -0.013 C 
HETATM   25  C13 UNL     1      23.722  11.322  21.257  1.00  0.00     0.024 C 
ENDBRANCH   3  16
TORSDOF 4
ENDMDL
