MODEL 1
REMARK VINA RESULT: -6.181647864      0.000      0.000
REMARK  4 active torsions:
REMARK  status: ('A' for Active; 'I' for Inactive)
REMARK    1  A    between atoms: N4_12  and  C5_13 
REMARK       I    between atoms: N5_16  and  C7_18 
REMARK    2  A    between atoms: C7_18  and  C8_20 
REMARK    3  A    between atoms: C8_20  and  O2_21 
REMARK    4  A    between atoms: C8_20  and  C9_23 
ROOT
HETATM    1  N1  UNL     1      -4.442 -15.864  14.154  1.00  0.00    -0.234 N 
ATOM      2  H11 UNL     1      -5.423 -15.660  13.963  1.00  0.00     0.174 HD
ATOM      3  H12 UNL     1      -4.340 -15.909  15.168  1.00  0.00     0.174 HD
HETATM    4  C1  UNL     1      -3.500 -16.036  13.267  1.00  0.00     0.676 A 
HETATM    5  N2  UNL     1      -2.210 -16.305  13.519  1.00  0.00    -0.193 N 
ATOM      6  H2  UNL     1      -1.807 -16.409  14.450  1.00  0.00     0.184 HD
HETATM    7  C2  UNL     1      -1.529 -16.418  12.376  1.00  0.00     0.058 A 
HETATM    8  C3  UNL     1      -2.444 -16.206  11.367  1.00  0.00     0.068 A 
HETATM    9  N3  UNL     1      -3.634 -15.977  11.939  1.00  0.00    -0.192 N 
ATOM     10  H3  UNL     1      -4.503 -15.787  11.440  1.00  0.00     0.184 HD
HETATM   11  C4  UNL     1      -1.917 -16.279   9.969  1.00  0.00     0.184 C 
HETATM   12  N4  UNL     1      -0.730 -15.447   9.957  1.00  0.00    -0.355 N 
HETATM   13  C6  UNL     1       0.285 -15.798  10.925  1.00  0.00     0.088 C 
HETATM   14  N5  UNL     1       1.435 -15.289  10.733  1.00  0.00    -0.314 N 
ATOM     15  H5  UNL     1       1.524 -14.686   9.915  1.00  0.00     0.170 HD
HETATM   16  C7  UNL     1       2.602 -15.454  11.505  1.00  0.00     0.252 C 
HETATM   17  O1  UNL     1       2.551 -15.184  12.733  1.00  0.00    -0.270 OA
HETATM   18  C10 UNL     1      -0.094 -16.704  12.037  1.00  0.00     0.136 C 
ENDROOT
BRANCH  12  19
HETATM   19  C5  UNL     1      -0.581 -14.346   9.038  1.00  0.00     0.209 C 
HETATM   20 BR1  UNL     1      -2.004 -13.048   9.210  1.00  0.00    -0.075 Br
ENDBRANCH  12  19
BRANCH  16  21
HETATM   21  C8  UNL     1       3.891 -15.933  10.931  1.00  0.00     0.220 C 
BRANCH  21  22
HETATM   22  O2  UNL     1       4.676 -14.856  10.548  1.00  0.00    -0.385 OA
ATOM     23  H2  UNL     1       5.551 -14.942  10.909  1.00  0.00     0.210 HD
ENDBRANCH  21  22
BRANCH  21  24
HETATM   24  C9  UNL     1       3.739 -16.954   9.854  1.00  0.00     0.126 C 
HETATM   25 BR2  UNL     1       3.561 -18.754  10.475  1.00  0.00    -0.093 Br
ENDBRANCH  21  24
ENDBRANCH  16  21
TORSDOF 4
ENDMDL
MODEL 2
REMARK VINA RESULT: -6.112682561      1.359      1.373
REMARK  4 active torsions:
REMARK  status: ('A' for Active; 'I' for Inactive)
REMARK    1  A    between atoms: N4_12  and  C5_13 
REMARK       I    between atoms: N5_16  and  C7_18 
REMARK    2  A    between atoms: C7_18  and  C8_20 
REMARK    3  A    between atoms: C8_20  and  O2_21 
REMARK    4  A    between atoms: C8_20  and  C9_23 
ROOT
HETATM    1  N1  UNL     1      -4.723 -15.867  14.896  1.00  0.00    -0.234 N 
ATOM      2  H11 UNL     1      -5.679 -15.514  14.855  1.00  0.00     0.174 HD
ATOM      3  H12 UNL     1      -4.535 -16.106  15.869  1.00  0.00     0.174 HD
HETATM    4  C1  UNL     1      -3.900 -15.989  13.890  1.00  0.00     0.676 A 
HETATM    5  N2  UNL     1      -2.642 -16.453  13.944  1.00  0.00    -0.193 N 
ATOM      6  H2  UNL     1      -2.173 -16.771  14.792  1.00  0.00     0.184 HD
HETATM    7  C2  UNL     1      -2.091 -16.440  12.728  1.00  0.00     0.058 A 
HETATM    8  C3  UNL     1      -3.057 -15.942  11.880  1.00  0.00     0.068 A 
HETATM    9  N3  UNL     1      -4.145 -15.677  12.615  1.00  0.00    -0.192 N 
ATOM     10  H3  UNL     1      -5.022 -15.297  12.257  1.00  0.00     0.184 HD
HETATM   11  C4  UNL     1      -2.676 -15.825  10.439  1.00  0.00     0.184 C 
HETATM   12  N4  UNL     1      -1.391 -15.154  10.428  1.00  0.00    -0.355 N 
HETATM   13  C6  UNL     1      -0.350 -15.794  11.202  1.00  0.00     0.088 C 
HETATM   14  N5  UNL     1       0.837 -15.402  10.966  1.00  0.00    -0.314 N 
ATOM     15  H5  UNL     1       0.933 -14.677  10.255  1.00  0.00     0.170 HD
HETATM   16  C7  UNL     1       2.036 -15.843  11.560  1.00  0.00     0.252 C 
HETATM   17  O1  UNL     1       2.136 -15.793  12.814  1.00  0.00    -0.270 OA
HETATM   18  C10 UNL     1      -0.747 -16.833  12.184  1.00  0.00     0.136 C 
ENDROOT
BRANCH  12  19
HETATM   19  C5  UNL     1      -1.176 -13.932   9.694  1.00  0.00     0.209 C 
HETATM   20 BR1  UNL     1      -2.672 -13.487   8.554  1.00  0.00    -0.075 Br
ENDBRANCH  12  19
BRANCH  16  21
HETATM   21  C8  UNL     1       3.187 -16.363  10.771  1.00  0.00     0.220 C 
BRANCH  21  22
HETATM   22  O2  UNL     1       4.164 -16.864  11.619  1.00  0.00    -0.385 OA
ATOM     23  H2  UNL     1       4.496 -16.174  12.183  1.00  0.00     0.210 HD
ENDBRANCH  21  22
BRANCH  21  24
HETATM   24  C9  UNL     1       3.726 -15.401   9.767  1.00  0.00     0.126 C 
HETATM   25 BR2  UNL     1       5.623 -15.162   9.826  1.00  0.00    -0.093 Br
ENDBRANCH  21  24
ENDBRANCH  16  21
TORSDOF 4
ENDMDL
MODEL 3
REMARK VINA RESULT: -5.733305448      2.601      3.619
REMARK  4 active torsions:
REMARK  status: ('A' for Active; 'I' for Inactive)
REMARK    1  A    between atoms: N4_12  and  C5_13 
REMARK       I    between atoms: N5_16  and  C7_18 
REMARK    2  A    between atoms: C7_18  and  C8_20 
REMARK    3  A    between atoms: C8_20  and  O2_21 
REMARK    4  A    between atoms: C8_20  and  C9_23 
ROOT
HETATM    1  N1  UNL     1      -4.046 -18.914   7.306  1.00  0.00    -0.234 N 
ATOM      2  H11 UNL     1      -5.062 -18.998   7.259  1.00  0.00     0.174 HD
ATOM      3  H12 UNL     1      -3.661 -19.593   6.650  1.00  0.00     0.174 HD
HETATM    4  C1  UNL     1      -3.372 -18.092   8.064  1.00  0.00     0.676 A 
HETATM    5  N2  UNL     1      -2.037 -17.982   8.126  1.00  0.00    -0.193 N 
ATOM      6  H2  UNL     1      -1.379 -18.537   7.579  1.00  0.00     0.184 HD
HETATM    7  C2  UNL     1      -1.690 -17.040   9.007  1.00  0.00     0.058 A 
HETATM    8  C3  UNL     1      -2.872 -16.545   9.515  1.00  0.00     0.068 A 
HETATM    9  N3  UNL     1      -3.877 -17.203   8.924  1.00  0.00    -0.192 N 
ATOM     10  H3  UNL     1      -4.870 -17.049   9.101  1.00  0.00     0.184 HD
HETATM   11  C4  UNL     1      -2.749 -15.463  10.540  1.00  0.00     0.184 C 
HETATM   12  N4  UNL     1      -1.777 -15.945  11.502  1.00  0.00    -0.355 N 
HETATM   13  C6  UNL     1      -0.488 -16.306  10.955  1.00  0.00     0.088 C 
HETATM   14  N5  UNL     1       0.456 -16.438  11.798  1.00  0.00    -0.314 N 
ATOM     15  H5  UNL     1       0.207 -16.275  12.773  1.00  0.00     0.170 HD
HETATM   16  C7  UNL     1       1.801 -16.779  11.555  1.00  0.00     0.252 C 
HETATM   17  O1  UNL     1       2.046 -17.842  10.929  1.00  0.00    -0.270 OA
HETATM   18  C10 UNL     1      -0.378 -16.488   9.486  1.00  0.00     0.136 C 
ENDROOT
BRANCH  12  19
HETATM   19  C5  UNL     1      -2.085 -16.055  12.906  1.00  0.00     0.209 C 
HETATM   20 BR1  UNL     1      -3.988 -16.035  13.245  1.00  0.00    -0.075 Br
ENDBRANCH  12  19
BRANCH  16  21
HETATM   21  C8  UNL     1       2.943 -15.936  12.007  1.00  0.00     0.220 C 
BRANCH  21  22
HETATM   22  O2  UNL     1       2.498 -14.946  12.871  1.00  0.00    -0.385 OA
ATOM     23  H2  UNL     1       1.577 -14.767  12.719  1.00  0.00     0.210 HD
ENDBRANCH  21  22
BRANCH  21  24
HETATM   24  C9  UNL     1       3.788 -15.404  10.899  1.00  0.00     0.126 C 
HETATM   25 BR2  UNL     1       5.383 -16.403  10.557  1.00  0.00    -0.093 Br
ENDBRANCH  21  24
ENDBRANCH  16  21
TORSDOF 4
ENDMDL
MODEL 4
REMARK VINA RESULT: -5.674882591      3.888      6.332
REMARK  4 active torsions:
REMARK  status: ('A' for Active; 'I' for Inactive)
REMARK    1  A    between atoms: N4_12  and  C5_13 
REMARK       I    between atoms: N5_16  and  C7_18 
REMARK    2  A    between atoms: C7_18  and  C8_20 
REMARK    3  A    between atoms: C8_20  and  O2_21 
REMARK    4  A    between atoms: C8_20  and  C9_23 
ROOT
HETATM    1  N1  UNL     1      -1.836 -19.856   7.806  1.00  0.00    -0.234 N 
ATOM      2  H11 UNL     1      -1.341 -19.802   6.915  1.00  0.00     0.174 HD
ATOM      3  H12 UNL     1      -2.442 -20.675   7.761  1.00  0.00     0.174 HD
HETATM    4  C1  UNL     1      -1.712 -19.032   8.810  1.00  0.00     0.676 A 
HETATM    5  N2  UNL     1      -2.362 -19.103   9.982  1.00  0.00    -0.193 N 
ATOM      6  H2  UNL     1      -3.042 -19.822  10.229  1.00  0.00     0.184 HD
HETATM    7  C2  UNL     1      -1.993 -18.096  10.778  1.00  0.00     0.058 A 
HETATM    8  C3  UNL     1      -1.068 -17.367  10.061  1.00  0.00     0.068 A 
HETATM    9  N3  UNL     1      -0.918 -17.959   8.870  1.00  0.00    -0.192 N 
ATOM     10  H3  UNL     1      -0.296 -17.642   8.126  1.00  0.00     0.184 HD
HETATM   11  C4  UNL     1      -0.497 -16.167  10.748  1.00  0.00     0.184 C 
HETATM   12  N4  UNL     1      -1.635 -15.440  11.273  1.00  0.00    -0.355 N 
HETATM   13  C6  UNL     1      -2.501 -16.192  12.154  1.00  0.00     0.088 C 
HETATM   14  N5  UNL     1      -3.313 -15.507  12.853  1.00  0.00    -0.314 N 
ATOM     15  H5  UNL     1      -3.271 -14.496  12.720  1.00  0.00     0.170 HD
HETATM   16  C7  UNL     1      -4.263 -15.965  13.787  1.00  0.00     0.252 C 
HETATM   17  O1  UNL     1      -5.111 -16.816  13.410  1.00  0.00    -0.270 OA
HETATM   18  C10 UNL     1      -2.370 -17.670  12.168  1.00  0.00     0.136 C 
ENDROOT
BRANCH  12  19
HETATM   19  C5  UNL     1      -1.880 -14.060  10.934  1.00  0.00     0.209 C 
HETATM   20 BR1  UNL     1      -2.243 -13.820   9.050  1.00  0.00    -0.075 Br
ENDBRANCH  12  19
BRANCH  16  21
HETATM   21  C8  UNL     1      -4.307 -15.488  15.197  1.00  0.00     0.220 C 
BRANCH  21  22
HETATM   22  O2  UNL     1      -3.086 -15.710  15.818  1.00  0.00    -0.385 OA
ATOM     23  H2  UNL     1      -3.209 -15.828  16.753  1.00  0.00     0.210 HD
ENDBRANCH  21  22
BRANCH  21  24
HETATM   24  C9  UNL     1      -5.462 -16.009  15.984  1.00  0.00     0.126 C 
HETATM   25 BR2  UNL     1      -5.624 -15.281  17.746  1.00  0.00    -0.093 Br
ENDBRANCH  21  24
ENDBRANCH  16  21
TORSDOF 4
ENDMDL
MODEL 5
REMARK VINA RESULT: -5.660789552      1.397      1.397
REMARK  4 active torsions:
REMARK  status: ('A' for Active; 'I' for Inactive)
REMARK    1  A    between atoms: N4_12  and  C5_13 
REMARK       I    between atoms: N5_16  and  C7_18 
REMARK    2  A    between atoms: C7_18  and  C8_20 
REMARK    3  A    between atoms: C8_20  and  O2_21 
REMARK    4  A    between atoms: C8_20  and  C9_23 
ROOT
HETATM    1  N1  UNL     1      -4.318 -15.925  14.823  1.00  0.00    -0.234 N 
ATOM      2  H11 UNL     1      -5.305 -15.669  14.836  1.00  0.00     0.174 HD
ATOM      3  H12 UNL     1      -4.041 -16.092  15.790  1.00  0.00     0.174 HD
HETATM    4  C1  UNL     1      -3.557 -16.020  13.767  1.00  0.00     0.676 A 
HETATM    5  N2  UNL     1      -2.258 -16.357  13.750  1.00  0.00    -0.193 N 
ATOM      6  H2  UNL     1      -1.703 -16.581  14.576  1.00  0.00     0.184 HD
HETATM    7  C2  UNL     1      -1.795 -16.355  12.498  1.00  0.00     0.058 A 
HETATM    8  C3  UNL     1      -2.862 -15.998  11.701  1.00  0.00     0.068 A 
HETATM    9  N3  UNL     1      -3.919 -15.801  12.500  1.00  0.00    -0.192 N 
ATOM     10  H3  UNL     1      -4.851 -15.528  12.190  1.00  0.00     0.184 HD
HETATM   11  C4  UNL     1      -2.593 -15.922  10.232  1.00  0.00     0.184 C 
HETATM   12  N4  UNL     1      -1.386 -15.131  10.096  1.00  0.00    -0.355 N 
HETATM   13  C6  UNL     1      -0.235 -15.625  10.821  1.00  0.00     0.088 C 
HETATM   14  N5  UNL     1       0.888 -15.134  10.481  1.00  0.00    -0.314 N 
ATOM     15  H5  UNL     1       0.862 -14.441   9.733  1.00  0.00     0.170 HD
HETATM   16  C7  UNL     1       2.162 -15.424  11.007  1.00  0.00     0.252 C 
HETATM   17  O1  UNL     1       2.342 -15.298  12.246  1.00  0.00    -0.270 OA
HETATM   18  C10 UNL     1      -0.459 -16.644  11.877  1.00  0.00     0.136 C 
ENDROOT
BRANCH  12  19
HETATM   19  C5  UNL     1      -1.344 -13.935   9.293  1.00  0.00     0.209 C 
HETATM   20 BR1  UNL     1      -2.839 -13.818   8.073  1.00  0.00    -0.075 Br
ENDBRANCH  12  19
BRANCH  16  21
HETATM   21  C8  UNL     1       3.303 -15.872  10.161  1.00  0.00     0.220 C 
BRANCH  21  22
HETATM   22  O2  UNL     1       4.376 -15.004  10.302  1.00  0.00    -0.385 OA
ATOM     23  H2  UNL     1       4.930 -15.037   9.531  1.00  0.00     0.210 HD
ENDBRANCH  21  22
BRANCH  21  24
HETATM   24  C9  UNL     1       2.946 -16.126   8.735  1.00  0.00     0.126 C 
HETATM   25 BR2  UNL     1       3.189 -14.630   7.569  1.00  0.00    -0.093 Br
ENDBRANCH  21  24
ENDBRANCH  16  21
TORSDOF 4
ENDMDL
