MODEL 1
REMARK VINA RESULT: -6.688754065      0.000      0.000
REMARK  9 active torsions:
REMARK  status: ('A' for Active; 'I' for Inactive)
REMARK    1  A    between atoms: C1_2  and  N1_3 
REMARK    2  A    between atoms: C1_2  and  N3_14 
REMARK    3  A    between atoms: N1_3  and  C2_5 
REMARK    4  A    between atoms: C2_5  and  C3_6 
REMARK    5  A    between atoms: C3_6  and  N2_7 
REMARK    6  A    between atoms: N2_7  and  C4_9 
REMARK    7  A    between atoms: N3_14  and  C9_16 
REMARK    8  A    between atoms: C9_16  and  C10_17 
REMARK    9  A    between atoms: C10_17  and  N4_18 
ROOT
HETATM    1  S1  UNL     1       2.236  33.954 102.830  1.00  0.00    -0.041 SA
HETATM    2  C1  UNL     1       3.179  34.991 101.979  1.00  0.00     0.167 C 
ENDROOT
BRANCH   2   3
HETATM    3  N1  UNL     1       4.065  34.515 100.968  1.00  0.00    -0.363 N 
ATOM      4  H1  UNL     1       3.740  33.825 100.292  1.00  0.00     0.162 HD
BRANCH   3   5
HETATM    5  C2  UNL     1       5.450  35.018 100.898  1.00  0.00     0.166 C 
BRANCH   5   6
HETATM    6  C3  UNL     1       6.351  33.819 100.852  1.00  0.00     0.075 C 
BRANCH   6   7
HETATM    7  N2  UNL     1       6.342  33.036  99.698  1.00  0.00    -0.396 N 
ATOM      8  H2  UNL     1       5.584  32.362  99.593  1.00  0.00     0.159 HD
BRANCH   7   9
HETATM    9  C4  UNL     1       7.275  33.101  98.690  1.00  0.00     0.080 C 
HETATM   10  C5  UNL     1       7.143  34.190  97.645  1.00  0.00     0.025 C 
HETATM   11  C6  UNL     1       8.356  33.869  96.757  1.00  0.00     0.002 C 
HETATM   12  C7  UNL     1       9.336  33.099  97.657  1.00  0.00     0.002 C 
HETATM   13  C8  UNL     1       8.735  33.317  99.070  1.00  0.00     0.025 C 
ENDBRANCH   7   9
ENDBRANCH   6   7
ENDBRANCH   5   6
ENDBRANCH   3   5
ENDBRANCH   2   3
BRANCH   2  14
HETATM   14  N3  UNL     1       3.135  36.380 102.259  1.00  0.00    -0.366 N 
ATOM     15  H3  UNL     1       3.739  36.997 101.716  1.00  0.00     0.161 HD
BRANCH  14  16
HETATM   16  C9  UNL     1       2.304  36.966 103.247  1.00  0.00     0.152 C 
BRANCH  16  17
HETATM   17  C10 UNL     1       1.044  37.639 102.865  1.00  0.00     0.292 C 
BRANCH  17  18
HETATM   18  N4  UNL     1       0.073  36.851 102.188  1.00  0.00     0.094 N 
HETATM   19  C11 UNL     1      -0.592  37.655 101.120  1.00  0.00     0.298 C 
HETATM   20  C12 UNL     1      -1.224  38.840 101.787  1.00  0.00     0.198 C 
HETATM   21  O1  UNL     1      -2.173  38.429 102.678  1.00  0.00    -0.388 OA
HETATM   22  C13 UNL     1      -1.819  37.490 103.607  1.00  0.00     0.198 C 
HETATM   23  C14 UNL     1      -0.998  36.368 103.047  1.00  0.00     0.298 C 
ENDBRANCH  17  18
ENDBRANCH  16  17
ENDBRANCH  14  16
ENDBRANCH   2  14
TORSDOF 9
ENDMDL
MODEL 2
REMARK VINA RESULT: -6.509008234      4.857      7.592
REMARK  9 active torsions:
REMARK  status: ('A' for Active; 'I' for Inactive)
REMARK    1  A    between atoms: C1_2  and  N1_3 
REMARK    2  A    between atoms: C1_2  and  N3_14 
REMARK    3  A    between atoms: N1_3  and  C2_5 
REMARK    4  A    between atoms: C2_5  and  C3_6 
REMARK    5  A    between atoms: C3_6  and  N2_7 
REMARK    6  A    between atoms: N2_7  and  C4_9 
REMARK    7  A    between atoms: N3_14  and  C9_16 
REMARK    8  A    between atoms: C9_16  and  C10_17 
REMARK    9  A    between atoms: C10_17  and  N4_18 
ROOT
HETATM    1  S1  UNL     1       1.779  33.381 103.399  1.00  0.00    -0.041 SA
HETATM    2  C1  UNL     1       0.287  33.662 102.780  1.00  0.00     0.167 C 
ENDROOT
BRANCH   2   3
HETATM    3  N1  UNL     1      -0.887  33.373 103.537  1.00  0.00    -0.363 N 
ATOM      4  H1  UNL     1      -1.153  32.404 103.712  1.00  0.00     0.162 HD
BRANCH   3   5
HETATM    5  C2  UNL     1      -1.718  34.470 104.067  1.00  0.00     0.166 C 
BRANCH   5   6
HETATM    6  C3  UNL     1      -2.974  34.505 103.247  1.00  0.00     0.075 C 
BRANCH   6   7
HETATM    7  N2  UNL     1      -3.109  35.517 102.297  1.00  0.00    -0.396 N 
ATOM      8  H2  UNL     1      -2.910  36.471 102.596  1.00  0.00     0.159 HD
BRANCH   7   9
HETATM    9  C4  UNL     1      -3.491  35.330 100.989  1.00  0.00     0.080 C 
HETATM   10  C5  UNL     1      -4.963  35.420 100.641  1.00  0.00     0.025 C 
HETATM   11  C6  UNL     1      -4.906  35.144  99.130  1.00  0.00     0.002 C 
HETATM   12  C7  UNL     1      -3.482  35.526  98.693  1.00  0.00     0.002 C 
HETATM   13  C8  UNL     1      -2.942  36.283  99.934  1.00  0.00     0.025 C 
ENDBRANCH   7   9
ENDBRANCH   6   7
ENDBRANCH   5   6
ENDBRANCH   3   5
ENDBRANCH   2   3
BRANCH   2  14
HETATM   14  N3  UNL     1       0.151  34.179 101.468  1.00  0.00    -0.366 N 
ATOM     15  H3  UNL     1      -0.553  33.762 100.860  1.00  0.00     0.161 HD
BRANCH  14  16
HETATM   16  C9  UNL     1       0.933  35.241 100.947  1.00  0.00     0.152 C 
BRANCH  16  17
HETATM   17  C10 UNL     1       0.515  36.646 101.140  1.00  0.00     0.292 C 
BRANCH  17  18
HETATM   18  N4  UNL     1       0.599  37.168 102.460  1.00  0.00     0.094 N 
HETATM   19  C11 UNL     1      -0.668  37.871 102.820  1.00  0.00     0.298 C 
HETATM   20  C12 UNL     1      -0.866  38.967 101.815  1.00  0.00     0.198 C 
HETATM   21  O1  UNL     1       0.164  39.860 101.883  1.00  0.00    -0.388 OA
HETATM   22  C13 UNL     1       1.441  39.376 101.816  1.00  0.00     0.198 C 
HETATM   23  C14 UNL     1       1.662  38.144 102.642  1.00  0.00     0.298 C 
ENDBRANCH  17  18
ENDBRANCH  16  17
ENDBRANCH  14  16
ENDBRANCH   2  14
TORSDOF 9
ENDMDL
MODEL 3
REMARK VINA RESULT: -6.363359576      1.375      1.764
REMARK  9 active torsions:
REMARK  status: ('A' for Active; 'I' for Inactive)
REMARK    1  A    between atoms: C1_2  and  N1_3 
REMARK    2  A    between atoms: C1_2  and  N3_14 
REMARK    3  A    between atoms: N1_3  and  C2_5 
REMARK    4  A    between atoms: C2_5  and  C3_6 
REMARK    5  A    between atoms: C3_6  and  N2_7 
REMARK    6  A    between atoms: N2_7  and  C4_9 
REMARK    7  A    between atoms: N3_14  and  C9_16 
REMARK    8  A    between atoms: C9_16  and  C10_17 
REMARK    9  A    between atoms: C10_17  and  N4_18 
ROOT
HETATM    1  S1  UNL     1       1.662  33.945 102.851  1.00  0.00    -0.041 SA
HETATM    2  C1  UNL     1       2.323  34.624 101.513  1.00  0.00     0.167 C 
ENDROOT
BRANCH   2   3
HETATM    3  N1  UNL     1       3.718  34.910 101.449  1.00  0.00    -0.363 N 
ATOM      4  H1  UNL     1       4.035  35.869 101.307  1.00  0.00     0.162 HD
BRANCH   3   5
HETATM    5  C2  UNL     1       4.706  33.823 101.587  1.00  0.00     0.166 C 
BRANCH   5   6
HETATM    6  C3  UNL     1       5.814  34.110 100.617  1.00  0.00     0.075 C 
BRANCH   6   7
HETATM    7  N2  UNL     1       6.251  33.071  99.795  1.00  0.00    -0.396 N 
ATOM      8  H2  UNL     1       5.742  32.189  99.843  1.00  0.00     0.159 HD
BRANCH   7   9
HETATM    9  C4  UNL     1       7.313  33.144  98.925  1.00  0.00     0.080 C 
HETATM   10  C5  UNL     1       7.295  34.202  97.841  1.00  0.00     0.025 C 
HETATM   11  C6  UNL     1       8.629  33.901  97.140  1.00  0.00     0.002 C 
HETATM   12  C7  UNL     1       9.497  33.188  98.189  1.00  0.00     0.002 C 
HETATM   13  C8  UNL     1       8.699  33.420  99.498  1.00  0.00     0.025 C 
ENDBRANCH   7   9
ENDBRANCH   6   7
ENDBRANCH   5   6
ENDBRANCH   3   5
ENDBRANCH   2   3
BRANCH   2  14
HETATM   14  N3  UNL     1       1.500  34.956 100.407  1.00  0.00    -0.366 N 
ATOM     15  H3  UNL     1       1.837  34.724  99.474  1.00  0.00     0.161 HD
BRANCH  14  16
HETATM   16  C9  UNL     1       0.237  35.590 100.518  1.00  0.00     0.152 C 
BRANCH  16  17
HETATM   17  C10 UNL     1       0.145  37.058 100.674  1.00  0.00     0.292 C 
BRANCH  17  18
HETATM   18  N4  UNL     1      -0.701  37.545 101.708  1.00  0.00     0.094 N 
HETATM   19  C11 UNL     1      -0.785  39.034 101.650  1.00  0.00     0.298 C 
HETATM   20  C12 UNL     1       0.611  39.561 101.798  1.00  0.00     0.198 C 
HETATM   21  O1  UNL     1       1.125  39.199 103.010  1.00  0.00    -0.388 OA
HETATM   22  C13 UNL     1       1.073  37.880 103.363  1.00  0.00     0.198 C 
HETATM   23  C14 UNL     1      -0.239  37.223 103.049  1.00  0.00     0.298 C 
ENDBRANCH  17  18
ENDBRANCH  16  17
ENDBRANCH  14  16
ENDBRANCH   2  14
TORSDOF 9
ENDMDL
MODEL 4
REMARK VINA RESULT: -6.317207069      4.995      6.095
REMARK  9 active torsions:
REMARK  status: ('A' for Active; 'I' for Inactive)
REMARK    1  A    between atoms: C1_2  and  N1_3 
REMARK    2  A    between atoms: C1_2  and  N3_14 
REMARK    3  A    between atoms: N1_3  and  C2_5 
REMARK    4  A    between atoms: C2_5  and  C3_6 
REMARK    5  A    between atoms: C3_6  and  N2_7 
REMARK    6  A    between atoms: N2_7  and  C4_9 
REMARK    7  A    between atoms: N3_14  and  C9_16 
REMARK    8  A    between atoms: C9_16  and  C10_17 
REMARK    9  A    between atoms: C10_17  and  N4_18 
ROOT
HETATM    1  S1  UNL     1       2.772  34.471 102.064  1.00  0.00    -0.041 SA
HETATM    2  C1  UNL     1       1.801  35.026 103.263  1.00  0.00     0.167 C 
ENDROOT
BRANCH   2   3
HETATM    3  N1  UNL     1       1.701  36.421 103.539  1.00  0.00    -0.363 N 
ATOM      4  H1  UNL     1       1.566  36.741 104.498  1.00  0.00     0.162 HD
BRANCH   3   5
HETATM    5  C2  UNL     1       1.792  37.404 102.443  1.00  0.00     0.166 C 
BRANCH   5   6
HETATM    6  C3  UNL     1       0.529  37.288 101.643  1.00  0.00     0.075 C 
BRANCH   6   7
HETATM    7  N2  UNL     1       0.635  36.948 100.295  1.00  0.00    -0.396 N 
ATOM      8  H2  UNL     1       1.347  37.427  99.744  1.00  0.00     0.159 HD
BRANCH   7   9
HETATM    9  C4  UNL     1      -0.145  36.018  99.649  1.00  0.00     0.080 C 
HETATM   10  C5  UNL     1      -1.634  36.275  99.529  1.00  0.00     0.025 C 
HETATM   11  C6  UNL     1      -2.071  35.012  98.770  1.00  0.00     0.002 C 
HETATM   12  C7  UNL     1      -0.815  34.514  98.036  1.00  0.00     0.002 C 
HETATM   13  C8  UNL     1       0.158  35.712  98.187  1.00  0.00     0.025 C 
ENDBRANCH   7   9
ENDBRANCH   6   7
ENDBRANCH   5   6
ENDBRANCH   3   5
ENDBRANCH   2   3
BRANCH   2  14
HETATM   14  N3  UNL     1       1.063  34.111 104.057  1.00  0.00    -0.366 N 
ATOM     15  H3  UNL     1       1.358  33.970 105.022  1.00  0.00     0.161 HD
BRANCH  14  16
HETATM   16  C9  UNL     1      -0.060  33.381 103.592  1.00  0.00     0.152 C 
BRANCH  16  17
HETATM   17  C10 UNL     1      -1.182  34.075 102.924  1.00  0.00     0.292 C 
BRANCH  17  18
HETATM   18  N4  UNL     1      -1.780  35.158 103.625  1.00  0.00     0.094 N 
HETATM   19  C11 UNL     1      -2.587  34.650 104.773  1.00  0.00     0.298 C 
HETATM   20  C12 UNL     1      -3.627  33.728 104.208  1.00  0.00     0.198 C 
HETATM   21  O1  UNL     1      -4.453  34.413 103.363  1.00  0.00    -0.388 OA
HETATM   22  C13 UNL     1      -3.881  35.156 102.368  1.00  0.00     0.198 C 
HETATM   23  C14 UNL     1      -2.692  35.952 102.817  1.00  0.00     0.298 C 
ENDBRANCH  17  18
ENDBRANCH  16  17
ENDBRANCH  14  16
ENDBRANCH   2  14
TORSDOF 9
ENDMDL
MODEL 5
REMARK VINA RESULT: -6.290645149      5.345      8.185
REMARK  9 active torsions:
REMARK  status: ('A' for Active; 'I' for Inactive)
REMARK    1  A    between atoms: C1_2  and  N1_3 
REMARK    2  A    between atoms: C1_2  and  N3_14 
REMARK    3  A    between atoms: N1_3  and  C2_5 
REMARK    4  A    between atoms: C2_5  and  C3_6 
REMARK    5  A    between atoms: C3_6  and  N2_7 
REMARK    6  A    between atoms: N2_7  and  C4_9 
REMARK    7  A    between atoms: N3_14  and  C9_16 
REMARK    8  A    between atoms: C9_16  and  C10_17 
REMARK    9  A    between atoms: C10_17  and  N4_18 
ROOT
HETATM    1  S1  UNL     1       0.286  36.871 100.713  1.00  0.00    -0.041 SA
HETATM    2  C1  UNL     1       0.389  35.250 100.492  1.00  0.00     0.167 C 
ENDROOT
BRANCH   2   3
HETATM    3  N1  UNL     1       1.331  34.469 101.225  1.00  0.00    -0.363 N 
ATOM      4  H1  UNL     1       1.978  33.856 100.728  1.00  0.00     0.162 HD
BRANCH   3   5
HETATM    5  C2  UNL     1       1.373  34.543 102.697  1.00  0.00     0.166 C 
BRANCH   5   6
HETATM    6  C3  UNL     1       0.487  33.451 103.218  1.00  0.00     0.075 C 
BRANCH   6   7
HETATM    7  N2  UNL     1      -0.606  33.812 104.004  1.00  0.00    -0.396 N 
ATOM      8  H2  UNL     1      -0.455  33.894 105.010  1.00  0.00     0.159 HD
BRANCH   7   9
HETATM    9  C4  UNL     1      -1.872  34.066 103.532  1.00  0.00     0.080 C 
HETATM   10  C5  UNL     1      -3.049  33.878 104.467  1.00  0.00     0.025 C 
HETATM   11  C6  UNL     1      -4.208  34.257 103.532  1.00  0.00     0.002 C 
HETATM   12  C7  UNL     1      -3.590  35.157 102.450  1.00  0.00     0.002 C 
HETATM   13  C8  UNL     1      -2.190  35.472 103.036  1.00  0.00     0.025 C 
ENDBRANCH   7   9
ENDBRANCH   6   7
ENDBRANCH   5   6
ENDBRANCH   3   5
ENDBRANCH   2   3
BRANCH   2  14
HETATM   14  N3  UNL     1      -0.451  34.609  99.547  1.00  0.00    -0.366 N 
ATOM     15  H3  UNL     1      -0.442  33.590  99.512  1.00  0.00     0.161 HD
BRANCH  14  16
HETATM   16  C9  UNL     1      -1.303  35.296  98.647  1.00  0.00     0.152 C 
BRANCH  16  17
HETATM   17  C10 UNL     1      -2.772  35.237  98.810  1.00  0.00     0.292 C 
BRANCH  17  18
HETATM   18  N4  UNL     1      -3.560  35.584  97.678  1.00  0.00     0.094 N 
HETATM   19  C11 UNL     1      -4.962  35.884  98.096  1.00  0.00     0.298 C 
HETATM   20  C12 UNL     1      -5.494  34.657  98.774  1.00  0.00     0.198 C 
HETATM   21  O1  UNL     1      -5.515  33.609  97.900  1.00  0.00    -0.388 OA
HETATM   22  C13 UNL     1      -4.367  33.317  97.218  1.00  0.00     0.198 C 
HETATM   23  C14 UNL     1      -3.660  34.527  96.683  1.00  0.00     0.298 C 
ENDBRANCH  17  18
ENDBRANCH  16  17
ENDBRANCH  14  16
ENDBRANCH   2  14
TORSDOF 9
ENDMDL
