MODEL 1
REMARK VINA RESULT: -5.836370930      0.000      0.000
REMARK  2 active torsions:
REMARK  status: ('A' for Active; 'I' for Inactive)
REMARK    1  A    between atoms: C3_3  and  S1_4 
REMARK    2  A    between atoms: S1_4  and  C4_5 
ROOT
HETATM    1  C1  UNL     1       8.750 -16.002 -19.658  1.00  0.00     0.013 C 
HETATM    2  C2  UNL     1       7.867 -15.635 -20.393  1.00  0.00    -0.107 C 
HETATM    3  C3  UNL     1       6.811 -15.201 -21.304  1.00  0.00     0.167 C 
ENDROOT
BRANCH   3   4
HETATM    4  S1  UNL     1       5.153 -15.515 -20.653  1.00  0.00    -0.152 SA
BRANCH   4   5
HETATM    5  C4  UNL     1       4.040 -14.096 -20.869  1.00  0.00     0.051 C 
HETATM    6  C5  UNL     1       2.698 -14.478 -21.351  1.00  0.00     0.043 C 
HETATM    7  C6  UNL     1       2.026 -13.579 -22.324  1.00  0.00     0.233 C 
HETATM    8  N1  UNL     1       2.802 -12.469 -22.798  1.00  0.00    -0.075 N 
HETATM    9  C7  UNL     1       4.147 -12.982 -23.046  1.00  0.00     0.233 C 
ATOM     10  H12 UNL     1       2.390 -12.004 -23.608  1.00  0.00     0.277 HD
ATOM     11  H11 UNL     1       2.785 -11.666 -22.170  1.00  0.00     0.277 HD
HETATM   12  C8  UNL     1       4.777 -13.068 -21.671  1.00  0.00     0.043 C 
ENDBRANCH   4   5
ENDBRANCH   3   4
TORSDOF 2
ENDMDL
MODEL 2
REMARK VINA RESULT: -5.415831010      0.756      1.622
REMARK  2 active torsions:
REMARK  status: ('A' for Active; 'I' for Inactive)
REMARK    1  A    between atoms: C3_3  and  S1_4 
REMARK    2  A    between atoms: S1_4  and  C4_5 
ROOT
HETATM    1  C1  UNL     1       8.818 -16.293 -19.696  1.00  0.00     0.013 C 
HETATM    2  C2  UNL     1       8.014 -15.548 -20.198  1.00  0.00    -0.107 C 
HETATM    3  C3  UNL     1       7.054 -14.645 -20.828  1.00  0.00     0.167 C 
ENDROOT
BRANCH   3   4
HETATM    4  S1  UNL     1       5.337 -15.127 -20.525  1.00  0.00    -0.152 SA
BRANCH   4   5
HETATM    5  C4  UNL     1       4.219 -14.587 -21.851  1.00  0.00     0.051 C 
HETATM    6  C5  UNL     1       4.696 -13.385 -22.561  1.00  0.00     0.043 C 
HETATM    7  C6  UNL     1       3.687 -12.380 -22.986  1.00  0.00     0.233 C 
HETATM    8  N1  UNL     1       2.339 -12.621 -22.560  1.00  0.00    -0.075 N 
HETATM    9  C7  UNL     1       2.418 -13.073 -21.173  1.00  0.00     0.233 C 
ATOM     10  H12 UNL     1       1.724 -11.817 -22.689  1.00  0.00     0.277 HD
ATOM     11  H11 UNL     1       1.832 -13.265 -23.167  1.00  0.00     0.277 HD
HETATM   12  C8  UNL     1       2.837 -14.525 -21.273  1.00  0.00     0.043 C 
ENDBRANCH   4   5
ENDBRANCH   3   4
TORSDOF 2
ENDMDL
MODEL 3
REMARK VINA RESULT: -4.696960296      1.229      1.403
REMARK  2 active torsions:
REMARK  status: ('A' for Active; 'I' for Inactive)
REMARK    1  A    between atoms: C3_3  and  S1_4 
REMARK    2  A    between atoms: S1_4  and  C4_5 
ROOT
HETATM    1  C1  UNL     1       8.605 -14.334 -18.978  1.00  0.00     0.013 C 
HETATM    2  C2  UNL     1       8.048 -14.944 -19.855  1.00  0.00    -0.107 C 
HETATM    3  C3  UNL     1       7.365 -15.702 -20.901  1.00  0.00     0.167 C 
ENDROOT
BRANCH   3   4
HETATM    4  S1  UNL     1       6.379 -14.653 -21.996  1.00  0.00    -0.152 SA
BRANCH   4   5
HETATM    5  C4  UNL     1       4.912 -13.971 -21.170  1.00  0.00     0.051 C 
HETATM    6  C5  UNL     1       3.927 -15.002 -20.791  1.00  0.00     0.043 C 
HETATM    7  C6  UNL     1       2.485 -14.669 -20.923  1.00  0.00     0.233 C 
HETATM    8  N1  UNL     1       2.181 -13.401 -21.522  1.00  0.00    -0.075 N 
HETATM    9  C7  UNL     1       3.100 -13.248 -22.648  1.00  0.00     0.233 C 
ATOM     10  H12 UNL     1       1.200 -13.301 -21.783  1.00  0.00     0.277 HD
ATOM     11  H11 UNL     1       2.216 -12.624 -20.863  1.00  0.00     0.277 HD
HETATM   12  C8  UNL     1       4.411 -12.837 -22.012  1.00  0.00     0.043 C 
ENDBRANCH   4   5
ENDBRANCH   3   4
TORSDOF 2
ENDMDL
MODEL 4
REMARK VINA RESULT: -4.308729412      1.015      1.943
REMARK  2 active torsions:
REMARK  status: ('A' for Active; 'I' for Inactive)
REMARK    1  A    between atoms: C3_3  and  S1_4 
REMARK    2  A    between atoms: S1_4  and  C4_5 
ROOT
HETATM    1  C1  UNL     1       7.575 -15.627 -21.975  1.00  0.00     0.013 C 
HETATM    2  C2  UNL     1       6.986 -15.354 -20.959  1.00  0.00    -0.107 C 
HETATM    3  C3  UNL     1       6.291 -15.004 -19.723  1.00  0.00     0.167 C 
ENDROOT
BRANCH   3   4
HETATM    4  S1  UNL     1       4.492 -15.008 -19.907  1.00  0.00    -0.152 SA
BRANCH   4   5
HETATM    5  C4  UNL     1       3.961 -14.488 -21.564  1.00  0.00     0.051 C 
HETATM    6  C5  UNL     1       4.669 -13.289 -22.052  1.00  0.00     0.043 C 
HETATM    7  C6  UNL     1       3.894 -12.296 -22.841  1.00  0.00     0.233 C 
HETATM    8  N1  UNL     1       2.486 -12.542 -22.958  1.00  0.00    -0.075 N 
HETATM    9  C7  UNL     1       2.033 -12.982 -21.640  1.00  0.00     0.233 C 
ATOM     10  H12 UNL     1       1.964 -11.744 -23.320  1.00  0.00     0.277 HD
ATOM     11  H11 UNL     1       2.251 -13.196 -23.705  1.00  0.00     0.277 HD
HETATM   12  C8  UNL     1       2.463 -14.431 -21.557  1.00  0.00     0.043 C 
ENDBRANCH   4   5
ENDBRANCH   3   4
TORSDOF 2
ENDMDL
MODEL 5
REMARK VINA RESULT: -4.151268782      1.134      1.767
REMARK  2 active torsions:
REMARK  status: ('A' for Active; 'I' for Inactive)
REMARK    1  A    between atoms: C3_3  and  S1_4 
REMARK    2  A    between atoms: S1_4  and  C4_5 
ROOT
HETATM    1  C1  UNL     1       8.862 -16.236 -19.342  1.00  0.00     0.013 C 
HETATM    2  C2  UNL     1       8.210 -15.906 -20.301  1.00  0.00    -0.107 C 
HETATM    3  C3  UNL     1       7.414 -15.533 -21.468  1.00  0.00     0.167 C 
ENDROOT
BRANCH   3   4
HETATM    4  S1  UNL     1       6.358 -14.096 -21.164  1.00  0.00    -0.152 SA
BRANCH   4   5
HETATM    5  C4  UNL     1       4.728 -14.252 -21.951  1.00  0.00     0.051 C 
HETATM    6  C5  UNL     1       4.234 -12.982 -22.519  1.00  0.00     0.043 C 
HETATM    7  C6  UNL     1       2.782 -12.690 -22.409  1.00  0.00     0.233 C 
HETATM    8  N1  UNL     1       2.004 -13.626 -21.650  1.00  0.00    -0.075 N 
HETATM    9  C7  UNL     1       2.800 -13.963 -20.471  1.00  0.00     0.233 C 
ATOM     10  H12 UNL     1       1.069 -13.287 -21.423  1.00  0.00     0.277 HD
ATOM     11  H11 UNL     1       1.715 -14.443 -22.189  1.00  0.00     0.277 HD
HETATM   12  C8  UNL     1       3.827 -14.953 -20.981  1.00  0.00     0.043 C 
ENDBRANCH   4   5
ENDBRANCH   3   4
TORSDOF 2
ENDMDL
