MODEL 1
REMARK VINA RESULT: -6.993666558      0.000      0.000
REMARK  2 active torsions:
REMARK  status: ('A' for Active; 'I' for Inactive)
REMARK    1  A    between atoms: C6_12  and  O3_13 
REMARK    2  A    between atoms: C6_12  and  N3_15 
ROOT
HETATM    1  C1  UNL     1      58.842  -5.836  20.242  1.00  0.00     0.045 C 
HETATM    2  C2  UNL     1      58.403  -4.831  19.530  1.00  0.00     0.057 A 
HETATM    3  N1  UNL     1      57.903  -3.741  20.184  1.00  0.00    -0.317 N 
ATOM      4  H1  UNL     1      57.888  -3.744  21.204  1.00  0.00     0.169 HD
HETATM    5  C3  UNL     1      57.437  -2.679  19.542  1.00  0.00     0.314 A 
HETATM    6  O1  UNL     1      56.968  -1.656  20.141  1.00  0.00    -0.262 OA
HETATM    7  C4  UNL     1      57.462  -2.690  18.167  1.00  0.00     0.314 A 
HETATM    8  O2  UNL     1      57.015  -1.674  17.567  1.00  0.00    -0.262 OA
HETATM    9  N2  UNL     1      57.947  -3.749  17.531  1.00  0.00    -0.313 N 
ATOM     10  H2  UNL     1      57.954  -3.731  16.511  1.00  0.00     0.169 HD
HETATM   11  C5  UNL     1      58.443  -4.875  18.161  1.00  0.00     0.113 A 
HETATM   12  C6  UNL     1      58.886  -5.838  17.417  1.00  0.00     0.172 C 
ENDROOT
BRANCH  12  13
HETATM   13  O3  UNL     1      58.829  -5.664  16.007  1.00  0.00    -0.344 OA
ATOM     14  H3  UNL     1      59.352  -6.248  15.469  1.00  0.00     0.219 HD
ENDBRANCH  12  13
BRANCH  12  15
HETATM   15  N3  UNL     1      59.420  -7.041  17.829  1.00  0.00    -0.312 N 
HETATM   16  C7  UNL     1      60.609  -7.473  17.585  1.00  0.00     0.203 C 
HETATM   17  N4  UNL     1      60.956  -8.749  18.108  1.00  0.00    -0.066 NA
HETATM   18  N5  UNL     1      61.524  -6.712  16.831  1.00  0.00    -0.066 NA
ATOM     19  H3  UNL     1      58.814  -7.649  18.379  1.00  0.00     0.170 HD
ENDBRANCH  12  15
TORSDOF 2
ENDMDL
MODEL 2
REMARK VINA RESULT: -6.300149044      1.898      2.920
REMARK  2 active torsions:
REMARK  status: ('A' for Active; 'I' for Inactive)
REMARK    1  A    between atoms: C6_12  and  O3_13 
REMARK    2  A    between atoms: C6_12  and  N3_15 
ROOT
HETATM    1  C1  UNL     1      58.976  -5.935  17.265  1.00  0.00     0.045 C 
HETATM    2  C2  UNL     1      58.522  -4.988  18.043  1.00  0.00     0.057 A 
HETATM    3  N1  UNL     1      57.998  -3.867  17.465  1.00  0.00    -0.317 N 
ATOM      4  H1  UNL     1      57.976  -3.804  16.447  1.00  0.00     0.169 HD
HETATM    5  C3  UNL     1      57.516  -2.859  18.178  1.00  0.00     0.314 A 
HETATM    6  O1  UNL     1      57.024  -1.808  17.650  1.00  0.00    -0.262 OA
HETATM    7  C4  UNL     1      57.554  -2.958  19.549  1.00  0.00     0.314 A 
HETATM    8  O2  UNL     1      57.093  -1.992  20.217  1.00  0.00    -0.262 OA
HETATM    9  N2  UNL     1      58.064  -4.046  20.111  1.00  0.00    -0.313 N 
ATOM     10  H2  UNL     1      58.080  -4.094  21.130  1.00  0.00     0.169 HD
HETATM   11  C5  UNL     1      58.575  -5.119  19.406  1.00  0.00     0.113 A 
HETATM   12  C6  UNL     1      59.043  -6.120  20.083  1.00  0.00     0.172 C 
ENDROOT
BRANCH  12  13
HETATM   13  O3  UNL     1      58.995  -6.038  21.502  1.00  0.00    -0.344 OA
ATOM     14  H3  UNL     1      59.806  -5.849  21.960  1.00  0.00     0.219 HD
ENDBRANCH  12  13
BRANCH  12  15
HETATM   15  N3  UNL     1      59.596  -7.283  19.590  1.00  0.00    -0.312 N 
HETATM   16  C7  UNL     1      59.409  -8.472  20.049  1.00  0.00     0.203 C 
HETATM   17  N4  UNL     1      60.079  -9.537  19.387  1.00  0.00    -0.066 NA
HETATM   18  N5  UNL     1      58.574  -8.705  21.160  1.00  0.00    -0.066 NA
ATOM     19  H3  UNL     1      60.215  -7.194  18.785  1.00  0.00     0.170 HD
ENDBRANCH  12  15
TORSDOF 2
ENDMDL
MODEL 3
REMARK VINA RESULT: -5.916469153      1.931      5.187
REMARK  2 active torsions:
REMARK  status: ('A' for Active; 'I' for Inactive)
REMARK    1  A    between atoms: C6_12  and  O3_13 
REMARK    2  A    between atoms: C6_12  and  N3_15 
ROOT
HETATM    1  C1  UNL     1      58.522  -6.084  20.929  1.00  0.00     0.045 C 
HETATM    2  C2  UNL     1      59.076  -6.408  19.790  1.00  0.00     0.057 A 
HETATM    3  N1  UNL     1      59.772  -7.581  19.715  1.00  0.00    -0.317 N 
ATOM      4  H1  UNL     1      59.838  -8.166  20.547  1.00  0.00     0.169 HD
HETATM    5  C3  UNL     1      60.364  -7.986  18.600  1.00  0.00     0.314 A 
HETATM    6  O1  UNL     1      61.016  -9.078  18.517  1.00  0.00    -0.262 OA
HETATM    7  C4  UNL     1      60.268  -7.184  17.487  1.00  0.00     0.314 A 
HETATM    8  O2  UNL     1      60.837  -7.580  16.432  1.00  0.00    -0.262 OA
HETATM    9  N2  UNL     1      59.593  -6.044  17.559  1.00  0.00    -0.313 N 
ATOM     10  H2  UNL     1      59.537  -5.468  16.719  1.00  0.00     0.169 HD
HETATM   11  C5  UNL     1      58.961  -5.586  18.699  1.00  0.00     0.113 A 
HETATM   12  C6  UNL     1      58.336  -4.453  18.630  1.00  0.00     0.172 C 
ENDROOT
BRANCH  12  13
HETATM   13  O3  UNL     1      58.348  -3.766  17.385  1.00  0.00    -0.344 OA
ATOM     14  H3  UNL     1      58.168  -2.833  17.394  1.00  0.00     0.219 HD
ENDBRANCH  12  13
BRANCH  12  15
HETATM   15  N3  UNL     1      57.643  -3.812  19.636  1.00  0.00    -0.312 N 
HETATM   16  C7  UNL     1      57.082  -2.655  19.559  1.00  0.00     0.203 C 
HETATM   17  N4  UNL     1      56.415  -2.178  20.721  1.00  0.00    -0.066 NA
HETATM   18  N5  UNL     1      57.129  -1.895  18.374  1.00  0.00    -0.066 NA
ATOM     19  H3  UNL     1      57.568  -4.301  20.527  1.00  0.00     0.170 HD
ENDBRANCH  12  15
TORSDOF 2
ENDMDL
MODEL 4
REMARK VINA RESULT: -5.908070361      2.535      5.613
REMARK  2 active torsions:
REMARK  status: ('A' for Active; 'I' for Inactive)
REMARK    1  A    between atoms: C6_12  and  O3_13 
REMARK    2  A    between atoms: C6_12  and  N3_15 
ROOT
HETATM    1  C1  UNL     1      59.074  -5.637  16.873  1.00  0.00     0.045 C 
HETATM    2  C2  UNL     1      59.238  -6.327  17.971  1.00  0.00     0.057 A 
HETATM    3  N1  UNL     1      59.859  -7.540  17.890  1.00  0.00    -0.317 N 
ATOM      4  H1  UNL     1      60.175  -7.871  16.978  1.00  0.00     0.169 HD
HETATM    5  C3  UNL     1      60.067  -8.305  18.953  1.00  0.00     0.314 A 
HETATM    6  O1  UNL     1      60.646  -9.439  18.891  1.00  0.00    -0.262 OA
HETATM    7  C4  UNL     1      59.634  -7.847  20.175  1.00  0.00     0.314 A 
HETATM    8  O2  UNL     1      59.837  -8.584  21.179  1.00  0.00    -0.262 OA
HETATM    9  N2  UNL     1      59.029  -6.669  20.255  1.00  0.00    -0.313 N 
ATOM     10  H2  UNL     1      58.717  -6.353  21.174  1.00  0.00     0.169 HD
HETATM   11  C5  UNL     1      58.794  -5.841  19.173  1.00  0.00     0.113 A 
HETATM   12  C6  UNL     1      58.192  -4.715  19.393  1.00  0.00     0.172 C 
ENDROOT
BRANCH  12  13
HETATM   13  O3  UNL     1      57.819  -4.416  20.733  1.00  0.00    -0.344 OA
ATOM     14  H3  UNL     1      58.264  -3.695  21.164  1.00  0.00     0.219 HD
ENDBRANCH  12  13
BRANCH  12  15
HETATM   15  N3  UNL     1      57.859  -3.746  18.471  1.00  0.00    -0.312 N 
HETATM   16  C7  UNL     1      57.397  -2.571  18.731  1.00  0.00     0.203 C 
HETATM   17  N4  UNL     1      57.119  -1.723  17.623  1.00  0.00    -0.066 NA
HETATM   18  N5  UNL     1      57.177  -2.148  20.056  1.00  0.00    -0.066 NA
ATOM     19  H3  UNL     1      57.990  -3.981  17.488  1.00  0.00     0.170 HD
ENDBRANCH  12  15
TORSDOF 2
ENDMDL
MODEL 5
REMARK VINA RESULT: -5.841712953      2.625      3.725
REMARK  2 active torsions:
REMARK  status: ('A' for Active; 'I' for Inactive)
REMARK    1  A    between atoms: C6_12  and  O3_13 
REMARK    2  A    between atoms: C6_12  and  N3_15 
ROOT
HETATM    1  C1  UNL     1      57.504  -2.741  19.142  1.00  0.00     0.045 C 
HETATM    2  C2  UNL     1      57.383  -3.398  20.266  1.00  0.00     0.057 A 
HETATM    3  N1  UNL     1      56.683  -2.819  21.286  1.00  0.00    -0.317 N 
ATOM      4  H1  UNL     1      56.279  -1.894  21.141  1.00  0.00     0.169 HD
HETATM    5  C3  UNL     1      56.512  -3.414  22.458  1.00  0.00     0.314 A 
HETATM    6  O1  UNL     1      55.861  -2.885  23.417  1.00  0.00    -0.262 OA
HETATM    7  C4  UNL     1      57.065  -4.660  22.639  1.00  0.00     0.314 A 
HETATM    8  O2  UNL     1      56.896  -5.216  23.759  1.00  0.00    -0.262 OA
HETATM    9  N2  UNL     1      57.746  -5.223  21.649  1.00  0.00    -0.313 N 
ATOM     10  H2  UNL     1      58.146  -6.148  21.810  1.00  0.00     0.169 HD
HETATM   11  C5  UNL     1      57.947  -4.638  20.413  1.00  0.00     0.113 A 
HETATM   12  C6  UNL     1      58.632  -5.300  19.535  1.00  0.00     0.172 C 
ENDROOT
BRANCH  12  13
HETATM   13  O3  UNL     1      59.125  -6.581  19.910  1.00  0.00    -0.344 OA
ATOM     14  H3  UNL     1      58.579  -7.336  19.723  1.00  0.00     0.219 HD
ENDBRANCH  12  13
BRANCH  12  15
HETATM   15  N3  UNL     1      58.953  -4.912  18.251  1.00  0.00    -0.312 N 
HETATM   16  C7  UNL     1      58.793  -5.609  17.180  1.00  0.00     0.203 C 
HETATM   17  N4  UNL     1      59.192  -5.014  15.952  1.00  0.00    -0.066 NA
HETATM   18  N5  UNL     1      58.245  -6.907  17.226  1.00  0.00    -0.066 NA
ATOM     19  H3  UNL     1      59.357  -3.983  18.139  1.00  0.00     0.170 HD
ENDBRANCH  12  15
TORSDOF 2
ENDMDL
