MODEL 1
REMARK VINA RESULT: -7.018355844      0.000      0.000
REMARK  1 active torsions:
REMARK  status: ('A' for Active; 'I' for Inactive)
REMARK       I    between atoms: N1_1  and  C1_4 
REMARK       I    between atoms: C1_4  and  N3_6 
REMARK    1  A    between atoms: N3_6  and  C2_8 
ROOT
HETATM    1  C2  UNL     1      58.576  -5.583  17.754  1.00  0.00     0.192 A 
HETATM    2  N4  UNL     1      59.401  -5.960  18.742  1.00  0.00    -0.277 N 
ATOM      3  H4  UNL     1      59.279  -5.614  19.694  1.00  0.00     0.189 HD
HETATM    4  N5  UNL     1      60.379  -6.796  18.436  1.00  0.00    -0.250 N 
ATOM      5  H5  UNL     1      61.013  -7.091  19.178  1.00  0.00     0.192 HD
HETATM    6  C3  UNL     1      60.581  -7.276  17.203  1.00  0.00     0.341 A 
HETATM    7  O1  UNL     1      61.520  -8.076  16.914  1.00  0.00    -0.245 OA
HETATM    8  N6  UNL     1      59.768  -6.916  16.184  1.00  0.00    -0.271 N 
ATOM      9  H6  UNL     1      59.908  -7.272  15.238  1.00  0.00     0.174 HD
HETATM   10  C4  UNL     1      58.764  -6.064  16.476  1.00  0.00     0.295 A 
HETATM   11  O2  UNL     1      58.001  -5.730  15.513  1.00  0.00    -0.264 OA
ENDROOT
BRANCH   1  12
HETATM   12  N3  UNL     1      57.605  -4.775  17.986  1.00  0.00    -0.311 N 
HETATM   13  C1  UNL     1      57.729  -3.558  18.675  1.00  0.00     0.187 C 
HETATM   14  N1  UNL     1      57.907  -3.550  19.961  1.00  0.00    -0.373 N 
HETATM   15  N2  UNL     1      57.670  -2.287  18.033  1.00  0.00    -0.064 NA
ATOM     16  H12 UNL     1      57.997  -2.666  20.462  1.00  0.00     0.158 HD
ATOM     17  H11 UNL     1      57.950  -4.460  20.421  1.00  0.00     0.158 HD
ATOM     18  H3  UNL     1      56.680  -5.035  17.646  1.00  0.00     0.170 HD
ENDBRANCH   1  12
TORSDOF 1
ENDMDL
MODEL 2
REMARK VINA RESULT: -7.013909891      3.140      4.989
REMARK  1 active torsions:
REMARK  status: ('A' for Active; 'I' for Inactive)
REMARK       I    between atoms: N1_1  and  C1_4 
REMARK       I    between atoms: C1_4  and  N3_6 
REMARK    1  A    between atoms: N3_6  and  C2_8 
ROOT
HETATM    1  C2  UNL     1      57.977  -4.055  19.420  1.00  0.00     0.192 A 
HETATM    2  N4  UNL     1      58.064  -4.934  20.430  1.00  0.00    -0.277 N 
ATOM      3  H4  UNL     1      58.517  -5.840  20.305  1.00  0.00     0.189 HD
HETATM    4  N5  UNL     1      57.539  -4.583  21.592  1.00  0.00    -0.250 N 
ATOM      5  H5  UNL     1      57.600  -5.242  22.368  1.00  0.00     0.192 HD
HETATM    6  C3  UNL     1      56.934  -3.408  21.804  1.00  0.00     0.341 A 
HETATM    7  O1  UNL     1      56.432  -3.076  22.919  1.00  0.00    -0.245 OA
HETATM    8  N6  UNL     1      56.829  -2.501  20.807  1.00  0.00    -0.271 N 
ATOM      9  H6  UNL     1      56.370  -1.600  20.952  1.00  0.00     0.174 HD
HETATM   10  C4  UNL     1      57.359  -2.840  19.614  1.00  0.00     0.295 A 
HETATM   11  O2  UNL     1      57.258  -1.981  18.681  1.00  0.00    -0.264 OA
ENDROOT
BRANCH   1  12
HETATM   12  N3  UNL     1      58.468  -4.335  18.267  1.00  0.00    -0.311 N 
HETATM   13  C1  UNL     1      58.008  -5.367  17.434  1.00  0.00     0.187 C 
HETATM   14  N1  UNL     1      58.260  -6.607  17.728  1.00  0.00    -0.373 N 
HETATM   15  N2  UNL     1      57.256  -5.136  16.245  1.00  0.00    -0.064 NA
ATOM     16  H12 UNL     1      57.926  -7.357  17.123  1.00  0.00     0.158 HD
ATOM     17  H11 UNL     1      58.799  -6.773  18.579  1.00  0.00     0.158 HD
ATOM     18  H3  UNL     1      59.247  -3.768  17.933  1.00  0.00     0.170 HD
ENDBRANCH   1  12
TORSDOF 1
ENDMDL
MODEL 3
REMARK VINA RESULT: -6.780504624      1.766      4.315
REMARK  1 active torsions:
REMARK  status: ('A' for Active; 'I' for Inactive)
REMARK       I    between atoms: N1_1  and  C1_4 
REMARK       I    between atoms: C1_4  and  N3_6 
REMARK    1  A    between atoms: N3_6  and  C2_8 
ROOT
HETATM    1  C2  UNL     1      58.953  -6.123  17.817  1.00  0.00     0.192 A 
HETATM    2  N4  UNL     1      59.320  -5.710  19.039  1.00  0.00    -0.277 N 
ATOM      3  H4  UNL     1      60.033  -6.207  19.573  1.00  0.00     0.189 HD
HETATM    4  N5  UNL     1      58.724  -4.634  19.525  1.00  0.00    -0.250 N 
ATOM      5  H5  UNL     1      58.995  -4.308  20.453  1.00  0.00     0.192 HD
HETATM    6  C3  UNL     1      57.783  -3.949  18.864  1.00  0.00     0.341 A 
HETATM    7  O1  UNL     1      57.213  -2.920  19.334  1.00  0.00    -0.245 OA
HETATM    8  N6  UNL     1      57.389  -4.339  17.631  1.00  0.00    -0.271 N 
ATOM      9  H6  UNL     1      56.673  -3.829  17.113  1.00  0.00     0.174 HD
HETATM   10  C4  UNL     1      57.986  -5.434  17.117  1.00  0.00     0.295 A 
HETATM   11  O2  UNL     1      57.612  -5.796  15.955  1.00  0.00    -0.264 OA
ENDROOT
BRANCH   1  12
HETATM   12  N3  UNL     1      59.495  -7.160  17.288  1.00  0.00    -0.311 N 
HETATM   13  C1  UNL     1      60.823  -7.562  17.502  1.00  0.00     0.187 C 
HETATM   14  N1  UNL     1      61.802  -6.902  16.962  1.00  0.00    -0.373 N 
HETATM   15  N2  UNL     1      61.179  -8.687  18.302  1.00  0.00    -0.064 NA
ATOM     16  H12 UNL     1      62.766  -7.194  17.118  1.00  0.00     0.158 HD
ATOM     17  H11 UNL     1      61.547  -6.097  16.390  1.00  0.00     0.158 HD
ATOM     18  H3  UNL     1      58.921  -7.731  16.668  1.00  0.00     0.170 HD
ENDBRANCH   1  12
TORSDOF 1
ENDMDL
MODEL 4
REMARK VINA RESULT: -6.724270174      2.705      3.808
REMARK  1 active torsions:
REMARK  status: ('A' for Active; 'I' for Inactive)
REMARK       I    between atoms: N1_1  and  C1_4 
REMARK       I    between atoms: C1_4  and  N3_6 
REMARK    1  A    between atoms: N3_6  and  C2_8 
ROOT
HETATM    1  C2  UNL     1      57.489  -3.617  20.373  1.00  0.00     0.192 A 
HETATM    2  N4  UNL     1      57.894  -4.801  20.856  1.00  0.00    -0.277 N 
ATOM      3  H4  UNL     1      57.733  -5.059  21.829  1.00  0.00     0.189 HD
HETATM    4  N5  UNL     1      58.510  -5.622  20.021  1.00  0.00    -0.250 N 
ATOM      5  H5  UNL     1      58.821  -6.527  20.375  1.00  0.00     0.192 HD
HETATM    6  C3  UNL     1      58.746  -5.329  18.737  1.00  0.00     0.341 A 
HETATM    7  O1  UNL     1      59.338  -6.118  17.941  1.00  0.00    -0.245 OA
HETATM    8  N6  UNL     1      58.352  -4.143  18.220  1.00  0.00    -0.271 N 
ATOM      9  H6  UNL     1      58.524  -3.904  17.243  1.00  0.00     0.174 HD
HETATM   10  C4  UNL     1      57.721  -3.293  19.054  1.00  0.00     0.295 A 
HETATM   11  O2  UNL     1      57.352  -2.179  18.561  1.00  0.00    -0.264 OA
ENDROOT
BRANCH   1  12
HETATM   12  N3  UNL     1      56.884  -2.775  21.132  1.00  0.00    -0.311 N 
HETATM   13  C1  UNL     1      56.200  -3.113  22.310  1.00  0.00     0.187 C 
HETATM   14  N1  UNL     1      55.056  -3.725  22.250  1.00  0.00    -0.373 N 
HETATM   15  N2  UNL     1      56.696  -2.818  23.614  1.00  0.00    -0.064 NA
ATOM     16  H12 UNL     1      54.560  -3.971  23.107  1.00  0.00     0.158 HD
ATOM     17  H11 UNL     1      54.701  -3.937  21.318  1.00  0.00     0.158 HD
ATOM     18  H3  UNL     1      56.901  -1.793  20.858  1.00  0.00     0.170 HD
ENDBRANCH   1  12
TORSDOF 1
ENDMDL
MODEL 5
REMARK VINA RESULT: -6.576931730      2.871      4.409
REMARK  1 active torsions:
REMARK  status: ('A' for Active; 'I' for Inactive)
REMARK       I    between atoms: N1_1  and  C1_4 
REMARK       I    between atoms: C1_4  and  N3_6 
REMARK    1  A    between atoms: N3_6  and  C2_8 
ROOT
HETATM    1  C2  UNL     1      58.250  -4.416  18.558  1.00  0.00     0.192 A 
HETATM    2  N4  UNL     1      58.529  -5.534  19.244  1.00  0.00    -0.277 N 
ATOM      3  H4  UNL     1      58.932  -6.351  18.784  1.00  0.00     0.189 HD
HETATM    4  N5  UNL     1      58.264  -5.538  20.540  1.00  0.00    -0.250 N 
ATOM      5  H5  UNL     1      58.473  -6.382  21.073  1.00  0.00     0.192 HD
HETATM    6  C3  UNL     1      57.735  -4.493  21.188  1.00  0.00     0.341 A 
HETATM    7  O1  UNL     1      57.481  -4.502  22.429  1.00  0.00    -0.245 OA
HETATM    8  N6  UNL     1      57.441  -3.352  20.526  1.00  0.00    -0.271 N 
ATOM      9  H6  UNL     1      57.037  -2.546  21.004  1.00  0.00     0.174 HD
HETATM   10  C4  UNL     1      57.705  -3.328  19.203  1.00  0.00     0.295 A 
HETATM   11  O2  UNL     1      57.427  -2.250  18.586  1.00  0.00    -0.264 OA
ENDROOT
BRANCH   1  12
HETATM   12  N3  UNL     1      58.486  -4.348  17.297  1.00  0.00    -0.311 N 
HETATM   13  C1  UNL     1      58.924  -5.423  16.508  1.00  0.00     0.187 C 
HETATM   14  N1  UNL     1      60.145  -5.853  16.609  1.00  0.00    -0.373 N 
HETATM   15  N2  UNL     1      58.087  -6.098  15.572  1.00  0.00    -0.064 NA
ATOM     16  H12 UNL     1      60.463  -6.635  16.036  1.00  0.00     0.158 HD
ATOM     17  H11 UNL     1      60.744  -5.370  17.279  1.00  0.00     0.158 HD
ATOM     18  H3  UNL     1      58.345  -3.449  16.837  1.00  0.00     0.170 HD
ENDBRANCH   1  12
TORSDOF 1
ENDMDL
