MODEL 1
REMARK VINA RESULT: -8.808450630      0.000      0.000
REMARK  16 active torsions:
REMARK  status: ('A' for Active; 'I' for Inactive)
REMARK    1  A    between atoms: O1_2  and  C2_3 
REMARK    2  A    between atoms: C4_5  and  C5_6 
REMARK    3  A    between atoms: C7_10  and  C8_11 
REMARK    4  A    between atoms: C8_11  and  O5_13 
REMARK    5  A    between atoms: O5_13  and  C9_14 
REMARK    6  A    between atoms: C9_14  and  C10_15 
REMARK    7  A    between atoms: C10_15  and  O7_17 
REMARK    8  A    between atoms: O7_17  and  C11_18 
REMARK    9  A    between atoms: C13_20  and  C14_21 
REMARK   10  A    between atoms: C16_25  and  O10_26 
REMARK   11  A    between atoms: C16_25  and  C17_28 
REMARK   12  A    between atoms: C18_31  and  O13_32 
REMARK   13  A    between atoms: O13_32  and  C19_33 
REMARK   14  A    between atoms: C19_33  and  C20_35 
REMARK   15  A    between atoms: N1_37  and  O15_39 
REMARK   16  A    between atoms: C22_41  and  O16_42 
ROOT
HETATM    1  C11 UNL     1      55.995  20.748  16.228  1.00  0.00     0.087 C 
HETATM    2  C12 UNL     1      57.280  21.059  16.453  1.00  0.00     0.024 C 
HETATM    3  C13 UNL     1      58.011  22.093  15.721  1.00  0.00     0.115 C 
HETATM    4  C15 UNL     1      57.193  23.039  14.915  1.00  0.00     0.071 C 
HETATM    5  C16 UNL     1      55.728  22.948  15.166  1.00  0.00     0.179 C 
HETATM    6  C18 UNL     1      55.249  21.489  15.170  1.00  0.00     0.234 C 
ENDROOT
BRANCH   1   7
HETATM    7  O7  UNL     1      55.470  19.782  16.977  1.00  0.00    -0.279 OA
BRANCH   7   8
HETATM    8  C10 UNL     1      54.362  19.651  17.740  1.00  0.00     0.288 C 
HETATM    9  O6  UNL     1      53.358  19.131  17.221  1.00  0.00    -0.262 OA
BRANCH   8  10
HETATM   10  C9  UNL     1      54.352  20.121  19.162  1.00  0.00     0.290 C 
BRANCH  10  11
HETATM   11  O5  UNL     1      55.646  20.635  19.512  1.00  0.00    -0.307 OA
BRANCH  11  12
HETATM   12  C8  UNL     1      55.800  21.746  20.300  1.00  0.00     0.296 C 
HETATM   13  O4  UNL     1      56.921  21.918  20.839  1.00  0.00    -0.259 OA
BRANCH  12  14
HETATM   14  C7  UNL     1      54.756  22.725  20.543  1.00  0.00     0.076 A 
HETATM   15  C6  UNL     1      54.447  23.685  19.607  1.00  0.00     0.039 A 
HETATM   16  C4  UNL     1      53.468  24.629  19.788  1.00  0.00     0.044 A 
HETATM   17  C3  UNL     1      52.775  24.598  20.967  1.00  0.00     0.058 A 
HETATM   18  C2  UNL     1      53.038  23.656  21.947  1.00  0.00     0.103 A 
HETATM   19  C22 UNL     1      54.024  22.727  21.733  1.00  0.00     0.115 A 
BRANCH  16  20
HETATM   20  C5  UNL     1      53.137  25.641  18.797  1.00  0.00     0.209 C 
HETATM   21  O2  UNL     1      52.192  26.438  18.974  1.00  0.00    -0.644 OA
HETATM   22  O3  UNL     1      53.881  25.722  17.639  1.00  0.00    -0.644 OA
ENDBRANCH  16  20
BRANCH  18  23
HETATM   23  O1  UNL     1      52.279  23.720  23.087  1.00  0.00    -0.353 OA
HETATM   24  C1  UNL     1      51.259  24.635  23.331  1.00  0.00     0.210 C 
ENDBRANCH  18  23
BRANCH  19  25
HETATM   25  O16 UNL     1      54.306  21.778  22.701  1.00  0.00    -0.357 OA
ATOM     26  H16 UNL     1      54.346  20.858  22.467  1.00  0.00     0.217 HD
ENDBRANCH  19  25
ENDBRANCH  12  14
ENDBRANCH  11  12
ENDBRANCH  10  11
ENDBRANCH   8  10
ENDBRANCH   7   8
ENDBRANCH   1   7
BRANCH   6  27
HETATM   27  O13 UNL     1      55.499  20.980  13.902  1.00  0.00    -0.301 OA
BRANCH  27  28
HETATM   28  C19 UNL     1      55.227  19.764  13.366  1.00  0.00     0.308 C 
HETATM   29  O14 UNL     1      56.190  19.080  12.975  1.00  0.00    -0.258 OA
BRANCH  28  30
HETATM   30  C20 UNL     1      53.837  19.278  13.255  1.00  0.00     0.103 C 
HETATM   31  C21 UNL     1      53.200  19.331  11.927  1.00  0.00     0.077 C 
HETATM   32  N1  UNL     1      53.290  18.854  14.308  1.00  0.00    -0.268 N 
ATOM     33  H1  UNL     1      53.866  18.884  15.150  1.00  0.00     0.194 HD
BRANCH  32  34
HETATM   34  O15 UNL     1      52.038  18.363  14.467  1.00  0.00    -0.290 OA
ATOM     35  H15 UNL     1      51.637  18.012  15.253  1.00  0.00     0.244 HD
ENDBRANCH  32  34
ENDBRANCH  28  30
ENDBRANCH  27  28
ENDBRANCH   6  27
BRANCH   3  36
HETATM   36  C14 UNL     1      59.010  21.472  14.772  1.00  0.00     0.180 C 
HETATM   37  O8  UNL     1      58.986  20.237  14.536  1.00  0.00    -0.647 OA
HETATM   38  O9  UNL     1      59.924  22.321  14.195  1.00  0.00    -0.647 OA
ENDBRANCH   3  36
BRANCH   5  39
HETATM   39  O10 UNL     1      55.441  23.425  16.461  1.00  0.00    -0.376 OA
ATOM     40  H10 UNL     1      54.653  23.954  16.437  1.00  0.00     0.211 HD
ENDBRANCH   5  39
BRANCH   5  41
HETATM   41  C17 UNL     1      54.996  23.720  14.147  1.00  0.00     0.212 C 
HETATM   42  O11 UNL     1      53.759  23.515  14.013  1.00  0.00    -0.646 OA
HETATM   43  O12 UNL     1      55.550  24.663  13.313  1.00  0.00    -0.646 OA
ENDBRANCH   5  41
TORSDOF 16
ENDMDL
MODEL 2
REMARK VINA RESULT: -8.485181363      2.871      5.936
REMARK  16 active torsions:
REMARK  status: ('A' for Active; 'I' for Inactive)
REMARK    1  A    between atoms: O1_2  and  C2_3 
REMARK    2  A    between atoms: C4_5  and  C5_6 
REMARK    3  A    between atoms: C7_10  and  C8_11 
REMARK    4  A    between atoms: C8_11  and  O5_13 
REMARK    5  A    between atoms: O5_13  and  C9_14 
REMARK    6  A    between atoms: C9_14  and  C10_15 
REMARK    7  A    between atoms: C10_15  and  O7_17 
REMARK    8  A    between atoms: O7_17  and  C11_18 
REMARK    9  A    between atoms: C13_20  and  C14_21 
REMARK   10  A    between atoms: C16_25  and  O10_26 
REMARK   11  A    between atoms: C16_25  and  C17_28 
REMARK   12  A    between atoms: C18_31  and  O13_32 
REMARK   13  A    between atoms: O13_32  and  C19_33 
REMARK   14  A    between atoms: C19_33  and  C20_35 
REMARK   15  A    between atoms: N1_37  and  O15_39 
REMARK   16  A    between atoms: C22_41  and  O16_42 
ROOT
HETATM    1  C11 UNL     1      56.153  21.390  14.702  1.00  0.00     0.087 C 
HETATM    2  C12 UNL     1      57.435  21.004  14.781  1.00  0.00     0.024 C 
HETATM    3  C13 UNL     1      58.355  21.433  15.833  1.00  0.00     0.115 C 
HETATM    4  C15 UNL     1      57.744  22.075  17.029  1.00  0.00     0.071 C 
HETATM    5  C16 UNL     1      56.260  21.965  17.089  1.00  0.00     0.179 C 
HETATM    6  C18 UNL     1      55.615  22.316  15.741  1.00  0.00     0.234 C 
ENDROOT
BRANCH   1   7
HETATM    7  O7  UNL     1      55.443  20.913  13.685  1.00  0.00    -0.279 OA
BRANCH   7   8
HETATM    8  C10 UNL     1      54.161  20.524  13.504  1.00  0.00     0.288 C 
HETATM    9  O6  UNL     1      53.270  21.384  13.626  1.00  0.00    -0.262 OA
BRANCH   8  10
HETATM   10  C9  UNL     1      53.832  19.101  13.172  1.00  0.00     0.290 C 
BRANCH  10  11
HETATM   11  O5  UNL     1      53.662  18.347  14.381  1.00  0.00    -0.307 OA
BRANCH  11  12
HETATM   12  C8  UNL     1      52.429  18.133  14.939  1.00  0.00     0.296 C 
HETATM   13  O4  UNL     1      51.464  17.965  14.154  1.00  0.00    -0.259 OA
BRANCH  12  14
HETATM   14  C7  UNL     1      52.176  18.089  16.368  1.00  0.00     0.076 A 
HETATM   15  C6  UNL     1      53.154  18.427  17.276  1.00  0.00     0.039 A 
HETATM   16  C4  UNL     1      52.964  18.404  18.634  1.00  0.00     0.044 A 
HETATM   17  C3  UNL     1      51.732  18.022  19.091  1.00  0.00     0.058 A 
HETATM   18  C2  UNL     1      50.708  17.671  18.228  1.00  0.00     0.103 A 
HETATM   19  C22 UNL     1      50.933  17.705  16.876  1.00  0.00     0.115 A 
BRANCH  16  20
HETATM   20  C5  UNL     1      53.995  18.767  19.593  1.00  0.00     0.209 C 
HETATM   21  O2  UNL     1      54.473  17.924  20.382  1.00  0.00    -0.644 OA
HETATM   22  O3  UNL     1      54.456  20.065  19.633  1.00  0.00    -0.644 OA
ENDBRANCH  16  20
BRANCH  18  23
HETATM   23  O1  UNL     1      49.515  17.306  18.799  1.00  0.00    -0.353 OA
HETATM   24  C1  UNL     1      49.345  16.305  19.750  1.00  0.00     0.210 C 
ENDBRANCH  18  23
BRANCH  19  25
HETATM   25  O16 UNL     1      49.923  17.356  15.995  1.00  0.00    -0.357 OA
ATOM     26  H16 UNL     1      50.078  17.382  15.058  1.00  0.00     0.217 HD
ENDBRANCH  19  25
ENDBRANCH  12  14
ENDBRANCH  11  12
ENDBRANCH  10  11
ENDBRANCH   8  10
ENDBRANCH   7   8
ENDBRANCH   1   7
BRANCH   6  27
HETATM   27  O13 UNL     1      55.936  23.641  15.475  1.00  0.00    -0.301 OA
BRANCH  27  28
HETATM   28  C19 UNL     1      55.639  24.427  14.410  1.00  0.00     0.308 C 
HETATM   29  O14 UNL     1      54.439  24.688  14.205  1.00  0.00    -0.258 OA
BRANCH  28  30
HETATM   30  C20 UNL     1      56.705  24.951  13.532  1.00  0.00     0.103 C 
HETATM   31  C21 UNL     1      56.302  25.821  12.414  1.00  0.00     0.077 C 
HETATM   32  N1  UNL     1      57.889  24.611  13.800  1.00  0.00    -0.268 N 
ATOM     33  H1  UNL     1      58.003  24.000  14.609  1.00  0.00     0.194 HD
BRANCH  32  34
HETATM   34  O15 UNL     1      59.029  24.952  13.153  1.00  0.00    -0.290 OA
ATOM     35  H15 UNL     1      59.892  25.104  13.519  1.00  0.00     0.244 HD
ENDBRANCH  32  34
ENDBRANCH  28  30
ENDBRANCH  27  28
ENDBRANCH   6  27
BRANCH   3  36
HETATM   36  C14 UNL     1      59.369  22.414  15.290  1.00  0.00     0.180 C 
HETATM   37  O8  UNL     1      59.994  22.165  14.227  1.00  0.00    -0.647 OA
HETATM   38  O9  UNL     1      59.561  23.568  16.011  1.00  0.00    -0.647 OA
ENDBRANCH   3  36
BRANCH   5  39
HETATM   39  O10 UNL     1      55.896  20.623  17.324  1.00  0.00    -0.376 OA
ATOM     40  H10 UNL     1      56.337  20.306  18.103  1.00  0.00     0.211 HD
ENDBRANCH   5  39
BRANCH   5  41
HETATM   41  C17 UNL     1      55.735  22.845  18.147  1.00  0.00     0.212 C 
HETATM   42  O11 UNL     1      56.548  23.343  18.972  1.00  0.00    -0.646 OA
HETATM   43  O12 UNL     1      54.411  23.180  18.319  1.00  0.00    -0.646 OA
ENDBRANCH   5  41
TORSDOF 16
ENDMDL
MODEL 3
REMARK VINA RESULT: -8.400860604      2.002      3.963
REMARK  16 active torsions:
REMARK  status: ('A' for Active; 'I' for Inactive)
REMARK    1  A    between atoms: O1_2  and  C2_3 
REMARK    2  A    between atoms: C4_5  and  C5_6 
REMARK    3  A    between atoms: C7_10  and  C8_11 
REMARK    4  A    between atoms: C8_11  and  O5_13 
REMARK    5  A    between atoms: O5_13  and  C9_14 
REMARK    6  A    between atoms: C9_14  and  C10_15 
REMARK    7  A    between atoms: C10_15  and  O7_17 
REMARK    8  A    between atoms: O7_17  and  C11_18 
REMARK    9  A    between atoms: C13_20  and  C14_21 
REMARK   10  A    between atoms: C16_25  and  O10_26 
REMARK   11  A    between atoms: C16_25  and  C17_28 
REMARK   12  A    between atoms: C18_31  and  O13_32 
REMARK   13  A    between atoms: O13_32  and  C19_33 
REMARK   14  A    between atoms: C19_33  and  C20_35 
REMARK   15  A    between atoms: N1_37  and  O15_39 
REMARK   16  A    between atoms: C22_41  and  O16_42 
ROOT
HETATM    1  C11 UNL     1      56.232  21.915  16.257  1.00  0.00     0.087 C 
HETATM    2  C12 UNL     1      55.523  22.981  15.857  1.00  0.00     0.024 C 
HETATM    3  C13 UNL     1      55.010  23.160  14.499  1.00  0.00     0.115 C 
HETATM    4  C15 UNL     1      55.018  21.957  13.623  1.00  0.00     0.071 C 
HETATM    5  C16 UNL     1      55.320  20.685  14.335  1.00  0.00     0.179 C 
HETATM    6  C18 UNL     1      56.529  20.837  15.270  1.00  0.00     0.234 C 
ENDROOT
BRANCH   1   7
HETATM    7  O7  UNL     1      56.628  21.899  17.525  1.00  0.00    -0.279 OA
BRANCH   7   8
HETATM    8  C10 UNL     1      57.745  22.273  18.190  1.00  0.00     0.288 C 
HETATM    9  O6  UNL     1      58.399  23.228  17.734  1.00  0.00    -0.262 OA
BRANCH   8  10
HETATM   10  C9  UNL     1      58.173  21.555  19.432  1.00  0.00     0.290 C 
BRANCH  10  11
HETATM   11  O5  UNL     1      57.057  21.427  20.327  1.00  0.00    -0.307 OA
BRANCH  11  12
HETATM   12  C8  UNL     1      56.686  22.436  21.178  1.00  0.00     0.296 C 
HETATM   13  O4  UNL     1      57.538  22.827  22.012  1.00  0.00    -0.259 OA
BRANCH  12  14
HETATM   14  C7  UNL     1      55.381  23.071  21.169  1.00  0.00     0.076 A 
HETATM   15  C6  UNL     1      54.985  23.874  20.122  1.00  0.00     0.039 A 
HETATM   16  C4  UNL     1      53.763  24.493  20.067  1.00  0.00     0.044 A 
HETATM   17  C3  UNL     1      52.906  24.291  21.114  1.00  0.00     0.058 A 
HETATM   18  C2  UNL     1      53.245  23.495  22.194  1.00  0.00     0.103 A 
HETATM   19  C22 UNL     1      54.476  22.891  22.218  1.00  0.00     0.115 A 
BRANCH  16  20
HETATM   20  C5  UNL     1      53.343  25.337  18.958  1.00  0.00     0.209 C 
HETATM   21  O2  UNL     1      53.936  25.307  17.859  1.00  0.00    -0.644 OA
HETATM   22  O3  UNL     1      52.270  26.186  19.123  1.00  0.00    -0.644 OA
ENDBRANCH  16  20
BRANCH  18  23
HETATM   23  O1  UNL     1      52.307  23.363  23.186  1.00  0.00    -0.353 OA
HETATM   24  C1  UNL     1      51.363  24.323  23.540  1.00  0.00     0.210 C 
ENDBRANCH  18  23
BRANCH  19  25
HETATM   25  O16 UNL     1      54.837  22.092  23.290  1.00  0.00    -0.357 OA
ATOM     26  H16 UNL     1      55.586  22.324  23.827  1.00  0.00     0.217 HD
ENDBRANCH  19  25
ENDBRANCH  12  14
ENDBRANCH  11  12
ENDBRANCH  10  11
ENDBRANCH   8  10
ENDBRANCH   7   8
ENDBRANCH   1   7
BRANCH   6  27
HETATM   27  O13 UNL     1      57.619  21.149  14.469  1.00  0.00    -0.301 OA
BRANCH  27  28
HETATM   28  C19 UNL     1      58.951  21.062  14.713  1.00  0.00     0.308 C 
HETATM   29  O14 UNL     1      59.419  19.934  14.950  1.00  0.00    -0.258 OA
BRANCH  28  30
HETATM   30  C20 UNL     1      59.806  22.266  14.695  1.00  0.00     0.103 C 
HETATM   31  C21 UNL     1      61.208  22.101  14.275  1.00  0.00     0.077 C 
HETATM   32  N1  UNL     1      59.274  23.354  15.045  1.00  0.00    -0.268 N 
ATOM     33  H1  UNL     1      58.290  23.302  15.310  1.00  0.00     0.194 HD
BRANCH  32  34
HETATM   34  O15 UNL     1      59.840  24.583  15.116  1.00  0.00    -0.290 OA
ATOM     35  H15 UNL     1      59.826  25.198  15.839  1.00  0.00     0.244 HD
ENDBRANCH  32  34
ENDBRANCH  28  30
ENDBRANCH  27  28
ENDBRANCH   6  27
BRANCH   3  36
HETATM   36  C14 UNL     1      55.789  24.229  13.769  1.00  0.00     0.180 C 
HETATM   37  O8  UNL     1      55.447  24.593  12.614  1.00  0.00    -0.647 OA
HETATM   38  O9  UNL     1      56.868  24.767  14.428  1.00  0.00    -0.647 OA
ENDBRANCH   3  36
BRANCH   5  39
HETATM   39  O10 UNL     1      54.246  20.355  15.186  1.00  0.00    -0.376 OA
ATOM     40  H10 UNL     1      54.520  19.682  15.799  1.00  0.00     0.211 HD
ENDBRANCH   5  39
BRANCH   5  41
HETATM   41  C17 UNL     1      55.566  19.609  13.358  1.00  0.00     0.212 C 
HETATM   42  O11 UNL     1      54.723  18.676  13.268  1.00  0.00    -0.646 OA
HETATM   43  O12 UNL     1      56.653  19.531  12.518  1.00  0.00    -0.646 OA
ENDBRANCH   5  41
TORSDOF 16
ENDMDL
MODEL 4
REMARK VINA RESULT: -8.340992590      1.948      3.803
REMARK  16 active torsions:
REMARK  status: ('A' for Active; 'I' for Inactive)
REMARK    1  A    between atoms: O1_2  and  C2_3 
REMARK    2  A    between atoms: C4_5  and  C5_6 
REMARK    3  A    between atoms: C7_10  and  C8_11 
REMARK    4  A    between atoms: C8_11  and  O5_13 
REMARK    5  A    between atoms: O5_13  and  C9_14 
REMARK    6  A    between atoms: C9_14  and  C10_15 
REMARK    7  A    between atoms: C10_15  and  O7_17 
REMARK    8  A    between atoms: O7_17  and  C11_18 
REMARK    9  A    between atoms: C13_20  and  C14_21 
REMARK   10  A    between atoms: C16_25  and  O10_26 
REMARK   11  A    between atoms: C16_25  and  C17_28 
REMARK   12  A    between atoms: C18_31  and  O13_32 
REMARK   13  A    between atoms: O13_32  and  C19_33 
REMARK   14  A    between atoms: C19_33  and  C20_35 
REMARK   15  A    between atoms: N1_37  and  O15_39 
REMARK   16  A    between atoms: C22_41  and  O16_42 
ROOT
HETATM    1  C11 UNL     1      56.157  22.001  16.288  1.00  0.00     0.087 C 
HETATM    2  C12 UNL     1      55.488  23.064  15.816  1.00  0.00     0.024 C 
HETATM    3  C13 UNL     1      55.069  23.215  14.423  1.00  0.00     0.115 C 
HETATM    4  C15 UNL     1      55.122  21.990  13.578  1.00  0.00     0.071 C 
HETATM    5  C16 UNL     1      55.362  20.733  14.338  1.00  0.00     0.179 C 
HETATM    6  C18 UNL     1      56.507  20.896  15.348  1.00  0.00     0.234 C 
ENDROOT
BRANCH   1   7
HETATM    7  O7  UNL     1      56.467  22.011  17.580  1.00  0.00    -0.279 OA
BRANCH   7   8
HETATM    8  C10 UNL     1      57.586  22.254  18.299  1.00  0.00     0.288 C 
HETATM    9  O6  UNL     1      58.278  23.238  17.982  1.00  0.00    -0.262 OA
BRANCH   8  10
HETATM   10  C9  UNL     1      57.974  21.360  19.436  1.00  0.00     0.290 C 
BRANCH  10  11
HETATM   11  O5  UNL     1      56.915  21.321  20.405  1.00  0.00    -0.307 OA
BRANCH  11  12
HETATM   12  C8  UNL     1      56.603  22.402  21.188  1.00  0.00     0.296 C 
HETATM   13  O4  UNL     1      57.503  22.842  21.944  1.00  0.00    -0.259 OA
BRANCH  12  14
HETATM   14  C7  UNL     1      55.309  23.060  21.193  1.00  0.00     0.076 A 
HETATM   15  C6  UNL     1      54.917  23.868  20.150  1.00  0.00     0.039 A 
HETATM   16  C4  UNL     1      53.705  24.509  20.107  1.00  0.00     0.044 A 
HETATM   17  C3  UNL     1      52.856  24.323  21.164  1.00  0.00     0.058 A 
HETATM   18  C2  UNL     1      53.193  23.521  22.242  1.00  0.00     0.103 A 
HETATM   19  C22 UNL     1      54.414  22.896  22.252  1.00  0.00     0.115 A 
BRANCH  16  20
HETATM   20  C5  UNL     1      53.287  25.359  19.003  1.00  0.00     0.209 C 
HETATM   21  O2  UNL     1      53.910  25.368  17.920  1.00  0.00    -0.644 OA
HETATM   22  O3  UNL     1      52.183  26.170  19.154  1.00  0.00    -0.644 OA
ENDBRANCH  16  20
BRANCH  18  23
HETATM   23  O1  UNL     1      52.263  23.407  23.243  1.00  0.00    -0.353 OA
HETATM   24  C1  UNL     1      51.238  24.312  23.504  1.00  0.00     0.210 C 
ENDBRANCH  18  23
BRANCH  19  25
HETATM   25  O16 UNL     1      54.772  22.091  23.321  1.00  0.00    -0.357 OA
ATOM     26  H16 UNL     1      55.621  22.199  23.734  1.00  0.00     0.217 HD
ENDBRANCH  19  25
ENDBRANCH  12  14
ENDBRANCH  11  12
ENDBRANCH  10  11
ENDBRANCH   8  10
ENDBRANCH   7   8
ENDBRANCH   1   7
BRANCH   6  27
HETATM   27  O13 UNL     1      57.652  21.178  14.615  1.00  0.00    -0.301 OA
BRANCH  27  28
HETATM   28  C19 UNL     1      58.939  20.789  14.798  1.00  0.00     0.308 C 
HETATM   29  O14 UNL     1      59.276  20.441  15.944  1.00  0.00    -0.258 OA
BRANCH  28  30
HETATM   30  C20 UNL     1      59.897  20.783  13.675  1.00  0.00     0.103 C 
HETATM   31  C21 UNL     1      61.158  21.524  13.850  1.00  0.00     0.077 C 
HETATM   32  N1  UNL     1      59.566  20.145  12.640  1.00  0.00    -0.268 N 
ATOM     33  H1  UNL     1      58.656  19.684  12.674  1.00  0.00     0.194 HD
BRANCH  32  34
HETATM   34  O15 UNL     1      60.261  19.991  11.487  1.00  0.00    -0.290 OA
ATOM     35  H15 UNL     1      60.947  20.545  11.134  1.00  0.00     0.244 HD
ENDBRANCH  32  34
ENDBRANCH  28  30
ENDBRANCH  27  28
ENDBRANCH   6  27
BRANCH   3  36
HETATM   36  C14 UNL     1      55.908  24.258  13.722  1.00  0.00     0.180 C 
HETATM   37  O8  UNL     1      55.598  24.658  12.570  1.00  0.00    -0.647 OA
HETATM   38  O9  UNL     1      57.002  24.732  14.403  1.00  0.00    -0.647 OA
ENDBRANCH   3  36
BRANCH   5  39
HETATM   39  O10 UNL     1      54.229  20.434  15.123  1.00  0.00    -0.376 OA
ATOM     40  H10 UNL     1      54.259  19.523  15.390  1.00  0.00     0.211 HD
ENDBRANCH   5  39
BRANCH   5  41
HETATM   41  C17 UNL     1      55.660  19.632  13.406  1.00  0.00     0.212 C 
HETATM   42  O11 UNL     1      54.838  18.680  13.318  1.00  0.00    -0.646 OA
HETATM   43  O12 UNL     1      56.776  19.549  12.605  1.00  0.00    -0.646 OA
ENDBRANCH   5  41
TORSDOF 16
ENDMDL
MODEL 5
REMARK VINA RESULT: -8.156575643      2.533      5.927
REMARK  16 active torsions:
REMARK  status: ('A' for Active; 'I' for Inactive)
REMARK    1  A    between atoms: O1_2  and  C2_3 
REMARK    2  A    between atoms: C4_5  and  C5_6 
REMARK    3  A    between atoms: C7_10  and  C8_11 
REMARK    4  A    between atoms: C8_11  and  O5_13 
REMARK    5  A    between atoms: O5_13  and  C9_14 
REMARK    6  A    between atoms: C9_14  and  C10_15 
REMARK    7  A    between atoms: C10_15  and  O7_17 
REMARK    8  A    between atoms: O7_17  and  C11_18 
REMARK    9  A    between atoms: C13_20  and  C14_21 
REMARK   10  A    between atoms: C16_25  and  O10_26 
REMARK   11  A    between atoms: C16_25  and  C17_28 
REMARK   12  A    between atoms: C18_31  and  O13_32 
REMARK   13  A    between atoms: O13_32  and  C19_33 
REMARK   14  A    between atoms: C19_33  and  C20_35 
REMARK   15  A    between atoms: N1_37  and  O15_39 
REMARK   16  A    between atoms: C22_41  and  O16_42 
ROOT
HETATM    1  C11 UNL     1      56.013  21.378  16.794  1.00  0.00     0.087 C 
HETATM    2  C12 UNL     1      57.077  21.221  17.595  1.00  0.00     0.024 C 
HETATM    3  C13 UNL     1      57.447  22.157  18.656  1.00  0.00     0.115 C 
HETATM    4  C15 UNL     1      56.414  23.152  19.053  1.00  0.00     0.071 C 
HETATM    5  C16 UNL     1      55.064  22.894  18.479  1.00  0.00     0.179 C 
HETATM    6  C18 UNL     1      55.142  22.576  16.979  1.00  0.00     0.234 C 
ENDROOT
BRANCH   1   7
HETATM    7  O7  UNL     1      55.810  20.441  15.873  1.00  0.00    -0.279 OA
BRANCH   7   8
HETATM    8  C10 UNL     1      55.903  20.378  14.526  1.00  0.00     0.288 C 
HETATM    9  O6  UNL     1      57.040  20.322  14.025  1.00  0.00    -0.262 OA
BRANCH   8  10
HETATM   10  C9  UNL     1      54.672  20.379  13.673  1.00  0.00     0.290 C 
BRANCH  10  11
HETATM   11  O5  UNL     1      53.518  20.120  14.487  1.00  0.00    -0.307 OA
BRANCH  11  12
HETATM   12  C8  UNL     1      53.194  18.857  14.911  1.00  0.00     0.296 C 
HETATM   13  O4  UNL     1      53.296  17.927  14.075  1.00  0.00    -0.259 OA
BRANCH  12  14
HETATM   14  C7  UNL     1      52.746  18.537  16.254  1.00  0.00     0.076 A 
HETATM   15  C6  UNL     1      53.577  18.698  17.340  1.00  0.00     0.039 A 
HETATM   16  C4  UNL     1      53.199  18.413  18.627  1.00  0.00     0.044 A 
HETATM   17  C3  UNL     1      51.929  17.945  18.822  1.00  0.00     0.058 A 
HETATM   18  C2  UNL     1      51.046  17.763  17.771  1.00  0.00     0.103 A 
HETATM   19  C22 UNL     1      51.456  18.058  16.496  1.00  0.00     0.115 A 
BRANCH  16  20
HETATM   20  C5  UNL     1      54.075  18.587  19.776  1.00  0.00     0.209 C 
HETATM   21  O2  UNL     1      55.178  19.165  19.669  1.00  0.00    -0.644 OA
HETATM   22  O3  UNL     1      53.682  18.107  21.006  1.00  0.00    -0.644 OA
ENDBRANCH  16  20
BRANCH  18  23
HETATM   23  O1  UNL     1      49.798  17.291  18.086  1.00  0.00    -0.353 OA
HETATM   24  C1  UNL     1      49.483  16.508  19.192  1.00  0.00     0.210 C 
ENDBRANCH  18  23
BRANCH  19  25
HETATM   25  O16 UNL     1      50.591  17.882  15.430  1.00  0.00    -0.357 OA
ATOM     26  H16 UNL     1      50.779  17.229  14.766  1.00  0.00     0.217 HD
ENDBRANCH  19  25
ENDBRANCH  12  14
ENDBRANCH  11  12
ENDBRANCH  10  11
ENDBRANCH   8  10
ENDBRANCH   7   8
ENDBRANCH   1   7
BRANCH   6  27
HETATM   27  O13 UNL     1      55.664  23.702  16.356  1.00  0.00    -0.301 OA
BRANCH  27  28
HETATM   28  C19 UNL     1      55.682  24.062  15.049  1.00  0.00     0.308 C 
HETATM   29  O14 UNL     1      54.591  24.328  14.511  1.00  0.00    -0.258 OA
BRANCH  28  30
HETATM   30  C20 UNL     1      56.951  24.134  14.298  1.00  0.00     0.103 C 
HETATM   31  C21 UNL     1      57.132  25.264  13.370  1.00  0.00     0.077 C 
HETATM   32  N1  UNL     1      57.793  23.219  14.503  1.00  0.00    -0.268 N 
ATOM     33  H1  UNL     1      57.517  22.505  15.178  1.00  0.00     0.194 HD
BRANCH  32  34
HETATM   34  O15 UNL     1      59.017  23.060  13.943  1.00  0.00    -0.290 OA
ATOM     35  H15 UNL     1      59.239  22.642  13.120  1.00  0.00     0.244 HD
ENDBRANCH  32  34
ENDBRANCH  28  30
ENDBRANCH  27  28
ENDBRANCH   6  27
BRANCH   3  36
HETATM   36  C14 UNL     1      58.678  22.944  18.272  1.00  0.00     0.180 C 
HETATM   37  O8  UNL     1      58.935  23.179  17.063  1.00  0.00    -0.647 OA
HETATM   38  O9  UNL     1      59.480  23.379  19.300  1.00  0.00    -0.647 OA
ENDBRANCH   3  36
BRANCH   5  39
HETATM   39  O10 UNL     1      54.518  21.734  19.066  1.00  0.00    -0.376 OA
ATOM     40  H10 UNL     1      53.654  21.929  19.412  1.00  0.00     0.211 HD
ENDBRANCH   5  39
BRANCH   5  41
HETATM   41  C17 UNL     1      54.191  24.059  18.706  1.00  0.00     0.212 C 
HETATM   42  O11 UNL     1      53.197  23.924  19.470  1.00  0.00    -0.646 OA
HETATM   43  O12 UNL     1      54.368  25.305  18.150  1.00  0.00    -0.646 OA
ENDBRANCH   5  41
TORSDOF 16
ENDMDL
