MODEL 1
REMARK VINA RESULT: -4.344298783      0.000      0.000
REMARK  1 active torsions:
REMARK  status: ('A' for Active; 'I' for Inactive)
REMARK    1  A    between atoms: C1_2  and  C2_4 
ROOT
HETATM    1  C2  UNL     1      23.439  14.418  10.854  1.00  0.00     0.087 C 
HETATM    2  C3  UNL     1      21.963  14.538  11.085  1.00  0.00     0.015 C 
HETATM    3  C4  UNL     1      21.853  14.277  12.577  1.00  0.00     0.001 C 
HETATM    4  C5  UNL     1      22.754  13.036  12.642  1.00  0.00     0.001 C 
HETATM    5  C6  UNL     1      23.996  13.594  12.009  1.00  0.00     0.015 C 
ENDROOT
BRANCH   1   6
HETATM    6  C1  UNL     1      23.727  13.677   9.603  1.00  0.00     0.177 C 
HETATM    7  O1  UNL     1      23.185  14.071   8.541  1.00  0.00    -0.648 OA
HETATM    8  O2  UNL     1      24.560  12.578   9.548  1.00  0.00    -0.648 OA
ENDBRANCH   1   6
TORSDOF 1
ENDMDL
MODEL 2
REMARK VINA RESULT: -4.299827464      1.578      2.520
REMARK  1 active torsions:
REMARK  status: ('A' for Active; 'I' for Inactive)
REMARK    1  A    between atoms: C1_2  and  C2_4 
ROOT
HETATM    1  C2  UNL     1      23.917  13.972  10.818  1.00  0.00     0.087 C 
HETATM    2  C3  UNL     1      23.440  13.977   9.397  1.00  0.00     0.015 C 
HETATM    3  C4  UNL     1      22.305  14.985   9.448  1.00  0.00     0.001 C 
HETATM    4  C5  UNL     1      21.608  14.457  10.710  1.00  0.00     0.001 C 
HETATM    5  C6  UNL     1      22.764  14.493  11.668  1.00  0.00     0.015 C 
ENDROOT
BRANCH   1   6
HETATM    6  C1  UNL     1      24.216  12.594  11.277  1.00  0.00     0.177 C 
HETATM    7  O1  UNL     1      24.712  11.788  10.452  1.00  0.00    -0.648 OA
HETATM    8  O2  UNL     1      23.978  12.155  12.564  1.00  0.00    -0.648 OA
ENDBRANCH   1   6
TORSDOF 1
ENDMDL
MODEL 3
REMARK VINA RESULT: -4.284133756      0.129      1.137
REMARK  1 active torsions:
REMARK  status: ('A' for Active; 'I' for Inactive)
REMARK    1  A    between atoms: C1_2  and  C2_4 
ROOT
HETATM    1  C2  UNL     1      23.553  14.333  10.905  1.00  0.00     0.087 C 
HETATM    2  C3  UNL     1      22.088  14.554  11.135  1.00  0.00     0.015 C 
HETATM    3  C4  UNL     1      21.947  14.235  12.614  1.00  0.00     0.001 C 
HETATM    4  C5  UNL     1      22.751  12.927  12.625  1.00  0.00     0.001 C 
HETATM    5  C6  UNL     1      24.037  13.418  12.024  1.00  0.00     0.015 C 
ENDROOT
BRANCH   1   6
HETATM    6  C1  UNL     1      23.794  13.630   9.623  1.00  0.00     0.177 C 
HETATM    7  O1  UNL     1      24.550  12.627   9.629  1.00  0.00    -0.648 OA
HETATM    8  O2  UNL     1      23.229  14.020   8.425  1.00  0.00    -0.648 OA
ENDBRANCH   1   6
TORSDOF 1
ENDMDL
MODEL 4
REMARK VINA RESULT: -4.141163646      1.601      2.486
REMARK  1 active torsions:
REMARK  status: ('A' for Active; 'I' for Inactive)
REMARK    1  A    between atoms: C1_2  and  C2_4 
ROOT
HETATM    1  C2  UNL     1      23.963  14.056  10.796  1.00  0.00     0.087 C 
HETATM    2  C3  UNL     1      23.405  14.028   9.405  1.00  0.00     0.015 C 
HETATM    3  C4  UNL     1      22.240  14.996   9.510  1.00  0.00     0.001 C 
HETATM    4  C5  UNL     1      21.636  14.459  10.815  1.00  0.00     0.001 C 
HETATM    5  C6  UNL     1      22.842  14.548  11.706  1.00  0.00     0.015 C 
ENDROOT
BRANCH   1   6
HETATM    6  C1  UNL     1      24.336  12.696  11.252  1.00  0.00     0.177 C 
HETATM    7  O1  UNL     1      24.228  12.428  12.473  1.00  0.00    -0.648 OA
HETATM    8  O2  UNL     1      24.796  11.710  10.401  1.00  0.00    -0.648 OA
ENDBRANCH   1   6
TORSDOF 1
ENDMDL
MODEL 5
REMARK VINA RESULT: -4.085568774      1.052      1.424
REMARK  1 active torsions:
REMARK  status: ('A' for Active; 'I' for Inactive)
REMARK    1  A    between atoms: C1_2  and  C2_4 
ROOT
HETATM    1  C2  UNL     1      23.209  14.523  11.158  1.00  0.00     0.087 C 
HETATM    2  C3  UNL     1      22.136  13.895  11.994  1.00  0.00     0.015 C 
HETATM    3  C4  UNL     1      22.943  13.027  12.945  1.00  0.00     0.001 C 
HETATM    4  C5  UNL     1      23.873  12.384  11.907  1.00  0.00     0.001 C 
HETATM    5  C6  UNL     1      24.435  13.624  11.272  1.00  0.00     0.015 C 
ENDROOT
BRANCH   1   6
HETATM    6  C1  UNL     1      22.820  14.561   9.728  1.00  0.00     0.177 C 
HETATM    7  O1  UNL     1      21.928  15.371   9.376  1.00  0.00    -0.648 OA
HETATM    8  O2  UNL     1      23.389  13.751   8.765  1.00  0.00    -0.648 OA
ENDBRANCH   1   6
TORSDOF 1
ENDMDL
