MODEL 1
REMARK VINA RESULT: -3.780390419      0.000      0.000
REMARK  1 active torsions:
REMARK  status: ('A' for Active; 'I' for Inactive)
REMARK       I    between atoms: C2_2  and  N1_4 
REMARK    1  A    between atoms: N1_4  and  C3_6 
ROOT
HETATM    1  C1  UNL     1      21.644  12.808  13.854  1.00  0.00     0.117 C 
HETATM    2  C2  UNL     1      22.208  13.667  12.801  1.00  0.00     0.214 C 
HETATM    3  O1  UNL     1      21.882  14.870  12.763  1.00  0.00    -0.274 OA
HETATM    4  N1  UNL     1      23.102  13.121  11.855  1.00  0.00    -0.353 N 
ATOM      5  H1  UNL     1      23.340  12.132  11.923  1.00  0.00     0.163 HD
ENDROOT
BRANCH   4   6
HETATM    6  C3  UNL     1      23.695  13.908  10.791  1.00  0.00     0.022 C 
HETATM    7  C4  UNL     1      24.424  12.960   9.863  1.00  0.00     0.037 C 
HETATM    8  C5  UNL     1      24.630  14.916  11.394  1.00  0.00     0.037 C 
HETATM    9  C6  UNL     1      22.647  14.608   9.957  1.00  0.00     0.037 C 
ENDBRANCH   4   6
TORSDOF 1
ENDMDL
MODEL 2
REMARK VINA RESULT: -3.775717175      0.086      1.501
REMARK  1 active torsions:
REMARK  status: ('A' for Active; 'I' for Inactive)
REMARK       I    between atoms: C2_2  and  N1_4 
REMARK    1  A    between atoms: N1_4  and  C3_6 
ROOT
HETATM    1  C1  UNL     1      21.598  12.903  13.832  1.00  0.00     0.117 C 
HETATM    2  C2  UNL     1      22.184  13.737  12.771  1.00  0.00     0.214 C 
HETATM    3  O1  UNL     1      21.916  14.955  12.742  1.00  0.00    -0.274 OA
HETATM    4  N1  UNL     1      23.034  13.152  11.808  1.00  0.00    -0.353 N 
ATOM      5  H1  UNL     1      23.225  12.152  11.869  1.00  0.00     0.163 HD
ENDROOT
BRANCH   4   6
HETATM    6  C3  UNL     1      23.646  13.913  10.736  1.00  0.00     0.022 C 
HETATM    7  C4  UNL     1      24.635  14.877  11.355  1.00  0.00     0.037 C 
HETATM    8  C5  UNL     1      22.572  14.637   9.977  1.00  0.00     0.037 C 
HETATM    9  C6  UNL     1      24.436  13.028   9.799  1.00  0.00     0.037 C 
ENDBRANCH   4   6
TORSDOF 1
ENDMDL
MODEL 3
REMARK VINA RESULT: -3.680637349      0.119      1.507
REMARK  1 active torsions:
REMARK  status: ('A' for Active; 'I' for Inactive)
REMARK       I    between atoms: C2_2  and  N1_4 
REMARK    1  A    between atoms: N1_4  and  C3_6 
ROOT
HETATM    1  C1  UNL     1      21.456  12.928  13.824  1.00  0.00     0.117 C 
HETATM    2  C2  UNL     1      22.127  13.742  12.798  1.00  0.00     0.214 C 
HETATM    3  O1  UNL     1      21.923  14.973  12.775  1.00  0.00    -0.274 OA
HETATM    4  N1  UNL     1      22.984  13.125  11.863  1.00  0.00    -0.353 N 
ATOM      5  H1  UNL     1      23.122  12.116  11.919  1.00  0.00     0.163 HD
ENDROOT
BRANCH   4   6
HETATM    6  C3  UNL     1      23.677  13.865  10.825  1.00  0.00     0.022 C 
HETATM    7  C4  UNL     1      22.640  14.613  10.016  1.00  0.00     0.037 C 
HETATM    8  C5  UNL     1      24.452  12.901   9.974  1.00  0.00     0.037 C 
HETATM    9  C6  UNL     1      24.606  14.907  11.404  1.00  0.00     0.037 C 
ENDBRANCH   4   6
TORSDOF 1
ENDMDL
MODEL 4
REMARK VINA RESULT: -3.591419374      2.058      3.345
REMARK  1 active torsions:
REMARK  status: ('A' for Active; 'I' for Inactive)
REMARK       I    between atoms: C2_2  and  N1_4 
REMARK    1  A    between atoms: N1_4  and  C3_6 
ROOT
HETATM    1  C1  UNL     1      26.419  15.922  12.573  1.00  0.00     0.117 C 
HETATM    2  C2  UNL     1      25.626  14.784  12.080  1.00  0.00     0.214 C 
HETATM    3  O1  UNL     1      25.995  13.625  12.358  1.00  0.00    -0.274 OA
HETATM    4  N1  UNL     1      24.470  15.019  11.307  1.00  0.00    -0.353 N 
ATOM      5  H1  UNL     1      24.206  15.982  11.103  1.00  0.00     0.163 HD
ENDROOT
BRANCH   4   6
HETATM    6  C3  UNL     1      23.641  13.947  10.789  1.00  0.00     0.022 C 
HETATM    7  C4  UNL     1      22.498  14.573  10.020  1.00  0.00     0.037 C 
HETATM    8  C5  UNL     1      23.144  13.117  11.937  1.00  0.00     0.037 C 
HETATM    9  C6  UNL     1      24.394  13.077   9.809  1.00  0.00     0.037 C 
ENDBRANCH   4   6
TORSDOF 1
ENDMDL
MODEL 5
REMARK VINA RESULT: -3.558384481      2.036      3.223
REMARK  1 active torsions:
REMARK  status: ('A' for Active; 'I' for Inactive)
REMARK       I    between atoms: C2_2  and  N1_4 
REMARK    1  A    between atoms: N1_4  and  C3_6 
ROOT
HETATM    1  C1  UNL     1      26.416  15.870  12.531  1.00  0.00     0.117 C 
HETATM    2  C2  UNL     1      25.592  14.747  12.054  1.00  0.00     0.214 C 
HETATM    3  O1  UNL     1      25.930  13.583  12.347  1.00  0.00    -0.274 OA
HETATM    4  N1  UNL     1      24.441  15.002  11.279  1.00  0.00    -0.353 N 
ATOM      5  H1  UNL     1      24.202  15.970  11.063  1.00  0.00     0.163 HD
ENDROOT
BRANCH   4   6
HETATM    6  C3  UNL     1      23.583  13.946  10.776  1.00  0.00     0.022 C 
HETATM    7  C4  UNL     1      23.121  13.120  11.958  1.00  0.00     0.037 C 
HETATM    8  C5  UNL     1      24.357  13.117   9.793  1.00  0.00     0.037 C 
HETATM    9  C6  UNL     1      22.337  14.497  10.122  1.00  0.00     0.037 C 
ENDBRANCH   4   6
TORSDOF 1
ENDMDL
