MODEL 1
REMARK VINA RESULT: -4.401977988      0.000      0.000
REMARK  3 active torsions:
REMARK  status: ('A' for Active; 'I' for Inactive)
REMARK    1  A    between atoms: N1_1  and  C1_5 
REMARK    2  A    between atoms: N2_8  and  C4_9 
REMARK    3  A    between atoms: C4_9  and  C5_10 
ROOT
HETATM    1  C1  UNL     1     -64.865  35.691 -44.364  1.00  0.00     0.186 C 
HETATM    2  C2  UNL     1     -65.722  36.870 -44.790  1.00  0.00     0.063 C 
HETATM    3  C3  UNL     1     -67.100  36.353 -45.220  1.00  0.00     0.274 C 
HETATM    4  N2  UNL     1     -67.003  35.542 -46.401  1.00  0.00     0.088 N 
HETATM    5  C11 UNL     1     -66.067  34.492 -46.197  1.00  0.00     0.274 C 
HETATM    6  C12 UNL     1     -65.534  34.421 -44.789  1.00  0.00     0.063 C 
ENDROOT
BRANCH   4   7
HETATM    7  C4  UNL     1     -66.753  36.267 -47.600  1.00  0.00     0.277 C 
BRANCH   7   8
HETATM    8  C5  UNL     1     -65.577  35.713 -48.384  1.00  0.00     0.014 C 
HETATM    9  C6  UNL     1     -65.989  35.245 -49.733  1.00  0.00     0.006 C 
HETATM   10  C7  UNL     1     -66.085  36.300 -50.789  1.00  0.00     0.000 C 
HETATM   11  C8  UNL     1     -64.747  37.039 -50.821  1.00  0.00     0.000 C 
HETATM   12  C9  UNL     1     -64.658  37.764 -49.483  1.00  0.00     0.000 C 
HETATM   13  C10 UNL     1     -64.435  36.708 -48.423  1.00  0.00     0.006 C 
ENDBRANCH   7   8
ENDBRANCH   4   7
BRANCH   1  14
HETATM   14  N1  UNL     1     -64.667  35.782 -42.945  1.00  0.00    -0.075 N 
ATOM     15  H13 UNL     1     -65.308  36.438 -42.497  1.00  0.00     0.274 HD
ATOM     16  H12 UNL     1     -64.964  34.943 -42.448  1.00  0.00     0.274 HD
ATOM     17  H11 UNL     1     -63.687  36.013 -42.781  1.00  0.00     0.274 HD
ENDBRANCH   1  14
TORSDOF 3
ENDMDL
MODEL 2
REMARK VINA RESULT: -4.364867150      2.592      3.599
REMARK  3 active torsions:
REMARK  status: ('A' for Active; 'I' for Inactive)
REMARK    1  A    between atoms: N1_1  and  C1_5 
REMARK    2  A    between atoms: N2_8  and  C4_9 
REMARK    3  A    between atoms: C4_9  and  C5_10 
ROOT
HETATM    1  C1  UNL     1     -63.048  39.133 -42.518  1.00  0.00     0.186 C 
HETATM    2  C2  UNL     1     -64.048  39.597 -43.563  1.00  0.00     0.063 C 
HETATM    3  C3  UNL     1     -64.913  38.403 -43.987  1.00  0.00     0.274 C 
HETATM    4  N2  UNL     1     -64.127  37.411 -44.664  1.00  0.00     0.088 N 
HETATM    5  C11 UNL     1     -63.024  37.024 -43.857  1.00  0.00     0.274 C 
HETATM    6  C12 UNL     1     -63.039  37.637 -42.479  1.00  0.00     0.063 C 
ENDROOT
BRANCH   4   7
HETATM    7  C4  UNL     1     -63.735  37.765 -45.986  1.00  0.00     0.277 C 
BRANCH   7   8
HETATM    8  C5  UNL     1     -64.919  37.952 -46.918  1.00  0.00     0.014 C 
HETATM    9  C6  UNL     1     -64.787  39.187 -47.732  1.00  0.00     0.006 C 
HETATM   10  C7  UNL     1     -63.946  39.070 -48.964  1.00  0.00     0.000 C 
HETATM   11  C8  UNL     1     -64.493  37.898 -49.782  1.00  0.00     0.000 C 
HETATM   12  C9  UNL     1     -64.213  36.658 -48.940  1.00  0.00     0.000 C 
HETATM   13  C10 UNL     1     -65.151  36.710 -47.754  1.00  0.00     0.006 C 
ENDBRANCH   7   8
ENDBRANCH   4   7
BRANCH   1  14
HETATM   14  N1  UNL     1     -63.413  39.733 -41.265  1.00  0.00    -0.075 N 
ATOM     15  H13 UNL     1     -62.685  40.339 -40.889  1.00  0.00     0.274 HD
ATOM     16  H12 UNL     1     -64.142  40.440 -41.361  1.00  0.00     0.274 HD
ATOM     17  H11 UNL     1     -63.673  38.982 -40.625  1.00  0.00     0.274 HD
ENDBRANCH   1  14
TORSDOF 3
ENDMDL
MODEL 3
REMARK VINA RESULT: -4.333331177      2.329      3.181
REMARK  3 active torsions:
REMARK  status: ('A' for Active; 'I' for Inactive)
REMARK    1  A    between atoms: N1_1  and  C1_5 
REMARK    2  A    between atoms: N2_8  and  C4_9 
REMARK    3  A    between atoms: C4_9  and  C5_10 
ROOT
HETATM    1  C1  UNL     1     -64.283  37.315 -42.998  1.00  0.00     0.186 C 
HETATM    2  C2  UNL     1     -63.003  37.385 -43.813  1.00  0.00     0.063 C 
HETATM    3  C3  UNL     1     -63.003  38.687 -44.625  1.00  0.00     0.274 C 
HETATM    4  N2  UNL     1     -64.049  38.683 -45.608  1.00  0.00     0.088 N 
HETATM    5  C11 UNL     1     -65.302  38.429 -44.988  1.00  0.00     0.274 C 
HETATM    6  C12 UNL     1     -65.231  38.366 -43.483  1.00  0.00     0.063 C 
ENDROOT
BRANCH   4   7
HETATM    7  C4  UNL     1     -63.814  37.832 -46.723  1.00  0.00     0.277 C 
BRANCH   7   8
HETATM    8  C5  UNL     1     -64.997  37.770 -47.673  1.00  0.00     0.014 C 
HETATM    9  C6  UNL     1     -64.989  38.904 -48.633  1.00  0.00     0.006 C 
HETATM   10  C7  UNL     1     -64.122  38.732 -49.840  1.00  0.00     0.000 C 
HETATM   11  C8  UNL     1     -64.523  37.416 -50.508  1.00  0.00     0.000 C 
HETATM   12  C9  UNL     1     -64.122  36.327 -49.520  1.00  0.00     0.000 C 
HETATM   13  C10 UNL     1     -65.078  36.417 -48.351  1.00  0.00     0.006 C 
ENDBRANCH   7   8
ENDBRANCH   4   7
BRANCH   1  14
HETATM   14  N1  UNL     1     -63.929  37.463 -41.614  1.00  0.00    -0.075 N 
ATOM     15  H13 UNL     1     -63.661  36.581 -41.177  1.00  0.00     0.274 HD
ATOM     16  H12 UNL     1     -63.045  37.954 -41.481  1.00  0.00     0.274 HD
ATOM     17  H11 UNL     1     -64.709  37.918 -41.140  1.00  0.00     0.274 HD
ENDBRANCH   1  14
TORSDOF 3
ENDMDL
MODEL 4
REMARK VINA RESULT: -4.316424867      1.929      3.092
REMARK  3 active torsions:
REMARK  status: ('A' for Active; 'I' for Inactive)
REMARK    1  A    between atoms: N1_1  and  C1_5 
REMARK    2  A    between atoms: N2_8  and  C4_9 
REMARK    3  A    between atoms: C4_9  and  C5_10 
ROOT
HETATM    1  C1  UNL     1     -64.334  37.545 -42.404  1.00  0.00     0.186 C 
HETATM    2  C2  UNL     1     -63.653  36.646 -43.421  1.00  0.00     0.063 C 
HETATM    3  C3  UNL     1     -63.403  37.448 -44.704  1.00  0.00     0.274 C 
HETATM    4  N2  UNL     1     -64.639  37.820 -45.332  1.00  0.00     0.088 N 
HETATM    5  C11 UNL     1     -65.467  38.513 -44.409  1.00  0.00     0.274 C 
HETATM    6  C12 UNL     1     -64.798  38.793 -43.087  1.00  0.00     0.063 C 
ENDROOT
BRANCH   4   7
HETATM    7  C4  UNL     1     -65.323  36.750 -45.976  1.00  0.00     0.277 C 
BRANCH   7   8
HETATM    8  C5  UNL     1     -66.033  37.190 -47.244  1.00  0.00     0.014 C 
HETATM    9  C6  UNL     1     -65.117  37.911 -48.164  1.00  0.00     0.006 C 
HETATM   10  C7  UNL     1     -64.264  37.052 -49.043  1.00  0.00     0.000 C 
HETATM   11  C8  UNL     1     -65.195  36.096 -49.792  1.00  0.00     0.000 C 
HETATM   12  C9  UNL     1     -65.779  35.184 -48.718  1.00  0.00     0.000 C 
HETATM   13  C10 UNL     1     -66.739  36.022 -47.902  1.00  0.00     0.006 C 
ENDBRANCH   7   8
ENDBRANCH   4   7
BRANCH   1  14
HETATM   14  N1  UNL     1     -63.399  37.791 -41.342  1.00  0.00    -0.075 N 
ATOM     15  H13 UNL     1     -62.639  37.112 -41.319  1.00  0.00     0.274 HD
ATOM     16  H12 UNL     1     -62.832  38.624 -41.499  1.00  0.00     0.274 HD
ATOM     17  H11 UNL     1     -63.924  37.829 -40.468  1.00  0.00     0.274 HD
ENDBRANCH   1  14
TORSDOF 3
ENDMDL
MODEL 5
REMARK VINA RESULT: -4.308740288      1.773      2.544
REMARK  3 active torsions:
REMARK  status: ('A' for Active; 'I' for Inactive)
REMARK    1  A    between atoms: N1_1  and  C1_5 
REMARK    2  A    between atoms: N2_8  and  C4_9 
REMARK    3  A    between atoms: C4_9  and  C5_10 
ROOT
HETATM    1  C1  UNL     1     -63.443  36.729 -43.731  1.00  0.00     0.186 C 
HETATM    2  C2  UNL     1     -63.026  37.907 -44.594  1.00  0.00     0.063 C 
HETATM    3  C3  UNL     1     -64.283  38.563 -45.179  1.00  0.00     0.274 C 
HETATM    4  N2  UNL     1     -64.953  37.678 -46.089  1.00  0.00     0.088 N 
HETATM    5  C11 UNL     1     -65.232  36.440 -45.450  1.00  0.00     0.274 C 
HETATM    6  C12 UNL     1     -64.886  36.425 -43.982  1.00  0.00     0.063 C 
ENDROOT
BRANCH   4   7
HETATM    7  C4  UNL     1     -64.298  37.506 -47.341  1.00  0.00     0.277 C 
BRANCH   7   8
HETATM    8  C5  UNL     1     -65.262  37.538 -48.514  1.00  0.00     0.014 C 
HETATM    9  C6  UNL     1     -65.314  38.882 -49.145  1.00  0.00     0.006 C 
HETATM   10  C7  UNL     1     -64.234  39.180 -50.136  1.00  0.00     0.000 C 
HETATM   11  C8  UNL     1     -64.242  38.057 -51.175  1.00  0.00     0.000 C 
HETATM   12  C9  UNL     1     -63.810  36.807 -50.415  1.00  0.00     0.000 C 
HETATM   13  C10 UNL     1     -64.953  36.429 -49.499  1.00  0.00     0.006 C 
ENDBRANCH   7   8
ENDBRANCH   4   7
BRANCH   1  14
HETATM   14  N1  UNL     1     -63.162  37.067 -42.364  1.00  0.00    -0.075 N 
ATOM     15  H13 UNL     1     -63.304  36.283 -41.726  1.00  0.00     0.274 HD
ATOM     16  H12 UNL     1     -62.168  37.208 -42.186  1.00  0.00     0.274 HD
ATOM     17  H11 UNL     1     -63.727  37.881 -42.122  1.00  0.00     0.274 HD
ENDBRANCH   1  14
TORSDOF 3
ENDMDL
