MODEL 1
REMARK VINA RESULT: -8.104142215      0.000      0.000
REMARK  9 active torsions:
REMARK  status: ('A' for Active; 'I' for Inactive)
REMARK    1  A    between atoms: O1_2  and  C2_3 
REMARK    2  A    between atoms: C4_5  and  O2_6 
REMARK    3  A    between atoms: C6_9  and  O3_10 
REMARK    4  A    between atoms: C7_12  and  C8_13 
REMARK    5  A    between atoms: C8_13  and  C9_14 
REMARK    6  A    between atoms: C10_15  and  C12_17 
REMARK    7  A    between atoms: C12_17  and  C13_18 
REMARK    8  A    between atoms: C19_25  and  O4_26 
REMARK    9  A    between atoms: C21_29  and  O5_30 
ROOT
HETATM    1  C2  UNL     1       3.684   4.605  38.164  1.00  0.00     0.105 A 
HETATM    2  C3  UNL     1       3.286   4.956  36.920  1.00  0.00     0.077 A 
HETATM    3  C4  UNL     1       2.452   4.120  36.126  1.00  0.00     0.082 A 
HETATM    4  C5  UNL     1       2.060   2.920  36.691  1.00  0.00     0.047 A 
HETATM    5  C6  UNL     1       1.240   2.050  36.001  1.00  0.00     0.087 A 
HETATM    6  C7  UNL     1       0.813   0.832  36.553  1.00  0.00     0.003 A 
HETATM    7  C17 UNL     1       1.227   0.493  37.826  1.00  0.00     0.088 A 
HETATM    8  C18 UNL     1       0.825  -0.740  38.447  1.00  0.00     0.103 C 
HETATM    9  N1  UNL     1       0.516  -1.739  38.950  1.00  0.00    -0.191 NA
HETATM   10  C19 UNL     1       2.046   1.357  38.515  1.00  0.00     0.101 A 
HETATM   11  C20 UNL     1       2.485   2.569  37.994  1.00  0.00     0.051 A 
HETATM   12  C21 UNL     1       3.287   3.396  38.724  1.00  0.00     0.115 A 
ENDROOT
BRANCH   6  13
HETATM   13  C8  UNL     1      -0.039  -0.085  35.780  1.00  0.00     0.070 C 
BRANCH  13  14
HETATM   14  C9  UNL     1      -1.454   0.076  35.836  1.00  0.00    -0.019 C 
HETATM   15  C10 UNL     1      -2.425  -0.653  36.248  1.00  0.00    -0.084 C 
HETATM   16  C11 UNL     1      -2.465  -1.996  36.846  1.00  0.00     0.043 C 
BRANCH  15  17
HETATM   17  C12 UNL     1      -3.836  -0.029  36.112  1.00  0.00     0.060 C 
BRANCH  17  18
HETATM   18  C13 UNL     1      -4.617  -0.357  37.327  1.00  0.00    -0.020 C 
HETATM   19  C14 UNL     1      -5.431   0.531  37.867  1.00  0.00    -0.091 C 
HETATM   20  C15 UNL     1      -6.191   0.156  39.083  1.00  0.00     0.042 C 
HETATM   21  C16 UNL     1      -5.551   1.870  37.234  1.00  0.00     0.042 C 
ENDBRANCH  17  18
ENDBRANCH  15  17
ENDBRANCH  13  14
ENDBRANCH   6  13
BRANCH  10  22
HETATM   22  O4  UNL     1       2.468   1.028  39.807  1.00  0.00    -0.358 OA
ATOM     23  H4  UNL     1       2.370   1.660  40.509  1.00  0.00     0.217 HD
ENDBRANCH  10  22
BRANCH   5  24
HETATM   24  O3  UNL     1       0.813   2.359  34.730  1.00  0.00    -0.359 OA
ATOM     25  H3  UNL     1       1.081   1.824  33.992  1.00  0.00     0.217 HD
ENDBRANCH   5  24
BRANCH  12  26
HETATM   26  O5  UNL     1       3.708   3.057  40.001  1.00  0.00    -0.352 OA
HETATM   27  C22 UNL     1       3.446   3.935  41.115  1.00  0.00     0.210 C 
ENDBRANCH  12  26
BRANCH   3  28
HETATM   28  O2  UNL     1       2.098   4.521  34.911  1.00  0.00    -0.360 OA
ATOM     29  H2  UNL     1       1.591   3.938  34.358  1.00  0.00     0.217 HD
ENDBRANCH   3  28
BRANCH   1  30
HETATM   30  O1  UNL     1       4.496   5.428  38.928  1.00  0.00    -0.353 OA
HETATM   31  C1  UNL     1       4.908   6.664  38.378  1.00  0.00     0.210 C 
ENDBRANCH   1  30
TORSDOF 9
ENDMDL
MODEL 2
REMARK VINA RESULT: -7.820840554      4.447      6.393
REMARK  9 active torsions:
REMARK  status: ('A' for Active; 'I' for Inactive)
REMARK    1  A    between atoms: O1_2  and  C2_3 
REMARK    2  A    between atoms: C4_5  and  O2_6 
REMARK    3  A    between atoms: C6_9  and  O3_10 
REMARK    4  A    between atoms: C7_12  and  C8_13 
REMARK    5  A    between atoms: C8_13  and  C9_14 
REMARK    6  A    between atoms: C10_15  and  C12_17 
REMARK    7  A    between atoms: C12_17  and  C13_18 
REMARK    8  A    between atoms: C19_25  and  O4_26 
REMARK    9  A    between atoms: C21_29  and  O5_30 
ROOT
HETATM    1  C2  UNL     1       3.314   3.261  38.179  1.00  0.00     0.105 A 
HETATM    2  C3  UNL     1       2.488   2.203  38.011  1.00  0.00     0.077 A 
HETATM    3  C4  UNL     1       1.726   2.017  36.823  1.00  0.00     0.082 A 
HETATM    4  C5  UNL     1       1.870   2.977  35.837  1.00  0.00     0.047 A 
HETATM    5  C6  UNL     1       1.181   2.875  34.646  1.00  0.00     0.087 A 
HETATM    6  C7  UNL     1       1.318   3.824  33.622  1.00  0.00     0.003 A 
HETATM    7  C17 UNL     1       2.169   4.895  33.812  1.00  0.00     0.088 A 
HETATM    8  C18 UNL     1       2.352   5.901  32.800  1.00  0.00     0.103 C 
HETATM    9  N1  UNL     1       2.496   6.724  31.996  1.00  0.00    -0.191 NA
HETATM   10  C19 UNL     1       2.856   5.001  34.998  1.00  0.00     0.101 A 
HETATM   11  C20 UNL     1       2.739   4.076  36.031  1.00  0.00     0.051 A 
HETATM   12  C21 UNL     1       3.452   4.221  37.184  1.00  0.00     0.115 A 
ENDROOT
BRANCH   6  13
HETATM   13  C8  UNL     1       0.547   3.699  32.375  1.00  0.00     0.070 C 
BRANCH  13  14
HETATM   14  C9  UNL     1      -0.446   4.677  32.077  1.00  0.00    -0.019 C 
HETATM   15  C10 UNL     1      -0.682   5.442  31.076  1.00  0.00    -0.084 C 
HETATM   16  C11 UNL     1       0.007   5.622  29.789  1.00  0.00     0.043 C 
BRANCH  15  17
HETATM   17  C12 UNL     1      -1.923   6.357  31.210  1.00  0.00     0.060 C 
BRANCH  17  18
HETATM   18  C13 UNL     1      -1.477   7.697  31.657  1.00  0.00    -0.020 C 
HETATM   19  C14 UNL     1      -2.026   8.275  32.709  1.00  0.00    -0.091 C 
HETATM   20  C15 UNL     1      -1.546   9.617  33.119  1.00  0.00     0.042 C 
HETATM   21  C16 UNL     1      -3.105   7.559  33.438  1.00  0.00     0.042 C 
ENDBRANCH  17  18
ENDBRANCH  15  17
ENDBRANCH  13  14
ENDBRANCH   6  13
BRANCH  10  22
HETATM   22  O4  UNL     1       3.724   6.078  35.201  1.00  0.00    -0.358 OA
ATOM     23  H4  UNL     1       3.744   6.513  36.045  1.00  0.00     0.217 HD
ENDBRANCH  10  22
BRANCH   5  24
HETATM   24  O3  UNL     1       0.323   1.820  34.429  1.00  0.00    -0.359 OA
ATOM     25  H3  UNL     1       0.388   1.307  33.633  1.00  0.00     0.217 HD
ENDBRANCH   5  24
BRANCH  12  26
HETATM   26  O5  UNL     1       4.304   5.298  37.380  1.00  0.00    -0.352 OA
HETATM   27  C22 UNL     1       3.992   6.310  38.358  1.00  0.00     0.210 C 
ENDBRANCH  12  26
BRANCH   3  28
HETATM   28  O2  UNL     1       0.931   0.959  36.720  1.00  0.00    -0.360 OA
ATOM     29  H2  UNL     1       1.238   0.190  36.252  1.00  0.00     0.217 HD
ENDBRANCH   3  28
BRANCH   1  30
HETATM   30  O1  UNL     1       4.052   3.430  39.340  1.00  0.00    -0.353 OA
HETATM   31  C1  UNL     1       3.429   3.153  40.579  1.00  0.00     0.210 C 
ENDBRANCH   1  30
TORSDOF 9
ENDMDL
MODEL 3
REMARK VINA RESULT: -7.656069842      2.532      4.311
REMARK  9 active torsions:
REMARK  status: ('A' for Active; 'I' for Inactive)
REMARK    1  A    between atoms: O1_2  and  C2_3 
REMARK    2  A    between atoms: C4_5  and  O2_6 
REMARK    3  A    between atoms: C6_9  and  O3_10 
REMARK    4  A    between atoms: C7_12  and  C8_13 
REMARK    5  A    between atoms: C8_13  and  C9_14 
REMARK    6  A    between atoms: C10_15  and  C12_17 
REMARK    7  A    between atoms: C12_17  and  C13_18 
REMARK    8  A    between atoms: C19_25  and  O4_26 
REMARK    9  A    between atoms: C21_29  and  O5_30 
ROOT
HETATM    1  C2  UNL     1       3.348   4.107  37.789  1.00  0.00     0.105 A 
HETATM    2  C3  UNL     1       2.871   4.407  36.560  1.00  0.00     0.077 A 
HETATM    3  C4  UNL     1       1.973   3.549  35.864  1.00  0.00     0.082 A 
HETATM    4  C5  UNL     1       1.606   2.382  36.510  1.00  0.00     0.047 A 
HETATM    5  C6  UNL     1       0.730   1.494  35.919  1.00  0.00     0.087 A 
HETATM    6  C7  UNL     1       0.326   0.310  36.554  1.00  0.00     0.003 A 
HETATM    7  C17 UNL     1       0.823   0.023  37.811  1.00  0.00     0.088 A 
HETATM    8  C18 UNL     1       0.448  -1.174  38.515  1.00  0.00     0.103 C 
HETATM    9  N1  UNL     1       0.162  -2.144  39.084  1.00  0.00    -0.191 NA
HETATM   10  C19 UNL     1       1.698   0.905  38.402  1.00  0.00     0.101 A 
HETATM   11  C20 UNL     1       2.115   2.085  37.796  1.00  0.00     0.051 A 
HETATM   12  C21 UNL     1       2.975   2.932  38.430  1.00  0.00     0.115 A 
ENDROOT
BRANCH   6  13
HETATM   13  C8  UNL     1      -0.588  -0.628  35.885  1.00  0.00     0.070 C 
BRANCH  13  14
HETATM   14  C9  UNL     1      -0.039  -1.691  35.110  1.00  0.00    -0.019 C 
HETATM   15  C10 UNL     1      -0.536  -2.689  34.477  1.00  0.00    -0.084 C 
HETATM   16  C11 UNL     1      -1.920  -3.152  34.294  1.00  0.00     0.043 C 
BRANCH  15  17
HETATM   17  C12 UNL     1       0.487  -3.596  33.749  1.00  0.00     0.060 C 
BRANCH  17  18
HETATM   18  C13 UNL     1       1.091  -2.828  32.636  1.00  0.00    -0.020 C 
HETATM   19  C14 UNL     1       1.682  -3.447  31.632  1.00  0.00    -0.091 C 
HETATM   20  C15 UNL     1       2.273  -2.636  30.540  1.00  0.00     0.042 C 
HETATM   21  C16 UNL     1       1.733  -4.933  31.636  1.00  0.00     0.042 C 
ENDBRANCH  17  18
ENDBRANCH  15  17
ENDBRANCH  13  14
ENDBRANCH   6  13
BRANCH  10  22
HETATM   22  O4  UNL     1       2.203   0.628  39.676  1.00  0.00    -0.358 OA
ATOM     23  H4  UNL     1       3.092   0.306  39.769  1.00  0.00     0.217 HD
ENDBRANCH  10  22
BRANCH   5  24
HETATM   24  O3  UNL     1       0.221   1.752  34.666  1.00  0.00    -0.359 OA
ATOM     25  H3  UNL     1       0.546   2.486  34.159  1.00  0.00     0.217 HD
ENDBRANCH   5  24
BRANCH  12  26
HETATM   26  O5  UNL     1       3.479   2.644  39.690  1.00  0.00    -0.352 OA
HETATM   27  C22 UNL     1       3.549   3.670  40.701  1.00  0.00     0.210 C 
ENDBRANCH  12  26
BRANCH   3  28
HETATM   28  O2  UNL     1       1.542   3.899  34.658  1.00  0.00    -0.360 OA
ATOM     29  H2  UNL     1       1.511   3.248  33.967  1.00  0.00     0.217 HD
ENDBRANCH   3  28
BRANCH   1  30
HETATM   30  O1  UNL     1       4.221   4.951  38.456  1.00  0.00    -0.353 OA
HETATM   31  C1  UNL     1       4.731   6.075  37.765  1.00  0.00     0.210 C 
ENDBRANCH   1  30
TORSDOF 9
ENDMDL
MODEL 4
REMARK VINA RESULT: -7.604757587      0.940      1.378
REMARK  9 active torsions:
REMARK  status: ('A' for Active; 'I' for Inactive)
REMARK    1  A    between atoms: O1_2  and  C2_3 
REMARK    2  A    between atoms: C4_5  and  O2_6 
REMARK    3  A    between atoms: C6_9  and  O3_10 
REMARK    4  A    between atoms: C7_12  and  C8_13 
REMARK    5  A    between atoms: C8_13  and  C9_14 
REMARK    6  A    between atoms: C10_15  and  C12_17 
REMARK    7  A    between atoms: C12_17  and  C13_18 
REMARK    8  A    between atoms: C19_25  and  O4_26 
REMARK    9  A    between atoms: C21_29  and  O5_30 
ROOT
HETATM    1  C2  UNL     1       3.792   4.839  38.027  1.00  0.00     0.105 A 
HETATM    2  C3  UNL     1       3.339   5.183  36.800  1.00  0.00     0.077 A 
HETATM    3  C4  UNL     1       2.483   4.335  36.042  1.00  0.00     0.082 A 
HETATM    4  C5  UNL     1       2.130   3.131  36.625  1.00  0.00     0.047 A 
HETATM    5  C6  UNL     1       1.293   2.249  35.972  1.00  0.00     0.087 A 
HETATM    6  C7  UNL     1       0.904   1.028  36.543  1.00  0.00     0.003 A 
HETATM    7  C17 UNL     1       1.375   0.697  37.799  1.00  0.00     0.088 A 
HETATM    8  C18 UNL     1       1.014  -0.540  38.438  1.00  0.00     0.103 C 
HETATM    9  N1  UNL     1       0.738  -1.541  38.955  1.00  0.00    -0.191 NA
HETATM   10  C19 UNL     1       2.210   1.572  38.452  1.00  0.00     0.101 A 
HETATM   11  C20 UNL     1       2.612   2.789  37.910  1.00  0.00     0.051 A 
HETATM   12  C21 UNL     1       3.433   3.627  38.605  1.00  0.00     0.115 A 
ENDROOT
BRANCH   6  13
HETATM   13  C8  UNL     1       0.033   0.098  35.808  1.00  0.00     0.070 C 
BRANCH  13  14
HETATM   14  C9  UNL     1      -1.372   0.131  36.051  1.00  0.00    -0.019 C 
HETATM   15  C10 UNL     1      -2.232  -0.726  36.462  1.00  0.00    -0.084 C 
HETATM   16  C11 UNL     1      -2.106  -2.137  36.858  1.00  0.00     0.043 C 
BRANCH  15  17
HETATM   17  C12 UNL     1      -3.686  -0.210  36.583  1.00  0.00     0.060 C 
BRANCH  17  18
HETATM   18  C13 UNL     1      -4.483  -0.778  35.471  1.00  0.00    -0.020 C 
HETATM   19  C14 UNL     1      -5.555  -1.509  35.713  1.00  0.00    -0.091 C 
HETATM   20  C15 UNL     1      -6.320  -2.055  34.566  1.00  0.00     0.042 C 
HETATM   21  C16 UNL     1      -5.950  -1.756  37.123  1.00  0.00     0.042 C 
ENDBRANCH  17  18
ENDBRANCH  15  17
ENDBRANCH  13  14
ENDBRANCH   6  13
BRANCH  10  22
HETATM   22  O4  UNL     1       2.690   1.252  39.726  1.00  0.00    -0.358 OA
ATOM     23  H4  UNL     1       2.795   0.340  39.972  1.00  0.00     0.217 HD
ENDBRANCH  10  22
BRANCH   5  24
HETATM   24  O3  UNL     1       0.810   2.550  34.718  1.00  0.00    -0.359 OA
ATOM     25  H3  UNL     1       0.802   3.448  34.411  1.00  0.00     0.217 HD
ENDBRANCH   5  24
BRANCH  12  26
HETATM   26  O5  UNL     1       3.911   3.296  39.864  1.00  0.00    -0.352 OA
HETATM   27  C22 UNL     1       3.454   4.010  41.031  1.00  0.00     0.210 C 
ENDBRANCH  12  26
BRANCH   3  28
HETATM   28  O2  UNL     1       2.074   4.728  34.842  1.00  0.00    -0.360 OA
ATOM     29  H2  UNL     1       2.596   4.511  34.078  1.00  0.00     0.217 HD
ENDBRANCH   3  28
BRANCH   1  30
HETATM   30  O1  UNL     1       4.625   5.674  38.755  1.00  0.00    -0.353 OA
HETATM   31  C1  UNL     1       5.266   6.739  38.081  1.00  0.00     0.210 C 
ENDBRANCH   1  30
TORSDOF 9
ENDMDL
MODEL 5
REMARK VINA RESULT: -7.575203189      0.847      1.124
REMARK  9 active torsions:
REMARK  status: ('A' for Active; 'I' for Inactive)
REMARK    1  A    between atoms: O1_2  and  C2_3 
REMARK    2  A    between atoms: C4_5  and  O2_6 
REMARK    3  A    between atoms: C6_9  and  O3_10 
REMARK    4  A    between atoms: C7_12  and  C8_13 
REMARK    5  A    between atoms: C8_13  and  C9_14 
REMARK    6  A    between atoms: C10_15  and  C12_17 
REMARK    7  A    between atoms: C12_17  and  C13_18 
REMARK    8  A    between atoms: C19_25  and  O4_26 
REMARK    9  A    between atoms: C21_29  and  O5_30 
ROOT
HETATM    1  C2  UNL     1       3.142   4.179  38.135  1.00  0.00     0.105 A 
HETATM    2  C3  UNL     1       2.725   4.487  36.886  1.00  0.00     0.077 A 
HETATM    3  C4  UNL     1       1.918   3.602  36.116  1.00  0.00     0.082 A 
HETATM    4  C5  UNL     1       1.574   2.401  36.711  1.00  0.00     0.047 A 
HETATM    5  C6  UNL     1       0.783   1.486  36.047  1.00  0.00     0.087 A 
HETATM    6  C7  UNL     1       0.405   0.266  36.628  1.00  0.00     0.003 A 
HETATM    7  C17 UNL     1       0.839  -0.028  37.907  1.00  0.00     0.088 A 
HETATM    8  C18 UNL     1       0.486  -1.261  38.558  1.00  0.00     0.103 C 
HETATM    9  N1  UNL     1       0.217  -2.259  39.086  1.00  0.00    -0.191 NA
HETATM   10  C19 UNL     1       1.628   0.881  38.571  1.00  0.00     0.101 A 
HETATM   11  C20 UNL     1       2.019   2.096  38.019  1.00  0.00     0.051 A 
HETATM   12  C21 UNL     1       2.794   2.969  38.725  1.00  0.00     0.115 A 
ENDROOT
BRANCH   6  13
HETATM   13  C8  UNL     1      -0.416  -0.699  35.882  1.00  0.00     0.070 C 
BRANCH  13  14
HETATM   14  C9  UNL     1      -1.814  -0.770  36.153  1.00  0.00    -0.019 C 
HETATM   15  C10 UNL     1      -2.814  -1.326  35.574  1.00  0.00    -0.084 C 
HETATM   16  C11 UNL     1      -2.919  -2.142  34.354  1.00  0.00     0.043 C 
BRANCH  15  17
HETATM   17  C12 UNL     1      -4.184  -1.129  36.268  1.00  0.00     0.060 C 
BRANCH  17  18
HETATM   18  C13 UNL     1      -4.570   0.297  36.154  1.00  0.00    -0.020 C 
HETATM   19  C14 UNL     1      -5.178   0.912  37.151  1.00  0.00    -0.091 C 
HETATM   20  C15 UNL     1      -5.545   2.340  36.990  1.00  0.00     0.042 C 
HETATM   21  C16 UNL     1      -5.472   0.150  38.392  1.00  0.00     0.042 C 
ENDBRANCH  17  18
ENDBRANCH  15  17
ENDBRANCH  13  14
ENDBRANCH   6  13
BRANCH  10  22
HETATM   22  O4  UNL     1       2.070   0.598  39.867  1.00  0.00    -0.358 OA
ATOM     23  H4  UNL     1       2.709   1.166  40.280  1.00  0.00     0.217 HD
ENDBRANCH  10  22
BRANCH   5  24
HETATM   24  O3  UNL     1       0.339   1.749  34.771  1.00  0.00    -0.359 OA
ATOM     25  H3  UNL     1      -0.209   1.121  34.316  1.00  0.00     0.217 HD
ENDBRANCH   5  24
BRANCH  12  26
HETATM   26  O5  UNL     1       3.234   2.675  40.006  1.00  0.00    -0.352 OA
HETATM   27  C22 UNL     1       3.616   3.733  40.910  1.00  0.00     0.210 C 
ENDBRANCH  12  26
BRANCH   3  28
HETATM   28  O2  UNL     1       1.543   3.961  34.895  1.00  0.00    -0.360 OA
ATOM     29  H2  UNL     1       0.881   3.451  34.442  1.00  0.00     0.217 HD
ENDBRANCH   3  28
BRANCH   1  30
HETATM   30  O1  UNL     1       3.928   5.049  38.875  1.00  0.00    -0.353 OA
HETATM   31  C1  UNL     1       4.278   6.292  38.301  1.00  0.00     0.210 C 
ENDBRANCH   1  30
TORSDOF 9
ENDMDL
