MODEL 1
REMARK VINA RESULT: -7.704458230      0.000      0.000
REMARK  12 active torsions:
REMARK  status: ('A' for Active; 'I' for Inactive)
REMARK    1  A    between atoms: C2_2  and  C4_4 
REMARK    2  A    between atoms: C4_4  and  C5_5 
REMARK    3  A    between atoms: C4_4  and  N2_11 
REMARK    4  A    between atoms: C5_5  and  N1_6 
REMARK    5  A    between atoms: N1_6  and  C6_8 
REMARK    6  A    between atoms: C6_8  and  C7_9 
REMARK       I    between atoms: N2_11  and  C8_13 
REMARK    7  A    between atoms: C8_13  and  C9_15 
REMARK    8  A    between atoms: C9_15  and  C10_16 
REMARK    9  A    between atoms: C9_15  and  N3_23 
REMARK   10  A    between atoms: C10_16  and  C11_17 
REMARK       I    between atoms: N3_23  and  C17_25 
REMARK   11  A    between atoms: C17_25  and  C18_27 
REMARK   12  A    between atoms: C19_28  and  C20_29 
ROOT
HETATM    1  C9  UNL     1      17.903  17.836  27.362  1.00  0.00     0.177 C 
ENDROOT
BRANCH   1   2
HETATM    2  C8  UNL     1      16.892  18.847  27.723  1.00  0.00     0.240 C 
HETATM    3  N2  UNL     1      15.901  19.252  26.802  1.00  0.00    -0.353 N 
ATOM      4  H2  UNL     1      15.914  18.820  25.879  1.00  0.00     0.163 HD
HETATM    5  O1  UNL     1      16.933  19.335  28.869  1.00  0.00    -0.271 OA
BRANCH   3   6
HETATM    6  C4  UNL     1      14.871  20.231  27.064  1.00  0.00     0.105 C 
BRANCH   6   7
HETATM    7  C2  UNL     1      14.698  21.081  25.838  1.00  0.00     0.002 C 
HETATM    8  C1  UNL     1      15.982  20.959  25.026  1.00  0.00     0.011 C 
HETATM    9  C3  UNL     1      14.502  22.542  26.093  1.00  0.00     0.011 C 
ENDBRANCH   6   7
BRANCH   6  10
HETATM   10  C5  UNL     1      13.630  19.644  27.626  1.00  0.00     0.139 C 
BRANCH  10  11
HETATM   11  N1  UNL     1      12.822  20.478  28.438  1.00  0.00    -0.417 N 
ATOM     12  H1  UNL     1      13.226  21.105  29.133  1.00  0.00     0.153 HD
BRANCH  11  13
HETATM   13  C6  UNL     1      11.410  20.393  28.231  1.00  0.00     0.145 C 
BRANCH  13  14
HETATM   14  C7  UNL     1      11.002  21.619  27.404  1.00  0.00     0.241 C 
HETATM   15  F1  UNL     1      11.297  21.458  26.077  1.00  0.00    -0.254 F 
ENDBRANCH  13  14
ENDBRANCH  11  13
ENDBRANCH  10  11
ENDBRANCH   6  10
ENDBRANCH   3   6
ENDBRANCH   1   2
BRANCH   1  16
HETATM   16  C10 UNL     1      18.475  18.042  25.972  1.00  0.00     0.039 C 
BRANCH  16  17
HETATM   17  C11 UNL     1      19.804  18.808  25.978  1.00  0.00    -0.012 C 
HETATM   18  C12 UNL     1      19.637  20.053  25.204  1.00  0.00     0.005 C 
HETATM   19  C13 UNL     1      20.623  20.375  24.139  1.00  0.00     0.000 C 
HETATM   20  C14 UNL     1      21.325  19.209  23.528  1.00  0.00     0.000 C 
HETATM   21  C15 UNL     1      21.965  18.452  24.707  1.00  0.00     0.000 C 
HETATM   22  C16 UNL     1      20.823  17.840  25.449  1.00  0.00     0.005 C 
ENDBRANCH  16  17
ENDBRANCH   1  16
BRANCH   1  23
HETATM   23  N3  UNL     1      19.021  18.073  28.310  1.00  0.00    -0.344 N 
HETATM   24  C17 UNL     1      19.604  17.002  29.023  1.00  0.00     0.241 C 
HETATM   25  O2  UNL     1      19.161  15.847  28.840  1.00  0.00    -0.269 OA
ATOM     26  H3  UNL     1      19.373  19.020  28.447  1.00  0.00     0.163 HD
BRANCH  24  27
HETATM   27  C18 UNL     1      20.691  17.208  29.952  1.00  0.00     0.071 C 
HETATM   28  C19 UNL     1      21.699  17.980  29.606  1.00  0.00    -0.006 C 
BRANCH  28  29
HETATM   29  C20 UNL     1      22.845  18.214  30.551  1.00  0.00     0.142 C 
HETATM   30 CL1  UNL     1      23.926  19.470  29.911  1.00  0.00    -0.126 Cl
ENDBRANCH  28  29
ENDBRANCH  24  27
ENDBRANCH   1  23
TORSDOF 12
ENDMDL
MODEL 2
REMARK VINA RESULT: -7.698878596      3.882      6.172
REMARK  12 active torsions:
REMARK  status: ('A' for Active; 'I' for Inactive)
REMARK    1  A    between atoms: C2_2  and  C4_4 
REMARK    2  A    between atoms: C4_4  and  C5_5 
REMARK    3  A    between atoms: C4_4  and  N2_11 
REMARK    4  A    between atoms: C5_5  and  N1_6 
REMARK    5  A    between atoms: N1_6  and  C6_8 
REMARK    6  A    between atoms: C6_8  and  C7_9 
REMARK       I    between atoms: N2_11  and  C8_13 
REMARK    7  A    between atoms: C8_13  and  C9_15 
REMARK    8  A    between atoms: C9_15  and  C10_16 
REMARK    9  A    between atoms: C9_15  and  N3_23 
REMARK   10  A    between atoms: C10_16  and  C11_17 
REMARK       I    between atoms: N3_23  and  C17_25 
REMARK   11  A    between atoms: C17_25  and  C18_27 
REMARK   12  A    between atoms: C19_28  and  C20_29 
ROOT
HETATM    1  C9  UNL     1      21.273  19.498  25.581  1.00  0.00     0.177 C 
ENDROOT
BRANCH   1   2
HETATM    2  C8  UNL     1      20.115  18.627  25.856  1.00  0.00     0.240 C 
HETATM    3  N2  UNL     1      19.448  18.666  27.099  1.00  0.00    -0.353 N 
ATOM      4  H2  UNL     1      19.799  19.319  27.800  1.00  0.00     0.163 HD
HETATM    5  O1  UNL     1      19.736  17.853  24.955  1.00  0.00    -0.271 OA
BRANCH   3   6
HETATM    6  C4  UNL     1      18.307  17.856  27.459  1.00  0.00     0.105 C 
BRANCH   6   7
HETATM    7  C2  UNL     1      18.766  16.773  28.392  1.00  0.00     0.002 C 
HETATM    8  C1  UNL     1      19.974  17.317  29.147  1.00  0.00     0.011 C 
HETATM    9  C3  UNL     1      19.221  15.509  27.733  1.00  0.00     0.011 C 
ENDBRANCH   6   7
BRANCH   6  10
HETATM   10  C5  UNL     1      17.140  18.650  27.914  1.00  0.00     0.139 C 
BRANCH  10  11
HETATM   11  N1  UNL     1      15.868  18.028  27.871  1.00  0.00    -0.417 N 
ATOM     12  H1  UNL     1      15.750  17.034  28.069  1.00  0.00     0.153 HD
BRANCH  11  13
HETATM   13  C6  UNL     1      14.760  18.866  27.536  1.00  0.00     0.145 C 
BRANCH  13  14
HETATM   14  C7  UNL     1      15.321  20.063  26.757  1.00  0.00     0.241 C 
HETATM   15  F1  UNL     1      15.372  19.815  25.412  1.00  0.00    -0.254 F 
ENDBRANCH  13  14
ENDBRANCH  11  13
ENDBRANCH  10  11
ENDBRANCH   6  10
ENDBRANCH   3   6
ENDBRANCH   1   2
BRANCH   1  16
HETATM   16  C10 UNL     1      22.450  19.223  26.499  1.00  0.00     0.039 C 
BRANCH  16  17
HETATM   17  C11 UNL     1      22.715  20.362  27.491  1.00  0.00    -0.012 C 
HETATM   18  C12 UNL     1      22.474  21.649  26.810  1.00  0.00     0.005 C 
HETATM   19  C13 UNL     1      23.516  22.706  26.880  1.00  0.00     0.000 C 
HETATM   20  C14 UNL     1      24.914  22.228  27.091  1.00  0.00     0.000 C 
HETATM   21  C15 UNL     1      24.866  21.370  28.369  1.00  0.00     0.000 C 
HETATM   22  C16 UNL     1      24.115  20.138  27.988  1.00  0.00     0.005 C 
ENDBRANCH  16  17
ENDBRANCH   1  16
BRANCH   1  23
HETATM   23  N3  UNL     1      21.713  19.113  24.216  1.00  0.00    -0.344 N 
HETATM   24  C17 UNL     1      21.820  20.079  23.191  1.00  0.00     0.241 C 
HETATM   25  O2  UNL     1      21.539  21.268  23.456  1.00  0.00    -0.269 OA
ATOM     26  H3  UNL     1      21.940  18.138  24.016  1.00  0.00     0.163 HD
BRANCH  24  27
HETATM   27  C18 UNL     1      22.243  19.728  21.855  1.00  0.00     0.071 C 
HETATM   28  C19 UNL     1      21.484  18.939  21.124  1.00  0.00    -0.006 C 
BRANCH  28  29
HETATM   29  C20 UNL     1      21.898  18.555  19.730  1.00  0.00     0.142 C 
HETATM   30 CL1  UNL     1      20.473  18.426  18.678  1.00  0.00    -0.126 Cl
ENDBRANCH  28  29
ENDBRANCH  24  27
ENDBRANCH   1  23
TORSDOF 12
ENDMDL
MODEL 3
REMARK VINA RESULT: -7.672006247      4.225      7.823
REMARK  12 active torsions:
REMARK  status: ('A' for Active; 'I' for Inactive)
REMARK    1  A    between atoms: C2_2  and  C4_4 
REMARK    2  A    between atoms: C4_4  and  C5_5 
REMARK    3  A    between atoms: C4_4  and  N2_11 
REMARK    4  A    between atoms: C5_5  and  N1_6 
REMARK    5  A    between atoms: N1_6  and  C6_8 
REMARK    6  A    between atoms: C6_8  and  C7_9 
REMARK       I    between atoms: N2_11  and  C8_13 
REMARK    7  A    between atoms: C8_13  and  C9_15 
REMARK    8  A    between atoms: C9_15  and  C10_16 
REMARK    9  A    between atoms: C9_15  and  N3_23 
REMARK   10  A    between atoms: C10_16  and  C11_17 
REMARK       I    between atoms: N3_23  and  C17_25 
REMARK   11  A    between atoms: C17_25  and  C18_27 
REMARK   12  A    between atoms: C19_28  and  C20_29 
ROOT
HETATM    1  C9  UNL     1      19.335  19.310  25.973  1.00  0.00     0.177 C 
ENDROOT
BRANCH   1   2
HETATM    2  C8  UNL     1      20.248  19.167  24.823  1.00  0.00     0.240 C 
HETATM    3  N2  UNL     1      20.848  20.293  24.221  1.00  0.00    -0.353 N 
ATOM      4  H2  UNL     1      20.624  21.209  24.610  1.00  0.00     0.163 HD
HETATM    5  O1  UNL     1      20.480  18.018  24.398  1.00  0.00    -0.271 OA
BRANCH   3   6
HETATM    6  C4  UNL     1      21.754  20.253  23.096  1.00  0.00     0.105 C 
BRANCH   6   7
HETATM    7  C2  UNL     1      20.945  20.191  21.833  1.00  0.00     0.002 C 
HETATM    8  C1  UNL     1      21.480  19.019  21.017  1.00  0.00     0.011 C 
HETATM    9  C3  UNL     1      21.044  21.394  20.949  1.00  0.00     0.011 C 
ENDBRANCH   6   7
BRANCH   6  10
HETATM   10  C5  UNL     1      22.800  21.303  23.145  1.00  0.00     0.139 C 
BRANCH  10  11
HETATM   11  N1  UNL     1      22.613  22.371  24.057  1.00  0.00    -0.417 N 
ATOM     12  H1  UNL     1      21.735  22.888  24.106  1.00  0.00     0.153 HD
BRANCH  11  13
HETATM   13  C6  UNL     1      23.719  22.686  24.905  1.00  0.00     0.145 C 
BRANCH  13  14
HETATM   14  C7  UNL     1      23.517  21.913  26.215  1.00  0.00     0.241 C 
HETATM   15  F1  UNL     1      22.223  21.990  26.655  1.00  0.00    -0.254 F 
ENDBRANCH  13  14
ENDBRANCH  11  13
ENDBRANCH  10  11
ENDBRANCH   6  10
ENDBRANCH   3   6
ENDBRANCH   1   2
BRANCH   1  16
HETATM   16  C10 UNL     1      20.063  19.590  27.274  1.00  0.00     0.039 C 
BRANCH  16  17
HETATM   17  C11 UNL     1      20.846  18.378  27.795  1.00  0.00    -0.012 C 
HETATM   18  C12 UNL     1      20.151  17.838  28.980  1.00  0.00     0.005 C 
HETATM   19  C13 UNL     1      20.929  17.596  30.223  1.00  0.00     0.000 C 
HETATM   20  C14 UNL     1      22.153  18.432  30.396  1.00  0.00     0.000 C 
HETATM   21  C15 UNL     1      22.993  18.199  29.127  1.00  0.00     0.000 C 
HETATM   22  C16 UNL     1      22.243  18.877  28.028  1.00  0.00     0.005 C 
ENDBRANCH  16  17
ENDBRANCH   1  16
BRANCH   1  23
HETATM   23  N3  UNL     1      18.544  20.529  25.670  1.00  0.00    -0.344 N 
HETATM   24  C17 UNL     1      17.135  20.521  25.770  1.00  0.00     0.241 C 
HETATM   25  O2  UNL     1      16.564  19.465  26.122  1.00  0.00    -0.269 OA
ATOM     26  H3  UNL     1      19.023  21.384  25.386  1.00  0.00     0.163 HD
BRANCH  24  27
HETATM   27  C18 UNL     1      16.343  21.694  25.478  1.00  0.00     0.071 C 
HETATM   28  C19 UNL     1      15.062  21.558  25.209  1.00  0.00    -0.006 C 
BRANCH  28  29
HETATM   29  C20 UNL     1      14.213  22.761  24.901  1.00  0.00     0.142 C 
HETATM   30 CL1  UNL     1      12.492  22.362  25.081  1.00  0.00    -0.126 Cl
ENDBRANCH  28  29
ENDBRANCH  24  27
ENDBRANCH   1  23
TORSDOF 12
ENDMDL
MODEL 4
REMARK VINA RESULT: -7.641426754      4.043      7.526
REMARK  12 active torsions:
REMARK  status: ('A' for Active; 'I' for Inactive)
REMARK    1  A    between atoms: C2_2  and  C4_4 
REMARK    2  A    between atoms: C4_4  and  C5_5 
REMARK    3  A    between atoms: C4_4  and  N2_11 
REMARK    4  A    between atoms: C5_5  and  N1_6 
REMARK    5  A    between atoms: N1_6  and  C6_8 
REMARK    6  A    between atoms: C6_8  and  C7_9 
REMARK       I    between atoms: N2_11  and  C8_13 
REMARK    7  A    between atoms: C8_13  and  C9_15 
REMARK    8  A    between atoms: C9_15  and  C10_16 
REMARK    9  A    between atoms: C9_15  and  N3_23 
REMARK   10  A    between atoms: C10_16  and  C11_17 
REMARK       I    between atoms: N3_23  and  C17_25 
REMARK   11  A    between atoms: C17_25  and  C18_27 
REMARK   12  A    between atoms: C19_28  and  C20_29 
ROOT
HETATM    1  C9  UNL     1      21.255  17.917  25.662  1.00  0.00     0.177 C 
ENDROOT
BRANCH   1   2
HETATM    2  C8  UNL     1      22.110  18.759  24.804  1.00  0.00     0.240 C 
HETATM    3  N2  UNL     1      21.592  19.402  23.659  1.00  0.00    -0.353 N 
ATOM      4  H2  UNL     1      20.605  19.260  23.448  1.00  0.00     0.163 HD
HETATM    5  O1  UNL     1      23.308  18.891  25.121  1.00  0.00    -0.271 OA
BRANCH   3   6
HETATM    6  C4  UNL     1      22.349  20.245  22.763  1.00  0.00     0.105 C 
BRANCH   6   7
HETATM    7  C2  UNL     1      22.017  19.859  21.350  1.00  0.00     0.002 C 
HETATM    8  C1  UNL     1      20.770  20.642  20.955  1.00  0.00     0.011 C 
HETATM    9  C3  UNL     1      21.687  18.415  21.141  1.00  0.00     0.011 C 
ENDBRANCH   6   7
BRANCH   6  10
HETATM   10  C5  UNL     1      22.242  21.689  23.082  1.00  0.00     0.139 C 
BRANCH  10  11
HETATM   11  N1  UNL     1      23.428  22.365  23.462  1.00  0.00    -0.417 N 
ATOM     12  H1  UNL     1      24.000  22.868  22.784  1.00  0.00     0.153 HD
BRANCH  11  13
HETATM   13  C6  UNL     1      23.781  22.303  24.846  1.00  0.00     0.145 C 
BRANCH  13  14
HETATM   14  C7  UNL     1      22.527  22.679  25.647  1.00  0.00     0.241 C 
HETATM   15  F1  UNL     1      22.148  21.676  26.497  1.00  0.00    -0.254 F 
ENDBRANCH  13  14
ENDBRANCH  11  13
ENDBRANCH  10  11
ENDBRANCH   6  10
ENDBRANCH   3   6
ENDBRANCH   1   2
BRANCH   1  16
HETATM   16  C10 UNL     1      21.934  17.508  26.955  1.00  0.00     0.039 C 
BRANCH  16  17
HETATM   17  C11 UNL     1      21.621  18.454  28.121  1.00  0.00    -0.012 C 
HETATM   18  C12 UNL     1      22.855  19.170  28.497  1.00  0.00     0.005 C 
HETATM   19  C13 UNL     1      23.272  19.188  29.923  1.00  0.00     0.000 C 
HETATM   20  C14 UNL     1      22.796  18.044  30.754  1.00  0.00     0.000 C 
HETATM   21  C15 UNL     1      21.265  18.027  30.592  1.00  0.00     0.000 C 
HETATM   22  C16 UNL     1      21.020  17.583  29.189  1.00  0.00     0.005 C 
ENDBRANCH  16  17
ENDBRANCH   1  16
BRANCH   1  23
HETATM   23  N3  UNL     1      20.128  18.804  26.048  1.00  0.00    -0.344 N 
HETATM   24  C17 UNL     1      18.799  18.324  26.053  1.00  0.00     0.241 C 
HETATM   25  O2  UNL     1      18.589  17.135  25.728  1.00  0.00    -0.269 OA
ATOM     26  H3  UNL     1      20.315  19.771  26.313  1.00  0.00     0.163 HD
BRANCH  24  27
HETATM   27  C18 UNL     1      17.686  19.169  26.423  1.00  0.00     0.071 C 
HETATM   28  C19 UNL     1      16.829  18.748  27.329  1.00  0.00    -0.006 C 
BRANCH  28  29
HETATM   29  C20 UNL     1      15.661  19.605  27.733  1.00  0.00     0.142 C 
HETATM   30 CL1  UNL     1      14.167  18.644  27.740  1.00  0.00    -0.126 Cl
ENDBRANCH  28  29
ENDBRANCH  24  27
ENDBRANCH   1  23
TORSDOF 12
ENDMDL
MODEL 5
REMARK VINA RESULT: -7.561566336      4.423      8.060
REMARK  12 active torsions:
REMARK  status: ('A' for Active; 'I' for Inactive)
REMARK    1  A    between atoms: C2_2  and  C4_4 
REMARK    2  A    between atoms: C4_4  and  C5_5 
REMARK    3  A    between atoms: C4_4  and  N2_11 
REMARK    4  A    between atoms: C5_5  and  N1_6 
REMARK    5  A    between atoms: N1_6  and  C6_8 
REMARK    6  A    between atoms: C6_8  and  C7_9 
REMARK       I    between atoms: N2_11  and  C8_13 
REMARK    7  A    between atoms: C8_13  and  C9_15 
REMARK    8  A    between atoms: C9_15  and  C10_16 
REMARK    9  A    between atoms: C9_15  and  N3_23 
REMARK   10  A    between atoms: C10_16  and  C11_17 
REMARK       I    between atoms: N3_23  and  C17_25 
REMARK   11  A    between atoms: C17_25  and  C18_27 
REMARK   12  A    between atoms: C19_28  and  C20_29 
ROOT
HETATM    1  C9  UNL     1      19.293  19.428  25.936  1.00  0.00     0.177 C 
ENDROOT
BRANCH   1   2
HETATM    2  C8  UNL     1      20.154  19.320  24.743  1.00  0.00     0.240 C 
HETATM    3  N2  UNL     1      20.530  20.464  24.006  1.00  0.00    -0.353 N 
ATOM      4  H2  UNL     1      20.182  21.366  24.330  1.00  0.00     0.163 HD
HETATM    5  O1  UNL     1      20.545  18.186  24.403  1.00  0.00    -0.271 OA
BRANCH   3   6
HETATM    6  C4  UNL     1      21.369  20.458  22.830  1.00  0.00     0.105 C 
BRANCH   6   7
HETATM    7  C2  UNL     1      22.804  20.390  23.267  1.00  0.00     0.002 C 
HETATM    8  C1  UNL     1      23.330  21.821  23.294  1.00  0.00     0.011 C 
HETATM    9  C3  UNL     1      23.716  19.627  22.359  1.00  0.00     0.011 C 
ENDBRANCH   6   7
BRANCH   6  10
HETATM   10  C5  UNL     1      20.954  19.460  21.815  1.00  0.00     0.139 C 
BRANCH  10  11
HETATM   11  N1  UNL     1      20.712  19.927  20.499  1.00  0.00    -0.417 N 
ATOM     12  H1  UNL     1      20.534  20.912  20.303  1.00  0.00     0.153 HD
BRANCH  11  13
HETATM   13  C6  UNL     1      20.731  18.945  19.461  1.00  0.00     0.145 C 
BRANCH  13  14
HETATM   14  C7  UNL     1      21.467  17.718  20.016  1.00  0.00     0.241 C 
HETATM   15  F1  UNL     1      20.720  16.578  19.888  1.00  0.00    -0.254 F 
ENDBRANCH  13  14
ENDBRANCH  11  13
ENDBRANCH  10  11
ENDBRANCH   6  10
ENDBRANCH   3   6
ENDBRANCH   1   2
BRANCH   1  16
HETATM   16  C10 UNL     1      20.076  19.696  27.207  1.00  0.00     0.039 C 
BRANCH  16  17
HETATM   17  C11 UNL     1      20.853  18.470  27.703  1.00  0.00    -0.012 C 
HETATM   18  C12 UNL     1      20.073  17.813  28.769  1.00  0.00     0.005 C 
HETATM   19  C13 UNL     1      20.741  17.494  30.057  1.00  0.00     0.000 C 
HETATM   20  C14 UNL     1      21.911  18.349  30.412  1.00  0.00     0.000 C 
HETATM   21  C15 UNL     1      22.873  18.248  29.214  1.00  0.00     0.000 C 
HETATM   22  C16 UNL     1      22.203  18.991  28.107  1.00  0.00     0.005 C 
ENDBRANCH  16  17
ENDBRANCH   1  16
BRANCH   1  23
HETATM   23  N3  UNL     1      18.470  20.639  25.692  1.00  0.00    -0.344 N 
HETATM   24  C17 UNL     1      17.060  20.582  25.761  1.00  0.00     0.241 C 
HETATM   25  O2  UNL     1      16.516  19.489  26.032  1.00  0.00    -0.269 OA
ATOM     26  H3  UNL     1      18.928  21.525  25.473  1.00  0.00     0.163 HD
BRANCH  24  27
HETATM   27  C18 UNL     1      16.238  21.747  25.525  1.00  0.00     0.071 C 
HETATM   28  C19 UNL     1      14.989  21.589  25.141  1.00  0.00    -0.006 C 
BRANCH  28  29
HETATM   29  C20 UNL     1      14.109  22.782  24.887  1.00  0.00     0.142 C 
HETATM   30 CL1  UNL     1      12.402  22.347  25.110  1.00  0.00    -0.126 Cl
ENDBRANCH  28  29
ENDBRANCH  24  27
ENDBRANCH   1  23
TORSDOF 12
ENDMDL
