MODEL 1
REMARK VINA RESULT: -6.785444021      0.000      0.000
REMARK  3 active torsions:
REMARK  status: ('A' for Active; 'I' for Inactive)
REMARK    1  A    between atoms: C5_6  and  C6_7 
REMARK    2  A    between atoms: C6_7  and  N1_8 
REMARK    3  A    between atoms: N1_8  and  C7_10 
ROOT
HETATM    1  F1  UNL     1     -10.260 -29.710  20.036  1.00  0.00    -0.249 F 
HETATM    2  C1  UNL     1     -10.467 -31.019  19.675  1.00  0.00     0.171 C 
HETATM    3  C2  UNL     1      -9.438 -31.879  20.370  1.00  0.00     0.042 C 
HETATM    4  C3  UNL     1      -8.244 -31.977  19.454  1.00  0.00    -0.007 A 
HETATM    5  C4  UNL     1      -8.045 -33.359  18.873  1.00  0.00     0.011 A 
HETATM    6  C5  UNL     1      -8.419 -32.858  17.522  1.00  0.00     0.008 A 
HETATM    7  C10 UNL     1      -8.688 -31.465  18.108  1.00  0.00    -0.002 A 
HETATM    8  C11 UNL     1     -10.160 -31.153  18.207  1.00  0.00     0.042 C 
ENDROOT
BRANCH   6   9
HETATM    9  C6  UNL     1      -7.358 -32.861  16.448  1.00  0.00     0.119 C 
BRANCH   9  10
HETATM   10  N1  UNL     1      -7.864 -32.849  15.131  1.00  0.00    -0.417 N 
ATOM     11  H1  UNL     1      -8.375 -33.642  14.743  1.00  0.00     0.153 HD
BRANCH  10  12
HETATM   12  C7  UNL     1      -7.624 -31.669  14.373  1.00  0.00     0.076 A 
HETATM   13  C8  UNL     1      -8.528 -30.484  14.434  1.00  0.00     0.027 A 
HETATM   14  C9  UNL     1      -7.152 -30.407  15.048  1.00  0.00     0.027 A 
ENDBRANCH  10  12
ENDBRANCH   9  10
ENDBRANCH   6   9
TORSDOF 3
ENDMDL
MODEL 2
REMARK VINA RESULT: -6.506934935      1.511      2.039
REMARK  3 active torsions:
REMARK  status: ('A' for Active; 'I' for Inactive)
REMARK    1  A    between atoms: C5_6  and  C6_7 
REMARK    2  A    between atoms: C6_7  and  N1_8 
REMARK    3  A    between atoms: N1_8  and  C7_10 
ROOT
HETATM    1  F1  UNL     1      -8.354 -32.177  21.721  1.00  0.00    -0.249 F 
HETATM    2  C1  UNL     1      -9.104 -32.826  20.770  1.00  0.00     0.171 C 
HETATM    3  C2  UNL     1      -8.169 -33.451  19.762  1.00  0.00     0.042 C 
HETATM    4  C3  UNL     1      -7.946 -32.436  18.669  1.00  0.00    -0.007 A 
HETATM    5  C4  UNL     1      -8.572 -32.828  17.350  1.00  0.00     0.011 A 
HETATM    6  C5  UNL     1      -9.571 -31.732  17.485  1.00  0.00     0.008 A 
HETATM    7  C10 UNL     1      -8.988 -31.363  18.856  1.00  0.00    -0.002 A 
HETATM    8  C11 UNL     1      -9.876 -31.791  19.997  1.00  0.00     0.042 C 
ENDROOT
BRANCH   6   9
HETATM    9  C6  UNL     1      -9.518 -30.600  16.487  1.00  0.00     0.119 C 
BRANCH   9  10
HETATM   10  N1  UNL     1      -9.541 -31.012  15.138  1.00  0.00    -0.417 N 
ATOM     11  H1  UNL     1     -10.292 -31.593  14.766  1.00  0.00     0.153 HD
BRANCH  10  12
HETATM   12  C7  UNL     1      -8.460 -30.572  14.325  1.00  0.00     0.076 A 
HETATM   13  C8  UNL     1      -7.943 -29.173  14.372  1.00  0.00     0.027 A 
HETATM   14  C9  UNL     1      -7.107 -30.299  14.930  1.00  0.00     0.027 A 
ENDBRANCH  10  12
ENDBRANCH   9  10
ENDBRANCH   6   9
TORSDOF 3
ENDMDL
MODEL 3
REMARK VINA RESULT: -6.231851202      1.276      1.906
REMARK  3 active torsions:
REMARK  status: ('A' for Active; 'I' for Inactive)
REMARK    1  A    between atoms: C5_6  and  C6_7 
REMARK    2  A    between atoms: C6_7  and  N1_8 
REMARK    3  A    between atoms: N1_8  and  C7_10 
ROOT
HETATM    1  F1  UNL     1      -9.937 -33.015  21.434  1.00  0.00    -0.249 F 
HETATM    2  C1  UNL     1      -9.107 -32.128  20.794  1.00  0.00     0.171 C 
HETATM    3  C2  UNL     1      -9.954 -31.089  20.099  1.00  0.00     0.042 C 
HETATM    4  C3  UNL     1     -10.230 -31.595  18.706  1.00  0.00    -0.007 A 
HETATM    5  C4  UNL     1      -9.533 -30.796  17.628  1.00  0.00     0.011 A 
HETATM    6  C5  UNL     1      -8.636 -31.947  17.337  1.00  0.00     0.008 A 
HETATM    7  C10 UNL     1      -9.289 -32.749  18.471  1.00  0.00    -0.002 A 
HETATM    8  C11 UNL     1      -8.402 -32.863  19.686  1.00  0.00     0.042 C 
ENDROOT
BRANCH   6   9
HETATM    9  C6  UNL     1      -8.755 -32.613  15.987  1.00  0.00     0.119 C 
BRANCH   9  10
HETATM   10  N1  UNL     1      -7.564 -32.612  15.231  1.00  0.00    -0.417 N 
ATOM     11  H1  UNL     1      -6.853 -33.335  15.346  1.00  0.00     0.153 HD
BRANCH  10  12
HETATM   12  C7  UNL     1      -7.408 -31.549  14.300  1.00  0.00     0.076 A 
HETATM   13  C8  UNL     1      -8.469 -30.523  14.074  1.00  0.00     0.027 A 
HETATM   14  C9  UNL     1      -7.191 -30.136  14.777  1.00  0.00     0.027 A 
ENDBRANCH  10  12
ENDBRANCH   9  10
ENDBRANCH   6   9
TORSDOF 3
ENDMDL
MODEL 4
REMARK VINA RESULT: -6.137117643      2.301      4.640
REMARK  3 active torsions:
REMARK  status: ('A' for Active; 'I' for Inactive)
REMARK    1  A    between atoms: C5_6  and  C6_7 
REMARK    2  A    between atoms: C6_7  and  N1_8 
REMARK    3  A    between atoms: N1_8  and  C7_10 
ROOT
HETATM    1  F1  UNL     1      -7.613 -29.095  14.379  1.00  0.00    -0.249 F 
HETATM    2  C1  UNL     1      -8.065 -30.378  14.184  1.00  0.00     0.171 C 
HETATM    3  C2  UNL     1      -9.466 -30.485  14.738  1.00  0.00     0.042 C 
HETATM    4  C3  UNL     1      -9.346 -30.912  16.179  1.00  0.00    -0.007 A 
HETATM    5  C4  UNL     1      -9.845 -32.317  16.432  1.00  0.00     0.011 A 
HETATM    6  C5  UNL     1      -8.453 -32.776  16.696  1.00  0.00     0.008 A 
HETATM    7  C10 UNL     1      -7.924 -31.370  16.378  1.00  0.00    -0.002 A 
HETATM    8  C11 UNL     1      -7.236 -31.299  15.038  1.00  0.00     0.042 C 
ENDROOT
BRANCH   6   9
HETATM    9  C6  UNL     1      -8.114 -33.242  18.091  1.00  0.00     0.119 C 
BRANCH   9  10
HETATM   10  N1  UNL     1      -7.487 -32.265  18.894  1.00  0.00    -0.417 N 
ATOM     11  H1  UNL     1      -6.556 -31.909  18.679  1.00  0.00     0.153 HD
BRANCH  10  12
HETATM   12  C7  UNL     1      -8.226 -31.803  20.018  1.00  0.00     0.076 A 
HETATM   13  C8  UNL     1      -9.675 -31.458  19.935  1.00  0.00     0.027 A 
HETATM   14  C9  UNL     1      -9.242 -32.692  20.687  1.00  0.00     0.027 A 
ENDBRANCH  10  12
ENDBRANCH   9  10
ENDBRANCH   6   9
TORSDOF 3
ENDMDL
MODEL 5
REMARK VINA RESULT: -5.935058025      2.716      5.151
REMARK  3 active torsions:
REMARK  status: ('A' for Active; 'I' for Inactive)
REMARK    1  A    between atoms: C5_6  and  C6_7 
REMARK    2  A    between atoms: C6_7  and  N1_8 
REMARK    3  A    between atoms: N1_8  and  C7_10 
ROOT
HETATM    1  F1  UNL     1      -8.443 -31.083  12.902  1.00  0.00    -0.249 F 
HETATM    2  C1  UNL     1      -7.767 -30.784  14.060  1.00  0.00     0.171 C 
HETATM    3  C2  UNL     1      -7.293 -32.072  14.689  1.00  0.00     0.042 C 
HETATM    4  C3  UNL     1      -8.377 -32.538  15.627  1.00  0.00    -0.007 A 
HETATM    5  C4  UNL     1      -7.987 -32.451  17.085  1.00  0.00     0.011 A 
HETATM    6  C5  UNL     1      -8.965 -31.348  17.293  1.00  0.00     0.008 A 
HETATM    7  C10 UNL     1      -9.326 -31.380  15.801  1.00  0.00    -0.002 A 
HETATM    8  C11 UNL     1      -8.752 -30.210  15.042  1.00  0.00     0.042 C 
ENDROOT
BRANCH   6   9
HETATM    9  C6  UNL     1     -10.145 -31.610  18.199  1.00  0.00     0.119 C 
BRANCH   9  10
HETATM   10  N1  UNL     1     -10.117 -30.889  19.412  1.00  0.00    -0.417 N 
ATOM     11  H1  UNL     1     -10.581 -29.986  19.512  1.00  0.00     0.153 HD
BRANCH  10  12
HETATM   12  C7  UNL     1      -9.407 -31.490  20.487  1.00  0.00     0.076 A 
HETATM   13  C8  UNL     1     -10.021 -32.524  21.371  1.00  0.00     0.027 A 
HETATM   14  C9  UNL     1      -8.941 -32.921  20.395  1.00  0.00     0.027 A 
ENDBRANCH  10  12
ENDBRANCH   9  10
ENDBRANCH   6   9
TORSDOF 3
ENDMDL
