MODEL 1
REMARK VINA RESULT: -7.188263055      0.000      0.000
REMARK  5 active torsions:
REMARK  status: ('A' for Active; 'I' for Inactive)
REMARK    1  A    between atoms: C3_8  and  C4_9 
REMARK    2  A    between atoms: C4_9  and  C5_10 
REMARK    3  A    between atoms: C5_10  and  C6_11 
REMARK    4  A    between atoms: C6_11  and  N4_12 
REMARK    5  A    between atoms: N4_12  and  C7_14 
ROOT
HETATM    1  C5  UNL     1       0.919  37.949 103.644  1.00  0.00     0.028 C 
ENDROOT
BRANCH   1   2
HETATM    2  C4  UNL     1       1.656  37.113 102.638  1.00  0.00     0.080 C 
BRANCH   2   3
HETATM    3  C3  UNL     1       1.938  35.777 103.271  1.00  0.00     0.098 A 
HETATM    4  N1  UNL     1       1.532  34.571 102.817  1.00  0.00    -0.335 N 
HETATM    5  C1  UNL     1       0.740  34.322 101.622  1.00  0.00     0.158 C 
HETATM    6  C2  UNL     1       1.969  33.599 103.636  1.00  0.00     0.200 A 
HETATM    7  N2  UNL     1       2.649  34.239 104.600  1.00  0.00    -0.295 N 
HETATM    8  N3  UNL     1       2.639  35.544 104.394  1.00  0.00    -0.288 N 
ATOM      9  H2  UNL     1       3.111  33.780 105.385  1.00  0.00     0.187 HD
ATOM     10  H3  UNL     1       3.084  36.248 104.983  1.00  0.00     0.188 HD
ENDBRANCH   2   3
ENDBRANCH   1   2
BRANCH   1  11
HETATM   11  C6  UNL     1      -0.541  38.124 103.293  1.00  0.00     0.138 C 
BRANCH  11  12
HETATM   12  N4  UNL     1      -1.394  37.475 104.270  1.00  0.00    -0.226 N 
ATOM     13  H4  UNL     1      -1.640  37.964 105.131  1.00  0.00     0.177 HD
BRANCH  12  14
HETATM   14  C7  UNL     1      -1.852  36.265 104.059  1.00  0.00     0.677 A 
HETATM   15  N5  UNL     1      -2.275  35.784 102.879  1.00  0.00    -0.201 N 
HETATM   16  C8  UNL     1      -2.682  34.505 103.000  1.00  0.00     0.123 A 
ATOM     17  H5  UNL     1      -2.286  36.315 102.008  1.00  0.00     0.183 HD
HETATM   18  C9  UNL     1      -2.505  34.169 104.333  1.00  0.00     0.123 A 
HETATM   19  N6  UNL     1      -2.000  35.261 104.941  1.00  0.00    -0.201 N 
ATOM     20  H6  UNL     1      -1.764  35.317 105.932  1.00  0.00     0.183 HD
ENDBRANCH  12  14
ENDBRANCH  11  12
ENDBRANCH   1  11
TORSDOF 5
ENDMDL
MODEL 2
REMARK VINA RESULT: -7.167159669      1.075      3.968
REMARK  5 active torsions:
REMARK  status: ('A' for Active; 'I' for Inactive)
REMARK    1  A    between atoms: C3_8  and  C4_9 
REMARK    2  A    between atoms: C4_9  and  C5_10 
REMARK    3  A    between atoms: C5_10  and  C6_11 
REMARK    4  A    between atoms: C6_11  and  N4_12 
REMARK    5  A    between atoms: N4_12  and  C7_14 
ROOT
HETATM    1  C5  UNL     1       0.536  38.132 103.553  1.00  0.00     0.028 C 
ENDROOT
BRANCH   1   2
HETATM    2  C4  UNL     1      -0.558  37.528 102.721  1.00  0.00     0.080 C 
BRANCH   2   3
HETATM    3  C3  UNL     1      -1.095  36.336 103.467  1.00  0.00     0.098 A 
HETATM    4  N1  UNL     1      -1.005  35.042 103.086  1.00  0.00    -0.335 N 
HETATM    5  C1  UNL     1      -0.368  34.542 101.877  1.00  0.00     0.158 C 
HETATM    6  C2  UNL     1      -1.596  34.251 103.997  1.00  0.00     0.200 A 
HETATM    7  N2  UNL     1      -2.050  35.091 104.941  1.00  0.00    -0.295 N 
HETATM    8  N3  UNL     1      -1.757  36.342 104.637  1.00  0.00    -0.288 N 
ATOM      9  H2  UNL     1      -2.553  34.801 105.780  1.00  0.00     0.187 HD
ATOM     10  H3  UNL     1      -1.991  37.166 105.191  1.00  0.00     0.188 HD
ENDBRANCH   2   3
ENDBRANCH   1   2
BRANCH   1  11
HETATM   11  C6  UNL     1       1.912  37.687 103.111  1.00  0.00     0.138 C 
BRANCH  11  12
HETATM   12  N4  UNL     1       2.492  36.761 104.065  1.00  0.00    -0.226 N 
ATOM     13  H4  UNL     1       2.774  37.096 104.987  1.00  0.00     0.177 HD
BRANCH  12  14
HETATM   14  C7  UNL     1       2.658  35.499 103.755  1.00  0.00     0.677 A 
HETATM   15  N5  UNL     1       3.247  35.038 102.640  1.00  0.00    -0.201 N 
HETATM   16  C8  UNL     1       3.259  33.691 102.624  1.00  0.00     0.123 A 
ATOM     17  H5  UNL     1       3.632  35.629 101.903  1.00  0.00     0.183 HD
HETATM   18  C9  UNL     1       2.641  33.287 103.798  1.00  0.00     0.123 A 
HETATM   19  N6  UNL     1       2.292  34.410 104.455  1.00  0.00    -0.201 N 
ATOM     20  H6  UNL     1       1.817  34.432 105.358  1.00  0.00     0.183 HD
ENDBRANCH  12  14
ENDBRANCH  11  12
ENDBRANCH   1  11
TORSDOF 5
ENDMDL
MODEL 3
REMARK VINA RESULT: -7.085513570      1.605      4.483
REMARK  5 active torsions:
REMARK  status: ('A' for Active; 'I' for Inactive)
REMARK    1  A    between atoms: C3_8  and  C4_9 
REMARK    2  A    between atoms: C4_9  and  C5_10 
REMARK    3  A    between atoms: C5_10  and  C6_11 
REMARK    4  A    between atoms: C6_11  and  N4_12 
REMARK    5  A    between atoms: N4_12  and  C7_14 
ROOT
HETATM    1  C5  UNL     1       1.841  33.677 103.969  1.00  0.00     0.028 C 
ENDROOT
BRANCH   1   2
HETATM    2  C4  UNL     1       0.593  33.351 103.202  1.00  0.00     0.080 C 
BRANCH   2   3
HETATM    3  C3  UNL     1      -0.514  34.218 103.738  1.00  0.00     0.098 A 
HETATM    4  N1  UNL     1      -1.081  35.275 103.115  1.00  0.00    -0.335 N 
HETATM    5  C1  UNL     1      -0.733  35.787 101.798  1.00  0.00     0.158 C 
HETATM    6  C2  UNL     1      -2.038  35.809 103.892  1.00  0.00     0.200 A 
HETATM    7  N2  UNL     1      -2.042  35.055 105.002  1.00  0.00    -0.295 N 
HETATM    8  N3  UNL     1      -1.135  34.099 104.924  1.00  0.00    -0.288 N 
ATOM      9  H2  UNL     1      -2.663  35.202 105.799  1.00  0.00     0.187 HD
ATOM     10  H3  UNL     1      -0.941  33.395 105.637  1.00  0.00     0.188 HD
ENDBRANCH   2   3
ENDBRANCH   1   2
BRANCH   1  11
HETATM   11  C6  UNL     1       2.668  34.752 103.299  1.00  0.00     0.138 C 
BRANCH  11  12
HETATM   12  N4  UNL     1       2.629  35.989 104.057  1.00  0.00    -0.226 N 
ATOM     13  H4  UNL     1       2.916  35.991 105.035  1.00  0.00     0.177 HD
BRANCH  12  14
HETATM   14  C7  UNL     1       2.228  37.104 103.496  1.00  0.00     0.677 A 
HETATM   15  N5  UNL     1       2.752  37.654 102.389  1.00  0.00    -0.201 N 
HETATM   16  C8  UNL     1       2.113  38.798 102.074  1.00  0.00     0.123 A 
ATOM     17  H5  UNL     1       3.529  37.261 101.859  1.00  0.00     0.183 HD
HETATM   18  C9  UNL     1       1.134  38.971 103.040  1.00  0.00     0.123 A 
HETATM   19  N6  UNL     1       1.236  37.925 103.882  1.00  0.00    -0.201 N 
ATOM     20  H6  UNL     1       0.643  37.777 104.699  1.00  0.00     0.183 HD
ENDBRANCH  12  14
ENDBRANCH  11  12
ENDBRANCH   1  11
TORSDOF 5
ENDMDL
MODEL 4
REMARK VINA RESULT: -6.904665525      1.560      3.447
REMARK  5 active torsions:
REMARK  status: ('A' for Active; 'I' for Inactive)
REMARK    1  A    between atoms: C3_8  and  C4_9 
REMARK    2  A    between atoms: C4_9  and  C5_10 
REMARK    3  A    between atoms: C5_10  and  C6_11 
REMARK    4  A    between atoms: C6_11  and  N4_12 
REMARK    5  A    between atoms: N4_12  and  C7_14 
ROOT
HETATM    1  C5  UNL     1      -1.690  36.029 102.535  1.00  0.00     0.028 C 
ENDROOT
BRANCH   1   2
HETATM    2  C4  UNL     1      -1.755  34.531 102.607  1.00  0.00     0.080 C 
BRANCH   2   3
HETATM    3  C3  UNL     1      -0.502  34.051 103.289  1.00  0.00     0.098 A 
HETATM    4  N1  UNL     1       0.713  33.893 102.720  1.00  0.00    -0.335 N 
HETATM    5  C1  UNL     1       1.055  34.157 101.330  1.00  0.00     0.158 C 
HETATM    6  C2  UNL     1       1.595  33.448 103.631  1.00  0.00     0.200 A 
HETATM    7  N2  UNL     1       0.890  33.337 104.768  1.00  0.00    -0.295 N 
HETATM    8  N3  UNL     1      -0.367  33.695 104.578  1.00  0.00    -0.288 N 
ATOM      9  H2  UNL     1       1.274  33.019 105.658  1.00  0.00     0.187 HD
ATOM     10  H3  UNL     1      -1.103  33.700 105.284  1.00  0.00     0.188 HD
ENDBRANCH   2   3
ENDBRANCH   1   2
BRANCH   1  11
HETATM   11  C6  UNL     1      -1.701  36.676 103.902  1.00  0.00     0.138 C 
BRANCH  11  12
HETATM   12  N4  UNL     1      -0.901  37.886 103.913  1.00  0.00    -0.226 N 
ATOM     13  H4  UNL     1      -1.300  38.752 104.276  1.00  0.00     0.177 HD
BRANCH  12  14
HETATM   14  C7  UNL     1       0.330  37.878 103.462  1.00  0.00     0.677 A 
HETATM   15  N5  UNL     1       0.810  38.667 102.488  1.00  0.00    -0.201 N 
HETATM   16  C8  UNL     1       2.114  38.410 102.261  1.00  0.00     0.123 A 
ATOM     17  H5  UNL     1       0.263  39.367 101.987  1.00  0.00     0.183 HD
HETATM   18  C9  UNL     1       2.466  37.401 103.145  1.00  0.00     0.123 A 
HETATM   19  N6  UNL     1       1.359  37.107 103.854  1.00  0.00    -0.201 N 
ATOM     20  H6  UNL     1       1.310  36.398 104.585  1.00  0.00     0.183 HD
ENDBRANCH  12  14
ENDBRANCH  11  12
ENDBRANCH   1  11
TORSDOF 5
ENDMDL
MODEL 5
REMARK VINA RESULT: -6.534181181      1.134      1.225
REMARK  5 active torsions:
REMARK  status: ('A' for Active; 'I' for Inactive)
REMARK    1  A    between atoms: C3_8  and  C4_9 
REMARK    2  A    between atoms: C4_9  and  C5_10 
REMARK    3  A    between atoms: C5_10  and  C6_11 
REMARK    4  A    between atoms: C6_11  and  N4_12 
REMARK    5  A    between atoms: N4_12  and  C7_14 
ROOT
HETATM    1  C5  UNL     1       0.647  37.409 102.463  1.00  0.00     0.028 C 
ENDROOT
BRANCH   1   2
HETATM    2  C4  UNL     1       1.520  36.995 103.611  1.00  0.00     0.080 C 
BRANCH   2   3
HETATM    3  C3  UNL     1       2.422  35.892 103.126  1.00  0.00     0.098 A 
HETATM    4  N1  UNL     1       2.117  34.577 103.053  1.00  0.00    -0.335 N 
HETATM    5  C1  UNL     1       0.851  33.964 103.429  1.00  0.00     0.158 C 
HETATM    6  C2  UNL     1       3.164  33.887 102.572  1.00  0.00     0.200 A 
HETATM    7  N2  UNL     1       4.115  34.809 102.354  1.00  0.00    -0.295 N 
HETATM    8  N3  UNL     1       3.684  36.013 102.682  1.00  0.00    -0.288 N 
ATOM      9  H2  UNL     1       5.044  34.606 101.986  1.00  0.00     0.187 HD
ATOM     10  H3  UNL     1       4.216  36.881 102.609  1.00  0.00     0.188 HD
ENDBRANCH   2   3
ENDBRANCH   1   2
BRANCH   1  11
HETATM   11  C6  UNL     1      -0.725  37.859 102.912  1.00  0.00     0.138 C 
BRANCH  11  12
HETATM   12  N4  UNL     1      -1.138  37.159 104.114  1.00  0.00    -0.226 N 
ATOM     13  H4  UNL     1      -0.827  37.493 105.026  1.00  0.00     0.177 HD
BRANCH  12  14
HETATM   14  C7  UNL     1      -1.906  36.099 104.039  1.00  0.00     0.677 A 
HETATM   15  N5  UNL     1      -2.527  35.661 102.932  1.00  0.00    -0.201 N 
HETATM   16  C8  UNL     1      -3.239  34.546 103.191  1.00  0.00     0.123 A 
ATOM     17  H5  UNL     1      -2.468  36.110 102.019  1.00  0.00     0.183 HD
HETATM   18  C9  UNL     1      -3.052  34.275 104.538  1.00  0.00     0.123 A 
HETATM   19  N6  UNL     1      -2.240  35.237 105.015  1.00  0.00    -0.201 N 
ATOM     20  H6  UNL     1      -1.922  35.302 105.982  1.00  0.00     0.183 HD
ENDBRANCH  12  14
ENDBRANCH  11  12
ENDBRANCH   1  11
TORSDOF 5
ENDMDL
