MODEL 1
REMARK VINA RESULT: -7.423753393      0.000      0.000
REMARK  8 active torsions:
REMARK  status: ('A' for Active; 'I' for Inactive)
REMARK    1  A    between atoms: C2_2  and  C3_3 
REMARK    2  A    between atoms: C3_3  and  C4_4 
REMARK    3  A    between atoms: C4_4  and  C5_5 
REMARK    4  A    between atoms: C5_5  and  N1_6 
REMARK    5  A    between atoms: C6_7  and  O1_8 
REMARK    6  A    between atoms: C7_10  and  N2_11 
REMARK    7  A    between atoms: C8_12  and  O2_13 
REMARK    8  A    between atoms: C11_17  and  O3_18 
ROOT
HETATM    1  N2  UNL     1      27.561   4.910  94.415  1.00  0.00    -0.267 N 
HETATM    2  C8  UNL     1      27.818   4.488  93.165  1.00  0.00     0.156 A 
HETATM    3  C9  UNL     1      26.661   4.319  92.511  1.00  0.00     0.008 A 
HETATM    4  C10 UNL     1      25.629   4.642  93.364  1.00  0.00     0.009 A 
HETATM    5  C11 UNL     1      26.204   5.005  94.538  1.00  0.00     0.156 A 
HETATM    6  C12 UNL     1      24.267   4.504  92.779  1.00  0.00     0.027 C 
HETATM    7  C13 UNL     1      24.173   3.029  92.352  1.00  0.00     0.010 C 
HETATM    8  C14 UNL     1      25.269   2.705  91.395  1.00  0.00     0.010 C 
HETATM    9  C15 UNL     1      26.193   3.888  91.144  1.00  0.00     0.024 C 
HETATM   10  C16 UNL     1      25.404   5.066  90.609  1.00  0.00     0.014 C 
HETATM   11  C17 UNL     1      24.182   5.278  91.466  1.00  0.00    -0.009 C 
HETATM   12  C18 UNL     1      23.862   6.728  91.684  1.00  0.00     0.010 C 
ENDROOT
BRANCH   1  13
HETATM   13  C7  UNL     1      28.526   5.201  95.417  1.00  0.00     0.095 A 
HETATM   14  C6  UNL     1      29.123   4.159  96.083  1.00  0.00     0.173 A 
HETATM   15  N1  UNL     1      30.054   4.368  97.051  1.00  0.00    -0.293 N 
HETATM   16  C22 UNL     1      30.401   5.617  97.370  1.00  0.00     0.255 A 
HETATM   17  C20 UNL     1      29.849   6.715  96.751  1.00  0.00     0.009 A 
HETATM   18  O4  UNL     1      31.267   5.820  98.272  1.00  0.00    -0.267 OA
HETATM   19  C19 UNL     1      28.896   6.477  95.758  1.00  0.00     0.047 A 
HETATM   20  C21 UNL     1      30.254   8.103  97.125  1.00  0.00     0.054 C 
BRANCH  14  21
HETATM   21  O1  UNL     1      28.794   2.848  95.785  1.00  0.00    -0.344 OA
ATOM     22  H1  UNL     1      29.162   2.472  94.993  1.00  0.00     0.219 HD
ENDBRANCH  14  21
BRANCH  15  23
HETATM   23  C5  UNL     1      30.661   3.218  97.732  1.00  0.00     0.134 C 
BRANCH  23  24
HETATM   24  C4  UNL     1      29.853   3.023  98.989  1.00  0.00     0.020 C 
BRANCH  24  25
HETATM   25  C3  UNL     1      30.643   2.519 100.148  1.00  0.00     0.001 C 
BRANCH  25  26
HETATM   26  C2  UNL     1      30.652   1.023 100.131  1.00  0.00    -0.004 C 
HETATM   27  C1  UNL     1      31.386   0.445 101.335  1.00  0.00     0.005 C 
ENDBRANCH  25  26
ENDBRANCH  24  25
ENDBRANCH  23  24
ENDBRANCH  15  23
ENDBRANCH   1  13
BRANCH   2  28
HETATM   28  O2  UNL     1      29.079   4.254  92.611  1.00  0.00    -0.345 OA
ATOM     29  H2  UNL     1      29.450   3.409  92.386  1.00  0.00     0.219 HD
ENDBRANCH   2  28
BRANCH   5  30
HETATM   30  O3  UNL     1      25.504   5.407  95.670  1.00  0.00    -0.345 OA
ATOM     31  H3  UNL     1      25.001   6.206  95.768  1.00  0.00     0.219 HD
ENDBRANCH   5  30
TORSDOF 8
ENDMDL
MODEL 2
REMARK VINA RESULT: -7.344365683      0.548      2.254
REMARK  8 active torsions:
REMARK  status: ('A' for Active; 'I' for Inactive)
REMARK    1  A    between atoms: C2_2  and  C3_3 
REMARK    2  A    between atoms: C3_3  and  C4_4 
REMARK    3  A    between atoms: C4_4  and  C5_5 
REMARK    4  A    between atoms: C5_5  and  N1_6 
REMARK    5  A    between atoms: C6_7  and  O1_8 
REMARK    6  A    between atoms: C7_10  and  N2_11 
REMARK    7  A    between atoms: C8_12  and  O2_13 
REMARK    8  A    between atoms: C11_17  and  O3_18 
ROOT
HETATM    1  N2  UNL     1      27.268   4.800  94.162  1.00  0.00    -0.267 N 
HETATM    2  C8  UNL     1      25.939   4.903  94.335  1.00  0.00     0.156 A 
HETATM    3  C9  UNL     1      25.323   4.652  93.172  1.00  0.00     0.008 A 
HETATM    4  C10 UNL     1      26.283   4.380  92.223  1.00  0.00     0.009 A 
HETATM    5  C11 UNL     1      27.481   4.476  92.852  1.00  0.00     0.156 A 
HETATM    6  C12 UNL     1      25.752   4.078  90.864  1.00  0.00     0.027 C 
HETATM    7  C13 UNL     1      24.946   5.329  90.473  1.00  0.00     0.010 C 
HETATM    8  C14 UNL     1      23.883   5.586  91.486  1.00  0.00     0.010 C 
HETATM    9  C15 UNL     1      23.916   4.587  92.634  1.00  0.00     0.024 C 
HETATM   10  C16 UNL     1      23.762   3.175  92.105  1.00  0.00     0.014 C 
HETATM   11  C17 UNL     1      24.705   2.971  90.948  1.00  0.00    -0.009 C 
HETATM   12  C18 UNL     1      25.324   1.604  90.929  1.00  0.00     0.010 C 
ENDROOT
BRANCH   1  13
HETATM   13  C7  UNL     1      28.261   4.995  95.159  1.00  0.00     0.095 A 
HETATM   14  C6  UNL     1      28.817   3.893  95.764  1.00  0.00     0.173 A 
HETATM   15  N1  UNL     1      29.771   4.009  96.725  1.00  0.00    -0.293 N 
HETATM   16  C22 UNL     1      30.184   5.222  97.097  1.00  0.00     0.255 A 
HETATM   17  C20 UNL     1      29.677   6.375  96.542  1.00  0.00     0.009 A 
HETATM   18  O4  UNL     1      31.073   5.339  97.993  1.00  0.00    -0.267 OA
HETATM   19  C19 UNL     1      28.699   6.233  95.556  1.00  0.00     0.047 A 
HETATM   20  C21 UNL     1      30.156   7.721  96.975  1.00  0.00     0.054 C 
BRANCH  14  21
HETATM   21  O1  UNL     1      28.419   2.616  95.408  1.00  0.00    -0.344 OA
ATOM     22  H1  UNL     1      27.497   2.478  95.224  1.00  0.00     0.219 HD
ENDBRANCH  14  21
BRANCH  15  23
HETATM   23  C5  UNL     1      30.331   2.799  97.339  1.00  0.00     0.134 C 
BRANCH  23  24
HETATM   24  C4  UNL     1      29.531   2.579  98.597  1.00  0.00     0.020 C 
BRANCH  24  25
HETATM   25  C3  UNL     1      30.346   2.163  99.772  1.00  0.00     0.001 C 
BRANCH  25  26
HETATM   26  C2  UNL     1      30.421   0.668  99.820  1.00  0.00    -0.004 C 
HETATM   27  C1  UNL     1      31.158   0.176 101.060  1.00  0.00     0.005 C 
ENDBRANCH  25  26
ENDBRANCH  24  25
ENDBRANCH  23  24
ENDBRANCH  15  23
ENDBRANCH   1  13
BRANCH   2  28
HETATM   28  O2  UNL     1      25.279   5.220  95.525  1.00  0.00    -0.345 OA
ATOM     29  H2  UNL     1      24.788   4.621  96.075  1.00  0.00     0.219 HD
ENDBRANCH   2  28
BRANCH   5  30
HETATM   30  O3  UNL     1      28.714   4.272  92.242  1.00  0.00    -0.345 OA
ATOM     31  H3  UNL     1      28.889   3.703  91.502  1.00  0.00     0.219 HD
ENDBRANCH   5  30
TORSDOF 8
ENDMDL
MODEL 3
REMARK VINA RESULT: -7.307925030      1.748      3.037
REMARK  8 active torsions:
REMARK  status: ('A' for Active; 'I' for Inactive)
REMARK    1  A    between atoms: C2_2  and  C3_3 
REMARK    2  A    between atoms: C3_3  and  C4_4 
REMARK    3  A    between atoms: C4_4  and  C5_5 
REMARK    4  A    between atoms: C5_5  and  N1_6 
REMARK    5  A    between atoms: C6_7  and  O1_8 
REMARK    6  A    between atoms: C7_10  and  N2_11 
REMARK    7  A    between atoms: C8_12  and  O2_13 
REMARK    8  A    between atoms: C11_17  and  O3_18 
ROOT
HETATM    1  N2  UNL     1      26.667   4.831  96.127  1.00  0.00    -0.267 N 
HETATM    2  C8  UNL     1      25.500   4.794  96.793  1.00  0.00     0.156 A 
HETATM    3  C9  UNL     1      24.524   4.431  95.950  1.00  0.00     0.008 A 
HETATM    4  C10 UNL     1      25.077   4.228  94.706  1.00  0.00     0.009 A 
HETATM    5  C11 UNL     1      26.404   4.481  94.832  1.00  0.00     0.156 A 
HETATM    6  C12 UNL     1      24.111   3.817  93.650  1.00  0.00     0.027 C 
HETATM    7  C13 UNL     1      23.076   4.954  93.602  1.00  0.00     0.010 C 
HETATM    8  C14 UNL     1      22.454   5.132  94.944  1.00  0.00     0.010 C 
HETATM    9  C15 UNL     1      23.036   4.189  95.988  1.00  0.00     0.024 C 
HETATM   10  C16 UNL     1      22.859   2.749  95.550  1.00  0.00     0.014 C 
HETATM   11  C17 UNL     1      23.311   2.605  94.120  1.00  0.00    -0.009 C 
HETATM   12  C18 UNL     1      24.033   1.315  93.859  1.00  0.00     0.010 C 
ENDROOT
BRANCH   1  13
HETATM   13  C7  UNL     1      27.933   5.173  96.673  1.00  0.00     0.095 A 
HETATM   14  C6  UNL     1      28.693   4.186  97.251  1.00  0.00     0.173 A 
HETATM   15  N1  UNL     1      29.913   4.445  97.791  1.00  0.00    -0.293 N 
HETATM   16  C22 UNL     1      30.392   5.690  97.763  1.00  0.00     0.255 A 
HETATM   17  C20 UNL     1      29.693   6.735  97.204  1.00  0.00     0.009 A 
HETATM   18  O4  UNL     1      31.528   5.941  98.266  1.00  0.00    -0.267 OA
HETATM   19  C19 UNL     1      28.442   6.447  96.654  1.00  0.00     0.047 A 
HETATM   20  C21 UNL     1      30.250   8.121  97.186  1.00  0.00     0.054 C 
BRANCH  14  21
HETATM   21  O1  UNL     1      28.236   2.880  97.301  1.00  0.00    -0.344 OA
ATOM     22  H1  UNL     1      27.655   2.591  96.606  1.00  0.00     0.219 HD
ENDBRANCH  14  21
BRANCH  15  23
HETATM   23  C5  UNL     1      30.684   3.352  98.397  1.00  0.00     0.134 C 
BRANCH  23  24
HETATM   24  C4  UNL     1      30.278   3.332  99.848  1.00  0.00     0.020 C 
BRANCH  24  25
HETATM   25  C3  UNL     1      31.019   2.336 100.673  1.00  0.00     0.001 C 
BRANCH  25  26
HETATM   26  C2  UNL     1      30.708   0.956 100.184  1.00  0.00    -0.004 C 
HETATM   27  C1  UNL     1      31.149  -0.112 101.178  1.00  0.00     0.005 C 
ENDBRANCH  25  26
ENDBRANCH  24  25
ENDBRANCH  23  24
ENDBRANCH  15  23
ENDBRANCH   1  13
BRANCH   2  28
HETATM   28  O2  UNL     1      25.307   5.082  98.146  1.00  0.00    -0.345 OA
ATOM     29  H2  UNL     1      25.569   4.542  98.882  1.00  0.00     0.219 HD
ENDBRANCH   2  28
BRANCH   5  30
HETATM   30  O3  UNL     1      27.329   4.391  93.798  1.00  0.00    -0.345 OA
ATOM     31  H3  UNL     1      28.149   3.912  93.815  1.00  0.00     0.219 HD
ENDBRANCH   5  30
TORSDOF 8
ENDMDL
MODEL 4
REMARK VINA RESULT: -7.229095999      4.769      7.228
REMARK  8 active torsions:
REMARK  status: ('A' for Active; 'I' for Inactive)
REMARK    1  A    between atoms: C2_2  and  C3_3 
REMARK    2  A    between atoms: C3_3  and  C4_4 
REMARK    3  A    between atoms: C4_4  and  C5_5 
REMARK    4  A    between atoms: C5_5  and  N1_6 
REMARK    5  A    between atoms: C6_7  and  O1_8 
REMARK    6  A    between atoms: C7_10  and  N2_11 
REMARK    7  A    between atoms: C8_12  and  O2_13 
REMARK    8  A    between atoms: C11_17  and  O3_18 
ROOT
HETATM    1  N2  UNL     1      27.662   3.110  91.149  1.00  0.00    -0.267 N 
HETATM    2  C8  UNL     1      27.513   4.096  92.050  1.00  0.00     0.156 A 
HETATM    3  C9  UNL     1      26.211   4.386  92.174  1.00  0.00     0.008 A 
HETATM    4  C10 UNL     1      25.501   3.562  91.330  1.00  0.00     0.009 A 
HETATM    5  C11 UNL     1      26.414   2.779  90.703  1.00  0.00     0.156 A 
HETATM    6  C12 UNL     1      24.025   3.764  91.353  1.00  0.00     0.027 C 
HETATM    7  C13 UNL     1      23.826   5.238  90.962  1.00  0.00     0.010 C 
HETATM    8  C14 UNL     1      24.564   6.120  91.911  1.00  0.00     0.010 C 
HETATM    9  C15 UNL     1      25.338   5.333  92.958  1.00  0.00     0.024 C 
HETATM   10  C16 UNL     1      24.398   4.441  93.745  1.00  0.00     0.014 C 
HETATM   11  C17 UNL     1      23.511   3.686  92.789  1.00  0.00    -0.009 C 
HETATM   12  C18 UNL     1      23.252   2.272  93.221  1.00  0.00     0.010 C 
ENDROOT
BRANCH   1  13
HETATM   13  C7  UNL     1      28.891   2.525  90.741  1.00  0.00     0.095 A 
HETATM   14  C6  UNL     1      29.310   2.701  89.445  1.00  0.00     0.173 A 
HETATM   15  N1  UNL     1      30.476   2.169  88.991  1.00  0.00    -0.293 N 
HETATM   16  C22 UNL     1      31.238   1.454  89.821  1.00  0.00     0.255 A 
HETATM   17  C20 UNL     1      30.889   1.230  91.132  1.00  0.00     0.009 A 
HETATM   18  O4  UNL     1      32.326   0.954  89.405  1.00  0.00    -0.267 OA
HETATM   19  C19 UNL     1      29.688   1.787  91.579  1.00  0.00     0.047 A 
HETATM   20  C21 UNL     1      31.759   0.426  92.042  1.00  0.00     0.054 C 
BRANCH  14  21
HETATM   21  O1  UNL     1      28.551   3.436  88.550  1.00  0.00    -0.344 OA
ATOM     22  H1  UNL     1      28.459   4.367  88.715  1.00  0.00     0.219 HD
ENDBRANCH  14  21
BRANCH  15  23
HETATM   23  C5  UNL     1      30.877   2.388  87.596  1.00  0.00     0.134 C 
BRANCH  23  24
HETATM   24  C4  UNL     1      31.641   3.687  87.597  1.00  0.00     0.020 C 
BRANCH  24  25
HETATM   25  C3  UNL     1      33.073   3.551  87.212  1.00  0.00     0.001 C 
BRANCH  25  26
HETATM   26  C2  UNL     1      33.900   4.492  88.031  1.00  0.00    -0.004 C 
HETATM   27  C1  UNL     1      33.955   4.074  89.496  1.00  0.00     0.005 C 
ENDBRANCH  25  26
ENDBRANCH  24  25
ENDBRANCH  23  24
ENDBRANCH  15  23
ENDBRANCH   1  13
BRANCH   2  28
HETATM   28  O2  UNL     1      28.535   4.736  92.757  1.00  0.00    -0.345 OA
ATOM     29  H2  UNL     1      28.485   5.068  93.645  1.00  0.00     0.219 HD
ENDBRANCH   2  28
BRANCH   5  30
HETATM   30  O3  UNL     1      26.106   1.803  89.761  1.00  0.00    -0.345 OA
ATOM     31  H3  UNL     1      26.267   0.871  89.843  1.00  0.00     0.219 HD
ENDBRANCH   5  30
TORSDOF 8
ENDMDL
MODEL 5
REMARK VINA RESULT: -7.185048159      5.256      7.819
REMARK  8 active torsions:
REMARK  status: ('A' for Active; 'I' for Inactive)
REMARK    1  A    between atoms: C2_2  and  C3_3 
REMARK    2  A    between atoms: C3_3  and  C4_4 
REMARK    3  A    between atoms: C4_4  and  C5_5 
REMARK    4  A    between atoms: C5_5  and  N1_6 
REMARK    5  A    between atoms: C6_7  and  O1_8 
REMARK    6  A    between atoms: C7_10  and  N2_11 
REMARK    7  A    between atoms: C8_12  and  O2_13 
REMARK    8  A    between atoms: C11_17  and  O3_18 
ROOT
HETATM    1  N2  UNL     1      27.160   2.721  90.672  1.00  0.00    -0.267 N 
HETATM    2  C8  UNL     1      27.289   3.755  91.521  1.00  0.00     0.156 A 
HETATM    3  C9  UNL     1      26.072   4.195  91.867  1.00  0.00     0.008 A 
HETATM    4  C10 UNL     1      25.132   3.423  91.222  1.00  0.00     0.009 A 
HETATM    5  C11 UNL     1      25.822   2.516  90.487  1.00  0.00     0.156 A 
HETATM    6  C12 UNL     1      23.717   3.791  91.506  1.00  0.00     0.027 C 
HETATM    7  C13 UNL     1      23.601   5.262  91.068  1.00  0.00     0.010 C 
HETATM    8  C14 UNL     1      24.594   6.093  91.806  1.00  0.00     0.010 C 
HETATM    9  C15 UNL     1      25.468   5.267  92.739  1.00  0.00     0.024 C 
HETATM   10  C16 UNL     1      24.608   4.522  93.740  1.00  0.00     0.014 C 
HETATM   11  C17 UNL     1      23.482   3.832  93.014  1.00  0.00    -0.009 C 
HETATM   12  C18 UNL     1      23.164   2.477  93.574  1.00  0.00     0.010 C 
ENDROOT
BRANCH   1  13
HETATM   13  C7  UNL     1      28.221   1.984  90.081  1.00  0.00     0.095 A 
HETATM   14  C6  UNL     1      28.846   2.498  88.971  1.00  0.00     0.173 A 
HETATM   15  N1  UNL     1      29.867   1.844  88.357  1.00  0.00    -0.293 N 
HETATM   16  C22 UNL     1      30.280   0.670  88.840  1.00  0.00     0.255 A 
HETATM   17  C20 UNL     1      29.707   0.087  89.947  1.00  0.00     0.009 A 
HETATM   18  O4  UNL     1      31.231   0.054  88.273  1.00  0.00    -0.267 OA
HETATM   19  C19 UNL     1      28.659   0.777  90.562  1.00  0.00     0.047 A 
HETATM   20  C21 UNL     1      30.186  -1.227  90.469  1.00  0.00     0.054 C 
BRANCH  14  21
HETATM   21  O1  UNL     1      28.451   3.712  88.436  1.00  0.00    -0.344 OA
ATOM     22  H1  UNL     1      27.664   4.112  88.788  1.00  0.00     0.219 HD
ENDBRANCH  14  21
BRANCH  15  23
HETATM   23  C5  UNL     1      30.500   2.438  87.173  1.00  0.00     0.134 C 
BRANCH  23  24
HETATM   24  C4  UNL     1      31.528   3.402  87.708  1.00  0.00     0.020 C 
BRANCH  24  25
HETATM   25  C3  UNL     1      32.937   2.975  87.483  1.00  0.00     0.001 C 
BRANCH  25  26
HETATM   26  C2  UNL     1      33.865   3.987  88.080  1.00  0.00    -0.004 C 
HETATM   27  C1  UNL     1      34.054   5.193  87.167  1.00  0.00     0.005 C 
ENDBRANCH  25  26
ENDBRANCH  24  25
ENDBRANCH  23  24
ENDBRANCH  15  23
ENDBRANCH   1  13
BRANCH   2  28
HETATM   28  O2  UNL     1      28.488   4.303  91.985  1.00  0.00    -0.345 OA
ATOM     29  H2  UNL     1      28.707   4.498  92.889  1.00  0.00     0.219 HD
ENDBRANCH   2  28
BRANCH   5  30
HETATM   30  O3  UNL     1      25.240   1.543  89.682  1.00  0.00    -0.345 OA
ATOM     31  H3  UNL     1      24.501   0.991  89.909  1.00  0.00     0.219 HD
ENDBRANCH   5  30
TORSDOF 8
ENDMDL
