MODEL 1
REMARK VINA RESULT: -5.327753353      0.000      0.000
REMARK  5 active torsions:
REMARK  status: ('A' for Active; 'I' for Inactive)
REMARK    1  A    between atoms: C3_3  and  N1_4 
REMARK    2  A    between atoms: C7_9  and  S1_10 
REMARK    3  A    between atoms: S1_10  and  C8_11 
REMARK    4  A    between atoms: C8_11  and  C9_12 
REMARK    5  A    between atoms: C22_25  and  C23_26 
ROOT
HETATM    1  C1  UNL     1      29.462   9.732  -6.553  1.00  0.00     0.014 C 
HETATM    2  C2  UNL     1      30.443   9.340  -5.973  1.00  0.00    -0.098 C 
HETATM    3  C3  UNL     1      31.655   8.862  -5.256  1.00  0.00     0.217 C 
ENDROOT
BRANCH   3   4
HETATM    4  N1  UNL     1      32.844   9.147  -6.007  1.00  0.00    -0.361 N 
HETATM    5  C4  UNL     1      33.737  10.261  -5.767  1.00  0.00     0.044 A 
HETATM    6  C5  UNL     1      33.571  11.535  -5.294  1.00  0.00     0.058 A 
HETATM    7  C13 UNL     1      35.024   9.836  -6.131  1.00  0.00     0.001 A 
HETATM    8  C6  UNL     1      34.635  12.435  -5.162  1.00  0.00     0.065 A 
HETATM    9  N2  UNL     1      34.354  13.742  -4.630  1.00  0.00    -0.101 NA
HETATM   10  C7  UNL     1      35.886  12.027  -5.519  1.00  0.00     0.026 A 
HETATM   11  C12 UNL     1      36.065  10.719  -6.004  1.00  0.00     0.034 A 
HETATM   12  C14 UNL     1      34.861   8.423  -6.590  1.00  0.00    -0.020 C 
HETATM   13  C15 UNL     1      35.757   7.498  -6.399  1.00  0.00    -0.071 C 
HETATM   14  C22 UNL     1      33.488   8.490  -7.140  1.00  0.00     0.119 C 
HETATM   15  C16 UNL     1      35.441   6.118  -6.936  1.00  0.00     0.035 C 
HETATM   16  C21 UNL     1      37.005   7.723  -5.633  1.00  0.00     0.035 C 
HETATM   17  C17 UNL     1      36.628   5.175  -6.812  1.00  0.00     0.004 C 
HETATM   18  C18 UNL     1      37.760   5.486  -7.719  1.00  0.00     0.000 C 
HETATM   19  C19 UNL     1      38.015   6.943  -7.789  1.00  0.00     0.000 C 
HETATM   20  C20 UNL     1      38.263   7.590  -6.454  1.00  0.00     0.004 C 
BRANCH  10  21
HETATM   21  S1  UNL     1      37.332  12.994  -5.408  1.00  0.00    -0.116 SA
BRANCH  21  22
HETATM   22  C8  UNL     1      37.651  13.907  -3.945  1.00  0.00     0.173 C 
BRANCH  22  23
HETATM   23  C9  UNL     1      37.637  13.040  -2.757  1.00  0.00    -0.097 C 
HETATM   24  C10 UNL     1      37.616  12.344  -1.767  1.00  0.00    -0.110 C 
HETATM   25  C11 UNL     1      37.616  11.488  -0.562  1.00  0.00     0.112 C 
ENDBRANCH  22  23
ENDBRANCH  21  22
ENDBRANCH  10  21
BRANCH  14  26
HETATM   26  C23 UNL     1      32.827   7.331  -7.689  1.00  0.00     0.026 C 
HETATM   27  C24 UNL     1      32.089   7.795  -8.970  1.00  0.00     0.007 C 
ENDBRANCH  14  26
ENDBRANCH   3   4
TORSDOF 5
ENDMDL
MODEL 2
REMARK VINA RESULT: -5.284978541      1.016      1.107
REMARK  5 active torsions:
REMARK  status: ('A' for Active; 'I' for Inactive)
REMARK    1  A    between atoms: C3_3  and  N1_4 
REMARK    2  A    between atoms: C7_9  and  S1_10 
REMARK    3  A    between atoms: S1_10  and  C8_11 
REMARK    4  A    between atoms: C8_11  and  C9_12 
REMARK    5  A    between atoms: C22_25  and  C23_26 
ROOT
HETATM    1  C1  UNL     1      28.545   8.950  -6.699  1.00  0.00     0.014 C 
HETATM    2  C2  UNL     1      29.567   8.568  -6.188  1.00  0.00    -0.098 C 
HETATM    3  C3  UNL     1      30.830   8.103  -5.556  1.00  0.00     0.217 C 
ENDROOT
BRANCH   3   4
HETATM    4  N1  UNL     1      31.972   8.704  -6.183  1.00  0.00    -0.361 N 
HETATM    5  C4  UNL     1      32.609   9.933  -5.758  1.00  0.00     0.044 A 
HETATM    6  C5  UNL     1      32.166  11.083  -5.162  1.00  0.00     0.058 A 
HETATM    7  C13 UNL     1      33.972   9.815  -6.073  1.00  0.00     0.001 A 
HETATM    8  C6  UNL     1      33.017  12.150  -4.855  1.00  0.00     0.065 A 
HETATM    9  N2  UNL     1      32.452  13.302  -4.204  1.00  0.00    -0.101 NA
HETATM   10  C7  UNL     1      34.342  12.041  -5.164  1.00  0.00     0.026 A 
HETATM   11  C12 UNL     1      34.805  10.862  -5.775  1.00  0.00     0.034 A 
HETATM   12  C14 UNL     1      34.121   8.465  -6.695  1.00  0.00    -0.020 C 
HETATM   13  C15 UNL     1      35.175   7.717  -6.543  1.00  0.00    -0.071 C 
HETATM   14  C22 UNL     1      32.791   8.329  -7.333  1.00  0.00     0.119 C 
HETATM   15  C16 UNL     1      35.171   6.377  -7.250  1.00  0.00     0.035 C 
HETATM   16  C21 UNL     1      36.312   8.085  -5.668  1.00  0.00     0.035 C 
HETATM   17  C17 UNL     1      36.517   5.676  -7.144  1.00  0.00     0.004 C 
HETATM   18  C18 UNL     1      37.605   6.310  -7.928  1.00  0.00     0.000 C 
HETATM   19  C19 UNL     1      37.563   7.787  -7.819  1.00  0.00     0.000 C 
HETATM   20  C20 UNL     1      37.609   8.301  -6.406  1.00  0.00     0.004 C 
BRANCH  10  21
HETATM   21  S1  UNL     1      35.554  13.250  -4.842  1.00  0.00    -0.116 SA
BRANCH  21  22
HETATM   22  C8  UNL     1      37.192  12.753  -4.461  1.00  0.00     0.173 C 
BRANCH  22  23
HETATM   23  C9  UNL     1      37.328  12.394  -3.042  1.00  0.00    -0.097 C 
HETATM   24  C10 UNL     1      37.455  12.081  -1.880  1.00  0.00    -0.110 C 
HETATM   25  C11 UNL     1      37.583  11.699  -0.456  1.00  0.00     0.112 C 
ENDBRANCH  22  23
ENDBRANCH  21  22
ENDBRANCH  10  21
BRANCH  14  26
HETATM   26  C23 UNL     1      32.406   7.139  -8.052  1.00  0.00     0.026 C 
HETATM   27  C24 UNL     1      31.521   7.595  -9.239  1.00  0.00     0.007 C 
ENDBRANCH  14  26
ENDBRANCH   3   4
TORSDOF 5
ENDMDL
MODEL 3
REMARK VINA RESULT: -5.213903953      2.263      3.109
REMARK  5 active torsions:
REMARK  status: ('A' for Active; 'I' for Inactive)
REMARK    1  A    between atoms: C3_3  and  N1_4 
REMARK    2  A    between atoms: C7_9  and  S1_10 
REMARK    3  A    between atoms: S1_10  and  C8_11 
REMARK    4  A    between atoms: C8_11  and  C9_12 
REMARK    5  A    between atoms: C22_25  and  C23_26 
ROOT
HETATM    1  C1  UNL     1      29.774   7.716  -5.813  1.00  0.00     0.014 C 
HETATM    2  C2  UNL     1      29.779   8.832  -6.266  1.00  0.00    -0.098 C 
HETATM    3  C3  UNL     1      29.790  10.209  -6.829  1.00  0.00     0.217 C 
ENDROOT
BRANCH   3   4
HETATM    4  N1  UNL     1      31.062  10.840  -6.623  1.00  0.00    -0.361 N 
HETATM    5  C4  UNL     1      31.352  11.823  -5.600  1.00  0.00     0.044 A 
HETATM    6  C5  UNL     1      30.619  12.795  -4.973  1.00  0.00     0.058 A 
HETATM    7  C13 UNL     1      32.700  11.657  -5.246  1.00  0.00     0.001 A 
HETATM    8  C6  UNL     1      31.161  13.635  -3.994  1.00  0.00     0.065 A 
HETATM    9  N2  UNL     1      30.296  14.606  -3.379  1.00  0.00    -0.101 NA
HETATM   10  C7  UNL     1      32.473  13.479  -3.651  1.00  0.00     0.026 A 
HETATM   11  C12 UNL     1      33.232  12.482  -4.289  1.00  0.00     0.034 A 
HETATM   12  C14 UNL     1      33.198  10.533  -6.095  1.00  0.00    -0.020 C 
HETATM   13  C15 UNL     1      34.081   9.665  -5.691  1.00  0.00    -0.071 C 
HETATM   14  C22 UNL     1      32.353  10.724  -7.296  1.00  0.00     0.119 C 
HETATM   15  C16 UNL     1      34.486   8.592  -6.679  1.00  0.00     0.035 C 
HETATM   16  C21 UNL     1      34.631   9.647  -4.316  1.00  0.00     0.035 C 
HETATM   17  C17 UNL     1      35.644   7.752  -6.162  1.00  0.00     0.004 C 
HETATM   18  C18 UNL     1      36.944   8.465  -6.101  1.00  0.00     0.000 C 
HETATM   19  C19 UNL     1      36.782   9.845  -5.587  1.00  0.00     0.000 C 
HETATM   20  C20 UNL     1      36.112   9.927  -4.244  1.00  0.00     0.004 C 
BRANCH  10  21
HETATM   21  S1  UNL     1      33.316  14.412  -2.445  1.00  0.00    -0.116 SA
BRANCH  21  22
HETATM   22  C8  UNL     1      35.028  14.739  -2.645  1.00  0.00     0.173 C 
BRANCH  22  23
HETATM   23  C9  UNL     1      35.850  13.649  -2.098  1.00  0.00    -0.097 C 
HETATM   24  C10 UNL     1      36.544  12.758  -1.664  1.00  0.00    -0.110 C 
HETATM   25  C11 UNL     1      37.371  11.652  -1.134  1.00  0.00     0.112 C 
ENDBRANCH  22  23
ENDBRANCH  21  22
ENDBRANCH  10  21
BRANCH  14  26
HETATM   26  C23 UNL     1      32.424   9.837  -8.430  1.00  0.00     0.026 C 
HETATM   27  C24 UNL     1      33.150  10.606  -9.562  1.00  0.00     0.007 C 
ENDBRANCH  14  26
ENDBRANCH   3   4
TORSDOF 5
ENDMDL
MODEL 4
REMARK VINA RESULT: -5.046806967      3.692      7.538
REMARK  5 active torsions:
REMARK  status: ('A' for Active; 'I' for Inactive)
REMARK    1  A    between atoms: C3_3  and  N1_4 
REMARK    2  A    between atoms: C7_9  and  S1_10 
REMARK    3  A    between atoms: S1_10  and  C8_11 
REMARK    4  A    between atoms: C8_11  and  C9_12 
REMARK    5  A    between atoms: C22_25  and  C23_26 
ROOT
HETATM    1  C1  UNL     1      38.363  15.603  -4.494  1.00  0.00     0.014 C 
HETATM    2  C2  UNL     1      37.914  15.475  -3.383  1.00  0.00    -0.098 C 
HETATM    3  C3  UNL     1      37.362  15.311  -2.012  1.00  0.00     0.217 C 
ENDROOT
BRANCH   3   4
HETATM    4  N1  UNL     1      36.275  14.374  -2.002  1.00  0.00    -0.361 N 
HETATM    5  C4  UNL     1      34.874  14.719  -2.125  1.00  0.00     0.044 A 
HETATM    6  C5  UNL     1      34.119  15.801  -1.758  1.00  0.00     0.058 A 
HETATM    7  C13 UNL     1      34.246  13.644  -2.773  1.00  0.00     0.001 A 
HETATM    8  C6  UNL     1      32.743  15.878  -2.000  1.00  0.00     0.065 A 
HETATM    9  N2  UNL     1      32.051  17.073  -1.597  1.00  0.00    -0.101 NA
HETATM   10  C7  UNL     1      32.129  14.833  -2.626  1.00  0.00     0.026 A 
HETATM   11  C12 UNL     1      32.897  13.719  -3.008  1.00  0.00     0.034 A 
HETATM   12  C14 UNL     1      35.330  12.651  -3.036  1.00  0.00    -0.020 C 
HETATM   13  C15 UNL     1      35.368  11.892  -4.094  1.00  0.00    -0.071 C 
HETATM   14  C22 UNL     1      36.212  12.921  -1.878  1.00  0.00     0.119 C 
HETATM   15  C16 UNL     1      36.532  10.930  -4.204  1.00  0.00     0.035 C 
HETATM   16  C21 UNL     1      34.383  11.987  -5.196  1.00  0.00     0.035 C 
HETATM   17  C17 UNL     1      36.374   9.981  -5.382  1.00  0.00     0.004 C 
HETATM   18  C18 UNL     1      35.298   8.972  -5.221  1.00  0.00     0.000 C 
HETATM   19  C19 UNL     1      34.082   9.567  -4.620  1.00  0.00     0.000 C 
HETATM   20  C20 UNL     1      33.539  10.750  -5.373  1.00  0.00     0.004 C 
BRANCH  10  21
HETATM   21  S1  UNL     1      30.435  14.755  -3.030  1.00  0.00    -0.116 SA
BRANCH  21  22
HETATM   22  C8  UNL     1      29.242  14.706  -1.746  1.00  0.00     0.173 C 
BRANCH  22  23
HETATM   23  C9  UNL     1      28.019  14.012  -2.176  1.00  0.00    -0.097 C 
HETATM   24  C10 UNL     1      27.013  13.428  -2.511  1.00  0.00    -0.110 C 
HETATM   25  C11 UNL     1      25.795  12.710  -2.944  1.00  0.00     0.112 C 
ENDBRANCH  22  23
ENDBRANCH  21  22
ENDBRANCH  10  21
BRANCH  14  26
HETATM   26  C23 UNL     1      37.461  12.224  -1.688  1.00  0.00     0.026 C 
HETATM   27  C24 UNL     1      37.547  11.851  -0.187  1.00  0.00     0.007 C 
ENDBRANCH  14  26
ENDBRANCH   3   4
TORSDOF 5
ENDMDL
MODEL 5
REMARK VINA RESULT: -4.998176399      2.654      4.470
REMARK  5 active torsions:
REMARK  status: ('A' for Active; 'I' for Inactive)
REMARK    1  A    between atoms: C3_3  and  N1_4 
REMARK    2  A    between atoms: C7_9  and  S1_10 
REMARK    3  A    between atoms: S1_10  and  C8_11 
REMARK    4  A    between atoms: C8_11  and  C9_12 
REMARK    5  A    between atoms: C22_25  and  C23_26 
ROOT
HETATM    1  C1  UNL     1      29.373   3.988  -6.157  1.00  0.00     0.014 C 
HETATM    2  C2  UNL     1      29.288   5.189  -6.183  1.00  0.00    -0.098 C 
HETATM    3  C3  UNL     1      29.182   6.672  -6.221  1.00  0.00     0.217 C 
ENDROOT
BRANCH   3   4
HETATM    4  N1  UNL     1      30.217   7.242  -7.035  1.00  0.00    -0.361 N 
HETATM    5  C4  UNL     1      31.276   8.107  -6.556  1.00  0.00     0.044 A 
HETATM    6  C5  UNL     1      31.375   9.030  -5.550  1.00  0.00     0.058 A 
HETATM    7  C13 UNL     1      32.396   7.867  -7.367  1.00  0.00     0.001 A 
HETATM    8  C6  UNL     1      32.548   9.750  -5.299  1.00  0.00     0.065 A 
HETATM    9  N2  UNL     1      32.552  10.678  -4.199  1.00  0.00    -0.101 NA
HETATM   10  C7  UNL     1      33.637   9.522  -6.088  1.00  0.00     0.026 A 
HETATM   11  C12 UNL     1      33.544   8.574  -7.123  1.00  0.00     0.034 A 
HETATM   12  C14 UNL     1      31.963   6.821  -8.343  1.00  0.00    -0.020 C 
HETATM   13  C15 UNL     1      32.754   5.892  -8.797  1.00  0.00    -0.071 C 
HETATM   14  C22 UNL     1      30.526   7.159  -8.460  1.00  0.00     0.119 C 
HETATM   15  C16 UNL     1      32.160   4.914  -9.789  1.00  0.00     0.035 C 
HETATM   16  C21 UNL     1      34.150   5.718  -8.336  1.00  0.00     0.035 C 
HETATM   17  C17 UNL     1      33.217   3.993 -10.379  1.00  0.00     0.004 C 
HETATM   18  C18 UNL     1      34.168   4.658 -11.303  1.00  0.00     0.000 C 
HETATM   19  C19 UNL     1      34.587   5.983 -10.789  1.00  0.00     0.000 C 
HETATM   20  C20 UNL     1      35.185   5.947  -9.409  1.00  0.00     0.004 C 
BRANCH  10  21
HETATM   21  S1  UNL     1      35.186  10.303  -5.918  1.00  0.00    -0.116 SA
BRANCH  21  22
HETATM   22  C8  UNL     1      36.442   9.533  -4.966  1.00  0.00     0.173 C 
BRANCH  22  23
HETATM   23  C9  UNL     1      36.646   8.136  -5.376  1.00  0.00    -0.097 C 
HETATM   24  C10 UNL     1      36.812   6.980  -5.691  1.00  0.00    -0.110 C 
HETATM   25  C11 UNL     1      37.037   5.573  -6.090  1.00  0.00     0.112 C 
ENDBRANCH  22  23
ENDBRANCH  21  22
ENDBRANCH  10  21
BRANCH  14  26
HETATM   26  C23 UNL     1      29.624   6.390  -9.282  1.00  0.00     0.026 C 
HETATM   27  C24 UNL     1      28.628   7.391  -9.919  1.00  0.00     0.007 C 
ENDBRANCH  14  26
ENDBRANCH   3   4
TORSDOF 5
ENDMDL
