MODEL 1
REMARK VINA RESULT: -6.785990037      0.000      0.000
REMARK  4 active torsions:
REMARK  status: ('A' for Active; 'I' for Inactive)
REMARK    1  A    between atoms: C9_10  and  C10_11 
REMARK    2  A    between atoms: C10_11  and  O2_13 
REMARK    3  A    between atoms: O2_13  and  C11_14 
REMARK       I    between atoms: N2_18  and  C15_19 
REMARK       I    between atoms: C15_19  and  N3_21 
REMARK    4  A    between atoms: N3_21  and  C16_23 
ROOT
HETATM    1  C16 UNL     1     -16.875  33.945  -1.337  1.00  0.00     0.248 C 
HETATM    2  C17 UNL     1     -16.066  34.969  -2.044  1.00  0.00     0.078 C 
HETATM    3  N4  UNL     1     -15.429  35.765  -2.590  1.00  0.00    -0.196 NA
ENDROOT
BRANCH   1   4
HETATM    4  N3  UNL     1     -16.419  32.653  -1.850  1.00  0.00    -0.331 N 
HETATM    5  C15 UNL     1     -15.441  31.895  -1.198  1.00  0.00     0.320 C 
HETATM    6  N2  UNL     1     -14.931  30.640  -1.609  1.00  0.00    -0.314 N 
HETATM    7  O3  UNL     1     -14.967  32.396  -0.117  1.00  0.00    -0.247 OA
HETATM    8  C2  UNL     1     -15.420  30.063  -2.817  1.00  0.00     0.114 C 
HETATM    9  C9  UNL     1     -13.938  30.037  -0.717  1.00  0.00     0.191 C 
HETATM   10  C1  UNL     1     -14.413  29.464  -3.737  1.00  0.00     0.034 C 
HETATM   11  C3  UNL     1     -16.521  29.048  -2.585  1.00  0.00     0.297 C 
HETATM   12  N1  UNL     1     -16.021  27.825  -1.975  1.00  0.00     0.095 N 
HETATM   13  C4  UNL     1     -17.158  26.967  -1.709  1.00  0.00     0.273 C 
HETATM   14  C7  UNL     1     -15.562  28.174  -0.651  1.00  0.00     0.225 C 
HETATM   15  C5  UNL     1     -16.665  26.099  -0.570  1.00  0.00     0.032 C 
HETATM   16  C6  UNL     1     -15.758  26.978   0.249  1.00  0.00     0.037 C 
HETATM   17  C8  UNL     1     -14.101  28.545  -0.770  1.00  0.00     0.071 C 
ATOM     18  H3  UNL     1     -16.828  32.294  -2.712  1.00  0.00     0.165 HD
BRANCH   9  19
HETATM   19  C10 UNL     1     -12.572  30.513  -0.924  1.00  0.00     0.282 C 
HETATM   20  O1  UNL     1     -11.806  29.775  -1.607  1.00  0.00    -0.263 OA
BRANCH  19  21
HETATM   21  O2  UNL     1     -12.059  31.675  -0.444  1.00  0.00    -0.310 OA
BRANCH  21  22
HETATM   22  C11 UNL     1     -11.592  32.765  -1.180  1.00  0.00     0.060 C 
HETATM   23  C12 UNL     1     -11.544  34.034  -0.355  1.00  0.00     0.045 C 
HETATM   24  C13 UNL     1     -10.144  32.455  -1.566  1.00  0.00     0.045 C 
HETATM   25  C14 UNL     1     -12.357  33.045  -2.437  1.00  0.00     0.045 C 
ENDBRANCH  21  22
ENDBRANCH  19  21
ENDBRANCH   9  19
ENDBRANCH   1   4
TORSDOF 4
ENDMDL
MODEL 2
REMARK VINA RESULT: -6.410966770      5.118      8.554
REMARK  4 active torsions:
REMARK  status: ('A' for Active; 'I' for Inactive)
REMARK    1  A    between atoms: C9_10  and  C10_11 
REMARK    2  A    between atoms: C10_11  and  O2_13 
REMARK    3  A    between atoms: O2_13  and  C11_14 
REMARK       I    between atoms: N2_18  and  C15_19 
REMARK       I    between atoms: C15_19  and  N3_21 
REMARK    4  A    between atoms: N3_21  and  C16_23 
ROOT
HETATM    1  C16 UNL     1     -15.230  40.933  -5.182  1.00  0.00     0.248 C 
HETATM    2  C17 UNL     1     -14.062  40.429  -5.946  1.00  0.00     0.078 C 
HETATM    3  N4  UNL     1     -13.150  40.030  -6.536  1.00  0.00    -0.196 NA
ENDROOT
BRANCH   1   4
HETATM    4  N3  UNL     1     -16.297  39.955  -5.393  1.00  0.00    -0.331 N 
HETATM    5  C15 UNL     1     -16.460  38.840  -4.562  1.00  0.00     0.320 C 
HETATM    6  N2  UNL     1     -17.453  37.839  -4.679  1.00  0.00    -0.314 N 
HETATM    7  O3  UNL     1     -15.622  38.728  -3.600  1.00  0.00    -0.247 OA
HETATM    8  C2  UNL     1     -18.389  37.921  -5.751  1.00  0.00     0.114 C 
HETATM    9  C9  UNL     1     -17.428  36.799  -3.648  1.00  0.00     0.191 C 
HETATM   10  C1  UNL     1     -18.686  36.662  -6.489  1.00  0.00     0.034 C 
HETATM   11  C3  UNL     1     -19.702  38.558  -5.342  1.00  0.00     0.297 C 
HETATM   12  N1  UNL     1     -20.483  37.696  -4.469  1.00  0.00     0.095 N 
HETATM   13  C4  UNL     1     -21.664  38.431  -4.062  1.00  0.00     0.273 C 
HETATM   14  C7  UNL     1     -19.743  37.565  -3.236  1.00  0.00     0.225 C 
HETATM   15  C5  UNL     1     -22.033  37.773  -2.748  1.00  0.00     0.032 C 
HETATM   16  C6  UNL     1     -20.728  37.382  -2.108  1.00  0.00     0.037 C 
HETATM   17  C8  UNL     1     -18.840  36.360  -3.385  1.00  0.00     0.071 C 
ATOM     18  H3  UNL     1     -16.942  40.089  -6.171  1.00  0.00     0.165 HD
BRANCH   9  19
HETATM   19  C10 UNL     1     -16.486  35.713  -3.908  1.00  0.00     0.282 C 
HETATM   20  O1  UNL     1     -16.604  35.105  -5.010  1.00  0.00    -0.263 OA
BRANCH  19  21
HETATM   21  O2  UNL     1     -15.501  35.303  -3.069  1.00  0.00    -0.310 OA
BRANCH  21  22
HETATM   22  C11 UNL     1     -15.564  34.281  -2.120  1.00  0.00     0.060 C 
HETATM   23  C12 UNL     1     -15.694  32.914  -2.759  1.00  0.00     0.045 C 
HETATM   24  C13 UNL     1     -14.227  34.277  -1.378  1.00  0.00     0.045 C 
HETATM   25  C14 UNL     1     -16.656  34.437  -1.107  1.00  0.00     0.045 C 
ENDBRANCH  21  22
ENDBRANCH  19  21
ENDBRANCH   9  19
ENDBRANCH   1   4
TORSDOF 4
ENDMDL
MODEL 3
REMARK VINA RESULT: -6.234536797      6.035     10.766
REMARK  4 active torsions:
REMARK  status: ('A' for Active; 'I' for Inactive)
REMARK    1  A    between atoms: C9_10  and  C10_11 
REMARK    2  A    between atoms: C10_11  and  O2_13 
REMARK    3  A    between atoms: O2_13  and  C11_14 
REMARK       I    between atoms: N2_18  and  C15_19 
REMARK       I    between atoms: C15_19  and  N3_21 
REMARK    4  A    between atoms: N3_21  and  C16_23 
ROOT
HETATM    1  C16 UNL     1     -18.066  34.422  -1.490  1.00  0.00     0.248 C 
HETATM    2  C17 UNL     1     -16.613  34.196  -1.296  1.00  0.00     0.078 C 
HETATM    3  N4  UNL     1     -15.479  34.014  -1.152  1.00  0.00    -0.196 NA
ENDROOT
BRANCH   1   4
HETATM    4  N3  UNL     1     -18.183  35.270  -2.677  1.00  0.00    -0.331 N 
HETATM    5  C15 UNL     1     -18.814  36.518  -2.641  1.00  0.00     0.320 C 
HETATM    6  N2  UNL     1     -18.981  37.411  -3.726  1.00  0.00    -0.314 N 
HETATM    7  O3  UNL     1     -19.284  36.880  -1.505  1.00  0.00    -0.247 OA
HETATM    8  C2  UNL     1     -18.490  37.032  -5.010  1.00  0.00     0.114 C 
HETATM    9  C9  UNL     1     -19.644  38.678  -3.409  1.00  0.00     0.191 C 
HETATM   10  C1  UNL     1     -19.379  37.287  -6.177  1.00  0.00     0.034 C 
HETATM   11  C3  UNL     1     -17.122  37.608  -5.314  1.00  0.00     0.297 C 
HETATM   12  N1  UNL     1     -17.170  39.044  -5.542  1.00  0.00     0.095 N 
HETATM   13  C4  UNL     1     -15.809  39.507  -5.727  1.00  0.00     0.273 C 
HETATM   14  C7  UNL     1     -17.552  39.656  -4.291  1.00  0.00     0.225 C 
HETATM   15  C5  UNL     1     -15.891  40.964  -5.319  1.00  0.00     0.032 C 
HETATM   16  C6  UNL     1     -16.912  41.021  -4.215  1.00  0.00     0.037 C 
HETATM   17  C8  UNL     1     -19.062  39.750  -4.284  1.00  0.00     0.071 C 
ATOM     18  H3  UNL     1     -17.790  34.940  -3.558  1.00  0.00     0.165 HD
BRANCH   9  19
HETATM   19  C10 UNL     1     -21.104  38.612  -3.407  1.00  0.00     0.282 C 
HETATM   20  O1  UNL     1     -21.719  39.543  -4.001  1.00  0.00    -0.263 OA
BRANCH  19  21
HETATM   21  O2  UNL     1     -21.851  37.640  -2.824  1.00  0.00    -0.310 OA
BRANCH  21  22
HETATM   22  C11 UNL     1     -23.242  37.581  -2.728  1.00  0.00     0.060 C 
HETATM   23  C12 UNL     1     -23.896  37.312  -4.068  1.00  0.00     0.045 C 
HETATM   24  C13 UNL     1     -23.579  36.380  -1.843  1.00  0.00     0.045 C 
HETATM   25  C14 UNL     1     -23.879  38.794  -2.125  1.00  0.00     0.045 C 
ENDBRANCH  21  22
ENDBRANCH  19  21
ENDBRANCH   9  19
ENDBRANCH   1   4
TORSDOF 4
ENDMDL
MODEL 4
REMARK VINA RESULT: -6.110381486      1.353      1.855
REMARK  4 active torsions:
REMARK  status: ('A' for Active; 'I' for Inactive)
REMARK    1  A    between atoms: C9_10  and  C10_11 
REMARK    2  A    between atoms: C10_11  and  O2_13 
REMARK    3  A    between atoms: O2_13  and  C11_14 
REMARK       I    between atoms: N2_18  and  C15_19 
REMARK       I    between atoms: C15_19  and  N3_21 
REMARK    4  A    between atoms: N3_21  and  C16_23 
ROOT
HETATM    1  C16 UNL     1     -17.616  34.277  -1.146  1.00  0.00     0.248 C 
HETATM    2  C17 UNL     1     -17.364  35.408  -2.072  1.00  0.00     0.078 C 
HETATM    3  N4  UNL     1     -17.159  36.292  -2.791  1.00  0.00    -0.196 NA
ENDROOT
BRANCH   1   4
HETATM    4  N3  UNL     1     -16.889  33.136  -1.704  1.00  0.00    -0.331 N 
HETATM    5  C15 UNL     1     -15.575  32.835  -1.330  1.00  0.00     0.320 C 
HETATM    6  N2  UNL     1     -14.786  31.762  -1.808  1.00  0.00    -0.314 N 
HETATM    7  O3  UNL     1     -15.043  33.615  -0.464  1.00  0.00    -0.247 OA
HETATM    8  C2  UNL     1     -15.338  30.886  -2.788  1.00  0.00     0.114 C 
HETATM    9  C9  UNL     1     -13.450  31.646  -1.218  1.00  0.00     0.191 C 
HETATM   10  C1  UNL     1     -14.460  30.510  -3.931  1.00  0.00     0.034 C 
HETATM   11  C3  UNL     1     -15.916  29.619  -2.190  1.00  0.00     0.297 C 
HETATM   12  N1  UNL     1     -14.883  28.725  -1.693  1.00  0.00     0.095 N 
HETATM   13  C4  UNL     1     -15.540  27.599  -1.060  1.00  0.00     0.273 C 
HETATM   14  C7  UNL     1     -14.248  29.394  -0.581  1.00  0.00     0.225 C 
HETATM   15  C5  UNL     1     -14.499  27.112  -0.073  1.00  0.00     0.032 C 
HETATM   16  C6  UNL     1     -13.776  28.346   0.397  1.00  0.00     0.037 C 
HETATM   17  C8  UNL     1     -13.091  30.190  -1.143  1.00  0.00     0.071 C 
ATOM     18  H3  UNL     1     -17.356  32.541  -2.388  1.00  0.00     0.165 HD
BRANCH   9  19
HETATM   19  C10 UNL     1     -12.439  32.497  -1.841  1.00  0.00     0.282 C 
HETATM   20  O1  UNL     1     -12.810  33.201  -2.823  1.00  0.00    -0.263 OA
BRANCH  19  21
HETATM   21  O2  UNL     1     -11.140  32.593  -1.457  1.00  0.00    -0.310 OA
BRANCH  21  22
HETATM   22  C11 UNL     1     -10.576  33.537  -0.597  1.00  0.00     0.060 C 
HETATM   23  C12 UNL     1      -9.689  32.897   0.450  1.00  0.00     0.045 C 
HETATM   24  C13 UNL     1      -9.661  34.422  -1.444  1.00  0.00     0.045 C 
HETATM   25  C14 UNL     1     -11.566  34.421   0.095  1.00  0.00     0.045 C 
ENDBRANCH  21  22
ENDBRANCH  19  21
ENDBRANCH   9  19
ENDBRANCH   1   4
TORSDOF 4
ENDMDL
MODEL 5
REMARK VINA RESULT: -5.940240639      2.745      6.368
REMARK  4 active torsions:
REMARK  status: ('A' for Active; 'I' for Inactive)
REMARK    1  A    between atoms: C9_10  and  C10_11 
REMARK    2  A    between atoms: C10_11  and  O2_13 
REMARK    3  A    between atoms: O2_13  and  C11_14 
REMARK       I    between atoms: N2_18  and  C15_19 
REMARK       I    between atoms: C15_19  and  N3_21 
REMARK    4  A    between atoms: N3_21  and  C16_23 
ROOT
HETATM    1  C16 UNL     1     -11.136  27.684   0.684  1.00  0.00     0.248 C 
HETATM    2  C17 UNL     1     -10.723  28.748   1.631  1.00  0.00     0.078 C 
HETATM    3  N4  UNL     1     -10.394  29.582   2.364  1.00  0.00    -0.196 NA
ENDROOT
BRANCH   1   4
HETATM    4  N3  UNL     1     -11.941  28.352  -0.339  1.00  0.00    -0.331 N 
HETATM    5  C15 UNL     1     -13.333  28.457  -0.243  1.00  0.00     0.320 C 
HETATM    6  N2  UNL     1     -14.200  29.078  -1.173  1.00  0.00    -0.314 N 
HETATM    7  O3  UNL     1     -13.865  27.936   0.800  1.00  0.00    -0.247 OA
HETATM    8  C2  UNL     1     -13.643  29.649  -2.355  1.00  0.00     0.114 C 
HETATM    9  C9  UNL     1     -15.618  29.087  -0.809  1.00  0.00     0.191 C 
HETATM   10  C1  UNL     1     -14.356  29.382  -3.636  1.00  0.00     0.034 C 
HETATM   11  C3  UNL     1     -13.411  31.142  -2.238  1.00  0.00     0.297 C 
HETATM   12  N1  UNL     1     -14.657  31.893  -2.228  1.00  0.00     0.095 N 
HETATM   13  C4  UNL     1     -14.330  33.289  -2.017  1.00  0.00     0.273 C 
HETATM   14  C7  UNL     1     -15.353  31.537  -1.014  1.00  0.00     0.225 C 
HETATM   15  C5  UNL     1     -15.600  33.843  -1.403  1.00  0.00     0.032 C 
HETATM   16  C6  UNL     1     -16.168  32.726  -0.567  1.00  0.00     0.037 C 
HETATM   17  C8  UNL     1     -16.234  30.351  -1.337  1.00  0.00     0.071 C 
ATOM     18  H3  UNL     1     -11.471  28.755  -1.150  1.00  0.00     0.165 HD
BRANCH   9  19
HETATM   19  C10 UNL     1     -16.338  27.863  -1.153  1.00  0.00     0.282 C 
HETATM   20  O1  UNL     1     -17.597  27.943  -1.232  1.00  0.00    -0.263 OA
BRANCH  19  21
HETATM   21  O2  UNL     1     -15.770  26.652  -1.390  1.00  0.00    -0.310 OA
BRANCH  21  22
HETATM   22  C11 UNL     1     -15.779  25.532  -0.558  1.00  0.00     0.060 C 
HETATM   23  C12 UNL     1     -16.374  25.836   0.802  1.00  0.00     0.045 C 
HETATM   24  C13 UNL     1     -16.706  24.501  -1.205  1.00  0.00     0.045 C 
HETATM   25  C14 UNL     1     -14.441  24.892  -0.358  1.00  0.00     0.045 C 
ENDBRANCH  21  22
ENDBRANCH  19  21
ENDBRANCH   9  19
ENDBRANCH   1   4
TORSDOF 4
ENDMDL
