MODEL 1
REMARK VINA RESULT: -7.906016856      0.000      0.000
REMARK  4 active torsions:
REMARK  status: ('A' for Active; 'I' for Inactive)
REMARK    1  A    between atoms: C2_2  and  O1_3 
REMARK    2  A    between atoms: C2_2  and  C3_5 
REMARK    3  A    between atoms: C3_5  and  O2_6 
REMARK    4  A    between atoms: C3_5  and  C4_8 
ROOT
HETATM    1  C4  UNL     1      -0.636  47.575   3.085  1.00  0.00     0.029 C 
HETATM    2  C5  UNL     1      -0.140  48.857   2.433  1.00  0.00     0.017 C 
HETATM    3  C6  UNL     1      -0.378  48.727   0.945  1.00  0.00    -0.047 C 
HETATM    4  C7  UNL     1       0.647  49.519   0.156  1.00  0.00     0.015 C 
HETATM    5  C8  UNL     1      -1.743  49.320   0.608  1.00  0.00     0.015 C 
HETATM    6  C9  UNL     1      -0.440  47.289   0.513  1.00  0.00     0.015 C 
HETATM    7  C10 UNL     1       0.469  46.380   1.291  1.00  0.00     0.007 C 
HETATM    8  C11 UNL     1       1.887  46.728   0.934  1.00  0.00     0.082 C 
HETATM    9  S1  UNL     1       2.907  45.331   1.533  1.00  0.00    -0.134 SA
HETATM   10  C12 UNL     1       2.186  44.939   3.172  1.00  0.00     0.216 C 
HETATM   11  O3  UNL     1       3.273  45.078   4.070  1.00  0.00    -0.338 OA
HETATM   12  C13 UNL     1       3.444  46.455   4.193  1.00  0.00     0.159 C 
HETATM   13  C14 UNL     1       3.661  46.817   5.659  1.00  0.00     0.078 C 
HETATM   14  C15 UNL     1       4.603  46.981   3.405  1.00  0.00     0.078 C 
HETATM   15  O4  UNL     1       2.293  47.081   3.741  1.00  0.00    -0.346 OA
HETATM   16  C16 UNL     1       1.343  46.106   3.637  1.00  0.00     0.173 C 
HETATM   17  C17 UNL     1       0.175  46.374   2.772  1.00  0.00    -0.004 C 
HETATM   18  C18 UNL     1      -0.768  45.166   2.990  1.00  0.00     0.019 C 
ENDROOT
BRANCH   1  19
HETATM   19  C3  UNL     1      -1.110  47.806   4.459  1.00  0.00     0.151 C 
BRANCH  19  20
HETATM   20  C2  UNL     1      -2.528  47.676   4.811  1.00  0.00     0.143 C 
HETATM   21  C1  UNL     1      -3.310  47.703   3.478  1.00  0.00     0.042 C 
BRANCH  20  22
HETATM   22  O1  UNL     1      -3.074  48.719   5.544  1.00  0.00    -0.393 OA
ATOM     23  H1  UNL     1      -3.095  48.389   6.434  1.00  0.00     0.210 HD
ENDBRANCH  20  22
ENDBRANCH  19  20
BRANCH  19  24
HETATM   24  O2  UNL     1      -0.672  49.063   4.899  1.00  0.00    -0.393 OA
ATOM     25  H2  UNL     1       0.275  49.085   4.822  1.00  0.00     0.210 HD
ENDBRANCH  19  24
ENDBRANCH   1  19
TORSDOF 4
ENDMDL
MODEL 2
REMARK VINA RESULT: -7.602161119      2.002      2.551
REMARK  4 active torsions:
REMARK  status: ('A' for Active; 'I' for Inactive)
REMARK    1  A    between atoms: C2_2  and  O1_3 
REMARK    2  A    between atoms: C2_2  and  C3_5 
REMARK    3  A    between atoms: C3_5  and  O2_6 
REMARK    4  A    between atoms: C3_5  and  C4_8 
ROOT
HETATM    1  C4  UNL     1       0.266  46.890   3.349  1.00  0.00     0.029 C 
HETATM    2  C5  UNL     1      -0.538  48.182   3.347  1.00  0.00     0.017 C 
HETATM    3  C6  UNL     1      -1.310  48.232   2.048  1.00  0.00    -0.047 C 
HETATM    4  C7  UNL     1      -1.543  49.663   1.605  1.00  0.00     0.015 C 
HETATM    5  C8  UNL     1      -2.686  47.611   2.265  1.00  0.00     0.015 C 
HETATM    6  C9  UNL     1      -0.654  47.406   0.977  1.00  0.00     0.015 C 
HETATM    7  C10 UNL     1       0.847  47.393   1.052  1.00  0.00     0.007 C 
HETATM    8  C11 UNL     1       1.340  48.768   0.697  1.00  0.00     0.082 C 
HETATM    9  S1  UNL     1       3.129  48.583   0.360  1.00  0.00    -0.134 SA
HETATM   10  C12 UNL     1       3.704  47.449   1.681  1.00  0.00     0.216 C 
HETATM   11  O3  UNL     1       4.717  48.181   2.348  1.00  0.00    -0.338 OA
HETATM   12  C13 UNL     1       4.021  49.119   3.107  1.00  0.00     0.159 C 
HETATM   13  C14 UNL     1       4.624  49.198   4.507  1.00  0.00     0.078 C 
HETATM   14  C15 UNL     1       4.037  50.493   2.513  1.00  0.00     0.078 C 
HETATM   15  O4  UNL     1       2.702  48.707   3.209  1.00  0.00    -0.346 OA
HETATM   16  C16 UNL     1       2.673  47.409   2.787  1.00  0.00     0.173 C 
HETATM   17  C17 UNL     1       1.371  46.853   2.361  1.00  0.00    -0.004 C 
HETATM   18  C18 UNL     1       1.645  45.353   2.098  1.00  0.00     0.019 C 
ENDROOT
BRANCH   1  19
HETATM   19  C3  UNL     1       0.479  46.378   4.712  1.00  0.00     0.151 C 
BRANCH  19  20
HETATM   20  C2  UNL     1      -0.534  45.561   5.389  1.00  0.00     0.143 C 
HETATM   21  C1  UNL     1      -1.139  44.635   4.307  1.00  0.00     0.042 C 
BRANCH  20  22
HETATM   22  O1  UNL     1      -1.628  46.243   5.899  1.00  0.00    -0.393 OA
ATOM     23  H1  UNL     1      -1.609  46.047   6.828  1.00  0.00     0.210 HD
ENDBRANCH  20  22
ENDBRANCH  19  20
BRANCH  19  24
HETATM   24  O2  UNL     1       0.813  47.441   5.563  1.00  0.00    -0.393 OA
ATOM     25  H2  UNL     1       0.351  47.313   6.383  1.00  0.00     0.210 HD
ENDBRANCH  19  24
ENDBRANCH   1  19
TORSDOF 4
ENDMDL
MODEL 3
REMARK VINA RESULT: -7.472516941      2.329      6.020
REMARK  4 active torsions:
REMARK  status: ('A' for Active; 'I' for Inactive)
REMARK    1  A    between atoms: C2_2  and  O1_3 
REMARK    2  A    between atoms: C2_2  and  C3_5 
REMARK    3  A    between atoms: C3_5  and  O2_6 
REMARK    4  A    between atoms: C3_5  and  C4_8 
ROOT
HETATM    1  C4  UNL     1       4.603  48.062   3.752  1.00  0.00     0.029 C 
HETATM    2  C5  UNL     1       4.129  47.398   5.037  1.00  0.00     0.017 C 
HETATM    3  C6  UNL     1       4.929  46.125   5.207  1.00  0.00    -0.047 C 
HETATM    4  C7  UNL     1       4.132  45.075   5.957  1.00  0.00     0.015 C 
HETATM    5  C8  UNL     1       6.163  46.425   6.052  1.00  0.00     0.015 C 
HETATM    6  C9  UNL     1       5.448  45.612   3.894  1.00  0.00     0.015 C 
HETATM    7  C10 UNL     1       4.527  45.866   2.733  1.00  0.00     0.007 C 
HETATM    8  C11 UNL     1       3.308  45.007   2.915  1.00  0.00     0.082 C 
HETATM    9  S1  UNL     1       2.456  45.004   1.296  1.00  0.00    -0.134 SA
HETATM   10  C12 UNL     1       2.576  46.747   0.739  1.00  0.00     0.216 C 
HETATM   11  O3  UNL     1       1.229  47.143   0.550  1.00  0.00    -0.338 OA
HETATM   12  C13 UNL     1       0.739  47.324   1.841  1.00  0.00     0.159 C 
HETATM   13  C14 UNL     1      -0.082  48.609   1.904  1.00  0.00     0.078 C 
HETATM   14  C15 UNL     1      -0.124  46.194   2.312  1.00  0.00     0.078 C 
HETATM   15  O4  UNL     1       1.816  47.436   2.706  1.00  0.00    -0.346 OA
HETATM   16  C16 UNL     1       2.918  47.625   1.923  1.00  0.00     0.173 C 
HETATM   17  C17 UNL     1       4.240  47.332   2.514  1.00  0.00    -0.004 C 
HETATM   18  C18 UNL     1       5.264  47.788   1.447  1.00  0.00     0.019 C 
ENDROOT
BRANCH   1  19
HETATM   19  C3  UNL     1       4.468  49.527   3.811  1.00  0.00     0.151 C 
BRANCH  19  20
HETATM   20  C2  UNL     1       5.513  50.368   4.402  1.00  0.00     0.143 C 
HETATM   21  C1  UNL     1       6.846  49.922   3.757  1.00  0.00     0.042 C 
BRANCH  20  22
HETATM   22  O1  UNL     1       5.728  50.210   5.763  1.00  0.00    -0.393 OA
ATOM     23  H1  UNL     1       6.343  50.900   5.981  1.00  0.00     0.210 HD
ENDBRANCH  20  22
ENDBRANCH  19  20
BRANCH  19  24
HETATM   24  O2  UNL     1       3.251  49.860   4.421  1.00  0.00    -0.393 OA
ATOM     25  H2  UNL     1       3.046  49.181   5.053  1.00  0.00     0.210 HD
ENDBRANCH  19  24
ENDBRANCH   1  19
TORSDOF 4
ENDMDL
MODEL 4
REMARK VINA RESULT: -7.110327022      2.764      5.835
REMARK  4 active torsions:
REMARK  status: ('A' for Active; 'I' for Inactive)
REMARK    1  A    between atoms: C2_2  and  O1_3 
REMARK    2  A    between atoms: C2_2  and  C3_5 
REMARK    3  A    between atoms: C3_5  and  O2_6 
REMARK    4  A    between atoms: C3_5  and  C4_8 
ROOT
HETATM    1  C4  UNL     1       3.273  48.766   2.187  1.00  0.00     0.029 C 
HETATM    2  C5  UNL     1       3.136  49.366   3.578  1.00  0.00     0.017 C 
HETATM    3  C6  UNL     1       3.700  48.363   4.560  1.00  0.00    -0.047 C 
HETATM    4  C7  UNL     1       3.016  48.474   5.908  1.00  0.00     0.015 C 
HETATM    5  C8  UNL     1       5.176  48.671   4.789  1.00  0.00     0.015 C 
HETATM    6  C9  UNL     1       3.656  46.963   4.014  1.00  0.00     0.015 C 
HETATM    7  C10 UNL     1       2.467  46.688   3.137  1.00  0.00     0.007 C 
HETATM    8  C11 UNL     1       1.240  46.698   4.004  1.00  0.00     0.082 C 
HETATM    9  S1  UNL     1      -0.083  45.925   3.003  1.00  0.00    -0.134 SA
HETATM   10  C12 UNL     1       0.163  46.639   1.333  1.00  0.00     0.216 C 
HETATM   11  O3  UNL     1      -1.074  47.261   1.037  1.00  0.00    -0.338 OA
HETATM   12  C13 UNL     1      -1.071  48.420   1.810  1.00  0.00     0.159 C 
HETATM   13  C14 UNL     1      -1.576  49.595   0.977  1.00  0.00     0.078 C 
HETATM   14  C15 UNL     1      -1.921  48.317   3.038  1.00  0.00     0.078 C 
HETATM   15  O4  UNL     1       0.232  48.678   2.206  1.00  0.00    -0.346 OA
HETATM   16  C16 UNL     1       1.030  47.875   1.443  1.00  0.00     0.173 C 
HETATM   17  C17 UNL     1       2.396  47.597   1.933  1.00  0.00    -0.004 C 
HETATM   18  C18 UNL     1       3.077  46.806   0.790  1.00  0.00     0.019 C 
ENDROOT
BRANCH   1  19
HETATM   19  C3  UNL     1       3.434  49.803   1.156  1.00  0.00     0.151 C 
BRANCH  19  20
HETATM   20  C2  UNL     1       4.438  49.677   0.093  1.00  0.00     0.143 C 
HETATM   21  C1  UNL     1       5.816  49.686   0.795  1.00  0.00     0.042 C 
BRANCH  20  22
HETATM   22  O1  UNL     1       4.511  50.729  -0.806  1.00  0.00    -0.393 OA
ATOM     23  H1  UNL     1       5.432  50.964  -0.811  1.00  0.00     0.210 HD
ENDBRANCH  20  22
ENDBRANCH  19  20
BRANCH  19  24
HETATM   24  O2  UNL     1       3.615  51.050   1.772  1.00  0.00    -0.393 OA
ATOM     25  H2  UNL     1       2.942  51.636   1.446  1.00  0.00     0.210 HD
ENDBRANCH  19  24
ENDBRANCH   1  19
TORSDOF 4
ENDMDL
MODEL 5
REMARK VINA RESULT: -7.088256573      2.616      4.747
REMARK  4 active torsions:
REMARK  status: ('A' for Active; 'I' for Inactive)
REMARK    1  A    between atoms: C2_2  and  O1_3 
REMARK    2  A    between atoms: C2_2  and  C3_5 
REMARK    3  A    between atoms: C3_5  and  O2_6 
REMARK    4  A    between atoms: C3_5  and  C4_8 
ROOT
HETATM    1  C4  UNL     1       1.460  46.204   3.170  1.00  0.00     0.029 C 
HETATM    2  C5  UNL     1       2.395  45.073   2.765  1.00  0.00     0.017 C 
HETATM    3  C6  UNL     1       2.984  44.499   4.034  1.00  0.00    -0.047 C 
HETATM    4  C7  UNL     1       4.367  43.929   3.787  1.00  0.00     0.015 C 
HETATM    5  C8  UNL     1       2.110  43.340   4.505  1.00  0.00     0.015 C 
HETATM    6  C9  UNL     1       2.974  45.498   5.156  1.00  0.00     0.015 C 
HETATM    7  C10 UNL     1       3.188  46.917   4.710  1.00  0.00     0.007 C 
HETATM    8  C11 UNL     1       4.605  47.041   4.226  1.00  0.00     0.082 C 
HETATM    9  S1  UNL     1       4.943  48.837   4.132  1.00  0.00    -0.134 SA
HETATM   10  C12 UNL     1       3.406  49.531   3.412  1.00  0.00     0.216 C 
HETATM   11  O3  UNL     1       3.843  50.196   2.241  1.00  0.00    -0.338 OA
HETATM   12  C13 UNL     1       4.102  49.167   1.338  1.00  0.00     0.159 C 
HETATM   13  C14 UNL     1       3.538  49.532  -0.033  1.00  0.00     0.078 C 
HETATM   14  C15 UNL     1       5.561  48.871   1.179  1.00  0.00     0.078 C 
HETATM   15  O4  UNL     1       3.474  48.018   1.790  1.00  0.00    -0.346 OA
HETATM   16  C16 UNL     1       2.610  48.416   2.770  1.00  0.00     0.173 C 
HETATM   17  C17 UNL     1       2.143  47.394   3.730  1.00  0.00    -0.004 C 
HETATM   18  C18 UNL     1       1.080  48.115   4.594  1.00  0.00     0.019 C 
ENDROOT
BRANCH   1  19
HETATM   19  C3  UNL     1       0.355  46.370   2.212  1.00  0.00     0.151 C 
BRANCH  19  20
HETATM   20  C2  UNL     1      -0.867  45.565   2.307  1.00  0.00     0.143 C 
HETATM   21  C1  UNL     1      -2.007  46.547   2.667  1.00  0.00     0.042 C 
BRANCH  20  22
HETATM   22  O1  UNL     1      -0.901  44.623   3.324  1.00  0.00    -0.393 OA
ATOM     23  H1  UNL     1      -0.059  44.187   3.263  1.00  0.00     0.210 HD
ENDBRANCH  20  22
ENDBRANCH  19  20
BRANCH  19  24
HETATM   24  O2  UNL     1       0.847  46.252   0.905  1.00  0.00    -0.393 OA
ATOM     25  H2  UNL     1       1.710  46.648   0.882  1.00  0.00     0.210 HD
ENDBRANCH  19  24
ENDBRANCH   1  19
TORSDOF 4
ENDMDL
