MODEL 1
REMARK VINA RESULT: -10.375097476      0.000      0.000
REMARK  2 active torsions:
REMARK  status: ('A' for Active; 'I' for Inactive)
REMARK    1  A    between atoms: C3_4  and  C4_5 
REMARK    2  A    between atoms: C9_11  and  C10_12 
ROOT
HETATM    1  N1  UNL     1       7.471  49.032   3.279  1.00  0.00    -0.191 NA
HETATM    2  C1  UNL     1       7.304  50.080   2.870  1.00  0.00     0.104 C 
HETATM    3  C2  UNL     1       7.104  51.414   2.402  1.00  0.00     0.099 A 
HETATM    4  C3  UNL     1       6.040  51.791   1.667  1.00  0.00     0.008 A 
HETATM    5  C8  UNL     1       5.923  53.146   1.346  1.00  0.00     0.045 A 
HETATM    6  C9  UNL     1       6.839  54.112   1.739  1.00  0.00     0.051 A 
HETATM    7  N2  UNL     1       7.872  53.666   2.462  1.00  0.00    -0.341 N 
ATOM      8  H2  UNL     1       8.570  54.343   2.769  1.00  0.00     0.167 HD
HETATM    9  C19 UNL     1       8.045  52.366   2.811  1.00  0.00     0.121 A 
HETATM   10  N3  UNL     1       9.073  52.031   3.512  1.00  0.00    -0.384 N 
ATOM     11  H31 UNL     1       9.758  52.725   3.810  1.00  0.00     0.157 HD
ATOM     12  H32 UNL     1       9.203  51.054   3.773  1.00  0.00     0.157 HD
ENDROOT
BRANCH   4  13
HETATM   13  C4  UNL     1       5.034  50.869   1.107  1.00  0.00     0.016 A 
HETATM   14  C5  UNL     1       4.697  50.475  -0.141  1.00  0.00     0.020 A 
HETATM   15  C6  UNL     1       3.651  49.643  -0.289  1.00  0.00     0.008 A 
HETATM   16  C7  UNL     1       2.989  49.244   0.830  1.00  0.00     0.050 A 
HETATM   17  S1  UNL     1       3.834  50.034   2.068  1.00  0.00    -0.101 SA
ENDBRANCH   4  13
BRANCH   6  18
HETATM   18  C10 UNL     1       6.646  55.509   1.415  1.00  0.00     0.067 A 
HETATM   19  C11 UNL     1       7.690  56.165   0.747  1.00  0.00     0.034 A 
HETATM   20  C12 UNL     1       7.494  57.489   0.401  1.00  0.00    -0.001 A 
HETATM   21  C13 UNL     1       8.512  58.188  -0.270  1.00  0.00     0.014 A 
HETATM   22  C17 UNL     1       6.307  58.105   0.717  1.00  0.00     0.089 A 
HETATM   23  C14 UNL     1       8.349  59.502  -0.626  1.00  0.00     0.001 A 
HETATM   24  C15 UNL     1       7.166  60.130  -0.316  1.00  0.00     0.003 A 
HETATM   25  C16 UNL     1       6.174  59.439   0.341  1.00  0.00     0.038 A 
HETATM   26  O1  UNL     1       5.338  57.483   1.341  1.00  0.00    -0.274 OA
HETATM   27  C18 UNL     1       5.495  56.198   1.691  1.00  0.00     0.300 A 
HETATM   28  O2  UNL     1       4.508  55.687   2.284  1.00  0.00    -0.259 OA
ENDBRANCH   6  18
TORSDOF 2
ENDMDL
MODEL 2
REMARK VINA RESULT: -10.323702708      2.310      3.136
REMARK  2 active torsions:
REMARK  status: ('A' for Active; 'I' for Inactive)
REMARK    1  A    between atoms: C3_4  and  C4_5 
REMARK    2  A    between atoms: C9_11  and  C10_12 
ROOT
HETATM    1  N1  UNL     1      10.469  50.431   1.646  1.00  0.00    -0.191 NA
HETATM    2  C1  UNL     1      10.013  51.434   1.364  1.00  0.00     0.104 C 
HETATM    3  C2  UNL     1       9.474  52.716   1.040  1.00  0.00     0.099 A 
HETATM    4  C3  UNL     1       8.159  53.001   1.085  1.00  0.00     0.008 A 
HETATM    5  C8  UNL     1       7.773  54.319   0.825  1.00  0.00     0.045 A 
HETATM    6  C9  UNL     1       8.667  55.338   0.525  1.00  0.00     0.051 A 
HETATM    7  N2  UNL     1       9.956  54.982   0.493  1.00  0.00    -0.341 N 
ATOM      8  H2  UNL     1      10.646  55.700   0.273  1.00  0.00     0.167 HD
HETATM    9  C19 UNL     1      10.399  53.722   0.737  1.00  0.00     0.121 A 
HETATM   10  N3  UNL     1      11.662  53.476   0.686  1.00  0.00    -0.384 N 
ATOM     11  H31 UNL     1      12.336  54.209   0.465  1.00  0.00     0.157 HD
ATOM     12  H32 UNL     1      11.994  52.529   0.869  1.00  0.00     0.157 HD
ENDROOT
BRANCH   4  13
HETATM   13  C4  UNL     1       7.090  52.009   1.307  1.00  0.00     0.016 A 
HETATM   14  C5  UNL     1       6.320  51.246   0.499  1.00  0.00     0.020 A 
HETATM   15  C6  UNL     1       5.370  50.478   1.061  1.00  0.00     0.008 A 
HETATM   16  C7  UNL     1       5.236  50.513   2.414  1.00  0.00     0.050 A 
HETATM   17  S1  UNL     1       6.435  51.615   2.880  1.00  0.00    -0.101 SA
ENDBRANCH   4  13
BRANCH   6  18
HETATM   18  C10 UNL     1       8.216  56.695   0.306  1.00  0.00     0.067 A 
HETATM   19  C11 UNL     1       7.000  57.072   0.896  1.00  0.00     0.034 A 
HETATM   20  C12 UNL     1       6.585  58.379   0.722  1.00  0.00    -0.001 A 
HETATM   21  C13 UNL     1       5.374  58.803   1.295  1.00  0.00     0.014 A 
HETATM   22  C17 UNL     1       7.361  59.246  -0.008  1.00  0.00     0.089 A 
HETATM   23  C14 UNL     1       4.934  60.092   1.140  1.00  0.00     0.001 A 
HETATM   24  C15 UNL     1       5.701  60.971   0.412  1.00  0.00     0.003 A 
HETATM   25  C16 UNL     1       6.885  60.548  -0.145  1.00  0.00     0.038 A 
HETATM   26  O1  UNL     1       8.495  58.885  -0.554  1.00  0.00    -0.274 OA
HETATM   27  C18 UNL     1       8.928  57.624  -0.405  1.00  0.00     0.300 A 
HETATM   28  O2  UNL     1      10.028  57.373  -0.964  1.00  0.00    -0.259 OA
ENDBRANCH   6  18
TORSDOF 2
ENDMDL
MODEL 3
REMARK VINA RESULT: -10.223797512      1.213      1.952
REMARK  2 active torsions:
REMARK  status: ('A' for Active; 'I' for Inactive)
REMARK    1  A    between atoms: C3_4  and  C4_5 
REMARK    2  A    between atoms: C9_11  and  C10_12 
ROOT
HETATM    1  N1  UNL     1       7.400  49.060   3.356  1.00  0.00    -0.191 NA
HETATM    2  C1  UNL     1       7.269  50.104   2.925  1.00  0.00     0.104 C 
HETATM    3  C2  UNL     1       7.113  51.435   2.430  1.00  0.00     0.099 A 
HETATM    4  C3  UNL     1       6.069  51.829   1.677  1.00  0.00     0.008 A 
HETATM    5  C8  UNL     1       5.996  53.181   1.328  1.00  0.00     0.045 A 
HETATM    6  C9  UNL     1       6.936  54.127   1.714  1.00  0.00     0.051 A 
HETATM    7  N2  UNL     1       7.947  53.664   2.457  1.00  0.00    -0.341 N 
ATOM      8  H2  UNL     1       8.662  54.326   2.760  1.00  0.00     0.167 HD
HETATM    9  C19 UNL     1       8.078  52.366   2.832  1.00  0.00     0.121 A 
HETATM   10  N3  UNL     1       9.087  52.015   3.551  1.00  0.00    -0.384 N 
ATOM     11  H31 UNL     1       9.790  52.693   3.844  1.00  0.00     0.157 HD
ATOM     12  H32 UNL     1       9.185  51.039   3.833  1.00  0.00     0.157 HD
ENDROOT
BRANCH   4  13
HETATM   13  C4  UNL     1       5.042  50.926   1.123  1.00  0.00     0.016 A 
HETATM   14  C5  UNL     1       4.695  50.534  -0.123  1.00  0.00     0.020 A 
HETATM   15  C6  UNL     1       3.631  49.724  -0.266  1.00  0.00     0.008 A 
HETATM   16  C7  UNL     1       2.962  49.345   0.857  1.00  0.00     0.050 A 
HETATM   17  S1  UNL     1       3.826  50.122   2.089  1.00  0.00    -0.101 SA
ENDBRANCH   4  13
BRANCH   6  18
HETATM   18  C10 UNL     1       6.788  55.522   1.362  1.00  0.00     0.067 A 
HETATM   19  C11 UNL     1       5.620  56.173   1.786  1.00  0.00     0.034 A 
HETATM   20  C12 UNL     1       5.492  57.516   1.484  1.00  0.00    -0.001 A 
HETATM   21  C13 UNL     1       4.340  58.211   1.889  1.00  0.00     0.014 A 
HETATM   22  C17 UNL     1       6.494  58.154   0.793  1.00  0.00     0.089 A 
HETATM   23  C14 UNL     1       4.183  59.542   1.605  1.00  0.00     0.001 A 
HETATM   24  C15 UNL     1       5.177  60.194   0.915  1.00  0.00     0.003 A 
HETATM   25  C16 UNL     1       6.303  59.507   0.522  1.00  0.00     0.038 A 
HETATM   26  O1  UNL     1       7.580  57.538   0.402  1.00  0.00    -0.274 OA
HETATM   27  C18 UNL     1       7.737  56.235   0.678  1.00  0.00     0.300 A 
HETATM   28  O2  UNL     1       8.815  55.732   0.263  1.00  0.00    -0.259 OA
ENDBRANCH   6  18
TORSDOF 2
ENDMDL
MODEL 4
REMARK VINA RESULT: -10.023605014      2.270      3.536
REMARK  2 active torsions:
REMARK  status: ('A' for Active; 'I' for Inactive)
REMARK    1  A    between atoms: C3_4  and  C4_5 
REMARK    2  A    between atoms: C9_11  and  C10_12 
ROOT
HETATM    1  N1  UNL     1       7.117  49.141   1.723  1.00  0.00    -0.191 NA
HETATM    2  C1  UNL     1       7.101  50.277   1.676  1.00  0.00     0.104 C 
HETATM    3  C2  UNL     1       7.041  51.701   1.587  1.00  0.00     0.099 A 
HETATM    4  C3  UNL     1       8.107  52.472   1.298  1.00  0.00     0.008 A 
HETATM    5  C8  UNL     1       7.893  53.846   1.159  1.00  0.00     0.045 A 
HETATM    6  C9  UNL     1       6.652  54.450   1.303  1.00  0.00     0.051 A 
HETATM    7  N2  UNL     1       5.640  53.625   1.593  1.00  0.00    -0.341 N 
ATOM      8  H2  UNL     1       4.710  54.028   1.710  1.00  0.00     0.167 HD
HETATM    9  C19 UNL     1       5.778  52.282   1.740  1.00  0.00     0.121 A 
HETATM   10  N3  UNL     1       4.742  51.568   2.019  1.00  0.00    -0.384 N 
ATOM     11  H31 UNL     1       3.821  51.992   2.130  1.00  0.00     0.157 HD
ATOM     12  H32 UNL     1       4.846  50.559   2.129  1.00  0.00     0.157 HD
ENDROOT
BRANCH   4  13
HETATM   13  C4  UNL     1       9.496  51.985   1.200  1.00  0.00     0.016 A 
HETATM   14  C5  UNL     1      10.567  51.999   2.024  1.00  0.00     0.020 A 
HETATM   15  C6  UNL     1      11.733  51.507   1.567  1.00  0.00     0.008 A 
HETATM   16  C7  UNL     1      11.767  51.023   0.296  1.00  0.00     0.050 A 
HETATM   17  S1  UNL     1      10.177  51.261  -0.239  1.00  0.00    -0.101 SA
ENDBRANCH   4  13
BRANCH   6  18
HETATM   18  C10 UNL     1       6.479  55.873   1.105  1.00  0.00     0.067 A 
HETATM   19  C11 UNL     1       7.526  56.567   0.481  1.00  0.00     0.034 A 
HETATM   20  C12 UNL     1       7.349  57.919   0.254  1.00  0.00    -0.001 A 
HETATM   21  C13 UNL     1       8.370  58.657  -0.369  1.00  0.00     0.014 A 
HETATM   22  C17 UNL     1       6.178  58.525   0.641  1.00  0.00     0.089 A 
HETATM   23  C14 UNL     1       8.225  59.999  -0.607  1.00  0.00     0.001 A 
HETATM   24  C15 UNL     1       7.059  60.618  -0.225  1.00  0.00     0.003 A 
HETATM   25  C16 UNL     1       6.064  59.889   0.385  1.00  0.00     0.038 A 
HETATM   26  O1  UNL     1       5.206  57.867   1.223  1.00  0.00    -0.274 OA
HETATM   27  C18 UNL     1       5.345  56.554   1.458  1.00  0.00     0.300 A 
HETATM   28  O2  UNL     1       4.357  56.010   2.019  1.00  0.00    -0.259 OA
ENDBRANCH   6  18
TORSDOF 2
ENDMDL
MODEL 5
REMARK VINA RESULT: -9.955664182      3.381      7.890
REMARK  2 active torsions:
REMARK  status: ('A' for Active; 'I' for Inactive)
REMARK    1  A    between atoms: C3_4  and  C4_5 
REMARK    2  A    between atoms: C9_11  and  C10_12 
ROOT
HETATM    1  N1  UNL     1       5.977  61.291   0.363  1.00  0.00    -0.191 NA
HETATM    2  C1  UNL     1       6.065  60.170   0.533  1.00  0.00     0.104 C 
HETATM    3  C2  UNL     1       6.161  58.770   0.795  1.00  0.00     0.099 A 
HETATM    4  C3  UNL     1       7.232  58.024   0.462  1.00  0.00     0.008 A 
HETATM    5  C8  UNL     1       7.232  56.682   0.852  1.00  0.00     0.045 A 
HETATM    6  C9  UNL     1       6.196  56.084   1.555  1.00  0.00     0.051 A 
HETATM    7  N2  UNL     1       5.163  56.882   1.848  1.00  0.00    -0.341 N 
ATOM      8  H2  UNL     1       4.378  56.482   2.362  1.00  0.00     0.167 HD
HETATM    9  C19 UNL     1       5.099  58.194   1.502  1.00  0.00     0.121 A 
HETATM   10  N3  UNL     1       4.062  58.883   1.830  1.00  0.00    -0.384 N 
ATOM     11  H31 UNL     1       3.289  58.464   2.346  1.00  0.00     0.157 HD
ATOM     12  H32 UNL     1       4.015  59.869   1.570  1.00  0.00     0.157 HD
ENDROOT
BRANCH   4  13
HETATM   13  C4  UNL     1       8.366  58.497  -0.353  1.00  0.00     0.016 A 
HETATM   14  C5  UNL     1       8.660  59.651  -0.992  1.00  0.00     0.020 A 
HETATM   15  C6  UNL     1       9.791  59.711  -1.718  1.00  0.00     0.008 A 
HETATM   16  C7  UNL     1      10.577  58.601  -1.769  1.00  0.00     0.050 A 
HETATM   17  S1  UNL     1       9.727  57.496  -0.805  1.00  0.00    -0.101 SA
ENDBRANCH   4  13
BRANCH   6  18
HETATM   18  C10 UNL     1       6.268  54.700   1.971  1.00  0.00     0.067 A 
HETATM   19  C11 UNL     1       6.081  53.721   0.985  1.00  0.00     0.034 A 
HETATM   20  C12 UNL     1       6.188  52.398   1.370  1.00  0.00    -0.001 A 
HETATM   21  C13 UNL     1       6.009  51.381   0.416  1.00  0.00     0.014 A 
HETATM   22  C17 UNL     1       6.466  52.093   2.681  1.00  0.00     0.089 A 
HETATM   23  C14 UNL     1       6.108  50.060   0.768  1.00  0.00     0.001 A 
HETATM   24  C15 UNL     1       6.387  49.741   2.075  1.00  0.00     0.003 A 
HETATM   25  C16 UNL     1       6.560  50.742   3.003  1.00  0.00     0.038 A 
HETATM   26  O1  UNL     1       6.639  53.015   3.595  1.00  0.00    -0.274 OA
HETATM   27  C18 UNL     1       6.543  54.309   3.254  1.00  0.00     0.300 A 
HETATM   28  O2  UNL     1       6.727  55.120   4.201  1.00  0.00    -0.259 OA
ENDBRANCH   6  18
TORSDOF 2
ENDMDL
