MODEL 1
REMARK VINA RESULT: -10.686514780      0.000      0.000
REMARK  3 active torsions:
REMARK  status: ('A' for Active; 'I' for Inactive)
REMARK    1  A    between atoms: C4_7  and  N3_8 
REMARK    2  A    between atoms: N3_8  and  C5_10 
REMARK    3  A    between atoms: C13_23  and  C14_24 
ROOT
HETATM    1  N1  UNL     1       3.894  59.104   1.991  1.00  0.00    -0.190 NA
HETATM    2  C1  UNL     1       4.499  58.128   1.864  1.00  0.00     0.118 C 
HETATM    3  C2  UNL     1       5.270  56.906   1.681  1.00  0.00     0.128 A 
HETATM    4  N2  UNL     1       4.912  55.702   2.150  1.00  0.00    -0.341 N 
ATOM      5  H2  UNL     1       4.062  55.521   2.684  1.00  0.00     0.167 HD
HETATM    6  C3  UNL     1       5.817  54.762   1.828  1.00  0.00     0.117 A 
HETATM    7  C4  UNL     1       6.192  53.438   1.897  1.00  0.00     0.156 A 
HETATM    8  N4  UNL     1       7.356  53.357   1.237  1.00  0.00    -0.242 N 
ATOM      9  H4  UNL     1       7.900  52.504   1.106  1.00  0.00     0.196 HD
HETATM   10  O3  UNL     1       7.685  54.533   0.790  1.00  0.00    -0.233 OA
HETATM   11  C12 UNL     1       6.802  55.445   1.106  1.00  0.00     0.143 A 
HETATM   12  C13 UNL     1       6.468  56.779   1.011  1.00  0.00     0.050 A 
ENDROOT
BRANCH  12  13
HETATM   13  C14 UNL     1       7.241  57.813   0.339  1.00  0.00    -0.020 A 
HETATM   14  C15 UNL     1       6.779  59.123   0.207  1.00  0.00     0.012 A 
HETATM   15  C16 UNL     1       7.511  60.089  -0.426  1.00  0.00     0.001 A 
HETATM   16  C17 UNL     1       8.755  59.760  -0.956  1.00  0.00     0.000 A 
HETATM   17  C18 UNL     1       9.237  58.470  -0.840  1.00  0.00     0.001 A 
HETATM   18  C19 UNL     1       8.486  57.509  -0.199  1.00  0.00     0.012 A 
ENDBRANCH  12  13
BRANCH   7  19
HETATM   19  N3  UNL     1       5.555  52.488   2.474  1.00  0.00    -0.339 N 
ATOM     20  H3  UNL     1       5.419  52.546   3.484  1.00  0.00     0.167 HD
BRANCH  19  21
HETATM   21  C5  UNL     1       5.028  51.366   1.800  1.00  0.00     0.036 A 
HETATM   22  C6  UNL     1       5.130  51.236   0.419  1.00  0.00     0.032 A 
HETATM   23  C7  UNL     1       4.609  50.133  -0.240  1.00  0.00     0.042 A 
HETATM   24  C8  UNL     1       3.975  49.136   0.465  1.00  0.00     0.105 A 
HETATM   25  C9  UNL     1       3.856  49.232   1.832  1.00  0.00     0.107 A 
HETATM   26  O2  UNL     1       3.362  47.933   0.099  1.00  0.00    -0.323 OA
HETATM   27  C10 UNL     1       4.387  50.352   2.475  1.00  0.00     0.069 A 
HETATM   28  O1  UNL     1       3.183  48.106   2.287  1.00  0.00    -0.323 OA
HETATM   29  C11 UNL     1       2.627  47.409   1.188  1.00  0.00     0.352 C 
ENDBRANCH  19  21
ENDBRANCH   7  19
TORSDOF 3
ENDMDL
MODEL 2
REMARK VINA RESULT: -10.376063557      1.650      1.790
REMARK  3 active torsions:
REMARK  status: ('A' for Active; 'I' for Inactive)
REMARK    1  A    between atoms: C4_7  and  N3_8 
REMARK    2  A    between atoms: N3_8  and  C5_10 
REMARK    3  A    between atoms: C13_23  and  C14_24 
ROOT
HETATM    1  N1  UNL     1       3.851  59.311   2.036  1.00  0.00    -0.190 NA
HETATM    2  C1  UNL     1       4.431  58.324   1.884  1.00  0.00     0.118 C 
HETATM    3  C2  UNL     1       5.171  57.089   1.669  1.00  0.00     0.128 A 
HETATM    4  N2  UNL     1       4.789  55.883   2.115  1.00  0.00    -0.341 N 
ATOM      5  H2  UNL     1       3.939  55.712   2.652  1.00  0.00     0.167 HD
HETATM    6  C3  UNL     1       5.668  54.929   1.766  1.00  0.00     0.117 A 
HETATM    7  C4  UNL     1       6.013  53.596   1.804  1.00  0.00     0.156 A 
HETATM    8  N4  UNL     1       7.169  53.502   1.133  1.00  0.00    -0.242 N 
ATOM      9  H4  UNL     1       7.692  52.639   0.980  1.00  0.00     0.196 HD
HETATM   10  O3  UNL     1       7.523  54.679   0.707  1.00  0.00    -0.233 OA
HETATM   11  C12 UNL     1       6.664  55.604   1.050  1.00  0.00     0.143 A 
HETATM   12  C13 UNL     1       6.361  56.947   0.986  1.00  0.00     0.050 A 
ENDROOT
BRANCH  12  13
HETATM   13  C14 UNL     1       7.153  57.977   0.329  1.00  0.00    -0.020 A 
HETATM   14  C15 UNL     1       6.719  59.299   0.226  1.00  0.00     0.012 A 
HETATM   15  C16 UNL     1       7.469  60.261  -0.393  1.00  0.00     0.001 A 
HETATM   16  C17 UNL     1       8.702  59.914  -0.937  1.00  0.00     0.000 A 
HETATM   17  C18 UNL     1       9.156  58.613  -0.849  1.00  0.00     0.001 A 
HETATM   18  C19 UNL     1       8.387  57.656  -0.223  1.00  0.00     0.012 A 
ENDBRANCH  12  13
BRANCH   7  19
HETATM   19  N3  UNL     1       5.358  52.649   2.366  1.00  0.00    -0.339 N 
ATOM     20  H3  UNL     1       4.594  52.902   2.994  1.00  0.00     0.167 HD
BRANCH  19  21
HETATM   21  C5  UNL     1       5.626  51.278   2.171  1.00  0.00     0.036 A 
HETATM   22  C6  UNL     1       5.129  50.591   1.069  1.00  0.00     0.032 A 
HETATM   23  C7  UNL     1       5.394  49.243   0.882  1.00  0.00     0.042 A 
HETATM   24  C8  UNL     1       6.161  48.552   1.791  1.00  0.00     0.105 A 
HETATM   25  C9  UNL     1       6.670  49.199   2.893  1.00  0.00     0.107 A 
HETATM   26  O2  UNL     1       6.594  47.224   1.879  1.00  0.00    -0.323 OA
HETATM   27  C10 UNL     1       6.390  50.557   3.061  1.00  0.00     0.069 A 
HETATM   28  O1  UNL     1       7.398  48.280   3.636  1.00  0.00    -0.323 OA
HETATM   29  C11 UNL     1       7.140  46.973   3.159  1.00  0.00     0.352 C 
ENDBRANCH  19  21
ENDBRANCH   7  19
TORSDOF 3
ENDMDL
MODEL 3
REMARK VINA RESULT: -10.356448315      1.108      1.441
REMARK  3 active torsions:
REMARK  status: ('A' for Active; 'I' for Inactive)
REMARK    1  A    between atoms: C4_7  and  N3_8 
REMARK    2  A    between atoms: N3_8  and  C5_10 
REMARK    3  A    between atoms: C13_23  and  C14_24 
ROOT
HETATM    1  N1  UNL     1       3.836  58.833   1.607  1.00  0.00    -0.190 NA
HETATM    2  C1  UNL     1       4.599  57.972   1.713  1.00  0.00     0.118 C 
HETATM    3  C2  UNL     1       5.570  56.893   1.824  1.00  0.00     0.128 A 
HETATM    4  N2  UNL     1       5.364  55.747   2.489  1.00  0.00    -0.341 N 
ATOM      5  H2  UNL     1       4.504  55.517   2.986  1.00  0.00     0.167 HD
HETATM    6  C3  UNL     1       6.436  54.940   2.419  1.00  0.00     0.117 A 
HETATM    7  C4  UNL     1       7.010  53.736   2.767  1.00  0.00     0.156 A 
HETATM    8  N4  UNL     1       8.233  53.747   2.220  1.00  0.00    -0.242 N 
ATOM      9  H4  UNL     1       8.918  52.994   2.294  1.00  0.00     0.196 HD
HETATM   10  O3  UNL     1       8.414  54.864   1.579  1.00  0.00    -0.233 OA
HETATM   11  C12 UNL     1       7.368  55.647   1.650  1.00  0.00     0.143 A 
HETATM   12  C13 UNL     1       6.836  56.862   1.277  1.00  0.00     0.050 A 
ENDROOT
BRANCH  12  13
HETATM   13  C14 UNL     1       7.497  57.881   0.474  1.00  0.00    -0.020 A 
HETATM   14  C15 UNL     1       6.988  59.173   0.342  1.00  0.00     0.012 A 
HETATM   15  C16 UNL     1       7.616  60.125  -0.414  1.00  0.00     0.001 A 
HETATM   16  C17 UNL     1       8.798  59.798  -1.072  1.00  0.00     0.000 A 
HETATM   17  C18 UNL     1       9.324  58.526  -0.958  1.00  0.00     0.001 A 
HETATM   18  C19 UNL     1       8.678  57.579  -0.192  1.00  0.00     0.012 A 
ENDBRANCH  12  13
BRANCH   7  19
HETATM   19  N3  UNL     1       6.478  52.807   3.470  1.00  0.00    -0.339 N 
ATOM     20  H3  UNL     1       6.379  52.962   4.474  1.00  0.00     0.167 HD
BRANCH  19  21
HETATM   21  C5  UNL     1       6.019  51.582   2.942  1.00  0.00     0.036 A 
HETATM   22  C6  UNL     1       6.624  50.375   3.276  1.00  0.00     0.032 A 
HETATM   23  C7  UNL     1       6.171  49.174   2.754  1.00  0.00     0.042 A 
HETATM   24  C8  UNL     1       5.103  49.150   1.886  1.00  0.00     0.105 A 
HETATM   25  C9  UNL     1       4.479  50.325   1.534  1.00  0.00     0.107 A 
HETATM   26  O2  UNL     1       4.430  48.128   1.208  1.00  0.00    -0.323 OA
HETATM   27  C10 UNL     1       4.953  51.524   2.072  1.00  0.00     0.069 A 
HETATM   28  O1  UNL     1       3.447  50.020   0.658  1.00  0.00    -0.323 OA
HETATM   29  C11 UNL     1       3.568  48.676   0.230  1.00  0.00     0.352 C 
ENDBRANCH  19  21
ENDBRANCH   7  19
TORSDOF 3
ENDMDL
MODEL 4
REMARK VINA RESULT: -10.293601430      1.578      2.611
REMARK  3 active torsions:
REMARK  status: ('A' for Active; 'I' for Inactive)
REMARK    1  A    between atoms: C4_7  and  N3_8 
REMARK    2  A    between atoms: N3_8  and  C5_10 
REMARK    3  A    between atoms: C13_23  and  C14_24 
ROOT
HETATM    1  N1  UNL     1       9.942  57.414  -1.038  1.00  0.00    -0.190 NA
HETATM    2  C1  UNL     1       9.072  56.883  -0.494  1.00  0.00     0.118 C 
HETATM    3  C2  UNL     1       7.972  56.234   0.205  1.00  0.00     0.128 A 
HETATM    4  N2  UNL     1       7.898  54.919   0.457  1.00  0.00    -0.341 N 
ATOM      5  H2  UNL     1       8.608  54.240   0.183  1.00  0.00     0.167 HD
HETATM    6  C3  UNL     1       6.769  54.609   1.117  1.00  0.00     0.117 A 
HETATM    7  C4  UNL     1       5.993  53.628   1.696  1.00  0.00     0.156 A 
HETATM    8  N4  UNL     1       4.913  54.259   2.177  1.00  0.00    -0.242 N 
ATOM      9  H4  UNL     1       4.139  53.810   2.667  1.00  0.00     0.196 HD
HETATM   10  O3  UNL     1       5.003  55.532   1.923  1.00  0.00    -0.233 OA
HETATM   11  C12 UNL     1       6.103  55.829   1.281  1.00  0.00     0.143 A 
HETATM   12  C13 UNL     1       6.845  56.844   0.716  1.00  0.00     0.050 A 
ENDROOT
BRANCH  12  13
HETATM   13  C14 UNL     1       6.486  58.254   0.680  1.00  0.00    -0.020 A 
HETATM   14  C15 UNL     1       7.281  59.210   0.047  1.00  0.00     0.012 A 
HETATM   15  C16 UNL     1       6.938  60.533   0.017  1.00  0.00     0.001 A 
HETATM   16  C17 UNL     1       5.760  60.942   0.636  1.00  0.00     0.000 A 
HETATM   17  C18 UNL     1       4.954  60.017   1.270  1.00  0.00     0.001 A 
HETATM   18  C19 UNL     1       5.316  58.688   1.291  1.00  0.00     0.012 A 
ENDBRANCH  12  13
BRANCH   7  19
HETATM   19  N3  UNL     1       6.257  52.376   1.755  1.00  0.00    -0.339 N 
ATOM     20  H3  UNL     1       7.170  52.095   2.113  1.00  0.00     0.167 HD
BRANCH  19  21
HETATM   21  C5  UNL     1       5.362  51.361   1.358  1.00  0.00     0.036 A 
HETATM   22  C6  UNL     1       5.194  51.025   0.018  1.00  0.00     0.032 A 
HETATM   23  C7  UNL     1       4.313  50.028  -0.368  1.00  0.00     0.042 A 
HETATM   24  C8  UNL     1       3.579  49.344   0.573  1.00  0.00     0.105 A 
HETATM   25  C9  UNL     1       3.720  49.648   1.908  1.00  0.00     0.107 A 
HETATM   26  O2  UNL     1       2.633  48.314   0.502  1.00  0.00    -0.323 OA
HETATM   27  C10 UNL     1       4.614  50.657   2.274  1.00  0.00     0.069 A 
HETATM   28  O1  UNL     1       2.875  48.819   2.632  1.00  0.00    -0.323 OA
HETATM   29  C11 UNL     1       1.986  48.159   1.750  1.00  0.00     0.352 C 
ENDBRANCH  19  21
ENDBRANCH   7  19
TORSDOF 3
ENDMDL
MODEL 5
REMARK VINA RESULT: -10.210392855      1.645      2.884
REMARK  3 active torsions:
REMARK  status: ('A' for Active; 'I' for Inactive)
REMARK    1  A    between atoms: C4_7  and  N3_8 
REMARK    2  A    between atoms: N3_8  and  C5_10 
REMARK    3  A    between atoms: C13_23  and  C14_24 
ROOT
HETATM    1  N1  UNL     1      10.172  57.713  -1.026  1.00  0.00    -0.190 NA
HETATM    2  C1  UNL     1       9.331  57.106  -0.517  1.00  0.00     0.118 C 
HETATM    3  C2  UNL     1       8.266  56.361   0.139  1.00  0.00     0.128 A 
HETATM    4  N2  UNL     1       8.285  55.038   0.360  1.00  0.00    -0.341 N 
ATOM      5  H2  UNL     1       9.050  54.421   0.089  1.00  0.00     0.167 HD
HETATM    6  C3  UNL     1       7.167  54.630   0.983  1.00  0.00     0.117 A 
HETATM    7  C4  UNL     1       6.452  53.580   1.519  1.00  0.00     0.156 A 
HETATM    8  N4  UNL     1       5.318  54.117   1.987  1.00  0.00    -0.242 N 
ATOM      9  H4  UNL     1       4.568  53.600   2.447  1.00  0.00     0.196 HD
HETATM   10  O3  UNL     1       5.318  55.399   1.765  1.00  0.00    -0.233 OA
HETATM   11  C12 UNL     1       6.408  55.793   1.158  1.00  0.00     0.143 A 
HETATM   12  C13 UNL     1       7.085  56.873   0.635  1.00  0.00     0.050 A 
ENDROOT
BRANCH  12  13
HETATM   13  C14 UNL     1       6.624  58.254   0.622  1.00  0.00    -0.020 A 
HETATM   14  C15 UNL     1       7.337  59.272  -0.010  1.00  0.00     0.012 A 
HETATM   15  C16 UNL     1       6.896  60.567  -0.019  1.00  0.00     0.001 A 
HETATM   16  C17 UNL     1       5.701  60.881   0.622  1.00  0.00     0.000 A 
HETATM   17  C18 UNL     1       4.975  59.892   1.256  1.00  0.00     0.001 A 
HETATM   18  C19 UNL     1       5.434  58.592   1.254  1.00  0.00     0.012 A 
ENDBRANCH  12  13
BRANCH   7  19
HETATM   19  N3  UNL     1       6.807  52.350   1.557  1.00  0.00    -0.339 N 
ATOM     20  H3  UNL     1       7.800  52.134   1.462  1.00  0.00     0.167 HD
BRANCH  19  21
HETATM   21  C5  UNL     1       5.910  51.274   1.723  1.00  0.00     0.036 A 
HETATM   22  C6  UNL     1       5.621  50.758   2.982  1.00  0.00     0.032 A 
HETATM   23  C7  UNL     1       4.739  49.700   3.140  1.00  0.00     0.042 A 
HETATM   24  C8  UNL     1       4.128  49.133   2.046  1.00  0.00     0.105 A 
HETATM   25  C9  UNL     1       4.390  49.618   0.785  1.00  0.00     0.107 A 
HETATM   26  O2  UNL     1       3.217  48.083   1.882  1.00  0.00    -0.323 OA
HETATM   27  C10 UNL     1       5.281  50.685   0.649  1.00  0.00     0.069 A 
HETATM   28  O1  UNL     1       3.651  48.876  -0.126  1.00  0.00    -0.323 OA
HETATM   29  C11 UNL     1       3.115  47.734   0.516  1.00  0.00     0.352 C 
ENDBRANCH  19  21
ENDBRANCH   7  19
TORSDOF 3
ENDMDL
