MODEL 1
REMARK VINA RESULT: -9.266379954      0.000      0.000
REMARK  4 active torsions:
REMARK  status: ('A' for Active; 'I' for Inactive)
REMARK    1  A    between atoms: C8_11  and  C9_12 
REMARK    2  A    between atoms: C8_11  and  C15_18 
REMARK    3  A    between atoms: C18_21  and  O4_22 
REMARK    4  A    between atoms: C19_24  and  O5_25 
ROOT
HETATM    1  O1  UNL     1       2.160  45.151   1.308  1.00  0.00    -0.261 OA
HETATM    2  C1  UNL     1       1.412  46.075   1.732  1.00  0.00     0.309 C 
HETATM    3  O2  UNL     1       0.752  46.823   0.755  1.00  0.00    -0.273 OA
HETATM    4  C2  UNL     1      -0.215  47.756   1.136  1.00  0.00     0.112 A 
HETATM    5  C3  UNL     1      -0.883  48.510   0.162  1.00  0.00     0.040 A 
HETATM    6  C4  UNL     1      -1.825  49.414   0.563  1.00  0.00     0.003 A 
HETATM    7  C5  UNL     1      -2.140  49.610   1.887  1.00  0.00     0.003 A 
HETATM    8  C6  UNL     1      -1.466  48.854   2.817  1.00  0.00     0.040 A 
HETATM    9  C7  UNL     1      -0.493  47.914   2.466  1.00  0.00     0.105 A 
HETATM   10  O3  UNL     1       0.151  47.182   3.446  1.00  0.00    -0.317 OA
HETATM   11  C8  UNL     1       1.255  46.341   3.176  1.00  0.00     0.210 C 
ENDROOT
BRANCH  11  12
HETATM   12  C9  UNL     1       1.123  45.033   3.877  1.00  0.00    -0.009 A 
HETATM   13  C10 UNL     1       2.181  44.319   4.366  1.00  0.00     0.011 A 
HETATM   14  C11 UNL     1       2.044  43.105   5.010  1.00  0.00     0.001 A 
HETATM   15  C12 UNL     1       0.762  42.619   5.149  1.00  0.00     0.000 A 
HETATM   16  C13 UNL     1      -0.331  43.304   4.672  1.00  0.00     0.001 A 
HETATM   17  C14 UNL     1      -0.143  44.520   4.032  1.00  0.00     0.011 A 
ENDBRANCH  11  12
BRANCH  11  18
HETATM   18  C15 UNL     1       2.449  47.004   3.785  1.00  0.00    -0.006 A 
HETATM   19  C16 UNL     1       3.655  46.910   3.113  1.00  0.00     0.014 A 
HETATM   20  C17 UNL     1       4.769  47.515   3.654  1.00  0.00     0.040 A 
HETATM   21  C18 UNL     1       4.668  48.203   4.854  1.00  0.00     0.098 A 
HETATM   22  C19 UNL     1       3.457  48.288   5.511  1.00  0.00     0.099 A 
HETATM   23  C20 UNL     1       2.340  47.686   4.978  1.00  0.00     0.050 A 
BRANCH  21  24
HETATM   24  O4  UNL     1       5.788  48.816   5.405  1.00  0.00    -0.358 OA
ATOM     25  H4  UNL     1       6.316  48.357   6.047  1.00  0.00     0.217 HD
ENDBRANCH  21  24
BRANCH  22  26
HETATM   26  O5  UNL     1       3.399  48.995   6.726  1.00  0.00    -0.358 OA
ATOM     27  H5  UNL     1       2.900  49.803   6.759  1.00  0.00     0.217 HD
ENDBRANCH  22  26
ENDBRANCH  11  18
TORSDOF 4
ENDMDL
MODEL 2
REMARK VINA RESULT: -9.038451522      1.202      1.580
REMARK  4 active torsions:
REMARK  status: ('A' for Active; 'I' for Inactive)
REMARK    1  A    between atoms: C8_11  and  C9_12 
REMARK    2  A    between atoms: C8_11  and  C15_18 
REMARK    3  A    between atoms: C18_21  and  O4_22 
REMARK    4  A    between atoms: C19_24  and  O5_25 
ROOT
HETATM    1  O1  UNL     1       3.004  46.110   0.992  1.00  0.00    -0.261 OA
HETATM    2  C1  UNL     1       2.084  46.783   1.533  1.00  0.00     0.309 C 
HETATM    3  O2  UNL     1       1.218  47.445   0.659  1.00  0.00    -0.273 OA
HETATM    4  C2  UNL     1       0.080  48.079   1.163  1.00  0.00     0.112 A 
HETATM    5  C3  UNL     1      -0.793  48.745   0.293  1.00  0.00     0.040 A 
HETATM    6  C4  UNL     1      -1.899  49.354   0.813  1.00  0.00     0.003 A 
HETATM    7  C5  UNL     1      -2.185  49.338   2.158  1.00  0.00     0.003 A 
HETATM    8  C6  UNL     1      -1.307  48.676   2.983  1.00  0.00     0.040 A 
HETATM    9  C7  UNL     1      -0.160  48.034   2.509  1.00  0.00     0.105 A 
HETATM   10  O3  UNL     1       0.686  47.383   3.387  1.00  0.00    -0.317 OA
HETATM   11  C8  UNL     1       1.940  46.859   3.000  1.00  0.00     0.210 C 
ENDROOT
BRANCH  11  12
HETATM   12  C9  UNL     1       2.153  45.494   3.559  1.00  0.00    -0.009 A 
HETATM   13  C10 UNL     1       3.311  44.781   3.411  1.00  0.00     0.011 A 
HETATM   14  C11 UNL     1       3.492  43.515   3.932  1.00  0.00     0.001 A 
HETATM   15  C12 UNL     1       2.433  42.973   4.627  1.00  0.00     0.000 A 
HETATM   16  C13 UNL     1       1.251  43.655   4.799  1.00  0.00     0.001 A 
HETATM   17  C14 UNL     1       1.116  44.925   4.259  1.00  0.00     0.011 A 
ENDBRANCH  11  12
BRANCH  11  18
HETATM   18  C15 UNL     1       2.975  47.723   3.648  1.00  0.00    -0.006 A 
HETATM   19  C16 UNL     1       3.457  47.339   4.887  1.00  0.00     0.014 A 
HETATM   20  C17 UNL     1       4.413  48.118   5.503  1.00  0.00     0.040 A 
HETATM   21  C18 UNL     1       4.874  49.267   4.879  1.00  0.00     0.098 A 
HETATM   22  C19 UNL     1       4.383  49.637   3.642  1.00  0.00     0.099 A 
HETATM   23  C20 UNL     1       3.429  48.864   3.021  1.00  0.00     0.050 A 
BRANCH  21  24
HETATM   24  O4  UNL     1       5.838  50.058   5.494  1.00  0.00    -0.358 OA
ATOM     25  H4  UNL     1       6.038  50.921   5.151  1.00  0.00     0.217 HD
ENDBRANCH  21  24
BRANCH  22  26
HETATM   26  O5  UNL     1       4.878  50.810   3.045  1.00  0.00    -0.358 OA
ATOM     27  H5  UNL     1       4.524  51.646   3.323  1.00  0.00     0.217 HD
ENDBRANCH  22  26
ENDBRANCH  11  18
TORSDOF 4
ENDMDL
MODEL 3
REMARK VINA RESULT: -9.008222781      0.684      1.388
REMARK  4 active torsions:
REMARK  status: ('A' for Active; 'I' for Inactive)
REMARK    1  A    between atoms: C8_11  and  C9_12 
REMARK    2  A    between atoms: C8_11  and  C15_18 
REMARK    3  A    between atoms: C18_21  and  O4_22 
REMARK    4  A    between atoms: C19_24  and  O5_25 
ROOT
HETATM    1  O1  UNL     1       2.342  45.188   1.174  1.00  0.00    -0.261 OA
HETATM    2  C1  UNL     1       1.596  46.095   1.636  1.00  0.00     0.309 C 
HETATM    3  O2  UNL     1       0.881  46.836   0.692  1.00  0.00    -0.273 OA
HETATM    4  C2  UNL     1      -0.086  47.749   1.120  1.00  0.00     0.112 A 
HETATM    5  C3  UNL     1      -0.809  48.495   0.180  1.00  0.00     0.040 A 
HETATM    6  C4  UNL     1      -1.750  49.378   0.626  1.00  0.00     0.003 A 
HETATM    7  C5  UNL     1      -2.012  49.562   1.964  1.00  0.00     0.003 A 
HETATM    8  C6  UNL     1      -1.284  48.814   2.859  1.00  0.00     0.040 A 
HETATM    9  C7  UNL     1      -0.310  47.894   2.461  1.00  0.00     0.105 A 
HETATM   10  O3  UNL     1       0.389  47.169   3.408  1.00  0.00    -0.317 OA
HETATM   11  C8  UNL     1       1.495  46.350   3.086  1.00  0.00     0.210 C 
ENDROOT
BRANCH  11  12
HETATM   12  C9  UNL     1       1.418  45.036   3.785  1.00  0.00    -0.009 A 
HETATM   13  C10 UNL     1       2.502  44.244   4.043  1.00  0.00     0.011 A 
HETATM   14  C11 UNL     1       2.414  43.026   4.688  1.00  0.00     0.001 A 
HETATM   15  C12 UNL     1       1.156  42.619   5.074  1.00  0.00     0.000 A 
HETATM   16  C13 UNL     1       0.038  43.384   4.834  1.00  0.00     0.001 A 
HETATM   17  C14 UNL     1       0.176  44.601   4.184  1.00  0.00     0.011 A 
ENDBRANCH  11  12
BRANCH  11  18
HETATM   18  C15 UNL     1       2.702  47.033   3.649  1.00  0.00    -0.006 A 
HETATM   19  C16 UNL     1       2.722  47.297   5.007  1.00  0.00     0.014 A 
HETATM   20  C17 UNL     1       3.824  47.923   5.549  1.00  0.00     0.040 A 
HETATM   21  C18 UNL     1       4.888  48.277   4.733  1.00  0.00     0.098 A 
HETATM   22  C19 UNL     1       4.852  48.006   3.380  1.00  0.00     0.099 A 
HETATM   23  C20 UNL     1       3.755  47.381   2.831  1.00  0.00     0.050 A 
BRANCH  21  24
HETATM   24  O4  UNL     1       6.003  48.909   5.273  1.00  0.00    -0.358 OA
ATOM     25  H4  UNL     1       6.779  49.044   4.742  1.00  0.00     0.217 HD
ENDBRANCH  21  24
BRANCH  22  26
HETATM   26  O5  UNL     1       5.953  48.383   2.589  1.00  0.00    -0.358 OA
ATOM     27  H5  UNL     1       6.033  48.014   1.717  1.00  0.00     0.217 HD
ENDBRANCH  22  26
ENDBRANCH  11  18
TORSDOF 4
ENDMDL
MODEL 4
REMARK VINA RESULT: -8.768194986      1.801      2.303
REMARK  4 active torsions:
REMARK  status: ('A' for Active; 'I' for Inactive)
REMARK    1  A    between atoms: C8_11  and  C9_12 
REMARK    2  A    between atoms: C8_11  and  C15_18 
REMARK    3  A    between atoms: C18_21  and  O4_22 
REMARK    4  A    between atoms: C19_24  and  O5_25 
ROOT
HETATM    1  O1  UNL     1       1.668  46.291   0.436  1.00  0.00    -0.261 OA
HETATM    2  C1  UNL     1       1.030  46.688   1.450  1.00  0.00     0.309 C 
HETATM    3  O2  UNL     1      -0.298  47.061   1.229  1.00  0.00    -0.273 OA
HETATM    4  C2  UNL     1      -1.122  47.358   2.317  1.00  0.00     0.112 A 
HETATM    5  C3  UNL     1      -2.455  47.732   2.103  1.00  0.00     0.040 A 
HETATM    6  C4  UNL     1      -3.239  48.016   3.185  1.00  0.00     0.003 A 
HETATM    7  C5  UNL     1      -2.766  47.947   4.475  1.00  0.00     0.003 A 
HETATM    8  C6  UNL     1      -1.453  47.577   4.648  1.00  0.00     0.040 A 
HETATM    9  C7  UNL     1      -0.604  47.275   3.580  1.00  0.00     0.105 A 
HETATM   10  O3  UNL     1       0.707  46.907   3.816  1.00  0.00    -0.317 OA
HETATM   11  C8  UNL     1       1.660  46.751   2.784  1.00  0.00     0.210 C 
ENDROOT
BRANCH  11  12
HETATM   12  C9  UNL     1       2.468  45.514   2.975  1.00  0.00    -0.009 A 
HETATM   13  C10 UNL     1       3.576  45.204   2.237  1.00  0.00     0.011 A 
HETATM   14  C11 UNL     1       4.313  44.051   2.422  1.00  0.00     0.001 A 
HETATM   15  C12 UNL     1       3.880  43.191   3.408  1.00  0.00     0.000 A 
HETATM   16  C13 UNL     1       2.770  43.463   4.174  1.00  0.00     0.001 A 
HETATM   17  C14 UNL     1       2.062  44.634   3.951  1.00  0.00     0.011 A 
ENDBRANCH  11  12
BRANCH  11  18
HETATM   18  C15 UNL     1       2.624  47.886   2.925  1.00  0.00    -0.006 A 
HETATM   19  C16 UNL     1       2.896  48.648   1.802  1.00  0.00     0.014 A 
HETATM   20  C17 UNL     1       3.780  49.700   1.908  1.00  0.00     0.040 A 
HETATM   21  C18 UNL     1       4.380  49.979   3.127  1.00  0.00     0.098 A 
HETATM   22  C19 UNL     1       4.097  49.208   4.238  1.00  0.00     0.099 A 
HETATM   23  C20 UNL     1       3.216  48.156   4.140  1.00  0.00     0.050 A 
BRANCH  21  24
HETATM   24  O4  UNL     1       5.273  51.039   3.242  1.00  0.00    -0.358 OA
ATOM     25  H4  UNL     1       5.270  51.583   4.020  1.00  0.00     0.217 HD
ENDBRANCH  21  24
BRANCH  22  26
HETATM   26  O5  UNL     1       4.728  49.525   5.455  1.00  0.00    -0.358 OA
ATOM     27  H5  UNL     1       5.077  50.401   5.572  1.00  0.00     0.217 HD
ENDBRANCH  22  26
ENDBRANCH  11  18
TORSDOF 4
ENDMDL
MODEL 5
REMARK VINA RESULT: -8.749812466      1.821      2.406
REMARK  4 active torsions:
REMARK  status: ('A' for Active; 'I' for Inactive)
REMARK    1  A    between atoms: C8_11  and  C9_12 
REMARK    2  A    between atoms: C8_11  and  C15_18 
REMARK    3  A    between atoms: C18_21  and  O4_22 
REMARK    4  A    between atoms: C19_24  and  O5_25 
ROOT
HETATM    1  O1  UNL     1       2.120  46.721   0.491  1.00  0.00    -0.261 OA
HETATM    2  C1  UNL     1       1.376  46.993   1.474  1.00  0.00     0.309 C 
HETATM    3  O2  UNL     1       0.100  47.469   1.160  1.00  0.00    -0.273 OA
HETATM    4  C2  UNL     1      -0.841  47.641   2.177  1.00  0.00     0.112 A 
HETATM    5  C3  UNL     1      -2.123  48.118   1.872  1.00  0.00     0.040 A 
HETATM    6  C4  UNL     1      -3.024  48.275   2.885  1.00  0.00     0.003 A 
HETATM    7  C5  UNL     1      -2.719  47.983   4.194  1.00  0.00     0.003 A 
HETATM    8  C6  UNL     1      -1.452  47.518   4.459  1.00  0.00     0.040 A 
HETATM    9  C7  UNL     1      -0.489  47.336   3.463  1.00  0.00     0.105 A 
HETATM   10  O3  UNL     1       0.769  46.864   3.790  1.00  0.00    -0.317 OA
HETATM   11  C8  UNL     1       1.836  46.815   2.865  1.00  0.00     0.210 C 
ENDROOT
BRANCH  11  12
HETATM   12  C9  UNL     1       2.568  45.520   2.950  1.00  0.00    -0.009 A 
HETATM   13  C10 UNL     1       3.610  45.177   2.134  1.00  0.00     0.011 A 
HETATM   14  C11 UNL     1       4.277  43.971   2.222  1.00  0.00     0.001 A 
HETATM   15  C12 UNL     1       3.842  43.092   3.190  1.00  0.00     0.000 A 
HETATM   16  C13 UNL     1       2.798  43.396   4.032  1.00  0.00     0.001 A 
HETATM   17  C14 UNL     1       2.160  44.621   3.907  1.00  0.00     0.011 A 
ENDBRANCH  11  12
BRANCH  11  18
HETATM   18  C15 UNL     1       2.816  47.859   3.298  1.00  0.00    -0.006 A 
HETATM   19  C16 UNL     1       3.501  47.652   4.482  1.00  0.00     0.014 A 
HETATM   20  C17 UNL     1       4.412  48.599   4.901  1.00  0.00     0.040 A 
HETATM   21  C18 UNL     1       4.627  49.736   4.137  1.00  0.00     0.098 A 
HETATM   22  C19 UNL     1       3.935  49.927   2.957  1.00  0.00     0.099 A 
HETATM   23  C20 UNL     1       3.024  48.986   2.532  1.00  0.00     0.050 A 
BRANCH  21  24
HETATM   24  O4  UNL     1       5.543  50.696   4.552  1.00  0.00    -0.358 OA
ATOM     25  H4  UNL     1       5.467  51.087   5.414  1.00  0.00     0.217 HD
ENDBRANCH  21  24
BRANCH  22  26
HETATM   26  O5  UNL     1       4.183  51.095   2.213  1.00  0.00    -0.358 OA
ATOM     27  H5  UNL     1       4.761  51.041   1.461  1.00  0.00     0.217 HD
ENDBRANCH  22  26
ENDBRANCH  11  18
TORSDOF 4
ENDMDL
