MODEL 1
REMARK VINA RESULT: -6.803621144      0.000      0.000
REMARK  3 active torsions:
REMARK  status: ('A' for Active; 'I' for Inactive)
REMARK    1  A    between atoms: C2_2  and  N1_3 
REMARK    2  A    between atoms: C6_7  and  S1_8 
REMARK    3  A    between atoms: S1_8  and  C7_11 
ROOT
HETATM    1  N1  UNL     1      10.115  53.976   0.811  1.00  0.00    -0.365 N 
HETATM    2  C3  UNL     1      10.700  52.773   0.845  1.00  0.00     0.098 A 
HETATM    3  C4  UNL     1       9.977  51.633   1.198  1.00  0.00    -0.023 A 
HETATM    4  C5  UNL     1       8.623  51.795   1.514  1.00  0.00     0.062 A 
HETATM    5  C6  UNL     1       8.031  53.055   1.474  1.00  0.00     0.096 A 
HETATM    6  C14 UNL     1       8.823  54.160   1.109  1.00  0.00     0.115 A 
HETATM    7  C15 UNL     1       7.865  50.605   1.871  1.00  0.00     0.254 C 
HETATM    8  O4  UNL     1       6.668  50.675   2.163  1.00  0.00    -0.268 OA
HETATM    9  N3  UNL     1       8.495  49.316   1.893  1.00  0.00    -0.348 N 
ATOM     10  H3  UNL     1       8.099  48.547   2.434  1.00  0.00     0.163 HD
HETATM   11  C16 UNL     1       9.706  49.140   1.124  1.00  0.00     0.030 C 
HETATM   12  C17 UNL     1       9.374  48.855  -0.348  1.00  0.00     0.038 C 
HETATM   13  C18 UNL     1      10.405  47.903   1.633  1.00  0.00     0.038 C 
HETATM   14  C19 UNL     1      10.618  50.316   1.249  1.00  0.00     0.071 C 
ENDROOT
BRANCH   5  15
HETATM   15  S1  UNL     1       6.359  53.273   1.855  1.00  0.00     0.215 S 
HETATM   16  O1  UNL     1       5.995  53.168   3.296  1.00  0.00    -0.217 OA
HETATM   17  O2  UNL     1       5.410  52.588   0.921  1.00  0.00    -0.217 OA
BRANCH  15  18
HETATM   18  C7  UNL     1       6.025  55.001   1.556  1.00  0.00     0.138 A 
HETATM   19  C8  UNL     1       6.235  55.883   2.595  1.00  0.00    -0.033 A 
HETATM   20  C9  UNL     1       6.714  55.529   3.930  1.00  0.00     0.050 C 
HETATM   21  C10 UNL     1       5.950  57.217   2.310  1.00  0.00     0.033 A 
HETATM   22  C11 UNL     1       5.492  57.601   1.073  1.00  0.00     0.009 A 
HETATM   23  C12 UNL     1       5.196  59.038   0.796  1.00  0.00     0.068 C 
HETATM   24  N2  UNL     1       5.304  56.705   0.096  1.00  0.00    -0.326 N 
HETATM   25  C13 UNL     1       5.565  55.404   0.318  1.00  0.00     0.268 A 
ATOM     26  H2  UNL     1       4.964  57.008  -0.816  1.00  0.00     0.169 HD
HETATM   27  O3  UNL     1       5.381  54.556  -0.626  1.00  0.00    -0.267 OA
ENDBRANCH  15  18
ENDBRANCH   5  15
BRANCH   1  28
HETATM   28  C2  UNL     1      10.924  55.138   0.433  1.00  0.00     0.123 C 
HETATM   29  C1  UNL     1      10.103  56.405   0.468  1.00  0.00     0.027 C 
ENDBRANCH   1  28
TORSDOF 3
ENDMDL
MODEL 2
REMARK VINA RESULT: -6.217757915      3.221      5.467
REMARK  3 active torsions:
REMARK  status: ('A' for Active; 'I' for Inactive)
REMARK    1  A    between atoms: C2_2  and  N1_3 
REMARK    2  A    between atoms: C6_7  and  S1_8 
REMARK    3  A    between atoms: S1_8  and  C7_11 
ROOT
HETATM    1  N1  UNL     1       9.736  49.501  -2.539  1.00  0.00    -0.365 N 
HETATM    2  C3  UNL     1       9.586  48.187  -2.743  1.00  0.00     0.098 A 
HETATM    3  C4  UNL     1       9.524  47.297  -1.670  1.00  0.00    -0.023 A 
HETATM    4  C5  UNL     1       9.624  47.828  -0.379  1.00  0.00     0.062 A 
HETATM    5  C6  UNL     1       9.781  49.198  -0.186  1.00  0.00     0.096 A 
HETATM    6  C14 UNL     1       9.835  50.037  -1.316  1.00  0.00     0.115 A 
HETATM    7  C15 UNL     1       9.548  46.903   0.741  1.00  0.00     0.254 C 
HETATM    8  O4  UNL     1       9.631  47.302   1.906  1.00  0.00    -0.268 OA
HETATM    9  N3  UNL     1       9.374  45.495   0.517  1.00  0.00    -0.348 N 
ATOM     10  H3  UNL     1       9.638  44.813   1.228  1.00  0.00     0.163 HD
HETATM   11  C16 UNL     1       8.813  45.075  -0.747  1.00  0.00     0.030 C 
HETATM   12  C17 UNL     1       7.280  45.170  -0.715  1.00  0.00     0.038 C 
HETATM   13  C18 UNL     1       9.128  43.611  -0.932  1.00  0.00     0.038 C 
HETATM   14  C19 UNL     1       9.373  45.856  -1.890  1.00  0.00     0.071 C 
ENDROOT
BRANCH   5  15
HETATM   15  S1  UNL     1       9.899  49.874   1.401  1.00  0.00     0.215 S 
HETATM   16  O1  UNL     1      11.171  49.611   2.133  1.00  0.00    -0.217 OA
HETATM   17  O2  UNL     1       8.663  49.737   2.233  1.00  0.00    -0.217 OA
BRANCH  15  18
HETATM   18  C7  UNL     1      10.017  51.638   1.159  1.00  0.00     0.138 A 
HETATM   19  C8  UNL     1      11.278  52.185   1.032  1.00  0.00    -0.033 A 
HETATM   20  C9  UNL     1      12.536  51.443   1.074  1.00  0.00     0.050 C 
HETATM   21  C10 UNL     1      11.311  53.567   0.855  1.00  0.00     0.033 A 
HETATM   22  C11 UNL     1      10.156  54.310   0.814  1.00  0.00     0.009 A 
HETATM   23  C12 UNL     1      10.224  55.789   0.622  1.00  0.00     0.068 C 
HETATM   24  N2  UNL     1       8.956  53.731   0.943  1.00  0.00    -0.326 N 
HETATM   25  C13 UNL     1       8.867  52.400   1.115  1.00  0.00     0.268 A 
ATOM     26  H2  UNL     1       8.110  54.299   0.910  1.00  0.00     0.169 HD
HETATM   27  O3  UNL     1       7.711  51.858   1.238  1.00  0.00    -0.267 OA
ENDBRANCH  15  18
ENDBRANCH   5  15
BRANCH   1  28
HETATM   28  C2  UNL     1       9.795  50.388  -3.705  1.00  0.00     0.123 C 
HETATM   29  C1  UNL     1       8.736  50.020  -4.718  1.00  0.00     0.027 C 
ENDBRANCH   1  28
TORSDOF 3
ENDMDL
MODEL 3
REMARK VINA RESULT: -6.014267845      2.498      3.887
REMARK  3 active torsions:
REMARK  status: ('A' for Active; 'I' for Inactive)
REMARK    1  A    between atoms: C2_2  and  N1_3 
REMARK    2  A    between atoms: C6_7  and  S1_8 
REMARK    3  A    between atoms: S1_8  and  C7_11 
ROOT
HETATM    1  N1  UNL     1       7.069  52.233   1.357  1.00  0.00    -0.365 N 
HETATM    2  C3  UNL     1       8.039  51.445   0.877  1.00  0.00     0.098 A 
HETATM    3  C4  UNL     1       9.301  51.960   0.579  1.00  0.00    -0.023 A 
HETATM    4  C5  UNL     1       9.513  53.326   0.801  1.00  0.00     0.062 A 
HETATM    5  C6  UNL     1       8.492  54.131   1.300  1.00  0.00     0.096 A 
HETATM    6  C14 UNL     1       7.244  53.542   1.578  1.00  0.00     0.115 A 
HETATM    7  C15 UNL     1      10.832  53.862   0.501  1.00  0.00     0.254 C 
HETATM    8  O4  UNL     1      11.089  55.057   0.671  1.00  0.00    -0.268 OA
HETATM    9  N3  UNL     1      11.872  53.010  -0.001  1.00  0.00    -0.348 N 
ATOM     10  H3  UNL     1      12.667  53.396  -0.511  1.00  0.00     0.163 HD
HETATM   11  C16 UNL     1      11.758  51.589   0.238  1.00  0.00     0.030 C 
HETATM   12  C17 UNL     1      12.270  51.236   1.643  1.00  0.00     0.038 C 
HETATM   13  C18 UNL     1      12.681  50.880  -0.722  1.00  0.00     0.038 C 
HETATM   14  C19 UNL     1      10.360  51.103   0.040  1.00  0.00     0.071 C 
ENDROOT
BRANCH   5  15
HETATM   15  S1  UNL     1       8.738  55.818   1.587  1.00  0.00     0.215 S 
HETATM   16  O1  UNL     1       9.499  56.557   0.539  1.00  0.00    -0.217 OA
HETATM   17  O2  UNL     1       9.116  56.166   2.993  1.00  0.00    -0.217 OA
BRANCH  15  18
HETATM   18  C7  UNL     1       7.128  56.568   1.415  1.00  0.00     0.138 A 
HETATM   19  C8  UNL     1       6.941  57.454   0.374  1.00  0.00    -0.033 A 
HETATM   20  C9  UNL     1       7.950  57.834  -0.613  1.00  0.00     0.050 C 
HETATM   21  C10 UNL     1       5.669  58.018   0.293  1.00  0.00     0.033 A 
HETATM   22  C11 UNL     1       4.688  57.698   1.200  1.00  0.00     0.009 A 
HETATM   23  C12 UNL     1       3.333  58.317   1.087  1.00  0.00     0.068 C 
HETATM   24  N2  UNL     1       4.919  56.832   2.194  1.00  0.00    -0.326 N 
HETATM   25  C13 UNL     1       6.130  56.258   2.317  1.00  0.00     0.268 A 
ATOM     26  H2  UNL     1       4.178  56.606   2.857  1.00  0.00     0.169 HD
HETATM   27  O3  UNL     1       6.339  55.431   3.274  1.00  0.00    -0.267 OA
ENDBRANCH  15  18
ENDBRANCH   5  15
BRANCH   1  28
HETATM   28  C2  UNL     1       5.764  51.636   1.652  1.00  0.00     0.123 C 
HETATM   29  C1  UNL     1       4.646  52.452   1.047  1.00  0.00     0.027 C 
ENDBRANCH   1  28
TORSDOF 3
ENDMDL
MODEL 4
REMARK VINA RESULT: -5.993535635      3.385      7.551
REMARK  3 active torsions:
REMARK  status: ('A' for Active; 'I' for Inactive)
REMARK    1  A    between atoms: C2_2  and  N1_3 
REMARK    2  A    between atoms: C6_7  and  S1_8 
REMARK    3  A    between atoms: S1_8  and  C7_11 
ROOT
HETATM    1  N1  UNL     1       8.604  50.830   2.082  1.00  0.00    -0.365 N 
HETATM    2  C3  UNL     1       7.654  51.720   2.395  1.00  0.00     0.098 A 
HETATM    3  C4  UNL     1       7.788  53.064   2.046  1.00  0.00    -0.023 A 
HETATM    4  C5  UNL     1       8.947  53.444   1.359  1.00  0.00     0.062 A 
HETATM    5  C6  UNL     1       9.925  52.505   1.043  1.00  0.00     0.096 A 
HETATM    6  C14 UNL     1       9.722  51.166   1.427  1.00  0.00     0.115 A 
HETATM    7  C15 UNL     1       9.082  54.844   0.985  1.00  0.00     0.254 C 
HETATM    8  O4  UNL     1      10.079  55.249   0.380  1.00  0.00    -0.268 OA
HETATM    9  N3  UNL     1       8.055  55.792   1.311  1.00  0.00    -0.348 N 
ATOM     10  H3  UNL     1       8.257  56.791   1.357  1.00  0.00     0.163 HD
HETATM   11  C16 UNL     1       6.726  55.287   1.572  1.00  0.00     0.030 C 
HETATM   12  C17 UNL     1       5.969  55.054   0.256  1.00  0.00     0.038 C 
HETATM   13  C18 UNL     1       5.956  56.360   2.302  1.00  0.00     0.038 C 
HETATM   14  C19 UNL     1       6.757  54.044   2.399  1.00  0.00     0.071 C 
ENDROOT
BRANCH   5  15
HETATM   15  S1  UNL     1      11.359  52.955   0.189  1.00  0.00     0.215 S 
HETATM   16  O1  UNL     1      12.380  53.709   0.972  1.00  0.00    -0.217 OA
HETATM   17  O2  UNL     1      11.127  53.476  -1.195  1.00  0.00    -0.217 OA
BRANCH  15  18
HETATM   18  C7  UNL     1      12.234  51.428  -0.108  1.00  0.00     0.138 A 
HETATM   19  C8  UNL     1      11.865  50.681  -1.208  1.00  0.00    -0.033 A 
HETATM   20  C9  UNL     1      10.816  51.032  -2.163  1.00  0.00     0.050 C 
HETATM   21  C10 UNL     1      12.574  49.495  -1.386  1.00  0.00     0.033 A 
HETATM   22  C11 UNL     1      13.565  49.117  -0.513  1.00  0.00     0.009 A 
HETATM   23  C12 UNL     1      14.309  47.840  -0.731  1.00  0.00     0.068 C 
HETATM   24  N2  UNL     1      13.886  49.877   0.540  1.00  0.00    -0.326 N 
HETATM   25  C13 UNL     1      13.234  51.033   0.759  1.00  0.00     0.268 A 
ATOM     26  H2  UNL     1      14.625  49.581   1.178  1.00  0.00     0.169 HD
HETATM   27  O3  UNL     1      13.550  51.752   1.772  1.00  0.00    -0.267 OA
ENDBRANCH  15  18
ENDBRANCH   5  15
BRANCH   1  28
HETATM   28  C2  UNL     1       8.409  49.432   2.475  1.00  0.00     0.123 C 
HETATM   29  C1  UNL     1       7.301  49.305   3.494  1.00  0.00     0.027 C 
ENDBRANCH   1  28
TORSDOF 3
ENDMDL
MODEL 5
REMARK VINA RESULT: -5.946257030      0.840      1.638
REMARK  3 active torsions:
REMARK  status: ('A' for Active; 'I' for Inactive)
REMARK    1  A    between atoms: C2_2  and  N1_3 
REMARK    2  A    between atoms: C6_7  and  S1_8 
REMARK    3  A    between atoms: S1_8  and  C7_11 
ROOT
HETATM    1  N1  UNL     1      10.015  54.213   0.865  1.00  0.00    -0.365 N 
HETATM    2  C3  UNL     1      10.663  53.042   0.854  1.00  0.00     0.098 A 
HETATM    3  C4  UNL     1      10.014  51.860   1.212  1.00  0.00    -0.023 A 
HETATM    4  C5  UNL     1       8.666  51.945   1.580  1.00  0.00     0.062 A 
HETATM    5  C6  UNL     1       8.009  53.173   1.586  1.00  0.00     0.096 A 
HETATM    6  C14 UNL     1       8.727  54.324   1.213  1.00  0.00     0.115 A 
HETATM    7  C15 UNL     1       7.985  50.711   1.942  1.00  0.00     0.254 C 
HETATM    8  O4  UNL     1       6.798  50.713   2.278  1.00  0.00    -0.268 OA
HETATM    9  N3  UNL     1       8.681  49.456   1.916  1.00  0.00    -0.348 N 
ATOM     10  H3  UNL     1       8.346  48.659   2.457  1.00  0.00     0.163 HD
HETATM   11  C16 UNL     1       9.870  49.358   1.100  1.00  0.00     0.030 C 
HETATM   12  C17 UNL     1       9.498  49.081  -0.364  1.00  0.00     0.038 C 
HETATM   13  C18 UNL     1      10.651  48.151   1.559  1.00  0.00     0.038 C 
HETATM   14  C19 UNL     1      10.724  50.578   1.214  1.00  0.00     0.071 C 
ENDROOT
BRANCH   5  15
HETATM   15  S1  UNL     1       6.342  53.296   2.031  1.00  0.00     0.215 S 
HETATM   16  O1  UNL     1       6.033  53.100   3.476  1.00  0.00    -0.217 OA
HETATM   17  O2  UNL     1       5.392  52.619   1.093  1.00  0.00    -0.217 OA
BRANCH  15  18
HETATM   18  C7  UNL     1       5.925  55.020   1.837  1.00  0.00     0.138 A 
HETATM   19  C8  UNL     1       5.459  55.432   0.605  1.00  0.00    -0.033 A 
HETATM   20  C9  UNL     1       5.270  54.576  -0.564  1.00  0.00     0.050 C 
HETATM   21  C10 UNL     1       5.158  56.789   0.506  1.00  0.00     0.033 A 
HETATM   22  C11 UNL     1       5.323  57.637   1.575  1.00  0.00     0.009 A 
HETATM   23  C12 UNL     1       4.991  59.087   1.439  1.00  0.00     0.068 C 
HETATM   24  N2  UNL     1       5.780  57.188   2.750  1.00  0.00    -0.326 N 
HETATM   25  C13 UNL     1       6.085  55.887   2.900  1.00  0.00     0.268 A 
ATOM     26  H2  UNL     1       5.897  57.833   3.532  1.00  0.00     0.169 HD
HETATM   27  O3  UNL     1       6.522  55.469   4.031  1.00  0.00    -0.267 OA
ENDBRANCH  15  18
ENDBRANCH   5  15
BRANCH   1  28
HETATM   28  C2  UNL     1      10.749  55.422   0.480  1.00  0.00     0.123 C 
HETATM   29  C1  UNL     1       9.837  56.627   0.465  1.00  0.00     0.027 C 
ENDBRANCH   1  28
TORSDOF 3
ENDMDL
