MODEL 1
REMARK VINA RESULT: -8.314194920      0.000      0.000
REMARK  4 active torsions:
REMARK  status: ('A' for Active; 'I' for Inactive)
REMARK    1  A    between atoms: C1_2  and  O2_3 
REMARK    2  A    between atoms: C1_2  and  C10_15 
REMARK    3  A    between atoms: O2_3  and  C2_4 
REMARK       I    between atoms: N2_18  and  C13_19 
REMARK       I    between atoms: C13_19  and  N3_21 
REMARK    4  A    between atoms: N3_21  and  C14_23 
ROOT
HETATM    1  O1  UNL     1      11.929  24.266   5.182  1.00  0.00    -0.265 OA
HETATM    2  C1  UNL     1      11.751  24.303   6.427  1.00  0.00     0.263 C 
ENDROOT
BRANCH   2   3
HETATM    3  O2  UNL     1      11.293  23.132   7.011  1.00  0.00    -0.316 OA
BRANCH   3   4
HETATM    4  C2  UNL     1       9.986  22.607   6.831  1.00  0.00     0.136 C 
HETATM    5  C3  UNL     1       9.910  21.627   5.712  1.00  0.00     0.065 C 
HETATM    6  C4  UNL     1       9.203  22.029   4.494  1.00  0.00     0.189 C 
HETATM    7  C5  UNL     1       8.108  21.011   4.136  1.00  0.00     0.033 C 
HETATM    8  N1  UNL     1       8.496  23.287   4.550  1.00  0.00    -0.067 N 
HETATM    9  C6  UNL     1       7.087  21.004   5.208  1.00  0.00     0.004 C 
HETATM   10  C7  UNL     1       7.144  22.074   6.209  1.00  0.00     0.033 C 
HETATM   11  C8  UNL     1       7.841  23.330   5.841  1.00  0.00     0.189 C 
HETATM   12  C9  UNL     1       8.945  23.683   6.817  1.00  0.00     0.065 C 
ATOM     13  H12 UNL     1       9.092  24.096   4.372  1.00  0.00     0.278 HD
ATOM     14  H11 UNL     1       7.856  23.428   3.767  1.00  0.00     0.278 HD
ENDBRANCH   3   4
ENDBRANCH   2   3
BRANCH   2  15
HETATM   15  C10 UNL     1      12.019  25.537   7.210  1.00  0.00     0.088 C 
HETATM   16  C11 UNL     1      12.824  26.522   6.409  1.00  0.00     0.034 C 
HETATM   17  C12 UNL     1      12.413  27.912   6.847  1.00  0.00     0.128 C 
HETATM   18  N2  UNL     1      12.156  27.975   8.266  1.00  0.00    -0.334 N 
HETATM   19  C13 UNL     1      12.917  28.794   9.124  1.00  0.00     0.318 C 
HETATM   20  C17 UNL     1      11.091  27.174   8.804  1.00  0.00     0.128 C 
HETATM   21  O3  UNL     1      13.858  29.503   8.665  1.00  0.00    -0.247 OA
HETATM   22  N3  UNL     1      12.636  28.830  10.503  1.00  0.00    -0.338 N 
ATOM     23  H3  UNL     1      11.879  28.263  10.886  1.00  0.00     0.164 HD
HETATM   24  C18 UNL     1      10.734  26.135   7.733  1.00  0.00     0.034 C 
BRANCH  22  25
HETATM   25  C14 UNL     1      13.425  29.675  11.372  1.00  0.00     0.086 A 
HETATM   26  C15 UNL     1      12.924  29.887  12.796  1.00  0.00     0.027 A 
HETATM   27  C16 UNL     1      12.860  30.981  11.805  1.00  0.00     0.027 A 
ENDBRANCH  22  25
ENDBRANCH   2  15
TORSDOF 4
ENDMDL
MODEL 2
REMARK VINA RESULT: -8.284419325      1.034      1.663
REMARK  4 active torsions:
REMARK  status: ('A' for Active; 'I' for Inactive)
REMARK    1  A    between atoms: C1_2  and  O2_3 
REMARK    2  A    between atoms: C1_2  and  C10_15 
REMARK    3  A    between atoms: O2_3  and  C2_4 
REMARK       I    between atoms: N2_18  and  C13_19 
REMARK       I    between atoms: C13_19  and  N3_21 
REMARK    4  A    between atoms: N3_21  and  C14_23 
ROOT
HETATM    1  O1  UNL     1      12.669  24.603   5.274  1.00  0.00    -0.265 OA
HETATM    2  C1  UNL     1      12.144  24.639   6.416  1.00  0.00     0.263 C 
ENDROOT
BRANCH   2   3
HETATM    3  O2  UNL     1      11.422  23.516   6.790  1.00  0.00    -0.316 OA
BRANCH   3   4
HETATM    4  C2  UNL     1      10.483  22.855   5.955  1.00  0.00     0.136 C 
HETATM    5  C3  UNL     1       9.087  22.968   6.461  1.00  0.00     0.065 C 
HETATM    6  C4  UNL     1       8.455  21.765   7.007  1.00  0.00     0.189 C 
HETATM    7  C5  UNL     1       7.117  21.483   6.304  1.00  0.00     0.033 C 
HETATM    8  N1  UNL     1       9.189  20.531   6.854  1.00  0.00    -0.067 N 
HETATM    9  C6  UNL     1       7.376  21.186   4.876  1.00  0.00     0.004 C 
HETATM   10  C7  UNL     1       8.766  20.960   4.470  1.00  0.00     0.033 C 
HETATM   11  C8  UNL     1       9.734  20.543   5.512  1.00  0.00     0.189 C 
HETATM   12  C9  UNL     1      10.928  21.472   5.595  1.00  0.00     0.065 C 
ATOM     13  H12 UNL     1       9.896  20.388   7.576  1.00  0.00     0.278 HD
ATOM     14  H11 UNL     1       8.632  19.701   7.057  1.00  0.00     0.278 HD
ENDBRANCH   3   4
ENDBRANCH   2   3
BRANCH   2  15
HETATM   15  C10 UNL     1      12.297  25.824   7.300  1.00  0.00     0.088 C 
HETATM   16  C11 UNL     1      12.970  26.956   6.576  1.00  0.00     0.034 C 
HETATM   17  C12 UNL     1      12.422  28.251   7.140  1.00  0.00     0.128 C 
HETATM   18  N2  UNL     1      12.195  28.163   8.562  1.00  0.00    -0.334 N 
HETATM   19  C13 UNL     1      12.884  28.985   9.477  1.00  0.00     0.318 C 
HETATM   20  C17 UNL     1      11.236  27.207   9.045  1.00  0.00     0.128 C 
HETATM   21  O3  UNL     1      13.731  29.829   9.068  1.00  0.00    -0.247 OA
HETATM   22  N3  UNL     1      12.634  28.872  10.858  1.00  0.00    -0.338 N 
ATOM     23  H3  UNL     1      11.954  28.195  11.202  1.00  0.00     0.164 HD
HETATM   24  C18 UNL     1      10.968  26.231   7.893  1.00  0.00     0.034 C 
BRANCH  22  25
HETATM   25  C14 UNL     1      13.349  29.723  11.786  1.00  0.00     0.086 A 
HETATM   26  C15 UNL     1      13.895  29.079  13.055  1.00  0.00     0.027 A 
HETATM   27  C16 UNL     1      12.741  30.000  13.114  1.00  0.00     0.027 A 
ENDBRANCH  22  25
ENDBRANCH   2  15
TORSDOF 4
ENDMDL
MODEL 3
REMARK VINA RESULT: -8.152479095      1.145      1.438
REMARK  4 active torsions:
REMARK  status: ('A' for Active; 'I' for Inactive)
REMARK    1  A    between atoms: C1_2  and  O2_3 
REMARK    2  A    between atoms: C1_2  and  C10_15 
REMARK    3  A    between atoms: O2_3  and  C2_4 
REMARK       I    between atoms: N2_18  and  C13_19 
REMARK       I    between atoms: C13_19  and  N3_21 
REMARK    4  A    between atoms: N3_21  and  C14_23 
ROOT
HETATM    1  O1  UNL     1      12.848  24.719   5.215  1.00  0.00    -0.265 OA
HETATM    2  C1  UNL     1      11.890  25.191   5.878  1.00  0.00     0.263 C 
ENDROOT
BRANCH   2   3
HETATM    3  O2  UNL     1      10.624  24.757   5.513  1.00  0.00    -0.316 OA
BRANCH   3   4
HETATM    4  C2  UNL     1      10.171  23.417   5.642  1.00  0.00     0.136 C 
HETATM    5  C3  UNL     1       8.938  23.151   4.850  1.00  0.00     0.065 C 
HETATM    6  C4  UNL     1       7.685  22.948   5.580  1.00  0.00     0.189 C 
HETATM    7  C5  UNL     1       7.029  21.616   5.180  1.00  0.00     0.033 C 
HETATM    8  N1  UNL     1       7.788  22.861   7.018  1.00  0.00    -0.067 N 
HETATM    9  C6  UNL     1       7.913  20.501   5.587  1.00  0.00     0.004 C 
HETATM   10  C7  UNL     1       9.039  20.814   6.472  1.00  0.00     0.033 C 
HETATM   11  C8  UNL     1       8.952  22.045   7.295  1.00  0.00     0.189 C 
HETATM   12  C9  UNL     1      10.130  22.972   7.070  1.00  0.00     0.065 C 
ATOM     13  H12 UNL     1       7.813  23.771   7.478  1.00  0.00     0.278 HD
ATOM     14  H11 UNL     1       6.938  22.517   7.465  1.00  0.00     0.278 HD
ENDBRANCH   3   4
ENDBRANCH   2   3
BRANCH   2  15
HETATM   15  C10 UNL     1      12.116  26.156   6.985  1.00  0.00     0.088 C 
HETATM   16  C11 UNL     1      12.933  27.329   6.521  1.00  0.00     0.034 C 
HETATM   17  C12 UNL     1      12.491  28.540   7.316  1.00  0.00     0.128 C 
HETATM   18  N2  UNL     1      12.187  28.201   8.685  1.00  0.00    -0.334 N 
HETATM   19  C13 UNL     1      12.909  28.749   9.764  1.00  0.00     0.318 C 
HETATM   20  C17 UNL     1      11.115  27.277   8.941  1.00  0.00     0.128 C 
HETATM   21  O3  UNL     1      13.855  29.561   9.556  1.00  0.00    -0.247 OA
HETATM   22  N3  UNL     1      12.582  28.396  11.087  1.00  0.00    -0.338 N 
ATOM     23  H3  UNL     1      11.821  27.742  11.270  1.00  0.00     0.164 HD
HETATM   24  C18 UNL     1      10.807  26.580   7.610  1.00  0.00     0.034 C 
BRANCH  22  25
HETATM   25  C14 UNL     1      13.332  28.967  12.186  1.00  0.00     0.086 A 
HETATM   26  C15 UNL     1      12.768  28.792  13.591  1.00  0.00     0.027 A 
HETATM   27  C16 UNL     1      12.747  30.113  12.931  1.00  0.00     0.027 A 
ENDBRANCH  22  25
ENDBRANCH   2  15
TORSDOF 4
ENDMDL
MODEL 4
REMARK VINA RESULT: -8.114526115      2.641      8.803
REMARK  4 active torsions:
REMARK  status: ('A' for Active; 'I' for Inactive)
REMARK    1  A    between atoms: C1_2  and  O2_3 
REMARK    2  A    between atoms: C1_2  and  C10_15 
REMARK    3  A    between atoms: O2_3  and  C2_4 
REMARK       I    between atoms: N2_18  and  C13_19 
REMARK       I    between atoms: C13_19  and  N3_21 
REMARK    4  A    between atoms: N3_21  and  C14_23 
ROOT
HETATM    1  O1  UNL     1      10.386  24.197   3.295  1.00  0.00    -0.265 OA
HETATM    2  C1  UNL     1       9.966  24.068   4.474  1.00  0.00     0.263 C 
ENDROOT
BRANCH   2   3
HETATM    3  O2  UNL     1      10.136  25.164   5.305  1.00  0.00    -0.316 OA
BRANCH   3   4
HETATM    4  C2  UNL     1      11.093  25.232   6.352  1.00  0.00     0.136 C 
HETATM    5  C3  UNL     1      10.465  25.417   7.690  1.00  0.00     0.065 C 
HETATM    6  C4  UNL     1      10.626  26.714   8.350  1.00  0.00     0.189 C 
HETATM    7  C5  UNL     1      11.219  26.542   9.758  1.00  0.00     0.033 C 
HETATM    8  N1  UNL     1      11.523  27.650   7.713  1.00  0.00    -0.067 N 
HETATM    9  C6  UNL     1      12.584  25.981   9.642  1.00  0.00     0.004 C 
HETATM   10  C7  UNL     1      13.192  25.945   8.309  1.00  0.00     0.033 C 
HETATM   11  C8  UNL     1      12.675  26.884   7.285  1.00  0.00     0.189 C 
HETATM   12  C9  UNL     1      12.213  26.171   6.030  1.00  0.00     0.065 C 
ATOM     13  H12 UNL     1      11.086  28.180   6.959  1.00  0.00     0.278 HD
ATOM     14  H11 UNL     1      11.763  28.447   8.304  1.00  0.00     0.278 HD
ENDBRANCH   3   4
ENDBRANCH   2   3
BRANCH   2  15
HETATM   15  C10 UNL     1       9.329  22.807   4.933  1.00  0.00     0.088 C 
HETATM   16  C11 UNL     1      10.134  22.159   6.025  1.00  0.00     0.034 C 
HETATM   17  C12 UNL     1       9.167  21.436   6.939  1.00  0.00     0.128 C 
HETATM   18  N2  UNL     1       8.084  20.829   6.204  1.00  0.00    -0.334 N 
HETATM   19  C13 UNL     1       7.880  19.434   6.200  1.00  0.00     0.318 C 
HETATM   20  C17 UNL     1       7.198  21.682   5.461  1.00  0.00     0.128 C 
HETATM   21  O3  UNL     1       8.651  18.671   6.847  1.00  0.00    -0.247 OA
HETATM   22  N3  UNL     1       6.810  18.878   5.472  1.00  0.00    -0.338 N 
ATOM     23  H3  UNL     1       6.180  19.482   4.945  1.00  0.00     0.164 HD
HETATM   24  C18 UNL     1       7.893  23.044   5.341  1.00  0.00     0.034 C 
BRANCH  22  25
HETATM   25  C14 UNL     1       6.612  17.444   5.476  1.00  0.00     0.086 A 
HETATM   26  C15 UNL     1       5.254  16.919   5.025  1.00  0.00     0.027 A 
HETATM   27  C16 UNL     1       5.650  16.859   6.448  1.00  0.00     0.027 A 
ENDBRANCH  22  25
ENDBRANCH   2  15
TORSDOF 4
ENDMDL
MODEL 5
REMARK VINA RESULT: -8.079440519      1.982      2.517
REMARK  4 active torsions:
REMARK  status: ('A' for Active; 'I' for Inactive)
REMARK    1  A    between atoms: C1_2  and  O2_3 
REMARK    2  A    between atoms: C1_2  and  C10_15 
REMARK    3  A    between atoms: O2_3  and  C2_4 
REMARK       I    between atoms: N2_18  and  C13_19 
REMARK       I    between atoms: C13_19  and  N3_21 
REMARK    4  A    between atoms: N3_21  and  C14_23 
ROOT
HETATM    1  O1  UNL     1      11.572  24.092   4.865  1.00  0.00    -0.265 OA
HETATM    2  C1  UNL     1      10.731  24.246   5.788  1.00  0.00     0.263 C 
ENDROOT
BRANCH   2   3
HETATM    3  O2  UNL     1       9.433  23.850   5.502  1.00  0.00    -0.316 OA
BRANCH   3   4
HETATM    4  C2  UNL     1       8.864  22.617   5.917  1.00  0.00     0.136 C 
HETATM    5  C3  UNL     1       9.674  21.441   5.496  1.00  0.00     0.065 C 
HETATM    6  C4  UNL     1       9.135  20.578   4.442  1.00  0.00     0.189 C 
HETATM    7  C5  UNL     1       9.080  19.115   4.908  1.00  0.00     0.033 C 
HETATM    8  N1  UNL     1       7.782  20.854   4.019  1.00  0.00    -0.067 N 
HETATM    9  C6  UNL     1       8.131  19.004   6.040  1.00  0.00     0.004 C 
HETATM   10  C7  UNL     1       7.272  20.158   6.322  1.00  0.00     0.033 C 
HETATM   11  C8  UNL     1       7.024  21.123   5.223  1.00  0.00     0.189 C 
HETATM   12  C9  UNL     1       7.403  22.540   5.605  1.00  0.00     0.065 C 
ATOM     13  H12 UNL     1       7.718  21.601   3.327  1.00  0.00     0.278 HD
ATOM     14  H11 UNL     1       7.379  20.114   3.443  1.00  0.00     0.278 HD
ENDBRANCH   3   4
ENDBRANCH   2   3
BRANCH   2  15
HETATM   15  C10 UNL     1      11.122  24.820   7.102  1.00  0.00     0.088 C 
HETATM   16  C11 UNL     1      10.941  23.816   8.206  1.00  0.00     0.034 C 
HETATM   17  C12 UNL     1      11.999  24.092   9.254  1.00  0.00     0.128 C 
HETATM   18  N2  UNL     1      12.237  25.506   9.418  1.00  0.00    -0.334 N 
HETATM   19  C13 UNL     1      11.992  26.165  10.639  1.00  0.00     0.318 C 
HETATM   20  C17 UNL     1      12.739  26.250   8.295  1.00  0.00     0.128 C 
HETATM   21  O3  UNL     1      11.549  25.525  11.635  1.00  0.00    -0.247 OA
HETATM   22  N3  UNL     1      12.238  27.546  10.761  1.00  0.00    -0.338 N 
ATOM     23  H3  UNL     1      12.595  28.075   9.966  1.00  0.00     0.164 HD
HETATM   24  C18 UNL     1      12.527  25.374   7.054  1.00  0.00     0.034 C 
BRANCH  22  25
HETATM   25  C14 UNL     1      11.982  28.209  12.022  1.00  0.00     0.086 A 
HETATM   26  C15 UNL     1      12.715  29.518  12.292  1.00  0.00     0.027 A 
HETATM   27  C16 UNL     1      13.077  28.287  13.024  1.00  0.00     0.027 A 
ENDBRANCH  22  25
ENDBRANCH   2  15
TORSDOF 4
ENDMDL
