MODEL 1
REMARK VINA RESULT: -7.199056718      0.000      0.000
REMARK  5 active torsions:
REMARK  status: ('A' for Active; 'I' for Inactive)
REMARK    1  A    between atoms: N1_1  and  N2_4 
REMARK       I    between atoms: N2_4  and  C1_6 
REMARK    2  A    between atoms: C1_6  and  O2_8 
REMARK    3  A    between atoms: O2_8  and  C2_9 
REMARK    4  A    between atoms: C2_9  and  C3_10 
REMARK    5  A    between atoms: C3_10  and  C4_11 
ROOT
HETATM    1  O2  UNL     1      13.852 -17.282 -44.205  1.00  0.00    -0.303 OA
ENDROOT
BRANCH   1   2
HETATM    2  C1  UNL     1      13.924 -18.080 -45.333  1.00  0.00     0.378 C 
HETATM    3  N2  UNL     1      14.738 -17.740 -46.453  1.00  0.00    -0.252 N 
ATOM      4  H2  UNL     1      15.290 -16.883 -46.434  1.00  0.00     0.191 HD
HETATM    5  O1  UNL     1      13.250 -19.136 -45.363  1.00  0.00    -0.237 OA
BRANCH   3   6
HETATM    6  N1  UNL     1      14.787 -18.570 -47.576  1.00  0.00    -0.341 N 
ATOM      7  H12 UNL     1      15.639 -19.099 -47.757  1.00  0.00     0.177 HD
ATOM      8  H11 UNL     1      13.985 -18.645 -48.203  1.00  0.00     0.177 HD
ENDBRANCH   3   6
ENDBRANCH   1   2
BRANCH   1   9
HETATM    9  C2  UNL     1      14.387 -17.725 -42.970  1.00  0.00     0.181 C 
BRANCH   9  10
HETATM   10  C3  UNL     1      13.281 -17.717 -41.958  1.00  0.00     0.031 C 
BRANCH  10  11
HETATM   11  C4  UNL     1      13.081 -19.044 -41.284  1.00  0.00    -0.013 C 
HETATM   12  C5  UNL     1      13.223 -18.986 -39.800  1.00  0.00     0.005 C 
HETATM   13  C6  UNL     1      11.882 -19.154 -39.091  1.00  0.00     0.000 C 
HETATM   14  C7  UNL     1      11.393 -20.565 -39.302  1.00  0.00     0.000 C 
HETATM   15  C8  UNL     1      11.631 -20.922 -40.748  1.00  0.00     0.000 C 
HETATM   16  C9  UNL     1      11.750 -19.677 -41.619  1.00  0.00     0.005 C 
ENDBRANCH  10  11
ENDBRANCH   9  10
ENDBRANCH   1   9
TORSDOF 5
ENDMDL
MODEL 2
REMARK VINA RESULT: -6.953941043      0.823      1.581
REMARK  5 active torsions:
REMARK  status: ('A' for Active; 'I' for Inactive)
REMARK    1  A    between atoms: N1_1  and  N2_4 
REMARK       I    between atoms: N2_4  and  C1_6 
REMARK    2  A    between atoms: C1_6  and  O2_8 
REMARK    3  A    between atoms: O2_8  and  C2_9 
REMARK    4  A    between atoms: C2_9  and  C3_10 
REMARK    5  A    between atoms: C3_10  and  C4_11 
ROOT
HETATM    1  O2  UNL     1      13.599 -18.035 -44.716  1.00  0.00    -0.303 OA
ENDROOT
BRANCH   1   2
HETATM    2  C1  UNL     1      13.832 -18.424 -46.023  1.00  0.00     0.378 C 
HETATM    3  N2  UNL     1      15.043 -18.111 -46.705  1.00  0.00    -0.252 N 
ATOM      4  H2  UNL     1      15.771 -17.583 -46.225  1.00  0.00     0.191 HD
HETATM    5  O1  UNL     1      12.943 -19.076 -46.620  1.00  0.00    -0.237 OA
BRANCH   3   6
HETATM    6  N1  UNL     1      15.244 -18.521 -48.026  1.00  0.00    -0.341 N 
ATOM      7  H12 UNL     1      15.182 -19.515 -48.245  1.00  0.00     0.177 HD
ATOM      8  H11 UNL     1      15.448 -17.839 -48.757  1.00  0.00     0.177 HD
ENDBRANCH   3   6
ENDBRANCH   1   2
BRANCH   1   9
HETATM    9  C2  UNL     1      13.224 -18.984 -43.734  1.00  0.00     0.181 C 
BRANCH   9  10
HETATM   10  C3  UNL     1      13.666 -18.468 -42.399  1.00  0.00     0.031 C 
BRANCH  10  11
HETATM   11  C4  UNL     1      12.626 -18.622 -41.326  1.00  0.00    -0.013 C 
HETATM   12  C5  UNL     1      11.587 -19.644 -41.645  1.00  0.00     0.005 C 
HETATM   13  C6  UNL     1      11.731 -20.894 -40.781  1.00  0.00     0.000 C 
HETATM   14  C7  UNL     1      11.393 -20.541 -39.354  1.00  0.00     0.000 C 
HETATM   15  C8  UNL     1      12.050 -19.220 -39.040  1.00  0.00     0.000 C 
HETATM   16  C9  UNL     1      13.221 -18.942 -39.974  1.00  0.00     0.005 C 
ENDBRANCH  10  11
ENDBRANCH   9  10
ENDBRANCH   1   9
TORSDOF 5
ENDMDL
MODEL 3
REMARK VINA RESULT: -6.808019902      1.016      1.046
REMARK  5 active torsions:
REMARK  status: ('A' for Active; 'I' for Inactive)
REMARK    1  A    between atoms: N1_1  and  N2_4 
REMARK       I    between atoms: N2_4  and  C1_6 
REMARK    2  A    between atoms: C1_6  and  O2_8 
REMARK    3  A    between atoms: O2_8  and  C2_9 
REMARK    4  A    between atoms: C2_9  and  C3_10 
REMARK    5  A    between atoms: C3_10  and  C4_11 
ROOT
HETATM    1  O2  UNL     1      13.976 -16.973 -44.080  1.00  0.00    -0.303 OA
ENDROOT
BRANCH   1   2
HETATM    2  C1  UNL     1      14.075 -17.483 -45.362  1.00  0.00     0.378 C 
HETATM    3  N2  UNL     1      13.088 -18.352 -45.912  1.00  0.00    -0.252 N 
ATOM      4  H2  UNL     1      12.277 -18.613 -45.353  1.00  0.00     0.191 HD
HETATM    5  O1  UNL     1      15.068 -17.165 -46.058  1.00  0.00    -0.237 OA
BRANCH   3   6
HETATM    6  N1  UNL     1      13.220 -18.849 -47.212  1.00  0.00    -0.341 N 
ATOM      7  H12 UNL     1      14.052 -18.603 -47.747  1.00  0.00     0.177 HD
ATOM      8  H11 UNL     1      12.499 -19.446 -47.616  1.00  0.00     0.177 HD
ENDBRANCH   3   6
ENDBRANCH   1   2
BRANCH   1   9
HETATM    9  C2  UNL     1      14.388 -17.740 -42.963  1.00  0.00     0.181 C 
BRANCH   9  10
HETATM   10  C3  UNL     1      13.274 -17.732 -41.960  1.00  0.00     0.031 C 
BRANCH  10  11
HETATM   11  C4  UNL     1      13.072 -19.057 -41.283  1.00  0.00    -0.013 C 
HETATM   12  C5  UNL     1      13.226 -18.998 -39.800  1.00  0.00     0.005 C 
HETATM   13  C6  UNL     1      11.889 -19.157 -39.081  1.00  0.00     0.000 C 
HETATM   14  C7  UNL     1      11.390 -20.566 -39.286  1.00  0.00     0.000 C 
HETATM   15  C8  UNL     1      11.615 -20.925 -40.734  1.00  0.00     0.000 C 
HETATM   16  C9  UNL     1      11.734 -19.682 -41.606  1.00  0.00     0.005 C 
ENDBRANCH  10  11
ENDBRANCH   9  10
ENDBRANCH   1   9
TORSDOF 5
ENDMDL
MODEL 4
REMARK VINA RESULT: -6.691371483      1.098      1.738
REMARK  5 active torsions:
REMARK  status: ('A' for Active; 'I' for Inactive)
REMARK    1  A    between atoms: N1_1  and  N2_4 
REMARK       I    between atoms: N2_4  and  C1_6 
REMARK    2  A    between atoms: C1_6  and  O2_8 
REMARK    3  A    between atoms: O2_8  and  C2_9 
REMARK    4  A    between atoms: C2_9  and  C3_10 
REMARK    5  A    between atoms: C3_10  and  C4_11 
ROOT
HETATM    1  O2  UNL     1      13.745 -17.001 -44.056  1.00  0.00    -0.303 OA
ENDROOT
BRANCH   1   2
HETATM    2  C1  UNL     1      13.939 -17.608 -45.284  1.00  0.00     0.378 C 
HETATM    3  N2  UNL     1      12.868 -18.191 -46.021  1.00  0.00    -0.252 N 
ATOM      4  H2  UNL     1      11.922 -18.167 -45.642  1.00  0.00     0.191 HD
HETATM    5  O1  UNL     1      15.099 -17.642 -45.758  1.00  0.00    -0.237 OA
BRANCH   3   6
HETATM    6  N1  UNL     1      13.101 -18.797 -47.259  1.00  0.00    -0.341 N 
ATOM      7  H12 UNL     1      12.300 -19.083 -47.822  1.00  0.00     0.177 HD
ATOM      8  H11 UNL     1      14.053 -18.950 -47.592  1.00  0.00     0.177 HD
ENDBRANCH   3   6
ENDBRANCH   1   2
BRANCH   1   9
HETATM    9  C2  UNL     1      14.171 -17.632 -42.862  1.00  0.00     0.181 C 
BRANCH   9  10
HETATM   10  C3  UNL     1      13.375 -18.891 -42.695  1.00  0.00     0.031 C 
BRANCH  10  11
HETATM   11  C4  UNL     1      12.450 -18.858 -41.513  1.00  0.00    -0.013 C 
HETATM   12  C5  UNL     1      11.361 -19.877 -41.580  1.00  0.00     0.005 C 
HETATM   13  C6  UNL     1      11.567 -21.000 -40.567  1.00  0.00     0.000 C 
HETATM   14  C7  UNL     1      11.387 -20.443 -39.177  1.00  0.00     0.000 C 
HETATM   15  C8  UNL     1      12.102 -19.116 -39.119  1.00  0.00     0.000 C 
HETATM   16  C9  UNL     1      13.175 -19.011 -40.196  1.00  0.00     0.005 C 
ENDBRANCH  10  11
ENDBRANCH   9  10
ENDBRANCH   1   9
TORSDOF 5
ENDMDL
MODEL 5
REMARK VINA RESULT: -6.573431358      0.955      1.168
REMARK  5 active torsions:
REMARK  status: ('A' for Active; 'I' for Inactive)
REMARK    1  A    between atoms: N1_1  and  N2_4 
REMARK       I    between atoms: N2_4  and  C1_6 
REMARK    2  A    between atoms: C1_6  and  O2_8 
REMARK    3  A    between atoms: O2_8  and  C2_9 
REMARK    4  A    between atoms: C2_9  and  C3_10 
REMARK    5  A    between atoms: C3_10  and  C4_11 
ROOT
HETATM    1  O2  UNL     1      13.293 -17.849 -44.838  1.00  0.00    -0.303 OA
ENDROOT
BRANCH   1   2
HETATM    2  C1  UNL     1      14.217 -17.758 -45.864  1.00  0.00     0.378 C 
HETATM    3  N2  UNL     1      14.254 -18.694 -46.938  1.00  0.00    -0.252 N 
ATOM      4  H2  UNL     1      13.583 -19.462 -46.963  1.00  0.00     0.191 HD
HETATM    5  O1  UNL     1      15.045 -16.817 -45.842  1.00  0.00    -0.237 OA
BRANCH   3   6
HETATM    6  N1  UNL     1      15.202 -18.572 -47.958  1.00  0.00    -0.341 N 
ATOM      7  H12 UNL     1      15.177 -17.744 -48.552  1.00  0.00     0.177 HD
ATOM      8  H11 UNL     1      15.905 -19.296 -48.104  1.00  0.00     0.177 HD
ENDBRANCH   3   6
ENDBRANCH   1   2
BRANCH   1   9
HETATM    9  C2  UNL     1      13.286 -18.967 -43.968  1.00  0.00     0.181 C 
BRANCH   9  10
HETATM   10  C3  UNL     1      13.261 -18.457 -42.560  1.00  0.00     0.031 C 
BRANCH  10  11
HETATM   11  C4  UNL     1      13.025 -19.534 -41.540  1.00  0.00    -0.013 C 
HETATM   12  C5  UNL     1      13.338 -19.111 -40.143  1.00  0.00     0.005 C 
HETATM   13  C6  UNL     1      12.075 -18.939 -39.303  1.00  0.00     0.000 C 
HETATM   14  C7  UNL     1      11.446 -20.292 -39.085  1.00  0.00     0.000 C 
HETATM   15  C8  UNL     1      11.489 -21.034 -40.397  1.00  0.00     0.000 C 
HETATM   16  C9  UNL     1      11.615 -20.077 -41.577  1.00  0.00     0.005 C 
ENDBRANCH  10  11
ENDBRANCH   9  10
ENDBRANCH   1   9
TORSDOF 5
ENDMDL
