MODEL 1
REMARK VINA RESULT: -7.295250104      0.000      0.000
REMARK  7 active torsions:
REMARK  status: ('A' for Active; 'I' for Inactive)
REMARK    1  A    between atoms: O1_2  and  C2_3 
REMARK    2  A    between atoms: C7_9  and  O3_11 
REMARK    3  A    between atoms: C13_18  and  C15_20 
REMARK    4  A    between atoms: C15_20  and  O5_21 
REMARK    5  A    between atoms: O5_21  and  C16_22 
REMARK    6  A    between atoms: C18_25  and  O7_26 
REMARK    7  A    between atoms: O7_26  and  C19_27 
ROOT
HETATM    1  C2  UNL     1      95.149  27.893  17.062  1.00  0.00     0.220 C 
HETATM    2  C3  UNL     1      95.522  27.912  18.531  1.00  0.00     0.158 C 
HETATM    3  O2  UNL     1      96.402  28.688  18.839  1.00  0.00    -0.295 OA
HETATM    4  C4  UNL     1      94.881  27.067  19.536  1.00  0.00     0.088 C 
HETATM    5  C5  UNL     1      95.050  25.572  19.231  1.00  0.00     0.023 C 
HETATM    6  C6  UNL     1      94.054  24.869  20.166  1.00  0.00     0.013 C 
HETATM    7  C7  UNL     1      96.444  25.118  19.478  1.00  0.00     0.061 C 
HETATM    8  C8  UNL     1      96.439  24.153  20.674  1.00  0.00     0.046 C 
HETATM    9  C9  UNL     1      97.088  24.404  18.309  1.00  0.00     0.023 C 
HETATM   10  C10 UNL     1      96.161  23.384  17.729  1.00  0.00     0.013 C 
HETATM   11  C11 UNL     1      97.743  25.317  17.323  1.00  0.00     0.086 C 
HETATM   12  C12 UNL     1      97.043  25.473  16.040  1.00  0.00     0.140 C 
HETATM   13  O4  UNL     1      96.841  24.385  15.451  1.00  0.00    -0.297 OA
HETATM   14  C13 UNL     1      96.556  26.632  15.357  1.00  0.00     0.068 C 
HETATM   15  C14 UNL     1      95.130  26.298  14.824  1.00  0.00     0.028 C 
HETATM   16  C18 UNL     1      96.331  27.892  16.160  1.00  0.00     0.185 C 
ENDROOT
BRANCH  14  17
HETATM   17  C15 UNL     1      97.305  27.033  14.132  1.00  0.00     0.198 C 
BRANCH  17  18
HETATM   18  O5  UNL     1      96.748  27.891  13.255  1.00  0.00    -0.321 OA
BRANCH  18  19
HETATM   19  C16 UNL     1      96.588  27.911  11.934  1.00  0.00     0.254 C 
HETATM   20  C17 UNL     1      96.735  26.635  11.171  1.00  0.00     0.126 C 
HETATM   21  O6  UNL     1      96.325  28.946  11.324  1.00  0.00    -0.266 OA
ENDBRANCH  18  19
ENDBRANCH  17  18
ENDBRANCH  14  17
BRANCH  16  22
HETATM   22  O7  UNL     1      97.498  28.395  16.774  1.00  0.00    -0.312 OA
BRANCH  22  23
HETATM   23  C19 UNL     1      98.457  29.165  16.131  1.00  0.00     0.255 C 
HETATM   24  C20 UNL     1      99.901  28.790  16.132  1.00  0.00     0.126 C 
HETATM   25  O8  UNL     1      98.068  30.204  15.537  1.00  0.00    -0.266 OA
ENDBRANCH  22  23
ENDBRANCH  16  22
BRANCH   1  26
HETATM   26  O1  UNL     1      94.459  29.126  16.905  1.00  0.00    -0.381 OA
HETATM   27  C1  UNL     1      94.681  29.730  15.703  1.00  0.00     0.202 C 
ENDBRANCH   1  26
BRANCH   7  28
HETATM   28  O3  UNL     1      97.319  26.146  19.847  1.00  0.00    -0.389 OA
ATOM     29  H3  UNL     1      98.113  26.180  19.327  1.00  0.00     0.210 HD
ENDBRANCH   7  28
TORSDOF 7
ENDMDL
MODEL 2
REMARK VINA RESULT: -7.210163261      0.959      1.126
REMARK  7 active torsions:
REMARK  status: ('A' for Active; 'I' for Inactive)
REMARK    1  A    between atoms: O1_2  and  C2_3 
REMARK    2  A    between atoms: C7_9  and  O3_11 
REMARK    3  A    between atoms: C13_18  and  C15_20 
REMARK    4  A    between atoms: C15_20  and  O5_21 
REMARK    5  A    between atoms: O5_21  and  C16_22 
REMARK    6  A    between atoms: C18_25  and  O7_26 
REMARK    7  A    between atoms: O7_26  and  C19_27 
ROOT
HETATM    1  C2  UNL     1      94.941  27.874  17.329  1.00  0.00     0.220 C 
HETATM    2  C3  UNL     1      95.331  27.683  18.781  1.00  0.00     0.158 C 
HETATM    3  O2  UNL     1      96.162  28.456  19.208  1.00  0.00    -0.295 OA
HETATM    4  C4  UNL     1      94.759  26.648  19.639  1.00  0.00     0.088 C 
HETATM    5  C5  UNL     1      95.021  25.235  19.099  1.00  0.00     0.023 C 
HETATM    6  C6  UNL     1      94.084  24.327  19.911  1.00  0.00     0.013 C 
HETATM    7  C7  UNL     1      96.444  24.840  19.267  1.00  0.00     0.061 C 
HETATM    8  C8  UNL     1      96.517  23.699  20.293  1.00  0.00     0.046 C 
HETATM    9  C9  UNL     1      97.119  24.367  17.998  1.00  0.00     0.023 C 
HETATM   10  C10 UNL     1      96.252  23.393  17.263  1.00  0.00     0.013 C 
HETATM   11  C11 UNL     1      97.700  25.467  17.169  1.00  0.00     0.086 C 
HETATM   12  C12 UNL     1      96.975  25.778  15.928  1.00  0.00     0.140 C 
HETATM   13  O4  UNL     1      96.837  24.787  15.174  1.00  0.00    -0.297 OA
HETATM   14  C13 UNL     1      96.405  26.997  15.441  1.00  0.00     0.068 C 
HETATM   15  C14 UNL     1      94.997  26.659  14.865  1.00  0.00     0.028 C 
HETATM   16  C18 UNL     1      96.109  28.095  16.436  1.00  0.00     0.185 C 
ENDROOT
BRANCH  14  17
HETATM   17  C15 UNL     1      97.112  27.636  14.294  1.00  0.00     0.198 C 
BRANCH  17  18
HETATM   18  O5  UNL     1      96.756  28.873  13.893  1.00  0.00    -0.321 OA
BRANCH  18  19
HETATM   19  C16 UNL     1      96.063  29.364  12.869  1.00  0.00     0.254 C 
HETATM   20  C17 UNL     1      95.646  28.440  11.772  1.00  0.00     0.126 C 
HETATM   21  O6  UNL     1      95.756  30.554  12.799  1.00  0.00    -0.266 OA
ENDBRANCH  18  19
ENDBRANCH  17  18
ENDBRANCH  14  17
BRANCH  16  22
HETATM   22  O7  UNL     1      97.249  28.569  17.119  1.00  0.00    -0.312 OA
BRANCH  22  23
HETATM   23  C19 UNL     1      97.900  29.762  16.835  1.00  0.00     0.255 C 
HETATM   24  C20 UNL     1      97.209  31.080  16.927  1.00  0.00     0.126 C 
HETATM   25  O8  UNL     1      99.110  29.698  16.495  1.00  0.00    -0.266 OA
ENDBRANCH  22  23
ENDBRANCH  16  22
BRANCH   1  26
HETATM   26  O1  UNL     1      94.171  29.067  17.373  1.00  0.00    -0.381 OA
HETATM   27  C1  UNL     1      94.172  29.765  16.201  1.00  0.00     0.202 C 
ENDBRANCH   1  26
BRANCH   7  28
HETATM   28  O3  UNL     1      97.256  25.852  19.793  1.00  0.00    -0.389 OA
ATOM     29  H3  UNL     1      98.084  25.956  19.340  1.00  0.00     0.210 HD
ENDBRANCH   7  28
TORSDOF 7
ENDMDL
MODEL 3
REMARK VINA RESULT: -6.883776857      1.567      2.543
REMARK  7 active torsions:
REMARK  status: ('A' for Active; 'I' for Inactive)
REMARK    1  A    between atoms: O1_2  and  C2_3 
REMARK    2  A    between atoms: C7_9  and  O3_11 
REMARK    3  A    between atoms: C13_18  and  C15_20 
REMARK    4  A    between atoms: C15_20  and  O5_21 
REMARK    5  A    between atoms: O5_21  and  C16_22 
REMARK    6  A    between atoms: C18_25  and  O7_26 
REMARK    7  A    between atoms: O7_26  and  C19_27 
ROOT
HETATM    1  C2  UNL     1      95.927  27.114  17.172  1.00  0.00     0.220 C 
HETATM    2  C3  UNL     1      96.682  25.963  17.807  1.00  0.00     0.158 C 
HETATM    3  O2  UNL     1      97.882  26.109  17.898  1.00  0.00    -0.295 OA
HETATM    4  C4  UNL     1      96.036  24.745  18.290  1.00  0.00     0.088 C 
HETATM    5  C5  UNL     1      95.291  24.000  17.173  1.00  0.00     0.023 C 
HETATM    6  C6  UNL     1      94.416  22.972  17.907  1.00  0.00     0.013 C 
HETATM    7  C7  UNL     1      96.234  23.341  16.232  1.00  0.00     0.061 C 
HETATM    8  C8  UNL     1      96.089  21.819  16.381  1.00  0.00     0.046 C 
HETATM    9  C9  UNL     1      96.014  23.688  14.776  1.00  0.00     0.023 C 
HETATM   10  C10 UNL     1      94.564  23.598  14.419  1.00  0.00     0.013 C 
HETATM   11  C11 UNL     1      96.713  24.933  14.333  1.00  0.00     0.086 C 
HETATM   12  C12 UNL     1      95.846  26.098  14.098  1.00  0.00     0.140 C 
HETATM   13  O4  UNL     1      94.934  25.877  13.267  1.00  0.00    -0.297 OA
HETATM   14  C13 UNL     1      95.860  27.420  14.646  1.00  0.00     0.068 C 
HETATM   15  C14 UNL     1      94.390  27.797  14.999  1.00  0.00     0.028 C 
HETATM   16  C18 UNL     1      96.590  27.644  15.951  1.00  0.00     0.185 C 
ENDROOT
BRANCH  14  17
HETATM   17  C15 UNL     1      96.292  28.507  13.722  1.00  0.00     0.198 C 
BRANCH  17  18
HETATM   18  O5  UNL     1      96.652  28.209  12.458  1.00  0.00    -0.321 OA
BRANCH  18  19
HETATM   19  C16 UNL     1      96.271  28.622  11.252  1.00  0.00     0.254 C 
HETATM   20  C17 UNL     1      95.702  27.625  10.296  1.00  0.00     0.126 C 
HETATM   21  O6  UNL     1      96.374  29.797  10.901  1.00  0.00    -0.266 OA
ENDBRANCH  18  19
ENDBRANCH  17  18
ENDBRANCH  14  17
BRANCH  16  22
HETATM   22  O7  UNL     1      97.968  27.346  15.894  1.00  0.00    -0.312 OA
BRANCH  22  23
HETATM   23  C19 UNL     1      98.981  28.293  15.943  1.00  0.00     0.255 C 
HETATM   24  C20 UNL     1     100.415  27.926  15.756  1.00  0.00     0.126 C 
HETATM   25  O8  UNL     1      98.652  29.490  16.153  1.00  0.00    -0.266 OA
ENDBRANCH  22  23
ENDBRANCH  16  22
BRANCH   1  26
HETATM   26  O1  UNL     1      95.979  28.110  18.185  1.00  0.00    -0.381 OA
HETATM   27  C1  UNL     1      94.891  28.932  18.203  1.00  0.00     0.202 C 
ENDBRANCH   1  26
BRANCH   7  28
HETATM   28  O3  UNL     1      97.582  23.603  16.503  1.00  0.00    -0.389 OA
ATOM     29  H3  UNL     1      98.179  23.270  15.843  1.00  0.00     0.210 HD
ENDBRANCH   7  28
TORSDOF 7
ENDMDL
MODEL 4
REMARK VINA RESULT: -6.607627271      1.683      5.774
REMARK  7 active torsions:
REMARK  status: ('A' for Active; 'I' for Inactive)
REMARK    1  A    between atoms: O1_2  and  C2_3 
REMARK    2  A    between atoms: C7_9  and  O3_11 
REMARK    3  A    between atoms: C13_18  and  C15_20 
REMARK    4  A    between atoms: C15_20  and  O5_21 
REMARK    5  A    between atoms: O5_21  and  C16_22 
REMARK    6  A    between atoms: C18_25  and  O7_26 
REMARK    7  A    between atoms: O7_26  and  C19_27 
ROOT
HETATM    1  C2  UNL     1      97.844  27.215  15.829  1.00  0.00     0.220 C 
HETATM    2  C3  UNL     1      97.077  27.722  14.624  1.00  0.00     0.158 C 
HETATM    3  O2  UNL     1      96.200  28.525  14.860  1.00  0.00    -0.295 OA
HETATM    4  C4  UNL     1      97.353  27.293  13.255  1.00  0.00     0.088 C 
HETATM    5  C5  UNL     1      97.176  25.779  13.073  1.00  0.00     0.023 C 
HETATM    6  C6  UNL     1      97.822  25.472  11.713  1.00  0.00     0.013 C 
HETATM    7  C7  UNL     1      95.742  25.389  13.097  1.00  0.00     0.061 C 
HETATM    8  C8  UNL     1      95.347  24.891  11.698  1.00  0.00     0.046 C 
HETATM    9  C9  UNL     1      95.404  24.298  14.090  1.00  0.00     0.023 C 
HETATM   10  C10 UNL     1      96.386  23.173  14.002  1.00  0.00     0.013 C 
HETATM   11  C11 UNL     1      95.113  24.796  15.469  1.00  0.00     0.086 C 
HETATM   12  C12 UNL     1      96.154  24.528  16.473  1.00  0.00     0.140 C 
HETATM   13  O4  UNL     1      96.440  23.312  16.577  1.00  0.00    -0.297 OA
HETATM   14  C13 UNL     1      96.889  25.400  17.337  1.00  0.00     0.068 C 
HETATM   15  C14 UNL     1      98.381  24.953  17.295  1.00  0.00     0.028 C 
HETATM   16  C18 UNL     1      96.964  26.866  16.976  1.00  0.00     0.185 C 
ENDROOT
BRANCH  14  17
HETATM   17  C15 UNL     1      96.541  25.333  18.785  1.00  0.00     0.198 C 
BRANCH  17  18
HETATM   18  O5  UNL     1      97.140  26.166  19.658  1.00  0.00    -0.321 OA
BRANCH  18  19
HETATM   19  C16 UNL     1      96.798  26.705  20.826  1.00  0.00     0.254 C 
HETATM   20  C17 UNL     1      95.350  26.919  21.125  1.00  0.00     0.126 C 
HETATM   21  O6  UNL     1      97.637  27.031  21.665  1.00  0.00    -0.266 OA
ENDBRANCH  18  19
ENDBRANCH  17  18
ENDBRANCH  14  17
BRANCH  16  22
HETATM   22  O7  UNL     1      95.708  27.507  16.928  1.00  0.00    -0.312 OA
BRANCH  22  23
HETATM   23  C19 UNL     1      95.348  28.596  17.710  1.00  0.00     0.255 C 
HETATM   24  C20 UNL     1      96.353  29.376  18.489  1.00  0.00     0.126 C 
HETATM   25  O8  UNL     1      94.130  28.913  17.743  1.00  0.00    -0.266 OA
ENDBRANCH  22  23
ENDBRANCH  16  22
BRANCH   1  26
HETATM   26  O1  UNL     1      98.631  28.343  16.188  1.00  0.00    -0.381 OA
HETATM   27  C1  UNL     1      99.952  28.213  15.873  1.00  0.00     0.202 C 
ENDBRANCH   1  26
BRANCH   7  28
HETATM   28  O3  UNL     1      94.869  26.450  13.363  1.00  0.00    -0.389 OA
ATOM     29  H3  UNL     1      95.013  27.214  12.817  1.00  0.00     0.210 HD
ENDBRANCH   7  28
TORSDOF 7
ENDMDL
MODEL 5
REMARK VINA RESULT: -6.563510506      1.970      3.966
REMARK  7 active torsions:
REMARK  status: ('A' for Active; 'I' for Inactive)
REMARK    1  A    between atoms: O1_2  and  C2_3 
REMARK    2  A    between atoms: C7_9  and  O3_11 
REMARK    3  A    between atoms: C13_18  and  C15_20 
REMARK    4  A    between atoms: C15_20  and  O5_21 
REMARK    5  A    between atoms: O5_21  and  C16_22 
REMARK    6  A    between atoms: C18_25  and  O7_26 
REMARK    7  A    between atoms: O7_26  and  C19_27 
ROOT
HETATM    1  C2  UNL     1      96.268  26.185  17.387  1.00  0.00     0.220 C 
HETATM    2  C3  UNL     1      96.868  24.796  17.474  1.00  0.00     0.158 C 
HETATM    3  O2  UNL     1      98.079  24.747  17.500  1.00  0.00    -0.295 OA
HETATM    4  C4  UNL     1      96.066  23.575  17.525  1.00  0.00     0.088 C 
HETATM    5  C5  UNL     1      95.176  23.411  16.285  1.00  0.00     0.023 C 
HETATM    6  C6  UNL     1      94.187  22.296  16.661  1.00  0.00     0.013 C 
HETATM    7  C7  UNL     1      95.973  23.051  15.083  1.00  0.00     0.061 C 
HETATM    8  C8  UNL     1      95.608  21.619  14.665  1.00  0.00     0.046 C 
HETATM    9  C9  UNL     1      95.750  23.954  13.889  1.00  0.00     0.023 C 
HETATM   10  C10 UNL     1      94.289  24.187  13.660  1.00  0.00     0.013 C 
HETATM   11  C11 UNL     1      96.608  25.178  13.880  1.00  0.00     0.086 C 
HETATM   12  C12 UNL     1      95.916  26.441  14.178  1.00  0.00     0.140 C 
HETATM   13  O4  UNL     1      94.949  26.668  13.413  1.00  0.00    -0.297 OA
HETATM   14  C13 UNL     1      96.148  27.440  15.176  1.00  0.00     0.068 C 
HETATM   15  C14 UNL     1      94.766  27.831  15.779  1.00  0.00     0.028 C 
HETATM   16  C18 UNL     1      96.954  27.056  16.396  1.00  0.00     0.185 C 
ENDROOT
BRANCH  14  17
HETATM   17  C15 UNL     1      96.700  28.735  14.688  1.00  0.00     0.198 C 
BRANCH  17  18
HETATM   18  O5  UNL     1      96.229  29.896  15.186  1.00  0.00    -0.321 OA
BRANCH  18  19
HETATM   19  C16 UNL     1      96.675  30.790  16.064  1.00  0.00     0.254 C 
HETATM   20  C17 UNL     1      97.063  30.328  17.431  1.00  0.00     0.126 C 
HETATM   21  O6  UNL     1      96.778  31.984  15.785  1.00  0.00    -0.266 OA
ENDBRANCH  18  19
ENDBRANCH  17  18
ENDBRANCH  14  17
BRANCH  16  22
HETATM   22  O7  UNL     1      98.269  26.636  16.104  1.00  0.00    -0.312 OA
BRANCH  22  23
HETATM   23  C19 UNL     1      99.230  27.426  15.488  1.00  0.00     0.255 C 
HETATM   24  C20 UNL     1      99.894  28.558  16.196  1.00  0.00     0.126 C 
HETATM   25  O8  UNL     1      99.531  27.154  14.296  1.00  0.00    -0.266 OA
ENDBRANCH  22  23
ENDBRANCH  16  22
BRANCH   1  26
HETATM   26  O1  UNL     1      96.508  26.703  18.689  1.00  0.00    -0.381 OA
HETATM   27  C1  UNL     1      95.382  26.813  19.452  1.00  0.00     0.202 C 
ENDBRANCH   1  26
BRANCH   7  28
HETATM   28  O3  UNL     1      97.354  23.023  15.305  1.00  0.00    -0.389 OA
ATOM     29  H3  UNL     1      97.691  23.797  15.739  1.00  0.00     0.210 HD
ENDBRANCH   7  28
TORSDOF 7
ENDMDL
