MODEL 1
REMARK VINA RESULT: -7.965498658      0.000      0.000
REMARK  5 active torsions:
REMARK  status: ('A' for Active; 'I' for Inactive)
REMARK    1  A    between atoms: C2_2  and  C3_3 
REMARK    2  A    between atoms: C3_3  and  C4_4 
REMARK    3  A    between atoms: C4_4  and  C5_5 
REMARK    4  A    between atoms: C7_7  and  C8_8 
REMARK    5  A    between atoms: C14_15  and  N2_16 
ROOT
HETATM    1  C8  UNL     1      23.761 -13.451   6.480  1.00  0.00     0.068 C 
HETATM    2  C9  UNL     1      23.165 -12.444   5.528  1.00  0.00     0.045 C 
HETATM    3  C10 UNL     1      23.057 -13.337   7.808  1.00  0.00     0.043 C 
HETATM    4  C11 UNL     1      22.992 -11.883   8.220  1.00  0.00     0.004 C 
HETATM    5  C12 UNL     1      22.516 -11.861   9.661  1.00  0.00     0.011 C 
HETATM    6  C13 UNL     1      24.293 -11.169   8.140  1.00  0.00     0.155 C 
HETATM    7  N1  UNL     1      25.350 -11.958   7.514  1.00  0.00    -0.267 N 
HETATM    8  C14 UNL     1      26.666 -12.040   7.395  1.00  0.00     0.207 A 
HETATM    9  C15 UNL     1      26.470 -13.133   6.598  1.00  0.00     0.168 A 
HETATM   10  N3  UNL     1      25.143 -12.993   6.759  1.00  0.00    -0.282 N 
ENDROOT
BRANCH   1  11
HETATM   11  C7  UNL     1      23.855 -14.780   5.911  1.00  0.00     0.012 C 
HETATM   12  C5  UNL     1      24.230 -15.957   6.640  1.00  0.00    -0.069 C 
HETATM   13  C6  UNL     1      25.299 -16.669   6.301  1.00  0.00     0.018 C 
BRANCH  12  14
HETATM   14  C4  UNL     1      23.424 -16.447   7.775  1.00  0.00     0.041 C 
BRANCH  14  15
HETATM   15  C3  UNL     1      23.697 -17.905   8.091  1.00  0.00     0.031 C 
BRANCH  15  16
HETATM   16  C2  UNL     1      22.420 -18.617   8.223  1.00  0.00    -0.037 C 
HETATM   17  C1  UNL     1      22.328 -19.868   8.624  1.00  0.00     0.007 C 
ENDBRANCH  15  16
ENDBRANCH  14  15
ENDBRANCH  12  14
ENDBRANCH   1  11
BRANCH   8  18
HETATM   18  N2  UNL     1      27.848 -11.362   7.843  1.00  0.00    -0.095 N 
HETATM   19  O1  UNL     1      27.811 -10.499   8.737  1.00  0.00    -0.530 OA
HETATM   20  O2  UNL     1      29.074 -11.645   7.294  1.00  0.00    -0.530 OA
ENDBRANCH   8  18
TORSDOF 5
ENDMDL
MODEL 2
REMARK VINA RESULT: -7.665691565      1.297      1.440
REMARK  5 active torsions:
REMARK  status: ('A' for Active; 'I' for Inactive)
REMARK    1  A    between atoms: C2_2  and  C3_3 
REMARK    2  A    between atoms: C3_3  and  C4_4 
REMARK    3  A    between atoms: C4_4  and  C5_5 
REMARK    4  A    between atoms: C7_7  and  C8_8 
REMARK    5  A    between atoms: C14_15  and  N2_16 
ROOT
HETATM    1  C8  UNL     1      24.288 -14.363   6.751  1.00  0.00     0.068 C 
HETATM    2  C9  UNL     1      23.407 -14.105   5.554  1.00  0.00     0.045 C 
HETATM    3  C10 UNL     1      23.508 -14.050   8.002  1.00  0.00     0.043 C 
HETATM    4  C11 UNL     1      22.841 -12.700   7.855  1.00  0.00     0.004 C 
HETATM    5  C12 UNL     1      22.299 -12.331   9.223  1.00  0.00     0.011 C 
HETATM    6  C13 UNL     1      23.754 -11.618   7.400  1.00  0.00     0.155 C 
HETATM    7  N1  UNL     1      25.078 -12.098   7.015  1.00  0.00    -0.267 N 
HETATM    8  C14 UNL     1      26.323 -11.695   6.816  1.00  0.00     0.207 A 
HETATM    9  C15 UNL     1      26.632 -12.988   6.498  1.00  0.00     0.168 A 
HETATM   10  N3  UNL     1      25.351 -13.331   6.716  1.00  0.00    -0.282 N 
ENDROOT
BRANCH   1  11
HETATM   11  C7  UNL     1      24.941 -15.656   6.705  1.00  0.00     0.012 C 
HETATM   12  C5  UNL     1      24.435 -16.850   7.317  1.00  0.00    -0.069 C 
HETATM   13  C6  UNL     1      25.125 -17.494   8.251  1.00  0.00     0.018 C 
BRANCH  12  14
HETATM   14  C4  UNL     1      23.142 -17.434   6.910  1.00  0.00     0.041 C 
BRANCH  14  15
HETATM   15  C3  UNL     1      22.864 -18.758   7.597  1.00  0.00     0.031 C 
BRANCH  15  16
HETATM   16  C2  UNL     1      23.098 -19.853   6.646  1.00  0.00    -0.037 C 
HETATM   17  C1  UNL     1      23.581 -21.025   6.999  1.00  0.00     0.007 C 
ENDBRANCH  15  16
ENDBRANCH  14  15
ENDBRANCH  12  14
ENDBRANCH   1  11
BRANCH   8  18
HETATM   18  N2  UNL     1      27.104 -10.493   6.874  1.00  0.00    -0.095 N 
HETATM   19  O1  UNL     1      27.444  -9.983   7.956  1.00  0.00    -0.530 OA
HETATM   20  O2  UNL     1      27.507  -9.858   5.725  1.00  0.00    -0.530 OA
ENDBRANCH   8  18
TORSDOF 5
ENDMDL
MODEL 3
REMARK VINA RESULT: -7.665533246      2.171      3.413
REMARK  5 active torsions:
REMARK  status: ('A' for Active; 'I' for Inactive)
REMARK    1  A    between atoms: C2_2  and  C3_3 
REMARK    2  A    between atoms: C3_3  and  C4_4 
REMARK    3  A    between atoms: C4_4  and  C5_5 
REMARK    4  A    between atoms: C7_7  and  C8_8 
REMARK    5  A    between atoms: C14_15  and  N2_16 
ROOT
HETATM    1  C8  UNL     1      25.365 -13.826   7.452  1.00  0.00     0.068 C 
HETATM    2  C9  UNL     1      25.670 -14.477   8.778  1.00  0.00     0.045 C 
HETATM    3  C10 UNL     1      26.620 -13.168   6.937  1.00  0.00     0.043 C 
HETATM    4  C11 UNL     1      27.241 -12.338   8.039  1.00  0.00     0.004 C 
HETATM    5  C12 UNL     1      28.334 -11.506   7.393  1.00  0.00     0.011 C 
HETATM    6  C13 UNL     1      26.289 -11.422   8.722  1.00  0.00     0.155 C 
HETATM    7  N1  UNL     1      24.901 -11.622   8.318  1.00  0.00    -0.267 N 
HETATM    8  C14 UNL     1      23.716 -11.032   8.311  1.00  0.00     0.207 A 
HETATM    9  C15 UNL     1      23.223 -12.153   7.704  1.00  0.00     0.168 A 
HETATM   10  N3  UNL     1      24.452 -12.695   7.743  1.00  0.00    -0.282 N 
ENDROOT
BRANCH   1  11
HETATM   11  C7  UNL     1      24.677 -14.710   6.533  1.00  0.00     0.012 C 
HETATM   12  C5  UNL     1      24.419 -16.100   6.775  1.00  0.00    -0.069 C 
HETATM   13  C6  UNL     1      24.900 -17.042   5.972  1.00  0.00     0.018 C 
BRANCH  12  14
HETATM   14  C4  UNL     1      23.579 -16.541   7.905  1.00  0.00     0.041 C 
BRANCH  14  15
HETATM   15  C3  UNL     1      23.741 -18.020   8.203  1.00  0.00     0.031 C 
BRANCH  15  16
HETATM   16  C2  UNL     1      22.413 -18.644   8.277  1.00  0.00    -0.037 C 
HETATM   17  C1  UNL     1      22.224 -19.898   8.630  1.00  0.00     0.007 C 
ENDBRANCH  15  16
ENDBRANCH  14  15
ENDBRANCH  12  14
ENDBRANCH   1  11
BRANCH   8  18
HETATM   18  N2  UNL     1      23.108  -9.799   8.718  1.00  0.00    -0.095 N 
HETATM   19  O1  UNL     1      23.275  -8.742   8.083  1.00  0.00    -0.530 OA
HETATM   20  O2  UNL     1      22.311  -9.740   9.835  1.00  0.00    -0.530 OA
ENDBRANCH   8  18
TORSDOF 5
ENDMDL
MODEL 4
REMARK VINA RESULT: -7.554792950      2.546      3.616
REMARK  5 active torsions:
REMARK  status: ('A' for Active; 'I' for Inactive)
REMARK    1  A    between atoms: C2_2  and  C3_3 
REMARK    2  A    between atoms: C3_3  and  C4_4 
REMARK    3  A    between atoms: C4_4  and  C5_5 
REMARK    4  A    between atoms: C7_7  and  C8_8 
REMARK    5  A    between atoms: C14_15  and  N2_16 
ROOT
HETATM    1  C8  UNL     1      25.419 -12.878   6.755  1.00  0.00     0.068 C 
HETATM    2  C9  UNL     1      26.402 -13.293   7.821  1.00  0.00     0.045 C 
HETATM    3  C10 UNL     1      26.090 -11.887   5.838  1.00  0.00     0.043 C 
HETATM    4  C11 UNL     1      26.775 -10.821   6.664  1.00  0.00     0.004 C 
HETATM    5  C12 UNL     1      27.199  -9.729   5.699  1.00  0.00     0.011 C 
HETATM    6  C13 UNL     1      25.912 -10.216   7.713  1.00  0.00     0.155 C 
HETATM    7  N1  UNL     1      24.625 -10.887   7.863  1.00  0.00    -0.267 N 
HETATM    8  C14 UNL     1      23.404 -10.717   8.348  1.00  0.00     0.207 A 
HETATM    9  C15 UNL     1      23.115 -11.980   7.911  1.00  0.00     0.168 A 
HETATM   10  N3  UNL     1      24.370 -12.088   7.441  1.00  0.00    -0.282 N 
ENDROOT
BRANCH   1  11
HETATM   11  C7  UNL     1      24.764 -14.004   6.120  1.00  0.00     0.012 C 
HETATM   12  C5  UNL     1      24.823 -15.357   6.593  1.00  0.00    -0.069 C 
HETATM   13  C6  UNL     1      25.329 -16.329   5.843  1.00  0.00     0.018 C 
BRANCH  12  14
HETATM   14  C4  UNL     1      24.292 -15.732   7.917  1.00  0.00     0.041 C 
BRANCH  14  15
HETATM   15  C3  UNL     1      24.354 -17.228   8.162  1.00  0.00     0.031 C 
BRANCH  15  16
HETATM   16  C2  UNL     1      23.016 -17.803   7.975  1.00  0.00    -0.037 C 
HETATM   17  C1  UNL     1      22.735 -18.690   7.043  1.00  0.00     0.007 C 
ENDBRANCH  15  16
ENDBRANCH  14  15
ENDBRANCH  12  14
ENDBRANCH   1  11
BRANCH   8  18
HETATM   18  N2  UNL     1      22.629  -9.722   9.030  1.00  0.00    -0.095 N 
HETATM   19  O1  UNL     1      22.232  -9.886  10.197  1.00  0.00    -0.530 OA
HETATM   20  O2  UNL     1      22.295  -8.542   8.413  1.00  0.00    -0.530 OA
ENDBRANCH   8  18
TORSDOF 5
ENDMDL
MODEL 5
REMARK VINA RESULT: -7.543803501      1.489      2.276
REMARK  5 active torsions:
REMARK  status: ('A' for Active; 'I' for Inactive)
REMARK    1  A    between atoms: C2_2  and  C3_3 
REMARK    2  A    between atoms: C3_3  and  C4_4 
REMARK    3  A    between atoms: C4_4  and  C5_5 
REMARK    4  A    between atoms: C7_7  and  C8_8 
REMARK    5  A    between atoms: C14_15  and  N2_16 
ROOT
HETATM    1  C8  UNL     1      24.623 -15.071   7.439  1.00  0.00     0.068 C 
HETATM    2  C9  UNL     1      24.962 -15.174   5.973  1.00  0.00     0.045 C 
HETATM    3  C10 UNL     1      23.256 -14.450   7.577  1.00  0.00     0.043 C 
HETATM    4  C11 UNL     1      23.177 -13.210   6.713  1.00  0.00     0.004 C 
HETATM    5  C12 UNL     1      21.893 -12.497   7.093  1.00  0.00     0.011 C 
HETATM    6  C13 UNL     1      24.313 -12.268   6.897  1.00  0.00     0.155 C 
HETATM    7  N1  UNL     1      25.376 -12.799   7.745  1.00  0.00    -0.267 N 
HETATM    8  C14 UNL     1      26.418 -12.430   8.475  1.00  0.00     0.207 A 
HETATM    9  C15 UNL     1      26.611 -13.752   8.766  1.00  0.00     0.168 A 
HETATM   10  N3  UNL     1      25.543 -14.059   8.009  1.00  0.00    -0.282 N 
ENDROOT
BRANCH   1  11
HETATM   11  C7  UNL     1      24.844 -16.308   8.159  1.00  0.00     0.012 C 
HETATM   12  C5  UNL     1      24.107 -17.520   7.947  1.00  0.00    -0.069 C 
HETATM   13  C6  UNL     1      23.402 -18.080   8.924  1.00  0.00     0.018 C 
BRANCH  12  14
HETATM   14  C4  UNL     1      24.130 -18.216   6.646  1.00  0.00     0.041 C 
BRANCH  14  15
HETATM   15  C3  UNL     1      23.055 -19.282   6.542  1.00  0.00     0.031 C 
BRANCH  15  16
HETATM   16  C2  UNL     1      23.665 -20.603   6.746  1.00  0.00    -0.037 C 
HETATM   17  C1  UNL     1      23.014 -21.628   7.254  1.00  0.00     0.007 C 
ENDBRANCH  15  16
ENDBRANCH  14  15
ENDBRANCH  12  14
ENDBRANCH   1  11
BRANCH   8  18
HETATM   18  N2  UNL     1      27.116 -11.238   8.858  1.00  0.00    -0.095 N 
HETATM   19  O1  UNL     1      28.351 -11.218   9.004  1.00  0.00    -0.530 OA
HETATM   20  O2  UNL     1      26.438 -10.064   9.079  1.00  0.00    -0.530 OA
ENDBRANCH   8  18
TORSDOF 5
ENDMDL
