MODEL 1
REMARK VINA RESULT: -8.271571222      0.000      0.000
REMARK  7 active torsions:
REMARK  status: ('A' for Active; 'I' for Inactive)
REMARK    1  A    between atoms: C2_2  and  N1_3 
REMARK    2  A    between atoms: C2_2  and  C7_11 
REMARK    3  A    between atoms: N1_3  and  C3_5 
REMARK    4  A    between atoms: C3_5  and  N2_6 
REMARK    5  A    between atoms: C7_11  and  N3_13 
REMARK    6  A    between atoms: N3_13  and  N4_15 
REMARK       I    between atoms: N4_15  and  C8_17 
REMARK       I    between atoms: C8_17  and  N5_19 
REMARK    7  A    between atoms: N5_19  and  N6_20 
REMARK       I    between atoms: N6_20  and  C9_22 
ROOT
HETATM    1  C7  UNL     1      15.886 -26.172 -14.463  1.00  0.00     0.141 C 
HETATM    2  S1  UNL     1      15.125 -24.999 -13.603  1.00  0.00    -0.057 SA
ENDROOT
BRANCH   1   3
HETATM    3  C2  UNL     1      15.089 -26.916 -15.440  1.00  0.00     0.059 C 
HETATM    4  C1  UNL     1      14.811 -26.426 -16.591  1.00  0.00     0.046 C 
BRANCH   3   5
HETATM    5  N1  UNL     1      14.617 -28.192 -15.027  1.00  0.00    -0.372 N 
ATOM      6  H1  UNL     1      13.695 -28.220 -14.591  1.00  0.00     0.161 HD
BRANCH   5   7
HETATM    7  C3  UNL     1      15.303 -29.445 -15.161  1.00  0.00     0.243 C 
BRANCH   7   8
HETATM    8  N2  UNL     1      15.420 -30.090 -13.890  1.00  0.00    -0.381 N 
HETATM    9  C4  UNL     1      16.268 -31.073 -13.807  1.00  0.00    -0.025 C 
HETATM   10  C5  UNL     1      16.469 -31.837 -12.574  1.00  0.00     0.062 C 
HETATM   11  C6  UNL     1      17.125 -31.454 -14.995  1.00  0.00     0.062 C 
ATOM     12  H2  UNL     1      14.864 -29.794 -13.087  1.00  0.00     0.160 HD
ENDBRANCH   7   8
ENDBRANCH   5   7
ENDBRANCH   3   5
ENDBRANCH   1   3
BRANCH   1  13
HETATM   13  N3  UNL     1      17.242 -26.415 -14.329  1.00  0.00    -0.284 N 
ATOM     14  H3  UNL     1      17.588 -26.564 -13.382  1.00  0.00     0.188 HD
BRANCH  13  15
HETATM   15  N4  UNL     1      18.174 -26.475 -15.345  1.00  0.00    -0.237 N 
HETATM   16  C8  UNL     1      19.075 -27.541 -15.548  1.00  0.00     0.431 C 
HETATM   17  O1  UNL     1      18.968 -28.473 -14.711  1.00  0.00    -0.227 OA
HETATM   18  N5  UNL     1      19.946 -27.490 -16.589  1.00  0.00    -0.261 NA
ATOM     19  H4  UNL     1      18.214 -25.692 -15.997  1.00  0.00     0.193 HD
BRANCH  18  20
HETATM   20  N6  UNL     1      20.800 -27.458 -17.600  1.00  0.00    -0.198 N 
HETATM   21  C9  UNL     1      21.792 -28.428 -17.782  1.00  0.00     0.242 C 
HETATM   22  C10 UNL     1      22.653 -28.263 -19.008  1.00  0.00     0.119 C 
HETATM   23  O2  UNL     1      21.996 -29.373 -17.037  1.00  0.00    -0.271 OA
ATOM     24  H6  UNL     1      20.733 -26.694 -18.273  1.00  0.00     0.205 HD
ENDBRANCH  18  20
ENDBRANCH  13  15
ENDBRANCH   1  13
TORSDOF 7
ENDMDL
MODEL 2
REMARK VINA RESULT: -7.940559514      1.025      1.025
REMARK  7 active torsions:
REMARK  status: ('A' for Active; 'I' for Inactive)
REMARK    1  A    between atoms: C2_2  and  N1_3 
REMARK    2  A    between atoms: C2_2  and  C7_11 
REMARK    3  A    between atoms: N1_3  and  C3_5 
REMARK    4  A    between atoms: C3_5  and  N2_6 
REMARK    5  A    between atoms: C7_11  and  N3_13 
REMARK    6  A    between atoms: N3_13  and  N4_15 
REMARK       I    between atoms: N4_15  and  C8_17 
REMARK       I    between atoms: C8_17  and  N5_19 
REMARK    7  A    between atoms: N5_19  and  N6_20 
REMARK       I    between atoms: N6_20  and  C9_22 
ROOT
HETATM    1  C7  UNL     1      15.673 -26.078 -14.369  1.00  0.00     0.141 C 
HETATM    2  S1  UNL     1      14.751 -24.958 -13.601  1.00  0.00    -0.057 SA
ENDROOT
BRANCH   1   3
HETATM    3  C2  UNL     1      15.039 -26.861 -15.430  1.00  0.00     0.059 C 
HETATM    4  C1  UNL     1      14.868 -26.381 -16.606  1.00  0.00     0.046 C 
BRANCH   3   5
HETATM    5  N1  UNL     1      14.597 -28.165 -15.073  1.00  0.00    -0.372 N 
ATOM      6  H1  UNL     1      13.658 -28.238 -14.683  1.00  0.00     0.161 HD
BRANCH   5   7
HETATM    7  C3  UNL     1      15.336 -29.388 -15.205  1.00  0.00     0.243 C 
BRANCH   7   8
HETATM    8  N2  UNL     1      15.476 -30.027 -13.934  1.00  0.00    -0.381 N 
HETATM    9  C4  UNL     1      16.256 -31.067 -13.885  1.00  0.00    -0.025 C 
HETATM   10  C5  UNL     1      16.470 -31.832 -12.655  1.00  0.00     0.062 C 
HETATM   11  C6  UNL     1      17.018 -31.519 -15.112  1.00  0.00     0.062 C 
ATOM     12  H2  UNL     1      14.988 -29.685 -13.107  1.00  0.00     0.160 HD
ENDBRANCH   7   8
ENDBRANCH   5   7
ENDBRANCH   3   5
ENDBRANCH   1   3
BRANCH   1  13
HETATM   13  N3  UNL     1      17.017 -26.241 -14.081  1.00  0.00    -0.284 N 
ATOM     14  H3  UNL     1      17.290 -26.145 -13.103  1.00  0.00     0.188 HD
BRANCH  13  15
HETATM   15  N4  UNL     1      18.026 -26.520 -14.979  1.00  0.00    -0.237 N 
HETATM   16  C8  UNL     1      18.772 -27.716 -15.006  1.00  0.00     0.431 C 
HETATM   17  O1  UNL     1      18.442 -28.550 -14.123  1.00  0.00    -0.227 OA
HETATM   18  N5  UNL     1      19.740 -27.880 -15.945  1.00  0.00    -0.261 NA
ATOM     19  H4  UNL     1      18.249 -25.809 -15.676  1.00  0.00     0.193 HD
BRANCH  18  20
HETATM   20  N6  UNL     1      20.687 -28.055 -16.854  1.00  0.00    -0.198 N 
HETATM   21  C9  UNL     1      20.517 -27.708 -18.199  1.00  0.00     0.242 C 
HETATM   22  C10 UNL     1      21.709 -27.935 -19.091  1.00  0.00     0.119 C 
HETATM   23  O2  UNL     1      19.495 -27.243 -18.680  1.00  0.00    -0.271 OA
ATOM     24  H6  UNL     1      21.576 -28.460 -16.562  1.00  0.00     0.205 HD
ENDBRANCH  18  20
ENDBRANCH  13  15
ENDBRANCH   1  13
TORSDOF 7
ENDMDL
MODEL 3
REMARK VINA RESULT: -7.774165695      1.289      1.308
REMARK  7 active torsions:
REMARK  status: ('A' for Active; 'I' for Inactive)
REMARK    1  A    between atoms: C2_2  and  N1_3 
REMARK    2  A    between atoms: C2_2  and  C7_11 
REMARK    3  A    between atoms: N1_3  and  C3_5 
REMARK    4  A    between atoms: C3_5  and  N2_6 
REMARK    5  A    between atoms: C7_11  and  N3_13 
REMARK    6  A    between atoms: N3_13  and  N4_15 
REMARK       I    between atoms: N4_15  and  C8_17 
REMARK       I    between atoms: C8_17  and  N5_19 
REMARK    7  A    between atoms: N5_19  and  N6_20 
REMARK       I    between atoms: N6_20  and  C9_22 
ROOT
HETATM    1  C7  UNL     1      16.835 -26.313 -15.300  1.00  0.00     0.141 C 
HETATM    2  S1  UNL     1      16.681 -24.692 -15.510  1.00  0.00    -0.057 SA
ENDROOT
BRANCH   1   3
HETATM    3  C2  UNL     1      15.671 -27.145 -15.605  1.00  0.00     0.059 C 
HETATM    4  C1  UNL     1      14.919 -26.902 -16.614  1.00  0.00     0.046 C 
BRANCH   3   5
HETATM    5  N1  UNL     1      15.405 -28.212 -14.704  1.00  0.00    -0.372 N 
ATOM      6  H1  UNL     1      15.153 -27.953 -13.750  1.00  0.00     0.161 HD
BRANCH   5   7
HETATM    7  C3  UNL     1      15.456 -29.616 -14.997  1.00  0.00     0.243 C 
BRANCH   7   8
HETATM    8  N2  UNL     1      15.320 -30.383 -13.798  1.00  0.00    -0.381 N 
HETATM    9  C4  UNL     1      16.236 -31.277 -13.568  1.00  0.00    -0.025 C 
HETATM   10  C5  UNL     1      16.206 -32.149 -12.392  1.00  0.00     0.062 C 
HETATM   11  C6  UNL     1      17.413 -31.435 -14.506  1.00  0.00     0.062 C 
ATOM     12  H2  UNL     1      14.542 -30.236 -13.155  1.00  0.00     0.160 HD
ENDBRANCH   7   8
ENDBRANCH   5   7
ENDBRANCH   3   5
ENDBRANCH   1   3
BRANCH   1  13
HETATM   13  N3  UNL     1      18.033 -26.890 -14.915  1.00  0.00    -0.284 N 
ATOM     14  H3  UNL     1      18.216 -26.937 -13.913  1.00  0.00     0.188 HD
BRANCH  13  15
HETATM   15  N4  UNL     1      19.003 -27.410 -15.746  1.00  0.00    -0.237 N 
HETATM   16  C8  UNL     1      20.291 -27.807 -15.330  1.00  0.00     0.431 C 
HETATM   17  O1  UNL     1      20.505 -27.655 -14.100  1.00  0.00    -0.227 OA
HETATM   18  N5  UNL     1      21.162 -28.312 -16.241  1.00  0.00    -0.261 NA
ATOM     19  H4  UNL     1      18.773 -27.515 -16.734  1.00  0.00     0.193 HD
BRANCH  18  20
HETATM   20  N6  UNL     1      22.023 -28.807 -17.117  1.00  0.00    -0.198 N 
HETATM   21  C9  UNL     1      22.054 -28.405 -18.457  1.00  0.00     0.242 C 
HETATM   22  C10 UNL     1      23.124 -29.037 -19.307  1.00  0.00     0.119 C 
HETATM   23  O2  UNL     1      21.294 -27.594 -18.965  1.00  0.00    -0.271 OA
ATOM     24  H6  UNL     1      22.691 -29.510 -16.802  1.00  0.00     0.205 HD
ENDBRANCH  18  20
ENDBRANCH  13  15
ENDBRANCH   1  13
TORSDOF 7
ENDMDL
MODEL 4
REMARK VINA RESULT: -7.565553355      1.458      1.668
REMARK  7 active torsions:
REMARK  status: ('A' for Active; 'I' for Inactive)
REMARK    1  A    between atoms: C2_2  and  N1_3 
REMARK    2  A    between atoms: C2_2  and  C7_11 
REMARK    3  A    between atoms: N1_3  and  C3_5 
REMARK    4  A    between atoms: C3_5  and  N2_6 
REMARK    5  A    between atoms: C7_11  and  N3_13 
REMARK    6  A    between atoms: N3_13  and  N4_15 
REMARK       I    between atoms: N4_15  and  C8_17 
REMARK       I    between atoms: C8_17  and  N5_19 
REMARK    7  A    between atoms: N5_19  and  N6_20 
REMARK       I    between atoms: N6_20  and  C9_22 
ROOT
HETATM    1  C7  UNL     1      16.527 -26.509 -15.537  1.00  0.00     0.141 C 
HETATM    2  S1  UNL     1      15.297 -25.437 -15.726  1.00  0.00    -0.057 SA
ENDROOT
BRANCH   1   3
HETATM    3  C2  UNL     1      16.183 -27.931 -15.514  1.00  0.00     0.059 C 
HETATM    4  C1  UNL     1      15.616 -28.499 -16.513  1.00  0.00     0.046 C 
BRANCH   3   5
HETATM    5  N1  UNL     1      16.484 -28.633 -14.315  1.00  0.00    -0.372 N 
ATOM      6  H1  UNL     1      16.522 -28.080 -13.459  1.00  0.00     0.161 HD
BRANCH   5   7
HETATM    7  C3  UNL     1      16.739 -30.039 -14.184  1.00  0.00     0.243 C 
BRANCH   7   8
HETATM    8  N2  UNL     1      15.538 -30.737 -13.847  1.00  0.00    -0.381 N 
HETATM    9  C4  UNL     1      15.621 -31.621 -12.897  1.00  0.00    -0.025 C 
HETATM   10  C5  UNL     1      14.475 -32.426 -12.469  1.00  0.00     0.062 C 
HETATM   11  C6  UNL     1      16.922 -31.836 -12.155  1.00  0.00     0.062 C 
ATOM     12  H2  UNL     1      14.658 -30.551 -14.329  1.00  0.00     0.160 HD
ENDBRANCH   7   8
ENDBRANCH   5   7
ENDBRANCH   3   5
ENDBRANCH   1   3
BRANCH   1  13
HETATM   13  N3  UNL     1      17.848 -26.102 -15.468  1.00  0.00    -0.284 N 
ATOM     14  H3  UNL     1      18.050 -25.304 -14.866  1.00  0.00     0.188 HD
BRANCH  13  15
HETATM   15  N4  UNL     1      18.921 -26.665 -16.128  1.00  0.00    -0.237 N 
HETATM   16  C8  UNL     1      19.846 -27.557 -15.547  1.00  0.00     0.431 C 
HETATM   17  O1  UNL     1      19.618 -27.821 -14.339  1.00  0.00    -0.227 OA
HETATM   18  N5  UNL     1      20.861 -28.052 -16.302  1.00  0.00    -0.261 NA
ATOM     19  H4  UNL     1      19.055 -26.418 -17.109  1.00  0.00     0.193 HD
BRANCH  18  20
HETATM   20  N6  UNL     1      21.856 -28.544 -17.023  1.00  0.00    -0.198 N 
HETATM   21  C9  UNL     1      21.954 -28.353 -18.406  1.00  0.00     0.242 C 
HETATM   22  C10 UNL     1      23.172 -28.945 -19.065  1.00  0.00     0.119 C 
HETATM   23  O2  UNL     1      21.141 -27.751 -19.091  1.00  0.00    -0.271 OA
ATOM     24  H6  UNL     1      22.581 -29.084 -16.551  1.00  0.00     0.205 HD
ENDBRANCH  18  20
ENDBRANCH  13  15
ENDBRANCH   1  13
TORSDOF 7
ENDMDL
MODEL 5
REMARK VINA RESULT: -7.378893643      1.460      1.648
REMARK  7 active torsions:
REMARK  status: ('A' for Active; 'I' for Inactive)
REMARK    1  A    between atoms: C2_2  and  N1_3 
REMARK    2  A    between atoms: C2_2  and  C7_11 
REMARK    3  A    between atoms: N1_3  and  C3_5 
REMARK    4  A    between atoms: C3_5  and  N2_6 
REMARK    5  A    between atoms: C7_11  and  N3_13 
REMARK    6  A    between atoms: N3_13  and  N4_15 
REMARK       I    between atoms: N4_15  and  C8_17 
REMARK       I    between atoms: C8_17  and  N5_19 
REMARK    7  A    between atoms: N5_19  and  N6_20 
REMARK       I    between atoms: N6_20  and  C9_22 
ROOT
HETATM    1  C7  UNL     1      16.646 -25.976 -14.571  1.00  0.00     0.141 C 
HETATM    2  S1  UNL     1      15.752 -25.095 -13.512  1.00  0.00    -0.057 SA
ENDROOT
BRANCH   1   3
HETATM    3  C2  UNL     1      16.688 -27.425 -14.374  1.00  0.00     0.059 C 
HETATM    4  C1  UNL     1      17.726 -28.007 -13.897  1.00  0.00     0.046 C 
BRANCH   3   5
HETATM    5  N1  UNL     1      15.530 -28.149 -14.768  1.00  0.00    -0.372 N 
ATOM      6  H1  UNL     1      14.660 -27.620 -14.832  1.00  0.00     0.161 HD
BRANCH   5   7
HETATM    7  C3  UNL     1      15.457 -29.547 -15.085  1.00  0.00     0.243 C 
BRANCH   7   8
HETATM    8  N2  UNL     1      15.052 -30.300 -13.939  1.00  0.00    -0.381 N 
HETATM    9  C4  UNL     1      15.833 -31.272 -13.571  1.00  0.00    -0.025 C 
HETATM   10  C5  UNL     1      15.526 -32.139 -12.431  1.00  0.00     0.062 C 
HETATM   11  C6  UNL     1      17.135 -31.533 -14.297  1.00  0.00     0.062 C 
ATOM     12  H2  UNL     1      14.192 -30.085 -13.435  1.00  0.00     0.160 HD
ENDBRANCH   7   8
ENDBRANCH   5   7
ENDBRANCH   3   5
ENDBRANCH   1   3
BRANCH   1  13
HETATM   13  N3  UNL     1      17.285 -25.393 -15.652  1.00  0.00    -0.284 N 
ATOM     14  H3  UNL     1      16.932 -24.486 -15.956  1.00  0.00     0.188 HD
BRANCH  13  15
HETATM   15  N4  UNL     1      18.349 -25.911 -16.360  1.00  0.00    -0.237 N 
HETATM   16  C8  UNL     1      18.258 -26.963 -17.294  1.00  0.00     0.431 C 
HETATM   17  O1  UNL     1      17.095 -27.415 -17.451  1.00  0.00    -0.227 OA
HETATM   18  N5  UNL     1      19.378 -27.386 -17.936  1.00  0.00    -0.261 NA
ATOM     19  H4  UNL     1      19.270 -25.504 -16.195  1.00  0.00     0.193 HD
BRANCH  18  20
HETATM   20  N6  UNL     1      20.460 -27.809 -18.571  1.00  0.00    -0.198 N 
HETATM   21  C9  UNL     1      21.606 -28.251 -17.900  1.00  0.00     0.242 C 
HETATM   22  C10 UNL     1      22.731 -28.739 -18.775  1.00  0.00     0.119 C 
HETATM   23  O2  UNL     1      21.746 -28.271 -16.687  1.00  0.00    -0.271 OA
ATOM     24  H6  UNL     1      20.459 -27.813 -19.591  1.00  0.00     0.205 HD
ENDBRANCH  18  20
ENDBRANCH  13  15
ENDBRANCH   1  13
TORSDOF 7
ENDMDL
