MODEL 1
REMARK VINA RESULT: -6.172840235      0.000      0.000
REMARK  3 active torsions:
REMARK  status: ('A' for Active; 'I' for Inactive)
REMARK    1  A    between atoms: C4_4  and  C5_5 
REMARK    2  A    between atoms: C5_5  and  O1_6 
REMARK    3  A    between atoms: O1_6  and  N1_7 
ROOT
HETATM    1  N1  UNL     1      14.708   8.364   1.330  1.00  0.00    -0.275 N 
ATOM      2  H1  UNL     1      15.282   7.528   1.438  1.00  0.00     0.193 HD
HETATM    3  C6  UNL     1      14.794   9.243   2.241  1.00  0.00     0.013 C 
HETATM    4  C7  UNL     1      15.693   9.025   3.381  1.00  0.00     0.082 C 
HETATM    5  C8  UNL     1      14.861   9.200   4.645  1.00  0.00     0.238 C 
HETATM    6  N2  UNL     1      13.909  10.288   4.536  1.00  0.00    -0.074 N 
ATOM      7  H21 UNL     1      13.814  10.774   5.428  1.00  0.00     0.277 HD
ATOM      8  H22 UNL     1      12.960   9.928   4.437  1.00  0.00     0.277 HD
HETATM    9  C9  UNL     1      14.212  11.218   3.480  1.00  0.00     0.238 C 
HETATM   10  C10 UNL     1      14.003  10.477   2.166  1.00  0.00     0.082 C 
ENDROOT
BRANCH   1  11
HETATM   11  O1  UNL     1      13.921   8.435   0.226  1.00  0.00    -0.280 OA
BRANCH  11  12
HETATM   12  C5  UNL     1      14.535   8.512  -1.041  1.00  0.00     0.205 C 
BRANCH  12  13
HETATM   13  C4  UNL     1      14.708   9.975  -1.446  1.00  0.00     0.012 C 
HETATM   14  C3  UNL     1      15.272  10.080  -2.836  1.00  0.00     0.007 C 
HETATM   15  C2  UNL     1      14.098   9.696  -3.695  1.00  0.00     0.000 C 
HETATM   16  C1  UNL     1      12.852   9.916  -2.882  1.00  0.00     0.000 C 
HETATM   17  C11 UNL     1      13.304  10.554  -1.586  1.00  0.00     0.007 C 
ENDBRANCH  12  13
ENDBRANCH  11  12
ENDBRANCH   1  11
TORSDOF 3
ENDMDL
MODEL 2
REMARK VINA RESULT: -6.094908405      2.839      3.167
REMARK  3 active torsions:
REMARK  status: ('A' for Active; 'I' for Inactive)
REMARK    1  A    between atoms: C4_4  and  C5_5 
REMARK    2  A    between atoms: C5_5  and  O1_6 
REMARK    3  A    between atoms: O1_6  and  N1_7 
ROOT
HETATM    1  N1  UNL     1      16.018   9.832   0.057  1.00  0.00    -0.275 N 
ATOM      2  H1  UNL     1      15.318   9.393   0.654  1.00  0.00     0.193 HD
HETATM    3  C6  UNL     1      16.969  10.442   0.636  1.00  0.00     0.013 C 
HETATM    4  C7  UNL     1      17.017  10.488   2.103  1.00  0.00     0.082 C 
HETATM    5  C8  UNL     1      17.133  11.953   2.499  1.00  0.00     0.238 C 
HETATM    6  N2  UNL     1      18.009  12.700   1.617  1.00  0.00    -0.074 N 
ATOM      7  H21 UNL     1      18.538  13.397   2.140  1.00  0.00     0.277 HD
ATOM      8  H22 UNL     1      17.469  13.317   1.011  1.00  0.00     0.277 HD
HETATM    9  C9  UNL     1      18.891  11.869   0.840  1.00  0.00     0.238 C 
HETATM   10  C10 UNL     1      18.020  11.102  -0.146  1.00  0.00     0.082 C 
ENDROOT
BRANCH   1  11
HETATM   11  O1  UNL     1      15.850   9.712  -1.285  1.00  0.00    -0.280 OA
BRANCH  11  12
HETATM   12  C5  UNL     1      14.597   9.294  -1.777  1.00  0.00     0.205 C 
BRANCH  12  13
HETATM   13  C4  UNL     1      14.016  10.367  -2.696  1.00  0.00     0.012 C 
HETATM   14  C3  UNL     1      14.877  10.547  -3.915  1.00  0.00     0.007 C 
HETATM   15  C2  UNL     1      14.574   9.309  -4.716  1.00  0.00     0.000 C 
HETATM   16  C1  UNL     1      13.245   8.784  -4.248  1.00  0.00     0.000 C 
HETATM   17  C11 UNL     1      12.716   9.800  -3.258  1.00  0.00     0.007 C 
ENDBRANCH  12  13
ENDBRANCH  11  12
ENDBRANCH   1  11
TORSDOF 3
ENDMDL
MODEL 3
REMARK VINA RESULT: -6.003002311      1.410      1.588
REMARK  3 active torsions:
REMARK  status: ('A' for Active; 'I' for Inactive)
REMARK    1  A    between atoms: C4_4  and  C5_5 
REMARK    2  A    between atoms: C5_5  and  O1_6 
REMARK    3  A    between atoms: O1_6  and  N1_7 
ROOT
HETATM    1  N1  UNL     1      14.429   8.303   0.384  1.00  0.00    -0.275 N 
ATOM      2  H1  UNL     1      14.022   7.373   0.282  1.00  0.00     0.193 HD
HETATM    3  C6  UNL     1      14.140   8.945   1.441  1.00  0.00     0.013 C 
HETATM    4  C7  UNL     1      13.257   8.337   2.443  1.00  0.00     0.082 C 
HETATM    5  C8  UNL     1      12.129   9.326   2.702  1.00  0.00     0.238 C 
HETATM    6  N2  UNL     1      12.590  10.700   2.728  1.00  0.00    -0.074 N 
ATOM      7  H21 UNL     1      12.079  11.238   3.427  1.00  0.00     0.277 HD
ATOM      8  H22 UNL     1      12.298  11.195   1.886  1.00  0.00     0.277 HD
HETATM    9  C9  UNL     1      14.010  10.829   2.926  1.00  0.00     0.238 C 
HETATM   10  C10 UNL     1      14.681  10.290   1.670  1.00  0.00     0.082 C 
ENDROOT
BRANCH   1  11
HETATM   11  O1  UNL     1      15.229   8.743  -0.621  1.00  0.00    -0.280 OA
BRANCH  11  12
HETATM   12  C5  UNL     1      14.731   8.728  -1.940  1.00  0.00     0.205 C 
BRANCH  12  13
HETATM   13  C4  UNL     1      14.475  10.159  -2.413  1.00  0.00     0.012 C 
HETATM   14  C3  UNL     1      14.828  10.310  -3.867  1.00  0.00     0.007 C 
HETATM   15  C2  UNL     1      13.699   9.590  -4.554  1.00  0.00     0.000 C 
HETATM   16  C1  UNL     1      12.542   9.545  -3.595  1.00  0.00     0.000 C 
HETATM   17  C11 UNL     1      12.963  10.359  -2.390  1.00  0.00     0.007 C 
ENDBRANCH  12  13
ENDBRANCH  11  12
ENDBRANCH   1  11
TORSDOF 3
ENDMDL
MODEL 4
REMARK VINA RESULT: -5.850335712      1.438      1.509
REMARK  3 active torsions:
REMARK  status: ('A' for Active; 'I' for Inactive)
REMARK    1  A    between atoms: C4_4  and  C5_5 
REMARK    2  A    between atoms: C5_5  and  O1_6 
REMARK    3  A    between atoms: O1_6  and  N1_7 
ROOT
HETATM    1  N1  UNL     1      15.947   9.839   0.811  1.00  0.00    -0.275 N 
ATOM      2  H1  UNL     1      16.868   9.821   0.374  1.00  0.00     0.193 HD
HETATM    3  C6  UNL     1      15.815  10.559   1.848  1.00  0.00     0.013 C 
HETATM    4  C7  UNL     1      16.965  11.314   2.361  1.00  0.00     0.082 C 
HETATM    5  C8  UNL     1      17.124  10.942   3.828  1.00  0.00     0.238 C 
HETATM    6  N2  UNL     1      15.850  10.808   4.509  1.00  0.00    -0.074 N 
ATOM      7  H21 UNL     1      15.917  11.149   5.467  1.00  0.00     0.277 HD
ATOM      8  H22 UNL     1      15.642   9.826   4.692  1.00  0.00     0.277 HD
HETATM    9  C9  UNL     1      14.757  11.439   3.818  1.00  0.00     0.238 C 
HETATM   10  C10 UNL     1      14.524  10.643   2.540  1.00  0.00     0.082 C 
ENDROOT
BRANCH   1  11
HETATM   11  O1  UNL     1      14.973   9.092   0.231  1.00  0.00    -0.280 OA
BRANCH  11  12
HETATM   12  C5  UNL     1      14.975   8.945  -1.171  1.00  0.00     0.205 C 
BRANCH  12  13
HETATM   13  C4  UNL     1      14.942  10.321  -1.836  1.00  0.00     0.012 C 
HETATM   14  C3  UNL     1      14.967  10.188  -3.334  1.00  0.00     0.007 C 
HETATM   15  C2  UNL     1      13.576   9.702  -3.643  1.00  0.00     0.000 C 
HETATM   16  C1  UNL     1      12.698  10.081  -2.482  1.00  0.00     0.000 C 
HETATM   17  C11 UNL     1      13.562  10.906  -1.553  1.00  0.00     0.007 C 
ENDBRANCH  12  13
ENDBRANCH  11  12
ENDBRANCH   1  11
TORSDOF 3
ENDMDL
MODEL 5
REMARK VINA RESULT: -5.840280644      2.593      3.051
REMARK  3 active torsions:
REMARK  status: ('A' for Active; 'I' for Inactive)
REMARK    1  A    between atoms: C4_4  and  C5_5 
REMARK    2  A    between atoms: C5_5  and  O1_6 
REMARK    3  A    between atoms: O1_6  and  N1_7 
ROOT
HETATM    1  N1  UNL     1      14.996  10.826   0.215  1.00  0.00    -0.275 N 
ATOM      2  H1  UNL     1      14.268  10.294   0.690  1.00  0.00     0.193 HD
HETATM    3  C6  UNL     1      16.139  10.860   0.767  1.00  0.00     0.013 C 
HETATM    4  C7  UNL     1      16.356  10.151   2.033  1.00  0.00     0.082 C 
HETATM    5  C8  UNL     1      16.931  11.161   3.017  1.00  0.00     0.238 C 
HETATM    6  N2  UNL     1      17.884  12.060   2.396  1.00  0.00    -0.074 N 
ATOM      7  H21 UNL     1      18.644  12.279   3.039  1.00  0.00     0.277 HD
ATOM      8  H22 UNL     1      17.482  12.991   2.286  1.00  0.00     0.277 HD
HETATM    9  C9  UNL     1      18.401  11.578   1.142  1.00  0.00     0.238 C 
HETATM   10  C10 UNL     1      17.245  11.602   0.150  1.00  0.00     0.082 C 
ENDROOT
BRANCH   1  11
HETATM   11  O1  UNL     1      14.657  11.434  -0.951  1.00  0.00    -0.280 OA
BRANCH  11  12
HETATM   12  C5  UNL     1      13.744  10.789  -1.811  1.00  0.00     0.205 C 
BRANCH  12  13
HETATM   13  C4  UNL     1      14.351   9.486  -2.330  1.00  0.00     0.012 C 
HETATM   14  C3  UNL     1      13.453   8.851  -3.354  1.00  0.00     0.007 C 
HETATM   15  C2  UNL     1      13.646   9.738  -4.554  1.00  0.00     0.000 C 
HETATM   16  C1  UNL     1      14.958  10.451  -4.381  1.00  0.00     0.000 C 
HETATM   17  C11 UNL     1      15.589   9.874  -3.133  1.00  0.00     0.007 C 
ENDBRANCH  12  13
ENDBRANCH  11  12
ENDBRANCH   1  11
TORSDOF 3
ENDMDL
