MODEL 1
REMARK VINA RESULT: -8.276877158      0.000      0.000
REMARK  10 active torsions:
REMARK  status: ('A' for Active; 'I' for Inactive)
REMARK    1  A    between atoms: C2_2  and  C3_3 
REMARK    2  A    between atoms: C2_2  and  C22_27 
REMARK    3  A    between atoms: C3_3  and  C4_4 
REMARK    4  A    between atoms: C10_10  and  C11_11 
REMARK    5  A    between atoms: C11_11  and  O1_12 
REMARK    6  A    between atoms: C11_11  and  C12_14 
REMARK    7  A    between atoms: C13_15  and  C14_16 
REMARK    8  A    between atoms: C20_23  and  C21_24 
REMARK    9  A    between atoms: C21_24  and  O3_25 
REMARK   10  A    between atoms: C22_27  and  C24_29 
ROOT
HETATM    1  C11 UNL     1      -7.951 -25.773   1.519  1.00  0.00     0.145 C 
ENDROOT
BRANCH   1   2
HETATM    2  C10 UNL     1      -8.645 -26.345   2.704  1.00  0.00     0.023 C 
HETATM    3  C4  UNL     1      -8.178 -25.902   4.061  1.00  0.00    -0.003 C 
HETATM    4  C5  UNL     1      -8.368 -26.962   5.097  1.00  0.00    -0.009 C 
HETATM    5  C6  UNL     1      -9.721 -27.653   4.748  1.00  0.00     0.010 C 
HETATM    6  C8  UNL     1      -7.733 -28.279   4.765  1.00  0.00     0.010 C 
HETATM    7  C7  UNL     1      -8.884 -28.546   3.856  1.00  0.00    -0.013 C 
HETATM    8  C9  UNL     1      -8.598 -27.856   2.540  1.00  0.00     0.012 C 
BRANCH   3   9
HETATM    9  C3  UNL     1      -6.878 -25.238   4.093  1.00  0.00     0.010 C 
BRANCH   9  10
HETATM   10  C2  UNL     1      -6.762 -23.848   4.623  1.00  0.00    -0.004 C 
HETATM   11  C1  UNL     1      -7.985 -23.049   4.817  1.00  0.00     0.011 C 
BRANCH  10  12
HETATM   12  C22 UNL     1      -5.952 -23.809   5.907  1.00  0.00     0.086 C 
HETATM   13  C23 UNL     1      -6.776 -23.033   6.914  1.00  0.00     0.021 C 
BRANCH  12  14
HETATM   14  C24 UNL     1      -4.606 -23.293   5.739  1.00  0.00     0.176 C 
HETATM   15  O4  UNL     1      -3.789 -23.868   4.988  1.00  0.00    -0.648 OA
HETATM   16  O5  UNL     1      -4.203 -22.154   6.406  1.00  0.00    -0.648 OA
ENDBRANCH  12  14
ENDBRANCH  10  12
ENDBRANCH   9  10
ENDBRANCH   3   9
ENDBRANCH   1   2
BRANCH   1  17
HETATM   17  O1  UNL     1      -6.607 -26.032   1.397  1.00  0.00    -0.391 OA
ATOM     18  H1  UNL     1      -6.266 -26.136   0.517  1.00  0.00     0.210 HD
ENDBRANCH   1  17
BRANCH   1  19
HETATM   19  C12 UNL     1      -8.689 -26.223   0.304  1.00  0.00     0.001 C 
HETATM   20  C13 UNL     1      -9.626 -25.488  -0.282  1.00  0.00    -0.023 C 
BRANCH  20  21
HETATM   21  C14 UNL     1     -10.313 -25.989  -1.472  1.00  0.00     0.018 C 
HETATM   22  C15 UNL     1     -11.265 -27.113  -1.113  1.00  0.00    -0.004 C 
HETATM   23  C16 UNL     1     -12.367 -26.665  -0.212  1.00  0.00     0.011 C 
HETATM   24  C17 UNL     1     -11.814 -27.748  -2.378  1.00  0.00     0.083 C 
HETATM   25  C18 UNL     1     -12.226 -26.769  -3.391  1.00  0.00     0.127 C 
HETATM   26  O2  UNL     1     -13.242 -26.854  -4.071  1.00  0.00    -0.298 OA
HETATM   27  C19 UNL     1     -11.359 -25.575  -3.625  1.00  0.00     0.085 C 
HETATM   28  C20 UNL     1     -11.081 -24.980  -2.254  1.00  0.00     0.024 C 
BRANCH  28  29
HETATM   29  C21 UNL     1     -10.323 -23.694  -2.475  1.00  0.00     0.169 C 
BRANCH  29  30
HETATM   30  O3  UNL     1     -11.099 -22.737  -3.121  1.00  0.00    -0.400 OA
ATOM     31  H3  UNL     1     -11.415 -23.045  -3.961  1.00  0.00     0.209 HD
ENDBRANCH  29  30
ENDBRANCH  28  29
ENDBRANCH  20  21
ENDBRANCH   1  19
TORSDOF 10
ENDMDL
MODEL 2
REMARK VINA RESULT: -8.244404253      1.122      2.022
REMARK  10 active torsions:
REMARK  status: ('A' for Active; 'I' for Inactive)
REMARK    1  A    between atoms: C2_2  and  C3_3 
REMARK    2  A    between atoms: C2_2  and  C22_27 
REMARK    3  A    between atoms: C3_3  and  C4_4 
REMARK    4  A    between atoms: C10_10  and  C11_11 
REMARK    5  A    between atoms: C11_11  and  O1_12 
REMARK    6  A    between atoms: C11_11  and  C12_14 
REMARK    7  A    between atoms: C13_15  and  C14_16 
REMARK    8  A    between atoms: C20_23  and  C21_24 
REMARK    9  A    between atoms: C21_24  and  O3_25 
REMARK   10  A    between atoms: C22_27  and  C24_29 
ROOT
HETATM    1  C11 UNL     1      -8.029 -25.417   1.924  1.00  0.00     0.145 C 
ENDROOT
BRANCH   1   2
HETATM    2  C10 UNL     1      -8.627 -26.143   3.077  1.00  0.00     0.023 C 
HETATM    3  C4  UNL     1      -8.007 -25.927   4.427  1.00  0.00    -0.003 C 
HETATM    4  C5  UNL     1      -8.140 -27.127   5.308  1.00  0.00    -0.009 C 
HETATM    5  C6  UNL     1      -9.552 -27.715   5.005  1.00  0.00     0.010 C 
HETATM    6  C8  UNL     1      -7.603 -28.397   4.718  1.00  0.00     0.010 C 
HETATM    7  C7  UNL     1      -8.850 -28.486   3.906  1.00  0.00    -0.013 C 
HETATM    8  C9  UNL     1      -8.666 -27.611   2.685  1.00  0.00     0.012 C 
BRANCH   3   9
HETATM    9  C3  UNL     1      -6.681 -25.315   4.421  1.00  0.00     0.010 C 
BRANCH   9  10
HETATM   10  C2  UNL     1      -6.523 -23.871   4.761  1.00  0.00    -0.004 C 
HETATM   11  C1  UNL     1      -7.724 -23.026   4.881  1.00  0.00     0.011 C 
BRANCH  10  12
HETATM   12  C22 UNL     1      -5.676 -23.685   6.008  1.00  0.00     0.086 C 
HETATM   13  C23 UNL     1      -6.458 -22.773   6.930  1.00  0.00     0.021 C 
BRANCH  12  14
HETATM   14  C24 UNL     1      -4.327 -23.219   5.739  1.00  0.00     0.176 C 
HETATM   15  O4  UNL     1      -3.563 -23.867   4.994  1.00  0.00    -0.648 OA
HETATM   16  O5  UNL     1      -3.864 -22.048   6.303  1.00  0.00    -0.648 OA
ENDBRANCH  12  14
ENDBRANCH  10  12
ENDBRANCH   9  10
ENDBRANCH   3   9
ENDBRANCH   1   2
BRANCH   1  17
HETATM   17  O1  UNL     1      -6.963 -26.013   1.294  1.00  0.00    -0.391 OA
ATOM     18  H1  UNL     1      -7.161 -26.697   0.665  1.00  0.00     0.210 HD
ENDBRANCH   1  17
BRANCH   1  19
HETATM   19  C12 UNL     1      -9.125 -25.133   0.953  1.00  0.00     0.001 C 
HETATM   20  C13 UNL     1      -9.117 -25.587  -0.294  1.00  0.00    -0.023 C 
BRANCH  20  21
HETATM   21  C14 UNL     1     -10.224 -25.273  -1.197  1.00  0.00     0.018 C 
HETATM   22  C15 UNL     1      -9.765 -24.356  -2.314  1.00  0.00    -0.004 C 
HETATM   23  C16 UNL     1      -8.740 -24.991  -3.194  1.00  0.00     0.011 C 
HETATM   24  C17 UNL     1     -10.962 -23.883  -3.119  1.00  0.00     0.083 C 
HETATM   25  C18 UNL     1     -11.915 -24.955  -3.431  1.00  0.00     0.127 C 
HETATM   26  O2  UNL     1     -12.475 -25.099  -4.512  1.00  0.00    -0.298 OA
HETATM   27  C19 UNL     1     -12.240 -25.954  -2.368  1.00  0.00     0.085 C 
HETATM   28  C20 UNL     1     -10.906 -26.439  -1.823  1.00  0.00     0.024 C 
BRANCH  28  29
HETATM   29  C21 UNL     1     -11.205 -27.550  -0.846  1.00  0.00     0.169 C 
BRANCH  29  30
HETATM   30  O3  UNL     1     -12.196 -27.192   0.061  1.00  0.00    -0.400 OA
ATOM     31  H3  UNL     1     -12.680 -27.947   0.374  1.00  0.00     0.209 HD
ENDBRANCH  29  30
ENDBRANCH  28  29
ENDBRANCH  20  21
ENDBRANCH   1  19
TORSDOF 10
ENDMDL
MODEL 3
REMARK VINA RESULT: -7.795298900      2.886      4.297
REMARK  10 active torsions:
REMARK  status: ('A' for Active; 'I' for Inactive)
REMARK    1  A    between atoms: C2_2  and  C3_3 
REMARK    2  A    between atoms: C2_2  and  C22_27 
REMARK    3  A    between atoms: C3_3  and  C4_4 
REMARK    4  A    between atoms: C10_10  and  C11_11 
REMARK    5  A    between atoms: C11_11  and  O1_12 
REMARK    6  A    between atoms: C11_11  and  C12_14 
REMARK    7  A    between atoms: C13_15  and  C14_16 
REMARK    8  A    between atoms: C20_23  and  C21_24 
REMARK    9  A    between atoms: C21_24  and  O3_25 
REMARK   10  A    between atoms: C22_27  and  C24_29 
ROOT
HETATM    1  C11 UNL     1      -9.854 -26.563   3.217  1.00  0.00     0.145 C 
ENDROOT
BRANCH   1   2
HETATM    2  C10 UNL     1      -8.484 -26.084   3.544  1.00  0.00     0.023 C 
HETATM    3  C4  UNL     1      -7.798 -26.704   4.728  1.00  0.00    -0.003 C 
HETATM    4  C5  UNL     1      -6.853 -25.757   5.393  1.00  0.00    -0.009 C 
HETATM    5  C6  UNL     1      -6.186 -24.950   4.238  1.00  0.00     0.010 C 
HETATM    6  C8  UNL     1      -7.465 -24.453   5.808  1.00  0.00     0.010 C 
HETATM    7  C7  UNL     1      -7.370 -24.016   4.386  1.00  0.00    -0.013 C 
HETATM    8  C9  UNL     1      -8.572 -24.571   3.653  1.00  0.00     0.012 C 
BRANCH   3   9
HETATM    9  C3  UNL     1      -8.665 -27.447   5.639  1.00  0.00     0.010 C 
BRANCH   9  10
HETATM   10  C2  UNL     1      -8.365 -28.873   5.960  1.00  0.00    -0.004 C 
HETATM   11  C1  UNL     1      -7.593 -29.678   4.997  1.00  0.00     0.011 C 
BRANCH  10  12
HETATM   12  C22 UNL     1      -7.720 -29.009   7.329  1.00  0.00     0.086 C 
HETATM   13  C23 UNL     1      -6.570 -29.983   7.170  1.00  0.00     0.021 C 
BRANCH  12  14
HETATM   14  C24 UNL     1      -8.649 -29.376   8.383  1.00  0.00     0.176 C 
HETATM   15  O4  UNL     1      -8.800 -28.647   9.385  1.00  0.00    -0.648 OA
HETATM   16  O5  UNL     1      -9.383 -30.541   8.296  1.00  0.00    -0.648 OA
ENDBRANCH  12  14
ENDBRANCH  10  12
ENDBRANCH   9  10
ENDBRANCH   3   9
ENDBRANCH   1   2
BRANCH   1  17
HETATM   17  O1  UNL     1     -10.903 -25.755   3.586  1.00  0.00    -0.391 OA
ATOM     18  H1  UNL     1     -11.568 -26.139   4.144  1.00  0.00     0.210 HD
ENDBRANCH   1  17
BRANCH   1  19
HETATM   19  C12 UNL     1      -9.894 -26.846   1.753  1.00  0.00     0.001 C 
HETATM   20  C13 UNL     1     -10.888 -26.446   0.971  1.00  0.00    -0.023 C 
BRANCH  20  21
HETATM   21  C14 UNL     1     -10.868 -26.757  -0.458  1.00  0.00     0.018 C 
HETATM   22  C15 UNL     1     -12.041 -27.640  -0.836  1.00  0.00    -0.004 C 
HETATM   23  C16 UNL     1     -13.357 -26.968  -0.623  1.00  0.00     0.011 C 
HETATM   24  C17 UNL     1     -11.891 -28.113  -2.271  1.00  0.00     0.083 C 
HETATM   25  C18 UNL     1     -11.482 -27.050  -3.195  1.00  0.00     0.127 C 
HETATM   26  O2  UNL     1     -11.938 -26.889  -4.322  1.00  0.00    -0.298 OA
HETATM   27  C19 UNL     1     -10.434 -26.081  -2.751  1.00  0.00     0.085 C 
HETATM   28  C20 UNL     1     -10.870 -25.587  -1.380  1.00  0.00     0.024 C 
BRANCH  28  29
HETATM   29  C21 UNL     1      -9.901 -24.504  -0.972  1.00  0.00     0.169 C 
BRANCH  29  30
HETATM   30  O3  UNL     1      -8.589 -24.831  -1.297  1.00  0.00    -0.400 OA
ATOM     31  H3  UNL     1      -7.986 -24.126  -1.091  1.00  0.00     0.209 HD
ENDBRANCH  29  30
ENDBRANCH  28  29
ENDBRANCH  20  21
ENDBRANCH   1  19
TORSDOF 10
ENDMDL
MODEL 4
REMARK VINA RESULT: -7.790467461      2.618      4.442
REMARK  10 active torsions:
REMARK  status: ('A' for Active; 'I' for Inactive)
REMARK    1  A    between atoms: C2_2  and  C3_3 
REMARK    2  A    between atoms: C2_2  and  C22_27 
REMARK    3  A    between atoms: C3_3  and  C4_4 
REMARK    4  A    between atoms: C10_10  and  C11_11 
REMARK    5  A    between atoms: C11_11  and  O1_12 
REMARK    6  A    between atoms: C11_11  and  C12_14 
REMARK    7  A    between atoms: C13_15  and  C14_16 
REMARK    8  A    between atoms: C20_23  and  C21_24 
REMARK    9  A    between atoms: C21_24  and  O3_25 
REMARK   10  A    between atoms: C22_27  and  C24_29 
ROOT
HETATM    1  C11 UNL     1      -9.863 -26.474   3.242  1.00  0.00     0.145 C 
ENDROOT
BRANCH   1   2
HETATM    2  C10 UNL     1      -8.529 -25.904   3.571  1.00  0.00     0.023 C 
HETATM    3  C4  UNL     1      -7.724 -26.595   4.635  1.00  0.00    -0.003 C 
HETATM    4  C5  UNL     1      -6.837 -25.648   5.377  1.00  0.00    -0.009 C 
HETATM    5  C6  UNL     1      -6.315 -24.639   4.309  1.00  0.00     0.010 C 
HETATM    6  C8  UNL     1      -7.547 -24.474   5.982  1.00  0.00     0.010 C 
HETATM    7  C7  UNL     1      -7.572 -23.856   4.627  1.00  0.00    -0.013 C 
HETATM    8  C9  UNL     1      -8.755 -24.433   3.880  1.00  0.00     0.012 C 
BRANCH   3   9
HETATM    9  C3  UNL     1      -8.465 -27.530   5.477  1.00  0.00     0.010 C 
BRANCH   9  10
HETATM   10  C2  UNL     1      -7.832 -28.809   5.910  1.00  0.00    -0.004 C 
HETATM   11  C1  UNL     1      -7.516 -29.007   7.336  1.00  0.00     0.011 C 
BRANCH  10  12
HETATM   12  C22 UNL     1      -8.619 -30.012   5.419  1.00  0.00     0.086 C 
HETATM   13  C23 UNL     1      -7.830 -31.239   5.825  1.00  0.00     0.021 C 
BRANCH  12  14
HETATM   14  C24 UNL     1      -8.936 -29.969   4.002  1.00  0.00     0.176 C 
HETATM   15  O4  UNL     1      -8.028 -29.937   3.145  1.00  0.00    -0.648 OA
HETATM   16  O5  UNL     1     -10.248 -29.963   3.577  1.00  0.00    -0.648 OA
ENDBRANCH  12  14
ENDBRANCH  10  12
ENDBRANCH   9  10
ENDBRANCH   3   9
ENDBRANCH   1   2
BRANCH   1  17
HETATM   17  O1  UNL     1     -10.963 -25.719   3.572  1.00  0.00    -0.391 OA
ATOM     18  H1  UNL     1     -11.215 -25.699   4.487  1.00  0.00     0.210 HD
ENDBRANCH   1  17
BRANCH   1  19
HETATM   19  C12 UNL     1      -9.866 -26.805   1.788  1.00  0.00     0.001 C 
HETATM   20  C13 UNL     1     -10.844 -26.440   0.969  1.00  0.00    -0.023 C 
BRANCH  20  21
HETATM   21  C14 UNL     1     -10.786 -26.797  -0.448  1.00  0.00     0.018 C 
HETATM   22  C15 UNL     1     -11.919 -27.736  -0.814  1.00  0.00    -0.004 C 
HETATM   23  C16 UNL     1     -13.262 -27.108  -0.647  1.00  0.00     0.011 C 
HETATM   24  C17 UNL     1     -11.726 -28.251  -2.230  1.00  0.00     0.083 C 
HETATM   25  C18 UNL     1     -11.340 -27.204  -3.183  1.00  0.00     0.127 C 
HETATM   26  O2  UNL     1     -11.782 -27.098  -4.321  1.00  0.00    -0.298 OA
HETATM   27  C19 UNL     1     -10.338 -26.182  -2.754  1.00  0.00     0.085 C 
HETATM   28  C20 UNL     1     -10.816 -25.659  -1.408  1.00  0.00     0.024 C 
BRANCH  28  29
HETATM   29  C21 UNL     1      -9.896 -24.528  -1.021  1.00  0.00     0.169 C 
BRANCH  29  30
HETATM   30  O3  UNL     1      -8.572 -24.799  -1.347  1.00  0.00    -0.400 OA
ATOM     31  H3  UNL     1      -8.168 -24.080  -1.818  1.00  0.00     0.209 HD
ENDBRANCH  29  30
ENDBRANCH  28  29
ENDBRANCH  20  21
ENDBRANCH   1  19
TORSDOF 10
ENDMDL
MODEL 5
REMARK VINA RESULT: -7.725295357      1.375      2.439
REMARK  10 active torsions:
REMARK  status: ('A' for Active; 'I' for Inactive)
REMARK    1  A    between atoms: C2_2  and  C3_3 
REMARK    2  A    between atoms: C2_2  and  C22_27 
REMARK    3  A    between atoms: C3_3  and  C4_4 
REMARK    4  A    between atoms: C10_10  and  C11_11 
REMARK    5  A    between atoms: C11_11  and  O1_12 
REMARK    6  A    between atoms: C11_11  and  C12_14 
REMARK    7  A    between atoms: C13_15  and  C14_16 
REMARK    8  A    between atoms: C20_23  and  C21_24 
REMARK    9  A    between atoms: C21_24  and  O3_25 
REMARK   10  A    between atoms: C22_27  and  C24_29 
ROOT
HETATM    1  C11 UNL     1      -8.242 -25.748   1.695  1.00  0.00     0.145 C 
ENDROOT
BRANCH   1   2
HETATM    2  C10 UNL     1      -9.074 -26.874   2.197  1.00  0.00     0.023 C 
HETATM    3  C4  UNL     1      -9.107 -27.102   3.681  1.00  0.00    -0.003 C 
HETATM    4  C5  UNL     1      -9.313 -28.541   4.027  1.00  0.00    -0.009 C 
HETATM    5  C6  UNL     1     -10.321 -29.087   2.968  1.00  0.00     0.010 C 
HETATM    6  C8  UNL     1      -8.321 -29.480   3.408  1.00  0.00     0.010 C 
HETATM    7  C7  UNL     1      -9.088 -29.369   2.135  1.00  0.00    -0.013 C 
HETATM    8  C9  UNL     1      -8.630 -28.110   1.430  1.00  0.00     0.012 C 
BRANCH   3   9
HETATM    9  C3  UNL     1      -8.058 -26.432   4.444  1.00  0.00     0.010 C 
BRANCH   9  10
HETATM   10  C2  UNL     1      -8.033 -24.942   4.531  1.00  0.00    -0.004 C 
HETATM   11  C1  UNL     1      -9.283 -24.220   4.828  1.00  0.00     0.011 C 
BRANCH  10  12
HETATM   12  C22 UNL     1      -6.958 -24.461   5.491  1.00  0.00     0.086 C 
HETATM   13  C23 UNL     1      -7.500 -23.213   6.156  1.00  0.00     0.021 C 
BRANCH  12  14
HETATM   14  C24 UNL     1      -5.659 -24.270   4.870  1.00  0.00     0.176 C 
HETATM   15  O4  UNL     1      -4.819 -23.493   5.371  1.00  0.00    -0.648 OA
HETATM   16  O5  UNL     1      -5.329 -24.945   3.713  1.00  0.00    -0.648 OA
ENDBRANCH  12  14
ENDBRANCH  10  12
ENDBRANCH   9  10
ENDBRANCH   3   9
ENDBRANCH   1   2
BRANCH   1  17
HETATM   17  O1  UNL     1      -6.963 -26.047   1.290  1.00  0.00    -0.391 OA
ATOM     18  H1  UNL     1      -6.790 -26.030   0.356  1.00  0.00     0.210 HD
ENDBRANCH   1  17
BRANCH   1  19
HETATM   19  C12 UNL     1      -9.001 -25.081   0.597  1.00  0.00     0.001 C 
HETATM   20  C13 UNL     1      -9.816 -25.740  -0.216  1.00  0.00    -0.023 C 
BRANCH  20  21
HETATM   21  C14 UNL     1     -10.531 -25.026  -1.274  1.00  0.00     0.018 C 
HETATM   22  C15 UNL     1      -9.559 -24.357  -2.226  1.00  0.00    -0.004 C 
HETATM   23  C16 UNL     1      -8.703 -25.337  -2.956  1.00  0.00     0.011 C 
HETATM   24  C17 UNL     1     -10.316 -23.462  -3.191  1.00  0.00     0.083 C 
HETATM   25  C18 UNL     1     -11.525 -24.087  -3.741  1.00  0.00     0.127 C 
HETATM   26  O2  UNL     1     -11.883 -24.007  -4.910  1.00  0.00    -0.298 OA
HETATM   27  C19 UNL     1     -12.396 -24.884  -2.824  1.00  0.00     0.085 C 
HETATM   28  C20 UNL     1     -11.471 -25.843  -2.091  1.00  0.00     0.024 C 
BRANCH  28  29
HETATM   29  C21 UNL     1     -12.345 -26.753  -1.263  1.00  0.00     0.169 C 
BRANCH  29  30
HETATM   30  O3  UNL     1     -13.695 -26.453  -1.410  1.00  0.00    -0.400 OA
ATOM     31  H3  UNL     1     -14.205 -27.220  -1.641  1.00  0.00     0.209 HD
ENDBRANCH  29  30
ENDBRANCH  28  29
ENDBRANCH  20  21
ENDBRANCH   1  19
TORSDOF 10
ENDMDL
