MODEL 1
REMARK VINA RESULT: -6.792919748      0.000      0.000
REMARK  0 active torsions:
REMARK  status: ('A' for Active; 'I' for Inactive)
ROOT
HETATM    1  C1  UNL     1       9.352  -4.296  13.231  1.00  0.00     0.076 C 
HETATM    2  C2  UNL     1      10.763  -4.535  13.655  1.00  0.00     0.046 C 
HETATM    3  N1  UNL     1      10.928  -4.681  14.896  1.00  0.00    -0.368 N 
ATOM      4  H1  UNL     1      10.052  -4.611  15.414  1.00  0.00     0.161 HD
HETATM    5  C3  UNL     1      12.051  -4.921  15.756  1.00  0.00     0.110 C 
HETATM    6  C4  UNL     1      12.660  -3.630  16.153  1.00  0.00     0.053 C 
HETATM    7  S1  UNL     1      11.432  -5.799  17.220  1.00  0.00    -0.108 SA
HETATM    8  C5  UNL     1      12.587  -7.209  17.119  1.00  0.00     0.309 C 
HETATM    9  N2  UNL     1      13.543  -6.803  16.113  1.00  0.00    -0.055 N 
ATOM     10  H21 UNL     1      13.959  -7.611  15.652  1.00  0.00     0.279 HD
ATOM     11  H22 UNL     1      14.382  -6.409  16.539  1.00  0.00     0.279 HD
HETATM   12  C6  UNL     1      12.993  -5.928  15.188  1.00  0.00     0.263 C 
HETATM   13  C7  UNL     1      13.952  -5.245  14.317  1.00  0.00     0.044 A 
HETATM   14  C8  UNL     1      15.229  -5.206  14.747  1.00  0.00     0.093 A 
HETATM   15 BR1  UNL     1      15.697  -5.987  16.409  1.00  0.00    -0.030 Br
HETATM   16  N3  UNL     1      16.139  -4.586  13.963  1.00  0.00    -0.327 N 
ATOM     17  H3  UNL     1      17.109  -4.550  14.277  1.00  0.00     0.169 HD
HETATM   18  C9  UNL     1      15.825  -4.015  12.794  1.00  0.00     0.177 A 
HETATM   19  S2  UNL     1      17.004  -3.280  11.905  1.00  0.00    -0.040 SA
HETATM   20  N4  UNL     1      14.553  -4.053  12.366  1.00  0.00    -0.327 N 
ATOM     21  H4  UNL     1      14.307  -3.621  11.475  1.00  0.00     0.169 HD
HETATM   22  C10 UNL     1      13.614  -4.650  13.092  1.00  0.00     0.089 A 
HETATM   23  S3  UNL     1      11.981  -4.578  12.358  1.00  0.00    -0.059 SA
ENDROOT
TORSDOF 0
ENDMDL
MODEL 2
REMARK VINA RESULT: -6.578802758      3.573      5.049
REMARK  0 active torsions:
REMARK  status: ('A' for Active; 'I' for Inactive)
ROOT
HETATM    1  C1  UNL     1      10.449 -10.909  16.612  1.00  0.00     0.076 C 
HETATM    2  C2  UNL     1      10.674  -9.657  15.831  1.00  0.00     0.046 C 
HETATM    3  N1  UNL     1       9.962  -9.539  14.798  1.00  0.00    -0.368 N 
ATOM      4  H1  UNL     1       9.337 -10.334  14.665  1.00  0.00     0.161 HD
HETATM    5  C3  UNL     1       9.819  -8.556  13.763  1.00  0.00     0.110 C 
HETATM    6  C4  UNL     1      10.785  -8.834  12.674  1.00  0.00     0.053 C 
HETATM    7  S1  UNL     1       8.118  -8.673  13.138  1.00  0.00    -0.108 SA
HETATM    8  C5  UNL     1       7.690  -6.914  13.372  1.00  0.00     0.309 C 
HETATM    9  N2  UNL     1       8.956  -6.288  13.684  1.00  0.00    -0.055 N 
ATOM     10  H21 UNL     1       8.823  -5.447  14.245  1.00  0.00     0.279 HD
ATOM     11  H22 UNL     1       9.373  -5.866  12.855  1.00  0.00     0.279 HD
HETATM   12  C6  UNL     1       9.839  -7.164  14.298  1.00  0.00     0.263 C 
HETATM   13  C7  UNL     1      11.226  -6.706  14.384  1.00  0.00     0.044 A 
HETATM   14  C8  UNL     1      11.586  -5.723  13.533  1.00  0.00     0.093 A 
HETATM   15 BR1  UNL     1      10.327  -5.027  12.299  1.00  0.00    -0.030 Br
HETATM   16  N3  UNL     1      12.860  -5.276  13.590  1.00  0.00    -0.327 N 
ATOM     17  H3  UNL     1      13.144  -4.532  12.952  1.00  0.00     0.169 HD
HETATM   18  C9  UNL     1      13.766  -5.765  14.444  1.00  0.00     0.177 A 
HETATM   19  S2  UNL     1      15.299  -5.156  14.440  1.00  0.00    -0.040 SA
HETATM   20  N4  UNL     1      13.409  -6.744  15.290  1.00  0.00    -0.327 N 
ATOM     21  H4  UNL     1      14.095  -7.121  15.945  1.00  0.00     0.169 HD
HETATM   22  C10 UNL     1      12.170  -7.224  15.283  1.00  0.00     0.089 A 
HETATM   23  S3  UNL     1      11.899  -8.536  16.472  1.00  0.00    -0.059 SA
ENDROOT
TORSDOF 0
ENDMDL
MODEL 3
REMARK VINA RESULT: -6.433900346      3.815      6.407
REMARK  0 active torsions:
REMARK  status: ('A' for Active; 'I' for Inactive)
ROOT
HETATM    1  C1  UNL     1      11.185 -10.144  14.857  1.00  0.00     0.076 C 
HETATM    2  C2  UNL     1      10.617  -8.838  14.411  1.00  0.00     0.046 C 
HETATM    3  N1  UNL     1      11.374  -7.844  14.577  1.00  0.00    -0.368 N 
ATOM      4  H1  UNL     1      12.267  -8.104  14.996  1.00  0.00     0.161 HD
HETATM    5  C3  UNL     1      11.283  -6.437  14.319  1.00  0.00     0.110 C 
HETATM    6  C4  UNL     1      10.669  -5.755  15.483  1.00  0.00     0.053 C 
HETATM    7  S1  UNL     1      12.973  -5.826  14.054  1.00  0.00    -0.108 SA
HETATM    8  C5  UNL     1      12.657  -5.042  12.436  1.00  0.00     0.309 C 
HETATM    9  N2  UNL     1      11.218  -5.081  12.306  1.00  0.00    -0.055 N 
ATOM     10  H21 UNL     1      10.936  -5.090  11.326  1.00  0.00     0.279 HD
ATOM     11  H22 UNL     1      10.799  -4.194  12.588  1.00  0.00     0.279 HD
HETATM   12  C6  UNL     1      10.656  -6.143  12.999  1.00  0.00     0.263 C 
HETATM   13  C7  UNL     1       9.202  -6.091  13.163  1.00  0.00     0.044 A 
HETATM   14  C8  UNL     1       8.625  -4.882  13.010  1.00  0.00     0.093 A 
HETATM   15 BR1  UNL     1       9.690  -3.362  12.627  1.00  0.00    -0.030 Br
HETATM   16  N3  UNL     1       7.283  -4.802  13.152  1.00  0.00    -0.327 N 
ATOM     17  H3  UNL     1       6.835  -3.893  13.037  1.00  0.00     0.169 HD
HETATM   18  C9  UNL     1       6.516  -5.861  13.436  1.00  0.00     0.177 A 
HETATM   19  S2  UNL     1       4.886  -5.666  13.592  1.00  0.00    -0.040 SA
HETATM   20  N4  UNL     1       7.090  -7.064  13.590  1.00  0.00    -0.327 N 
ATOM     21  H4  UNL     1       6.512  -7.876  13.807  1.00  0.00     0.169 HD
HETATM   22  C10 UNL     1       8.405  -7.207  13.461  1.00  0.00     0.089 A 
HETATM   23  S3  UNL     1       8.977  -8.884  13.721  1.00  0.00    -0.059 SA
ENDROOT
TORSDOF 0
ENDMDL
MODEL 4
REMARK VINA RESULT: -6.426486038      2.633      5.217
REMARK  0 active torsions:
REMARK  status: ('A' for Active; 'I' for Inactive)
ROOT
HETATM    1  C1  UNL     1      12.646  -8.504  17.294  1.00  0.00     0.076 C 
HETATM    2  C2  UNL     1      12.248  -7.577  16.194  1.00  0.00     0.046 C 
HETATM    3  N1  UNL     1      13.015  -6.592  16.024  1.00  0.00    -0.368 N 
ATOM      4  H1  UNL     1      13.797  -6.593  16.678  1.00  0.00     0.161 HD
HETATM    5  C3  UNL     1      13.054  -5.470  15.132  1.00  0.00     0.110 C 
HETATM    6  C4  UNL     1      12.272  -4.349  15.705  1.00  0.00     0.053 C 
HETATM    7  S1  UNL     1      14.795  -4.989  14.945  1.00  0.00    -0.108 SA
HETATM    8  C5  UNL     1      14.835  -5.060  13.121  1.00  0.00     0.309 C 
HETATM    9  N2  UNL     1      13.445  -5.208  12.750  1.00  0.00    -0.055 N 
ATOM     10  H21 UNL     1      13.352  -5.682  11.852  1.00  0.00     0.279 HD
ATOM     11  H22 UNL     1      13.032  -4.309  12.503  1.00  0.00     0.279 HD
HETATM   12  C6  UNL     1      12.704  -5.847  13.732  1.00  0.00     0.263 C 
HETATM   13  C7  UNL     1      11.250  -5.780  13.570  1.00  0.00     0.044 A 
HETATM   14  C8  UNL     1      10.782  -4.804  12.767  1.00  0.00     0.093 A 
HETATM   15 BR1  UNL     1      11.985  -3.596  11.938  1.00  0.00    -0.030 Br
HETATM   16  N3  UNL     1       9.444  -4.717  12.595  1.00  0.00    -0.327 N 
ATOM     17  H3  UNL     1       9.078  -3.983  11.988  1.00  0.00     0.169 HD
HETATM   18  C9  UNL     1       8.578  -5.551  13.183  1.00  0.00     0.177 A 
HETATM   19  S2  UNL     1       6.962  -5.368  12.914  1.00  0.00    -0.040 SA
HETATM   20  N4  UNL     1       9.044  -6.523  13.984  1.00  0.00    -0.327 N 
ATOM     21  H4  UNL     1       8.390  -7.162  14.436  1.00  0.00     0.169 HD
HETATM   22  C10 UNL     1      10.350  -6.659  14.192  1.00  0.00     0.089 A 
HETATM   23  S3  UNL     1      10.767  -8.001  15.302  1.00  0.00    -0.059 SA
ENDROOT
TORSDOF 0
ENDMDL
MODEL 5
REMARK VINA RESULT: -6.388024786      3.035      4.801
REMARK  0 active torsions:
REMARK  status: ('A' for Active; 'I' for Inactive)
ROOT
HETATM    1  C1  UNL     1      11.900 -10.858  16.043  1.00  0.00     0.076 C 
HETATM    2  C2  UNL     1      11.858  -9.383  15.823  1.00  0.00     0.046 C 
HETATM    3  N1  UNL     1      12.494  -8.699  16.669  1.00  0.00    -0.368 N 
ATOM      4  H1  UNL     1      12.941  -9.281  17.378  1.00  0.00     0.161 HD
HETATM    5  C3  UNL     1      12.740  -7.302  16.877  1.00  0.00     0.110 C 
HETATM    6  C4  UNL     1      11.655  -6.722  17.704  1.00  0.00     0.053 C 
HETATM    7  S1  UNL     1      14.331  -7.156  17.740  1.00  0.00    -0.108 SA
HETATM    8  C5  UNL     1      15.106  -6.008  16.551  1.00  0.00     0.309 C 
HETATM    9  N2  UNL     1      14.013  -5.608  15.692  1.00  0.00    -0.055 N 
ATOM     10  H21 UNL     1      14.350  -5.340  14.768  1.00  0.00     0.279 HD
ATOM     11  H22 UNL     1      13.620  -4.715  15.988  1.00  0.00     0.279 HD
HETATM   12  C6  UNL     1      13.031  -6.583  15.604  1.00  0.00     0.263 C 
HETATM   13  C7  UNL     1      11.768  -6.154  14.999  1.00  0.00     0.044 A 
HETATM   14  C8  UNL     1      11.537  -4.826  14.974  1.00  0.00     0.093 A 
HETATM   15 BR1  UNL     1      12.803  -3.627  15.718  1.00  0.00    -0.030 Br
HETATM   16  N3  UNL     1      10.381  -4.398  14.420  1.00  0.00    -0.327 N 
ATOM     17  H3  UNL     1      10.196  -3.395  14.394  1.00  0.00     0.169 HD
HETATM   18  C9  UNL     1       9.469  -5.230  13.903  1.00  0.00     0.177 A 
HETATM   19  S2  UNL     1       8.086  -4.615  13.248  1.00  0.00    -0.040 SA
HETATM   20  N4  UNL     1       9.698  -6.552  13.929  1.00  0.00    -0.327 N 
ATOM     21  H4  UNL     1       9.007  -7.192  13.537  1.00  0.00     0.169 HD
HETATM   22  C10 UNL     1      10.817  -7.034  14.460  1.00  0.00     0.089 A 
HETATM   23  S3  UNL     1      10.926  -8.821  14.414  1.00  0.00    -0.059 SA
ENDROOT
TORSDOF 0
ENDMDL
