MODEL 1
REMARK VINA RESULT: -10.055137380      0.000      0.000
REMARK  12 active torsions:
REMARK  status: ('A' for Active; 'I' for Inactive)
REMARK    1  A    between atoms: C2_2  and  C3_3 
REMARK    2  A    between atoms: C2_2  and  C14_20 
REMARK    3  A    between atoms: C7_8  and  C8_9 
REMARK    4  A    between atoms: C7_8  and  C9_12 
REMARK    5  A    between atoms: C8_9  and  O2_10 
REMARK    6  A    between atoms: C9_12  and  O3_15 
REMARK    7  A    between atoms: C16_22  and  C17_23 
REMARK    8  A    between atoms: C21_28  and  N1_29 
REMARK    9  A    between atoms: N1_29  and  N2_31 
REMARK   10  A    between atoms: C22_36  and  O4_37 
REMARK   11  A    between atoms: C22_36  and  C23_39 
REMARK   12  A    between atoms: C24_40  and  C25_41 
ROOT
HETATM    1  C14 UNL     1      35.804  44.628  19.428  1.00  0.00     0.132 C 
HETATM    2  C15 UNL     1      36.331  45.198  18.177  1.00  0.00     0.044 C 
HETATM    3  C16 UNL     1      35.343  45.316  17.054  1.00  0.00     0.058 C 
HETATM    4  C21 UNL     1      34.594  44.003  17.003  1.00  0.00     0.176 C 
HETATM    5  C22 UNL     1      33.872  43.886  18.305  1.00  0.00     0.204 C 
HETATM    6  O5  UNL     1      34.581  44.074  19.432  1.00  0.00    -0.344 OA
ENDROOT
BRANCH   1   7
HETATM    7  C2  UNL     1      36.799  43.648  20.067  1.00  0.00     0.040 C 
HETATM    8  C1  UNL     1      36.035  42.350  20.371  1.00  0.00     0.015 C 
BRANCH   7   9
HETATM    9  C3  UNL     1      37.316  44.130  21.386  1.00  0.00     0.128 C 
HETATM   10  C4  UNL     1      36.983  43.080  22.413  1.00  0.00     0.043 C 
HETATM   11  C5  UNL     1      38.268  42.815  23.111  1.00  0.00     0.058 C 
HETATM   12  C6  UNL     1      39.275  43.606  22.339  1.00  0.00     0.146 C 
HETATM   13  C12 UNL     1      38.553  43.692  24.315  1.00  0.00     0.121 C 
HETATM   14  O1  UNL     1      38.637  44.421  21.460  1.00  0.00    -0.379 OA
HETATM   15  C7  UNL     1      39.783  44.177  23.616  1.00  0.00     0.074 C 
HETATM   16  C13 UNL     1      38.815  42.832  25.553  1.00  0.00     0.053 C 
HETATM   17  F1  UNL     1      37.544  44.604  24.472  1.00  0.00    -0.242 F 
BRANCH  15  18
HETATM   18  C8  UNL     1      40.998  43.411  24.118  1.00  0.00     0.182 C 
BRANCH  18  19
HETATM   19  O2  UNL     1      41.737  42.875  23.050  1.00  0.00    -0.400 OA
ATOM     20  H2  UNL     1      42.301  42.168  23.342  1.00  0.00     0.209 HD
ENDBRANCH  18  19
ENDBRANCH  15  18
BRANCH  15  21
HETATM   21  C9  UNL     1      40.004  45.666  23.644  1.00  0.00     0.066 C 
HETATM   22  C10 UNL     1      40.485  46.082  25.018  1.00  0.00     0.046 C 
HETATM   23  C11 UNL     1      41.101  46.022  22.663  1.00  0.00     0.046 C 
BRANCH  21  24
HETATM   24  O3  UNL     1      38.823  46.340  23.349  1.00  0.00    -0.390 OA
ATOM     25  H3  UNL     1      38.716  47.090  23.922  1.00  0.00     0.210 HD
ENDBRANCH  21  24
ENDBRANCH  15  21
ENDBRANCH   7   9
ENDBRANCH   1   7
BRANCH   3  26
HETATM   26  C17 UNL     1      36.040  45.475  15.727  1.00  0.00    -0.011 A 
HETATM   27  C18 UNL     1      37.217  44.901  15.323  1.00  0.00     0.015 A 
HETATM   28  C19 UNL     1      37.653  45.184  14.088  1.00  0.00     0.008 A 
HETATM   29  C20 UNL     1      36.884  46.027  13.330  1.00  0.00     0.050 A 
HETATM   30  S1  UNL     1      35.582  46.393  14.367  1.00  0.00    -0.106 SA
ENDBRANCH   3  26
BRANCH   5  31
HETATM   31  O4  UNL     1      32.847  44.865  18.277  1.00  0.00    -0.360 OA
ATOM     32  H4  UNL     1      33.220  45.649  18.663  1.00  0.00     0.213 HD
ENDBRANCH   5  31
BRANCH   5  33
HETATM   33  C23 UNL     1      33.141  42.577  18.269  1.00  0.00     0.044 C 
HETATM   34  C24 UNL     1      31.850  42.474  18.355  1.00  0.00     0.013 C 
BRANCH  34  35
HETATM   35  C25 UNL     1      31.176  41.195  18.317  1.00  0.00    -0.036 A 
HETATM   36  C26 UNL     1      30.053  40.919  17.569  1.00  0.00     0.011 A 
HETATM   37  C27 UNL     1      29.421  39.701  17.541  1.00  0.00     0.001 A 
HETATM   38  C28 UNL     1      29.931  38.683  18.302  1.00  0.00     0.000 A 
HETATM   39  C29 UNL     1      31.064  38.930  19.068  1.00  0.00     0.001 A 
HETATM   40  C30 UNL     1      31.679  40.139  19.087  1.00  0.00     0.011 A 
ENDBRANCH  34  35
ENDBRANCH   5  33
BRANCH   4  41
HETATM   41  N1  UNL     1      33.622  43.971  15.933  1.00  0.00    -0.311 N 
ATOM     42  H1  UNL     1      33.523  43.156  15.328  1.00  0.00     0.182 HD
BRANCH  41  43
HETATM   43  N2  UNL     1      32.913  44.980  15.782  1.00  0.00    -0.253 N 
HETATM   44  N3  UNL     1      31.867  45.628  15.739  1.00  0.00    -0.331 N 
ATOM     45  H32 UNL     1      31.207  44.882  15.956  1.00  0.00     0.178 HD
ATOM     46  H31 UNL     1      31.286  46.456  15.615  1.00  0.00     0.178 HD
ATOM     47  H2  UNL     1      33.610  45.695  15.568  1.00  0.00     0.207 HD
ENDBRANCH  41  43
ENDBRANCH   4  41
TORSDOF 12
ENDMDL
MODEL 2
REMARK VINA RESULT: -9.508750281      5.570      9.481
REMARK  12 active torsions:
REMARK  status: ('A' for Active; 'I' for Inactive)
REMARK    1  A    between atoms: C2_2  and  C3_3 
REMARK    2  A    between atoms: C2_2  and  C14_20 
REMARK    3  A    between atoms: C7_8  and  C8_9 
REMARK    4  A    between atoms: C7_8  and  C9_12 
REMARK    5  A    between atoms: C8_9  and  O2_10 
REMARK    6  A    between atoms: C9_12  and  O3_15 
REMARK    7  A    between atoms: C16_22  and  C17_23 
REMARK    8  A    between atoms: C21_28  and  N1_29 
REMARK    9  A    between atoms: N1_29  and  N2_31 
REMARK   10  A    between atoms: C22_36  and  O4_37 
REMARK   11  A    between atoms: C22_36  and  C23_39 
REMARK   12  A    between atoms: C24_40  and  C25_41 
ROOT
HETATM    1  C14 UNL     1      29.145  41.606  16.668  1.00  0.00     0.132 C 
HETATM    2  C15 UNL     1      28.728  40.941  17.914  1.00  0.00     0.044 C 
HETATM    3  C16 UNL     1      27.439  40.176  17.837  1.00  0.00     0.058 C 
HETATM    4  C21 UNL     1      26.454  41.069  17.117  1.00  0.00     0.176 C 
HETATM    5  C22 UNL     1      27.006  41.275  15.745  1.00  0.00     0.204 C 
HETATM    6  O5  UNL     1      28.286  41.668  15.638  1.00  0.00    -0.344 OA
ENDROOT
BRANCH   1   7
HETATM    7  C2  UNL     1      29.705  43.010  16.938  1.00  0.00     0.040 C 
HETATM    8  C1  UNL     1      29.362  43.884  15.721  1.00  0.00     0.015 C 
BRANCH   7   9
HETATM    9  C3  UNL     1      31.198  43.026  17.036  1.00  0.00     0.128 C 
HETATM   10  C4  UNL     1      31.733  43.542  15.727  1.00  0.00     0.043 C 
HETATM   11  C5  UNL     1      32.672  44.630  16.105  1.00  0.00     0.058 C 
HETATM   12  C6  UNL     1      32.495  44.770  17.584  1.00  0.00     0.146 C 
HETATM   13  C12 UNL     1      34.106  44.202  16.352  1.00  0.00     0.121 C 
HETATM   14  O1  UNL     1      31.740  43.742  18.051  1.00  0.00    -0.379 OA
HETATM   15  C7  UNL     1      33.973  44.716  17.751  1.00  0.00     0.074 C 
HETATM   16  C13 UNL     1      35.063  44.998  15.464  1.00  0.00     0.053 C 
HETATM   17  F1  UNL     1      34.213  42.843  16.213  1.00  0.00    -0.242 F 
BRANCH  15  18
HETATM   18  C8  UNL     1      34.568  46.112  17.846  1.00  0.00     0.182 C 
BRANCH  18  19
HETATM   19  O2  UNL     1      33.812  46.930  18.702  1.00  0.00    -0.400 OA
ATOM     20  H2  UNL     1      32.886  46.731  18.638  1.00  0.00     0.209 HD
ENDBRANCH  18  19
ENDBRANCH  15  18
BRANCH  15  21
HETATM   21  C9  UNL     1      34.493  43.806  18.832  1.00  0.00     0.066 C 
HETATM   22  C10 UNL     1      34.504  42.377  18.333  1.00  0.00     0.046 C 
HETATM   23  C11 UNL     1      35.927  44.178  19.144  1.00  0.00     0.046 C 
BRANCH  21  24
HETATM   24  O3  UNL     1      33.690  43.889  19.966  1.00  0.00    -0.390 OA
ATOM     25  H3  UNL     1      32.830  43.525  19.791  1.00  0.00     0.210 HD
ENDBRANCH  21  24
ENDBRANCH  15  21
ENDBRANCH   7   9
ENDBRANCH   1   7
BRANCH   3  26
HETATM   26  C17 UNL     1      26.874  39.917  19.211  1.00  0.00    -0.011 A 
HETATM   27  C18 UNL     1      26.998  38.784  19.970  1.00  0.00     0.015 A 
HETATM   28  C19 UNL     1      26.409  38.775  21.172  1.00  0.00     0.008 A 
HETATM   29  C20 UNL     1      25.728  39.905  21.545  1.00  0.00     0.050 A 
HETATM   30  S1  UNL     1      25.936  40.935  20.204  1.00  0.00    -0.106 SA
ENDBRANCH   3  26
BRANCH   5  31
HETATM   31  O4  UNL     1      26.885  40.027  15.080  1.00  0.00    -0.360 OA
ATOM     32  H4  UNL     1      27.771  39.738  14.899  1.00  0.00     0.213 HD
ENDBRANCH   5  31
BRANCH   5  33
HETATM   33  C23 UNL     1      26.042  42.175  15.030  1.00  0.00     0.044 C 
HETATM   34  C24 UNL     1      25.977  43.456  15.226  1.00  0.00     0.013 C 
BRANCH  34  35
HETATM   35  C25 UNL     1      25.036  44.297  14.520  1.00  0.00    -0.036 A 
HETATM   36  C26 UNL     1      24.914  45.658  14.691  1.00  0.00     0.011 A 
HETATM   37  C27 UNL     1      24.017  46.446  14.015  1.00  0.00     0.001 A 
HETATM   38  C28 UNL     1      23.181  45.853  13.106  1.00  0.00     0.000 A 
HETATM   39  C29 UNL     1      23.280  44.480  12.910  1.00  0.00     0.001 A 
HETATM   40  C30 UNL     1      24.172  43.713  13.586  1.00  0.00     0.011 A 
ENDBRANCH  34  35
ENDBRANCH   5  33
BRANCH   4  41
HETATM   41  N1  UNL     1      25.147  40.459  17.002  1.00  0.00    -0.311 N 
ATOM     42  H1  UNL     1      24.323  41.008  16.761  1.00  0.00     0.182 HD
BRANCH  41  43
HETATM   43  N2  UNL     1      25.074  39.236  17.210  1.00  0.00    -0.253 N 
HETATM   44  N3  UNL     1      24.555  38.185  17.584  1.00  0.00    -0.331 N 
ATOM     45  H32 UNL     1      23.663  38.553  17.912  1.00  0.00     0.178 HD
ATOM     46  H31 UNL     1      24.496  37.181  17.755  1.00  0.00     0.178 HD
ATOM     47  H2  UNL     1      25.980  38.912  16.870  1.00  0.00     0.207 HD
ENDBRANCH  41  43
ENDBRANCH   4  41
TORSDOF 12
ENDMDL
MODEL 3
REMARK VINA RESULT: -9.475193188      1.395      2.254
REMARK  12 active torsions:
REMARK  status: ('A' for Active; 'I' for Inactive)
REMARK    1  A    between atoms: C2_2  and  C3_3 
REMARK    2  A    between atoms: C2_2  and  C14_20 
REMARK    3  A    between atoms: C7_8  and  C8_9 
REMARK    4  A    between atoms: C7_8  and  C9_12 
REMARK    5  A    between atoms: C8_9  and  O2_10 
REMARK    6  A    between atoms: C9_12  and  O3_15 
REMARK    7  A    between atoms: C16_22  and  C17_23 
REMARK    8  A    between atoms: C21_28  and  N1_29 
REMARK    9  A    between atoms: N1_29  and  N2_31 
REMARK   10  A    between atoms: C22_36  and  O4_37 
REMARK   11  A    between atoms: C22_36  and  C23_39 
REMARK   12  A    between atoms: C24_40  and  C25_41 
ROOT
HETATM    1  C14 UNL     1      36.319  43.974  20.211  1.00  0.00     0.132 C 
HETATM    2  C15 UNL     1      36.841  44.691  19.036  1.00  0.00     0.044 C 
HETATM    3  C16 UNL     1      35.827  45.032  17.984  1.00  0.00     0.058 C 
HETATM    4  C21 UNL     1      34.995  43.787  17.773  1.00  0.00     0.176 C 
HETATM    5  C22 UNL     1      34.309  43.520  19.072  1.00  0.00     0.204 C 
HETATM    6  O5  UNL     1      35.064  43.497  20.184  1.00  0.00    -0.344 OA
ENDROOT
BRANCH   1   7
HETATM    7  C2  UNL     1      37.270  42.854  20.658  1.00  0.00     0.040 C 
HETATM    8  C1  UNL     1      36.410  41.740  21.277  1.00  0.00     0.015 C 
BRANCH   7   9
HETATM    9  C3  UNL     1      38.205  43.290  21.742  1.00  0.00     0.128 C 
HETATM   10  C4  UNL     1      38.911  44.530  21.259  1.00  0.00     0.043 C 
HETATM   11  C5  UNL     1      38.735  45.515  22.357  1.00  0.00     0.058 C 
HETATM   12  C6  UNL     1      37.814  44.834  23.318  1.00  0.00     0.146 C 
HETATM   13  C12 UNL     1      39.809  45.500  23.429  1.00  0.00     0.121 C 
HETATM   14  O1  UNL     1      37.664  43.533  22.960  1.00  0.00    -0.379 OA
HETATM   15  C7  UNL     1      38.745  45.175  24.429  1.00  0.00     0.074 C 
HETATM   16  C13 UNL     1      40.431  46.889  23.583  1.00  0.00     0.053 C 
HETATM   17  F1  UNL     1      40.715  44.509  23.161  1.00  0.00    -0.242 F 
BRANCH  15  18
HETATM   18  C8  UNL     1      38.306  46.442  25.146  1.00  0.00     0.182 C 
BRANCH  18  19
HETATM   19  O2  UNL     1      36.915  46.459  25.343  1.00  0.00    -0.400 OA
ATOM     20  H2  UNL     1      36.699  46.628  26.252  1.00  0.00     0.209 HD
ENDBRANCH  18  19
ENDBRANCH  15  18
BRANCH  15  21
HETATM   21  C9  UNL     1      39.074  44.066  25.393  1.00  0.00     0.066 C 
HETATM   22  C10 UNL     1      40.041  44.574  26.441  1.00  0.00     0.046 C 
HETATM   23  C11 UNL     1      37.812  43.650  26.118  1.00  0.00     0.046 C 
BRANCH  21  24
HETATM   24  O3  UNL     1      39.650  42.992  24.721  1.00  0.00    -0.390 OA
ATOM     25  H3  UNL     1      39.925  43.253  23.850  1.00  0.00     0.210 HD
ENDBRANCH  21  24
ENDBRANCH  15  21
ENDBRANCH   7   9
ENDBRANCH   1   7
BRANCH   3  26
HETATM   26  C17 UNL     1      36.490  45.345  16.666  1.00  0.00    -0.011 A 
HETATM   27  C18 UNL     1      37.070  44.467  15.789  1.00  0.00     0.015 A 
HETATM   28  C19 UNL     1      37.603  44.972  14.668  1.00  0.00     0.008 A 
HETATM   29  C20 UNL     1      37.523  46.329  14.492  1.00  0.00     0.050 A 
HETATM   30  S1  UNL     1      36.709  46.848  15.896  1.00  0.00    -0.106 SA
ENDBRANCH   3  26
BRANCH   5  31
HETATM   31  O4  UNL     1      33.348  44.551  19.229  1.00  0.00    -0.360 OA
ATOM     32  H4  UNL     1      33.836  45.335  19.452  1.00  0.00     0.213 HD
ENDBRANCH   5  31
BRANCH   5  33
HETATM   33  C23 UNL     1      33.496  42.276  18.875  1.00  0.00     0.044 C 
HETATM   34  C24 UNL     1      32.200  42.270  18.799  1.00  0.00     0.013 C 
BRANCH  34  35
HETATM   35  C25 UNL     1      31.445  41.052  18.609  1.00  0.00    -0.036 A 
HETATM   36  C26 UNL     1      30.419  40.895  17.704  1.00  0.00     0.011 A 
HETATM   37  C27 UNL     1      29.708  39.733  17.532  1.00  0.00     0.001 A 
HETATM   38  C28 UNL     1      30.032  38.649  18.305  1.00  0.00     0.000 A 
HETATM   39  C29 UNL     1      31.064  38.775  19.227  1.00  0.00     0.001 A 
HETATM   40  C30 UNL     1      31.758  39.931  19.387  1.00  0.00     0.011 A 
ENDBRANCH  34  35
ENDBRANCH   5  33
BRANCH   4  41
HETATM   41  N1  UNL     1      33.989  43.971  16.750  1.00  0.00    -0.311 N 
ATOM     42  H1  UNL     1      33.826  43.266  16.031  1.00  0.00     0.182 HD
BRANCH  41  43
HETATM   43  N2  UNL     1      33.333  45.025  16.785  1.00  0.00    -0.253 N 
HETATM   44  N3  UNL     1      32.332  45.734  16.687  1.00  0.00    -0.331 N 
ATOM     45  H32 UNL     1      31.654  45.021  16.419  1.00  0.00     0.178 HD
ATOM     46  H31 UNL     1      31.794  46.600  16.715  1.00  0.00     0.178 HD
ATOM     47  H2  UNL     1      34.045  45.705  17.055  1.00  0.00     0.207 HD
ENDBRANCH  41  43
ENDBRANCH   4  41
TORSDOF 12
ENDMDL
MODEL 4
REMARK VINA RESULT: -9.333325285      1.347      2.398
REMARK  12 active torsions:
REMARK  status: ('A' for Active; 'I' for Inactive)
REMARK    1  A    between atoms: C2_2  and  C3_3 
REMARK    2  A    between atoms: C2_2  and  C14_20 
REMARK    3  A    between atoms: C7_8  and  C8_9 
REMARK    4  A    between atoms: C7_8  and  C9_12 
REMARK    5  A    between atoms: C8_9  and  O2_10 
REMARK    6  A    between atoms: C9_12  and  O3_15 
REMARK    7  A    between atoms: C16_22  and  C17_23 
REMARK    8  A    between atoms: C21_28  and  N1_29 
REMARK    9  A    between atoms: N1_29  and  N2_31 
REMARK   10  A    between atoms: C22_36  and  O4_37 
REMARK   11  A    between atoms: C22_36  and  C23_39 
REMARK   12  A    between atoms: C24_40  and  C25_41 
ROOT
HETATM    1  C14 UNL     1      36.184  44.728  19.143  1.00  0.00     0.132 C 
HETATM    2  C15 UNL     1      36.802  45.297  17.933  1.00  0.00     0.044 C 
HETATM    3  C16 UNL     1      35.855  45.956  16.973  1.00  0.00     0.058 C 
HETATM    4  C21 UNL     1      34.677  45.019  16.824  1.00  0.00     0.176 C 
HETATM    5  C22 UNL     1      34.048  44.925  18.175  1.00  0.00     0.204 C 
HETATM    6  O5  UNL     1      34.847  44.644  19.219  1.00  0.00    -0.344 OA
ENDROOT
BRANCH   1   7
HETATM    7  C2  UNL     1      36.792  43.363  19.499  1.00  0.00     0.040 C 
HETATM    8  C1  UNL     1      35.746  42.595  20.322  1.00  0.00     0.015 C 
BRANCH   7   9
HETATM    9  C3  UNL     1      37.993  43.481  20.384  1.00  0.00     0.128 C 
HETATM   10  C4  UNL     1      38.975  44.394  19.697  1.00  0.00     0.043 C 
HETATM   11  C5  UNL     1      39.330  45.407  20.725  1.00  0.00     0.058 C 
HETATM   12  C6  UNL     1      38.419  45.103  21.870  1.00  0.00     0.146 C 
HETATM   13  C12 UNL     1      40.508  45.053  21.613  1.00  0.00     0.121 C 
HETATM   14  O1  UNL     1      37.785  43.923  21.648  1.00  0.00    -0.379 OA
HETATM   15  C7  UNL     1      39.589  45.133  22.790  1.00  0.00     0.074 C 
HETATM   16  C13 UNL     1      41.572  46.149  21.553  1.00  0.00     0.053 C 
HETATM   17  F1  UNL     1      40.972  43.805  21.289  1.00  0.00    -0.242 F 
BRANCH  15  18
HETATM   18  C8  UNL     1      39.728  46.491  23.461  1.00  0.00     0.182 C 
BRANCH  18  19
HETATM   19  O2  UNL     1      38.502  46.923  23.994  1.00  0.00    -0.400 OA
ATOM     20  H2  UNL     1      37.781  46.719  23.410  1.00  0.00     0.209 HD
ENDBRANCH  18  19
ENDBRANCH  15  18
BRANCH  15  21
HETATM   21  C9  UNL     1      39.695  44.002  23.778  1.00  0.00     0.066 C 
HETATM   22  C10 UNL     1      40.939  44.180  24.622  1.00  0.00     0.046 C 
HETATM   23  C11 UNL     1      38.509  44.054  24.718  1.00  0.00     0.046 C 
BRANCH  21  24
HETATM   24  O3  UNL     1      39.763  42.780  23.115  1.00  0.00    -0.390 OA
ATOM     25  H3  UNL     1      40.379  42.201  23.548  1.00  0.00     0.210 HD
ENDBRANCH  21  24
ENDBRANCH  15  21
ENDBRANCH   7   9
ENDBRANCH   1   7
BRANCH   3  26
HETATM   26  C17 UNL     1      36.475  46.102  15.607  1.00  0.00    -0.011 A 
HETATM   27  C18 UNL     1      36.685  45.123  14.672  1.00  0.00     0.015 A 
HETATM   28  C19 UNL     1      37.256  45.483  13.515  1.00  0.00     0.008 A 
HETATM   29  C20 UNL     1      37.583  46.805  13.362  1.00  0.00     0.050 A 
HETATM   30  S1  UNL     1      37.083  47.495  14.838  1.00  0.00    -0.106 SA
ENDBRANCH   3  26
BRANCH   5  31
HETATM   31  O4  UNL     1      33.451  46.188  18.421  1.00  0.00    -0.360 OA
ATOM     32  H4  UNL     1      33.103  46.482  17.588  1.00  0.00     0.213 HD
ENDBRANCH   5  31
BRANCH   5  33
HETATM   33  C23 UNL     1      32.888  43.983  18.039  1.00  0.00     0.044 C 
HETATM   34  C24 UNL     1      32.997  42.693  18.137  1.00  0.00     0.013 C 
BRANCH  34  35
HETATM   35  C25 UNL     1      31.859  41.812  18.000  1.00  0.00    -0.036 A 
HETATM   36  C26 UNL     1      31.792  40.529  18.497  1.00  0.00     0.011 A 
HETATM   37  C27 UNL     1      30.706  39.702  18.361  1.00  0.00     0.001 A 
HETATM   38  C28 UNL     1      29.607  40.170  17.690  1.00  0.00     0.000 A 
HETATM   39  C29 UNL     1      29.643  41.461  17.177  1.00  0.00     0.001 A 
HETATM   40  C30 UNL     1      30.724  42.269  17.318  1.00  0.00     0.011 A 
ENDBRANCH  34  35
ENDBRANCH   5  33
BRANCH   4  41
HETATM   41  N1  UNL     1      33.693  45.525  15.892  1.00  0.00    -0.311 N 
ATOM     42  H1  UNL     1      33.960  45.860  14.966  1.00  0.00     0.182 HD
BRANCH  41  43
HETATM   43  N2  UNL     1      32.509  45.533  16.268  1.00  0.00    -0.253 N 
HETATM   44  N3  UNL     1      31.308  45.794  16.207  1.00  0.00    -0.331 N 
ATOM     45  H32 UNL     1      31.298  46.301  15.322  1.00  0.00     0.178 HD
ATOM     46  H31 UNL     1      30.336  45.800  16.517  1.00  0.00     0.178 HD
ATOM     47  H2  UNL     1      32.566  45.019  17.148  1.00  0.00     0.207 HD
ENDBRANCH  41  43
ENDBRANCH   4  41
TORSDOF 12
ENDMDL
MODEL 5
REMARK VINA RESULT: -9.247143992      1.722      2.717
REMARK  12 active torsions:
REMARK  status: ('A' for Active; 'I' for Inactive)
REMARK    1  A    between atoms: C2_2  and  C3_3 
REMARK    2  A    between atoms: C2_2  and  C14_20 
REMARK    3  A    between atoms: C7_8  and  C8_9 
REMARK    4  A    between atoms: C7_8  and  C9_12 
REMARK    5  A    between atoms: C8_9  and  O2_10 
REMARK    6  A    between atoms: C9_12  and  O3_15 
REMARK    7  A    between atoms: C16_22  and  C17_23 
REMARK    8  A    between atoms: C21_28  and  N1_29 
REMARK    9  A    between atoms: N1_29  and  N2_31 
REMARK   10  A    between atoms: C22_36  and  O4_37 
REMARK   11  A    between atoms: C22_36  and  C23_39 
REMARK   12  A    between atoms: C24_40  and  C25_41 
ROOT
HETATM    1  C14 UNL     1      36.560  43.812  20.652  1.00  0.00     0.132 C 
HETATM    2  C15 UNL     1      37.255  44.552  19.585  1.00  0.00     0.044 C 
HETATM    3  C16 UNL     1      36.385  45.038  18.463  1.00  0.00     0.058 C 
HETATM    4  C21 UNL     1      35.486  43.881  18.088  1.00  0.00     0.176 C 
HETATM    5  C22 UNL     1      34.651  43.596  19.293  1.00  0.00     0.204 C 
HETATM    6  O5  UNL     1      35.282  43.444  20.469  1.00  0.00    -0.344 OA
ENDROOT
BRANCH   1   7
HETATM    7  C2  UNL     1      37.371  42.592  21.114  1.00  0.00     0.040 C 
HETATM    8  C1  UNL     1      36.397  41.409  21.226  1.00  0.00     0.015 C 
BRANCH   7   9
HETATM    9  C3  UNL     1      37.949  42.769  22.483  1.00  0.00     0.128 C 
HETATM   10  C4  UNL     1      39.178  43.629  22.348  1.00  0.00     0.043 C 
HETATM   11  C5  UNL     1      38.994  44.711  23.350  1.00  0.00     0.058 C 
HETATM   12  C6  UNL     1      37.611  44.492  23.876  1.00  0.00     0.146 C 
HETATM   13  C12 UNL     1      39.532  44.418  24.737  1.00  0.00     0.121 C 
HETATM   14  O1  UNL     1      37.138  43.301  23.429  1.00  0.00    -0.379 OA
HETATM   15  C7  UNL     1      38.141  44.584  25.264  1.00  0.00     0.074 C 
HETATM   16  C13 UNL     1      40.516  45.505  25.170  1.00  0.00     0.053 C 
HETATM   17  F1  UNL     1      40.047  43.149  24.775  1.00  0.00    -0.242 F 
BRANCH  15  18
HETATM   18  C8  UNL     1      37.968  45.986  25.828  1.00  0.00     0.182 C 
BRANCH  18  19
HETATM   19  O2  UNL     1      36.783  46.579  25.361  1.00  0.00    -0.400 OA
ATOM     20  H2  UNL     1      36.670  47.451  25.720  1.00  0.00     0.209 HD
ENDBRANCH  18  19
ENDBRANCH  15  18
BRANCH  15  21
HETATM   21  C9  UNL     1      37.679  43.526  26.230  1.00  0.00     0.066 C 
HETATM   22  C10 UNL     1      38.339  43.743  27.575  1.00  0.00     0.046 C 
HETATM   23  C11 UNL     1      36.187  43.666  26.440  1.00  0.00     0.046 C 
BRANCH  21  24
HETATM   24  O3  UNL     1      38.008  42.259  25.759  1.00  0.00    -0.390 OA
ATOM     25  H3  UNL     1      38.941  42.102  25.848  1.00  0.00     0.210 HD
ENDBRANCH  21  24
ENDBRANCH  15  21
ENDBRANCH   7   9
ENDBRANCH   1   7
BRANCH   3  26
HETATM   26  C17 UNL     1      37.203  45.372  17.242  1.00  0.00    -0.011 A 
HETATM   27  C18 UNL     1      38.295  46.194  17.162  1.00  0.00     0.015 A 
HETATM   28  C19 UNL     1      38.872  46.346  15.963  1.00  0.00     0.008 A 
HETATM   29  C20 UNL     1      38.318  45.664  14.911  1.00  0.00     0.050 A 
HETATM   30  S1  UNL     1      37.016  44.837  15.636  1.00  0.00    -0.106 SA
ENDBRANCH   3  26
BRANCH   5  31
HETATM   31  O4  UNL     1      33.761  44.692  19.424  1.00  0.00    -0.360 OA
ATOM     32  H4  UNL     1      32.885  44.333  19.337  1.00  0.00     0.213 HD
ENDBRANCH   5  31
BRANCH   5  33
HETATM   33  C23 UNL     1      33.769  42.438  18.934  1.00  0.00     0.044 C 
HETATM   34  C24 UNL     1      32.472  42.493  18.944  1.00  0.00     0.013 C 
BRANCH  34  35
HETATM   35  C25 UNL     1      31.649  41.357  18.592  1.00  0.00    -0.036 A 
HETATM   36  C26 UNL     1      31.714  40.121  19.197  1.00  0.00     0.011 A 
HETATM   37  C27 UNL     1      30.928  39.050  18.854  1.00  0.00     0.001 A 
HETATM   38  C28 UNL     1      30.013  39.206  17.846  1.00  0.00     0.000 A 
HETATM   39  C29 UNL     1      29.923  40.442  17.217  1.00  0.00     0.001 A 
HETATM   40  C30 UNL     1      30.707  41.493  17.565  1.00  0.00     0.011 A 
ENDBRANCH  34  35
ENDBRANCH   5  33
BRANCH   4  41
HETATM   41  N1  UNL     1      34.608  44.208  16.986  1.00  0.00    -0.311 N 
ATOM     42  H1  UNL     1      34.621  43.672  16.118  1.00  0.00     0.182 HD
BRANCH  41  43
HETATM   43  N2  UNL     1      33.838  45.171  17.142  1.00  0.00    -0.253 N 
HETATM   44  N3  UNL     1      32.786  45.802  17.042  1.00  0.00    -0.331 N 
ATOM     45  H32 UNL     1      32.236  45.116  16.526  1.00  0.00     0.178 HD
ATOM     46  H31 UNL     1      32.155  46.593  17.171  1.00  0.00     0.178 HD
ATOM     47  H2  UNL     1      34.426  45.826  17.659  1.00  0.00     0.207 HD
ENDBRANCH  41  43
ENDBRANCH   4  41
TORSDOF 12
ENDMDL
