MODEL 1
REMARK VINA RESULT: -9.572243479      0.000      0.000
REMARK  10 active torsions:
REMARK  status: ('A' for Active; 'I' for Inactive)
REMARK    1  A    between atoms: N1_2  and  C2_5 
REMARK    2  A    between atoms: C2_5  and  C3_6 
REMARK    3  A    between atoms: C4_9  and  C5_10 
REMARK    4  A    between atoms: C5_10  and  N3_11 
REMARK    5  A    between atoms: C5_10  and  C17_29 
REMARK       I    between atoms: N3_11  and  C6_13 
REMARK    6  A    between atoms: C6_13  and  C7_15 
REMARK    7  A    between atoms: C7_15  and  O2_16 
REMARK    8  A    between atoms: O2_16  and  C8_17 
REMARK    9  A    between atoms: C8_17  and  C9_19 
REMARK       I    between atoms: C17_29  and  N4_31 
REMARK   10  A    between atoms: N4_31  and  C18_33 
ROOT
HETATM    1  C5  UNL     1      13.290 -26.527  -2.511  1.00  0.00     0.246 C 
ENDROOT
BRANCH   1   2
HETATM    2  C4  UNL     1      12.453 -25.500  -3.162  1.00  0.00     0.136 A 
HETATM    3  N2  UNL     1      11.296 -25.515  -3.824  1.00  0.00    -0.323 N 
HETATM    4  C3  UNL     1      11.046 -24.282  -4.234  1.00  0.00     0.184 A 
ATOM      5  H2  UNL     1      10.708 -26.333  -3.986  1.00  0.00     0.169 HD
HETATM    6  O5  UNL     1      12.041 -23.497  -3.829  1.00  0.00    -0.220 OA
HETATM    7  N5  UNL     1      12.868 -24.214  -3.199  1.00  0.00    -0.244 N 
ATOM      8  H5  UNL     1      13.730 -23.871  -2.776  1.00  0.00     0.196 HD
BRANCH   4   9
HETATM    9  C2  UNL     1       9.931 -23.652  -5.016  1.00  0.00     0.191 A 
HETATM   10  C22 UNL     1      10.469 -23.102  -6.366  1.00  0.00     0.050 A 
HETATM   11  C23 UNL     1       9.431 -24.160  -6.285  1.00  0.00     0.050 A 
BRANCH   9  12
HETATM   12  N1  UNL     1       9.275 -22.612  -4.239  1.00  0.00    -0.062 N 
HETATM   13  C1  UNL     1       8.919 -23.040  -2.911  1.00  0.00     0.268 C 
ATOM     14  H12 UNL     1       8.462 -22.246  -4.734  1.00  0.00     0.278 HD
ATOM     15  H11 UNL     1       9.846 -21.766  -4.207  1.00  0.00     0.278 HD
ENDBRANCH   9  12
ENDBRANCH   4   9
ENDBRANCH   1   2
BRANCH   1  16
HETATM   16  N3  UNL     1      13.443 -27.800  -3.072  1.00  0.00    -0.339 N 
HETATM   17  C6  UNL     1      13.075 -28.474  -4.231  1.00  0.00     0.254 C 
HETATM   18  O1  UNL     1      12.417 -27.937  -5.135  1.00  0.00    -0.270 OA
ATOM     19  H3  UNL     1      13.978 -28.409  -2.451  1.00  0.00     0.163 HD
BRANCH  17  20
HETATM   20  C7  UNL     1      13.471 -29.920  -4.439  1.00  0.00     0.151 A 
HETATM   21  C15 UNL     1      13.290 -30.893  -3.313  1.00  0.00     0.052 A 
HETATM   22  C16 UNL     1      12.262 -30.827  -4.347  1.00  0.00     0.052 A 
BRANCH  20  23
HETATM   23  O2  UNL     1      14.532 -30.187  -5.255  1.00  0.00    -0.296 OA
BRANCH  23  24
HETATM   24  C8  UNL     1      15.763 -30.758  -5.117  1.00  0.00     0.296 C 
HETATM   25  O3  UNL     1      15.988 -31.747  -5.849  1.00  0.00    -0.259 OA
BRANCH  24  26
HETATM   26  C9  UNL     1      16.715 -30.202  -4.145  1.00  0.00     0.061 A 
HETATM   27  C10 UNL     1      17.026 -28.859  -4.145  1.00  0.00     0.021 A 
HETATM   28  C11 UNL     1      17.890 -28.272  -3.257  1.00  0.00     0.025 A 
HETATM   29  C12 UNL     1      18.481 -29.083  -2.307  1.00  0.00     0.035 A 
HETATM   30 CL1  UNL     1      19.594 -28.313  -1.182  1.00  0.00    -0.084 Cl
HETATM   31  C13 UNL     1      18.198 -30.430  -2.269  1.00  0.00     0.048 A 
HETATM   32  C14 UNL     1      17.298 -30.995  -3.206  1.00  0.00     0.051 A 
HETATM   33 CL2  UNL     1      16.985 -32.712  -3.084  1.00  0.00    -0.083 Cl
ENDBRANCH  24  26
ENDBRANCH  23  24
ENDBRANCH  20  23
ENDBRANCH  17  20
ENDBRANCH   1  16
BRANCH   1  34
HETATM   34  C17 UNL     1      14.639 -25.842  -2.356  1.00  0.00     0.248 C 
HETATM   35  O4  UNL     1      15.271 -25.640  -3.407  1.00  0.00    -0.271 OA
HETATM   36  N4  UNL     1      15.070 -25.495  -1.090  1.00  0.00    -0.354 N 
ATOM     37  H4  UNL     1      14.426 -25.742  -0.338  1.00  0.00     0.162 HD
BRANCH  36  38
HETATM   38  C18 UNL     1      16.271 -24.845  -0.660  1.00  0.00     0.084 C 
HETATM   39  C19 UNL     1      17.539 -25.590  -0.740  1.00  0.00     0.025 C 
HETATM   40  C20 UNL     1      17.855 -25.195   0.675  1.00  0.00     0.004 C 
HETATM   41  C21 UNL     1      16.427 -24.749   0.841  1.00  0.00     0.025 C 
ENDBRANCH  36  38
ENDBRANCH   1  34
TORSDOF 10
ENDMDL
MODEL 2
REMARK VINA RESULT: -9.137331781      0.949      1.334
REMARK  10 active torsions:
REMARK  status: ('A' for Active; 'I' for Inactive)
REMARK    1  A    between atoms: N1_2  and  C2_5 
REMARK    2  A    between atoms: C2_5  and  C3_6 
REMARK    3  A    between atoms: C4_9  and  C5_10 
REMARK    4  A    between atoms: C5_10  and  N3_11 
REMARK    5  A    between atoms: C5_10  and  C17_29 
REMARK       I    between atoms: N3_11  and  C6_13 
REMARK    6  A    between atoms: C6_13  and  C7_15 
REMARK    7  A    between atoms: C7_15  and  O2_16 
REMARK    8  A    between atoms: O2_16  and  C8_17 
REMARK    9  A    between atoms: C8_17  and  C9_19 
REMARK       I    between atoms: C17_29  and  N4_31 
REMARK   10  A    between atoms: N4_31  and  C18_33 
ROOT
HETATM    1  C5  UNL     1      12.800 -26.209  -2.691  1.00  0.00     0.246 C 
ENDROOT
BRANCH   1   2
HETATM    2  C4  UNL     1      11.927 -25.305  -3.465  1.00  0.00     0.136 A 
HETATM    3  N2  UNL     1      11.716 -25.089  -4.764  1.00  0.00    -0.323 N 
HETATM    4  C3  UNL     1      10.840 -24.104  -4.875  1.00  0.00     0.184 A 
ATOM      5  H2  UNL     1      12.154 -25.595  -5.535  1.00  0.00     0.169 HD
HETATM    6  O5  UNL     1      10.502 -23.705  -3.652  1.00  0.00    -0.220 OA
HETATM    7  N5  UNL     1      11.142 -24.411  -2.823  1.00  0.00    -0.244 N 
ATOM      8  H5  UNL     1      11.075 -24.320  -1.810  1.00  0.00     0.196 HD
BRANCH   4   9
HETATM    9  C2  UNL     1      10.207 -23.402  -6.040  1.00  0.00     0.191 A 
HETATM   10  C22 UNL     1       9.004 -24.229  -6.574  1.00  0.00     0.050 A 
HETATM   11  C23 UNL     1       8.858 -22.854  -6.031  1.00  0.00     0.050 A 
BRANCH   9  12
HETATM   12  N1  UNL     1      11.184 -23.146  -7.086  1.00  0.00    -0.062 N 
HETATM   13  C1  UNL     1      10.680 -22.295  -8.133  1.00  0.00     0.268 C 
ATOM     14  H12 UNL     1      11.545 -24.019  -7.469  1.00  0.00     0.278 HD
ATOM     15  H11 UNL     1      12.047 -22.766  -6.693  1.00  0.00     0.278 HD
ENDBRANCH   9  12
ENDBRANCH   4   9
ENDBRANCH   1   2
BRANCH   1  16
HETATM   16  N3  UNL     1      13.087 -27.502  -3.142  1.00  0.00    -0.339 N 
HETATM   17  C6  UNL     1      12.829 -28.293  -4.256  1.00  0.00     0.254 C 
HETATM   18  O1  UNL     1      12.166 -27.888  -5.223  1.00  0.00    -0.270 OA
ATOM     19  H3  UNL     1      13.647 -28.011  -2.457  1.00  0.00     0.163 HD
BRANCH  17  20
HETATM   20  C7  UNL     1      13.358 -29.709  -4.334  1.00  0.00     0.151 A 
HETATM   21  C15 UNL     1      13.272 -30.586  -3.121  1.00  0.00     0.052 A 
HETATM   22  C16 UNL     1      12.240 -30.712  -4.146  1.00  0.00     0.052 A 
BRANCH  20  23
HETATM   23  O2  UNL     1      14.438 -29.950  -5.134  1.00  0.00    -0.296 OA
BRANCH  23  24
HETATM   24  C8  UNL     1      15.608 -30.643  -5.027  1.00  0.00     0.296 C 
HETATM   25  O3  UNL     1      15.679 -31.697  -5.698  1.00  0.00    -0.259 OA
BRANCH  24  26
HETATM   26  C9  UNL     1      16.676 -30.133  -4.156  1.00  0.00     0.061 A 
HETATM   27  C10 UNL     1      17.027 -28.800  -4.169  1.00  0.00     0.021 A 
HETATM   28  C11 UNL     1      17.999 -28.254  -3.372  1.00  0.00     0.025 A 
HETATM   29  C12 UNL     1      18.663 -29.099  -2.503  1.00  0.00     0.035 A 
HETATM   30 CL1  UNL     1      19.914 -28.383  -1.493  1.00  0.00    -0.084 Cl
HETATM   31  C13 UNL     1      18.344 -30.438  -2.455  1.00  0.00     0.048 A 
HETATM   32  C14 UNL     1      17.332 -30.959  -3.297  1.00  0.00     0.051 A 
HETATM   33 CL2  UNL     1      16.980 -32.668  -3.168  1.00  0.00    -0.083 Cl
ENDBRANCH  24  26
ENDBRANCH  23  24
ENDBRANCH  20  23
ENDBRANCH  17  20
ENDBRANCH   1  16
BRANCH   1  34
HETATM   34  C17 UNL     1      14.079 -25.405  -2.513  1.00  0.00     0.248 C 
HETATM   35  O4  UNL     1      14.358 -24.616  -3.432  1.00  0.00    -0.271 OA
HETATM   36  N4  UNL     1      14.834 -25.595  -1.372  1.00  0.00    -0.354 N 
ATOM     37  H4  UNL     1      14.460 -26.289  -0.724  1.00  0.00     0.162 HD
BRANCH  36  38
HETATM   38  C18 UNL     1      16.055 -24.979  -0.950  1.00  0.00     0.084 C 
HETATM   39  C19 UNL     1      17.287 -25.786  -0.953  1.00  0.00     0.025 C 
HETATM   40  C20 UNL     1      17.588 -25.324   0.444  1.00  0.00     0.004 C 
HETATM   41  C21 UNL     1      16.180 -24.801   0.547  1.00  0.00     0.025 C 
ENDBRANCH  36  38
ENDBRANCH   1  34
TORSDOF 10
ENDMDL
MODEL 3
REMARK VINA RESULT: -8.764790680      4.704      7.047
REMARK  10 active torsions:
REMARK  status: ('A' for Active; 'I' for Inactive)
REMARK    1  A    between atoms: N1_2  and  C2_5 
REMARK    2  A    between atoms: C2_5  and  C3_6 
REMARK    3  A    between atoms: C4_9  and  C5_10 
REMARK    4  A    between atoms: C5_10  and  N3_11 
REMARK    5  A    between atoms: C5_10  and  C17_29 
REMARK       I    between atoms: N3_11  and  C6_13 
REMARK    6  A    between atoms: C6_13  and  C7_15 
REMARK    7  A    between atoms: C7_15  and  O2_16 
REMARK    8  A    between atoms: O2_16  and  C8_17 
REMARK    9  A    between atoms: C8_17  and  C9_19 
REMARK       I    between atoms: C17_29  and  N4_31 
REMARK   10  A    between atoms: N4_31  and  C18_33 
ROOT
HETATM    1  C5  UNL     1      17.468 -28.356  -1.845  1.00  0.00     0.246 C 
ENDROOT
BRANCH   1   2
HETATM    2  C4  UNL     1      16.557 -28.629  -2.973  1.00  0.00     0.136 A 
HETATM    3  N2  UNL     1      15.473 -29.387  -3.140  1.00  0.00    -0.323 N 
HETATM    4  C3  UNL     1      15.092 -29.279  -4.403  1.00  0.00     0.184 A 
ATOM      5  H2  UNL     1      15.018 -29.950  -2.422  1.00  0.00     0.169 HD
HETATM    6  O5  UNL     1      15.932 -28.455  -5.024  1.00  0.00    -0.220 OA
HETATM    7  N5  UNL     1      16.794 -28.074  -4.182  1.00  0.00    -0.244 N 
ATOM      8  H5  UNL     1      17.562 -27.436  -4.387  1.00  0.00     0.196 HD
BRANCH   4   9
HETATM    9  C2  UNL     1      13.972 -29.872  -5.206  1.00  0.00     0.191 A 
HETATM   10  C22 UNL     1      12.746 -30.150  -4.292  1.00  0.00     0.050 A 
HETATM   11  C23 UNL     1      12.695 -29.213  -5.442  1.00  0.00     0.050 A 
BRANCH   9  12
HETATM   12  N1  UNL     1      14.408 -31.075  -5.896  1.00  0.00    -0.062 N 
HETATM   13  C1  UNL     1      15.433 -31.793  -5.183  1.00  0.00     0.268 C 
ATOM     14  H12 UNL     1      14.708 -30.861  -6.847  1.00  0.00     0.278 HD
ATOM     15  H11 UNL     1      13.616 -31.683  -6.103  1.00  0.00     0.278 HD
ENDBRANCH   9  12
ENDBRANCH   4   9
ENDBRANCH   1   2
BRANCH   1  16
HETATM   16  N3  UNL     1      18.856 -28.473  -1.988  1.00  0.00    -0.339 N 
HETATM   17  C6  UNL     1      19.775 -29.404  -2.458  1.00  0.00     0.254 C 
HETATM   18  O1  UNL     1      19.434 -30.504  -2.919  1.00  0.00    -0.270 OA
ATOM     19  H3  UNL     1      19.328 -27.634  -1.652  1.00  0.00     0.163 HD
BRANCH  17  20
HETATM   20  C7  UNL     1      21.258 -29.106  -2.426  1.00  0.00     0.151 A 
HETATM   21  C15 UNL     1      21.711 -27.691  -2.228  1.00  0.00     0.052 A 
HETATM   22  C16 UNL     1      21.671 -28.577  -1.069  1.00  0.00     0.052 A 
BRANCH  20  23
HETATM   23  O2  UNL     1      22.085 -29.864  -3.204  1.00  0.00    -0.296 OA
BRANCH  23  24
HETATM   24  C8  UNL     1      22.917 -30.928  -3.012  1.00  0.00     0.296 C 
HETATM   25  O3  UNL     1      22.373 -31.974  -2.593  1.00  0.00    -0.259 OA
BRANCH  24  26
HETATM   26  C9  UNL     1      24.352 -30.786  -3.292  1.00  0.00     0.061 A 
HETATM   27  C10 UNL     1      25.234 -30.408  -2.301  1.00  0.00     0.021 A 
HETATM   28  C11 UNL     1      26.586 -30.274  -2.488  1.00  0.00     0.025 A 
HETATM   29  C12 UNL     1      27.087 -30.536  -3.749  1.00  0.00     0.035 A 
HETATM   30 CL1  UNL     1      28.823 -30.350  -3.972  1.00  0.00    -0.084 Cl
HETATM   31  C13 UNL     1      26.243 -30.918  -4.768  1.00  0.00     0.048 A 
HETATM   32  C14 UNL     1      24.852 -31.045  -4.530  1.00  0.00     0.051 A 
HETATM   33 CL2  UNL     1      23.850 -31.543  -5.874  1.00  0.00    -0.083 Cl
ENDBRANCH  24  26
ENDBRANCH  23  24
ENDBRANCH  20  23
ENDBRANCH  17  20
ENDBRANCH   1  16
BRANCH   1  34
HETATM   34  C17 UNL     1      17.089 -26.948  -1.412  1.00  0.00     0.248 C 
HETATM   35  O4  UNL     1      16.110 -26.446  -1.990  1.00  0.00    -0.271 OA
HETATM   36  N4  UNL     1      17.836 -26.327  -0.430  1.00  0.00    -0.354 N 
ATOM     37  H4  UNL     1      18.611 -26.884  -0.069  1.00  0.00     0.162 HD
BRANCH  36  38
HETATM   38  C18 UNL     1      17.701 -25.032   0.165  1.00  0.00     0.084 C 
HETATM   39  C19 UNL     1      18.734 -24.584   1.114  1.00  0.00     0.025 C 
HETATM   40  C20 UNL     1      17.660 -24.181   2.085  1.00  0.00     0.004 C 
HETATM   41  C21 UNL     1      16.663 -24.952   1.261  1.00  0.00     0.025 C 
ENDBRANCH  36  38
ENDBRANCH   1  34
TORSDOF 10
ENDMDL
MODEL 4
REMARK VINA RESULT: -8.487460872      1.437      5.495
REMARK  10 active torsions:
REMARK  status: ('A' for Active; 'I' for Inactive)
REMARK    1  A    between atoms: N1_2  and  C2_5 
REMARK    2  A    between atoms: C2_5  and  C3_6 
REMARK    3  A    between atoms: C4_9  and  C5_10 
REMARK    4  A    between atoms: C5_10  and  N3_11 
REMARK    5  A    between atoms: C5_10  and  C17_29 
REMARK       I    between atoms: N3_11  and  C6_13 
REMARK    6  A    between atoms: C6_13  and  C7_15 
REMARK    7  A    between atoms: C7_15  and  O2_16 
REMARK    8  A    between atoms: O2_16  and  C8_17 
REMARK    9  A    between atoms: C8_17  and  C9_19 
REMARK       I    between atoms: C17_29  and  N4_31 
REMARK   10  A    between atoms: N4_31  and  C18_33 
ROOT
HETATM    1  C5  UNL     1      14.667 -26.177  -2.865  1.00  0.00     0.246 C 
ENDROOT
BRANCH   1   2
HETATM    2  C4  UNL     1      15.477 -25.799  -1.691  1.00  0.00     0.136 A 
HETATM    3  N2  UNL     1      16.523 -26.334  -1.061  1.00  0.00    -0.323 N 
HETATM    4  C3  UNL     1      16.803 -25.572  -0.017  1.00  0.00     0.184 A 
ATOM      5  H2  UNL     1      17.019 -27.183  -1.336  1.00  0.00     0.169 HD
HETATM    6  O5  UNL     1      15.938 -24.561   0.007  1.00  0.00    -0.220 OA
HETATM    7  N5  UNL     1      15.158 -24.696  -0.977  1.00  0.00    -0.244 N 
ATOM      8  H5  UNL     1      14.393 -24.060  -1.202  1.00  0.00     0.196 HD
BRANCH   4   9
HETATM    9  C2  UNL     1      17.838 -25.633   1.067  1.00  0.00     0.191 A 
HETATM   10  C22 UNL     1      17.153 -25.790   2.453  1.00  0.00     0.050 A 
HETATM   11  C23 UNL     1      18.087 -26.802   1.898  1.00  0.00     0.050 A 
BRANCH   9  12
HETATM   12  N1  UNL     1      18.701 -24.463   1.027  1.00  0.00    -0.062 N 
HETATM   13  C1  UNL     1      20.080 -24.788   0.769  1.00  0.00     0.268 C 
ATOM     14  H12 UNL     1      18.610 -23.914   1.882  1.00  0.00     0.278 HD
ATOM     15  H11 UNL     1      18.356 -23.779   0.353  1.00  0.00     0.278 HD
ENDBRANCH   9  12
ENDBRANCH   4   9
ENDBRANCH   1   2
BRANCH   1  16
HETATM   16  N3  UNL     1      14.459 -27.519  -3.202  1.00  0.00    -0.339 N 
HETATM   17  C6  UNL     1      13.554 -28.276  -3.937  1.00  0.00     0.254 C 
HETATM   18  O1  UNL     1      12.589 -27.770  -4.532  1.00  0.00    -0.270 OA
ATOM     19  H3  UNL     1      15.179 -28.113  -2.789  1.00  0.00     0.163 HD
BRANCH  17  20
HETATM   20  C7  UNL     1      13.712 -29.777  -4.043  1.00  0.00     0.151 A 
HETATM   21  C15 UNL     1      13.515 -30.617  -2.817  1.00  0.00     0.052 A 
HETATM   22  C16 UNL     1      12.402 -30.478  -3.751  1.00  0.00     0.052 A 
BRANCH  20  23
HETATM   23  O2  UNL     1      14.629 -30.268  -4.927  1.00  0.00    -0.296 OA
BRANCH  23  24
HETATM   24  C8  UNL     1      15.903 -30.751  -4.858  1.00  0.00     0.296 C 
HETATM   25  O3  UNL     1      16.163 -31.707  -5.623  1.00  0.00    -0.259 OA
BRANCH  24  26
HETATM   26  C9  UNL     1      16.859 -30.148  -3.919  1.00  0.00     0.061 A 
HETATM   27  C10 UNL     1      17.356 -28.879  -4.131  1.00  0.00     0.021 A 
HETATM   28  C11 UNL     1      18.235 -28.250  -3.288  1.00  0.00     0.025 A 
HETATM   29  C12 UNL     1      18.642 -28.935  -2.159  1.00  0.00     0.035 A 
HETATM   30 CL1  UNL     1      19.777 -28.115  -1.093  1.00  0.00    -0.084 Cl
HETATM   31  C13 UNL     1      18.169 -30.204  -1.908  1.00  0.00     0.048 A 
HETATM   32  C14 UNL     1      17.262 -30.816  -2.806  1.00  0.00     0.051 A 
HETATM   33 CL2  UNL     1      16.701 -32.426  -2.409  1.00  0.00    -0.083 Cl
ENDBRANCH  24  26
ENDBRANCH  23  24
ENDBRANCH  20  23
ENDBRANCH  17  20
ENDBRANCH   1  16
BRANCH   1  34
HETATM   34  C17 UNL     1      13.340 -25.470  -2.627  1.00  0.00     0.248 C 
HETATM   35  O4  UNL     1      12.698 -25.842  -1.631  1.00  0.00    -0.271 OA
HETATM   36  N4  UNL     1      12.941 -24.485  -3.509  1.00  0.00    -0.354 N 
ATOM     37  H4  UNL     1      13.590 -24.312  -4.277  1.00  0.00     0.162 HD
BRANCH  36  38
HETATM   38  C18 UNL     1      11.766 -23.666  -3.521  1.00  0.00     0.084 C 
HETATM   39  C19 UNL     1      10.460 -24.316  -3.723  1.00  0.00     0.025 C 
HETATM   40  C20 UNL     1      10.122 -23.299  -4.775  1.00  0.00     0.004 C 
HETATM   41  C21 UNL     1      11.567 -22.879  -4.797  1.00  0.00     0.025 C 
ENDBRANCH  36  38
ENDBRANCH   1  34
TORSDOF 10
ENDMDL
MODEL 5
REMARK VINA RESULT: -8.414922119      4.087      7.603
REMARK  10 active torsions:
REMARK  status: ('A' for Active; 'I' for Inactive)
REMARK    1  A    between atoms: N1_2  and  C2_5 
REMARK    2  A    between atoms: C2_5  and  C3_6 
REMARK    3  A    between atoms: C4_9  and  C5_10 
REMARK    4  A    between atoms: C5_10  and  N3_11 
REMARK    5  A    between atoms: C5_10  and  C17_29 
REMARK       I    between atoms: N3_11  and  C6_13 
REMARK    6  A    between atoms: C6_13  and  C7_15 
REMARK    7  A    between atoms: C7_15  and  O2_16 
REMARK    8  A    between atoms: O2_16  and  C8_17 
REMARK    9  A    between atoms: C8_17  and  C9_19 
REMARK       I    between atoms: C17_29  and  N4_31 
REMARK   10  A    between atoms: N4_31  and  C18_33 
ROOT
HETATM    1  C5  UNL     1      18.881 -26.768   0.070  1.00  0.00     0.246 C 
ENDROOT
BRANCH   1   2
HETATM    2  C4  UNL     1      19.234 -25.617   0.923  1.00  0.00     0.136 A 
HETATM    3  N2  UNL     1      19.028 -24.302   0.856  1.00  0.00    -0.323 N 
HETATM    4  C3  UNL     1      19.627 -23.742   1.895  1.00  0.00     0.184 A 
ATOM      5  H2  UNL     1      18.501 -23.813   0.132  1.00  0.00     0.169 HD
HETATM    6  O5  UNL     1      20.205 -24.703   2.611  1.00  0.00    -0.220 OA
HETATM    7  N5  UNL     1      19.974 -25.805   2.039  1.00  0.00    -0.244 N 
ATOM      8  H5  UNL     1      20.300 -26.712   2.373  1.00  0.00     0.196 HD
BRANCH   4   9
HETATM    9  C2  UNL     1      19.767 -22.329   2.378  1.00  0.00     0.191 A 
HETATM   10  C22 UNL     1      18.472 -21.882   3.112  1.00  0.00     0.050 A 
HETATM   11  C23 UNL     1      19.796 -21.942   3.781  1.00  0.00     0.050 A 
BRANCH   9  12
HETATM   12  N1  UNL     1      20.094 -21.435   1.279  1.00  0.00    -0.062 N 
HETATM   13  C1  UNL     1      21.183 -20.543   1.582  1.00  0.00     0.268 C 
ATOM     14  H12 UNL     1      19.271 -20.914   0.976  1.00  0.00     0.278 HD
ATOM     15  H11 UNL     1      20.282 -21.961   0.425  1.00  0.00     0.278 HD
ENDBRANCH   9  12
ENDBRANCH   4   9
ENDBRANCH   1   2
BRANCH   1  16
HETATM   16  N3  UNL     1      17.790 -26.715  -0.805  1.00  0.00    -0.339 N 
HETATM   17  C6  UNL     1      16.534 -26.122  -0.862  1.00  0.00     0.254 C 
HETATM   18  O1  UNL     1      16.097 -25.397   0.045  1.00  0.00    -0.270 OA
ATOM     19  H3  UNL     1      17.968 -27.271  -1.642  1.00  0.00     0.163 HD
BRANCH  17  20
HETATM   20  C7  UNL     1      15.632 -26.342  -2.057  1.00  0.00     0.151 A 
HETATM   21  C15 UNL     1      14.332 -25.598  -2.134  1.00  0.00     0.052 A 
HETATM   22  C16 UNL     1      15.482 -25.067  -2.859  1.00  0.00     0.052 A 
BRANCH  20  23
HETATM   23  O2  UNL     1      15.612 -27.580  -2.631  1.00  0.00    -0.296 OA
BRANCH  23  24
HETATM   24  C8  UNL     1      16.198 -28.176  -3.709  1.00  0.00     0.296 C 
HETATM   25  O3  UNL     1      16.665 -27.400  -4.571  1.00  0.00    -0.259 OA
BRANCH  24  26
HETATM   26  C9  UNL     1      16.238 -29.643  -3.794  1.00  0.00     0.061 A 
HETATM   27  C10 UNL     1      17.313 -30.353  -3.302  1.00  0.00     0.021 A 
HETATM   28  C11 UNL     1      17.408 -31.720  -3.332  1.00  0.00     0.025 A 
HETATM   29  C12 UNL     1      16.357 -32.423  -3.892  1.00  0.00     0.035 A 
HETATM   30 CL1  UNL     1      16.500 -34.176  -3.930  1.00  0.00    -0.084 Cl
HETATM   31  C13 UNL     1      15.263 -31.754  -4.395  1.00  0.00     0.048 A 
HETATM   32  C14 UNL     1      15.207 -30.340  -4.342  1.00  0.00     0.051 A 
HETATM   33 CL2  UNL     1      13.779 -29.568  -4.993  1.00  0.00    -0.083 Cl
ENDBRANCH  24  26
ENDBRANCH  23  24
ENDBRANCH  20  23
ENDBRANCH  17  20
ENDBRANCH   1  16
BRANCH   1  34
HETATM   34  C17 UNL     1      20.167 -27.057  -0.690  1.00  0.00     0.248 C 
HETATM   35  O4  UNL     1      21.025 -26.158  -0.670  1.00  0.00    -0.271 OA
HETATM   36  N4  UNL     1      20.300 -28.268  -1.341  1.00  0.00    -0.354 N 
ATOM     37  H4  UNL     1      19.493 -28.887  -1.259  1.00  0.00     0.162 HD
BRANCH  36  38
HETATM   38  C18 UNL     1      21.385 -28.798  -2.111  1.00  0.00     0.084 C 
HETATM   39  C19 UNL     1      21.221 -30.121  -2.737  1.00  0.00     0.025 C 
HETATM   40  C20 UNL     1      22.554 -30.541  -2.186  1.00  0.00     0.004 C 
HETATM   41  C21 UNL     1      22.534 -29.334  -1.287  1.00  0.00     0.025 C 
ENDBRANCH  36  38
ENDBRANCH   1  34
TORSDOF 10
ENDMDL
