MODEL 1
REMARK VINA RESULT: -7.654035198      0.000      0.000
REMARK  12 active torsions:
REMARK  status: ('A' for Active; 'I' for Inactive)
REMARK    1  A    between atoms: C2_2  and  C3_3 
REMARK    2  A    between atoms: C2_2  and  C10_15 
REMARK    3  A    between atoms: C3_3  and  O1_4 
REMARK    4  A    between atoms: O1_4  and  C4_5 
REMARK    5  A    between atoms: C4_5  and  C5_7 
REMARK    6  A    between atoms: C5_7  and  O3_8 
REMARK    7  A    between atoms: C5_7  and  C6_10 
REMARK    8  A    between atoms: C14_19  and  C15_20 
REMARK    9  A    between atoms: C15_20  and  O4_21 
REMARK   10  A    between atoms: C15_20  and  C16_23 
REMARK   11  A    between atoms: C16_23  and  C18_25 
REMARK   12  A    between atoms: C23_30  and  O5_31 
ROOT
HETATM    1  C6  UNL     1      26.018 -30.351  -2.592  1.00  0.00     0.077 C 
HETATM    2  C7  UNL     1      27.363 -30.129  -1.932  1.00  0.00     0.034 C 
HETATM    3  C8  UNL     1      25.285 -29.014  -2.503  1.00  0.00     0.034 C 
HETATM    4  C9  UNL     1      26.153 -30.755  -3.976  1.00  0.00     0.071 C 
HETATM    5  N1  UNL     1      26.243 -31.081  -5.080  1.00  0.00    -0.196 NA
ENDROOT
BRANCH   1   6
HETATM    6  C5  UNL     1      25.204 -31.362  -1.828  1.00  0.00     0.239 C 
BRANCH   6   7
HETATM    7  C4  UNL     1      25.157 -30.940  -0.407  1.00  0.00     0.289 C 
HETATM    8  O2  UNL     1      25.963 -31.510   0.404  1.00  0.00    -0.262 OA
BRANCH   7   9
HETATM    9  O1  UNL     1      24.318 -29.986   0.108  1.00  0.00    -0.319 OA
BRANCH   9  10
HETATM   10  C3  UNL     1      24.794 -29.009   1.023  1.00  0.00     0.183 C 
BRANCH  10  11
HETATM   11  C2  UNL     1      23.847 -27.809   0.998  1.00  0.00     0.011 C 
HETATM   12  C1  UNL     1      23.375 -27.527   2.428  1.00  0.00     0.012 C 
BRANCH  11  13
HETATM   13  C10 UNL     1      22.704 -28.155   0.102  1.00  0.00     0.001 A 
HETATM   14  C11 UNL     1      21.319 -28.122   0.718  1.00  0.00     0.016 A 
HETATM   15  C12 UNL     1      20.854 -27.110  -0.224  1.00  0.00    -0.030 A 
HETATM   16  C13 UNL     1      20.508 -25.778   0.410  1.00  0.00     0.016 C 
HETATM   17  C14 UNL     1      19.976 -27.396  -1.378  1.00  0.00     0.024 C 
HETATM   18  C28 UNL     1      22.233 -27.148  -0.877  1.00  0.00    -0.032 A 
HETATM   19  C26 UNL     1      20.714 -28.475  -2.113  1.00  0.00     0.009 C 
HETATM   20  C27 UNL     1      22.080 -27.772  -2.236  1.00  0.00     0.011 C 
HETATM   21  C29 UNL     1      22.830 -25.782  -0.871  1.00  0.00     0.016 C 
BRANCH  17  22
HETATM   22  C15 UNL     1      18.530 -27.534  -1.182  1.00  0.00     0.128 C 
BRANCH  22  23
HETATM   23  O4  UNL     1      18.145 -26.429  -0.345  1.00  0.00    -0.395 OA
ATOM     24  H4  UNL     1      18.646 -26.529   0.456  1.00  0.00     0.210 HD
ENDBRANCH  22  23
BRANCH  22  25
HETATM   25  C16 UNL     1      17.638 -27.475  -2.336  1.00  0.00     0.025 C 
HETATM   26  C17 UNL     1      16.322 -26.841  -1.991  1.00  0.00     0.014 C 
BRANCH  25  27
HETATM   27  C18 UNL     1      17.357 -28.732  -3.106  1.00  0.00     0.060 C 
HETATM   28  C19 UNL     1      16.170 -28.911  -3.814  1.00  0.00    -0.176 C 
HETATM   29  C20 UNL     1      14.976 -29.025  -4.545  1.00  0.00     0.107 C 
HETATM   30  C21 UNL     1      14.351 -30.366  -4.015  1.00  0.00     0.119 A 
HETATM   31  C22 UNL     1      15.143 -31.088  -3.016  1.00  0.00     0.135 A 
HETATM   32  N2  UNL     1      15.090 -31.458  -4.341  1.00  0.00    -0.383 N 
HETATM   33  C23 UNL     1      16.139 -30.741  -2.098  1.00  0.00     0.144 C 
HETATM   34  C24 UNL     1      17.432 -30.004  -2.196  1.00  0.00     0.050 C 
HETATM   35  C25 UNL     1      15.587 -32.221  -5.263  1.00  0.00     0.116 C 
BRANCH  33  36
HETATM   36  O5  UNL     1      16.605 -31.961  -1.488  1.00  0.00    -0.393 OA
ATOM     37  H5  UNL     1      17.528 -31.845  -1.293  1.00  0.00     0.210 HD
ENDBRANCH  33  36
ENDBRANCH  25  27
ENDBRANCH  22  25
ENDBRANCH  17  22
ENDBRANCH  11  13
ENDBRANCH  10  11
ENDBRANCH   9  10
ENDBRANCH   7   9
ENDBRANCH   6   7
BRANCH   6  38
HETATM   38  O3  UNL     1      23.929 -31.520  -2.363  1.00  0.00    -0.384 OA
ATOM     39  H3  UNL     1      23.637 -30.739  -2.818  1.00  0.00     0.210 HD
ENDBRANCH   6  38
ENDBRANCH   1   6
TORSDOF 12
ENDMDL
MODEL 2
REMARK VINA RESULT: -7.654006036      1.913      8.732
REMARK  12 active torsions:
REMARK  status: ('A' for Active; 'I' for Inactive)
REMARK    1  A    between atoms: C2_2  and  C3_3 
REMARK    2  A    between atoms: C2_2  and  C10_15 
REMARK    3  A    between atoms: C3_3  and  O1_4 
REMARK    4  A    between atoms: O1_4  and  C4_5 
REMARK    5  A    between atoms: C4_5  and  C5_7 
REMARK    6  A    between atoms: C5_7  and  O3_8 
REMARK    7  A    between atoms: C5_7  and  C6_10 
REMARK    8  A    between atoms: C14_19  and  C15_20 
REMARK    9  A    between atoms: C15_20  and  O4_21 
REMARK   10  A    between atoms: C15_20  and  C16_23 
REMARK   11  A    between atoms: C16_23  and  C18_25 
REMARK   12  A    between atoms: C23_30  and  O5_31 
ROOT
HETATM    1  C6  UNL     1      13.581 -29.586  -4.497  1.00  0.00     0.077 C 
HETATM    2  C7  UNL     1      14.058 -28.388  -3.702  1.00  0.00     0.034 C 
HETATM    3  C8  UNL     1      12.742 -30.419  -3.530  1.00  0.00     0.034 C 
HETATM    4  C9  UNL     1      12.785 -29.195  -5.641  1.00  0.00     0.071 C 
HETATM    5  N1  UNL     1      12.151 -28.901  -6.560  1.00  0.00    -0.196 NA
ENDROOT
BRANCH   1   6
HETATM    6  C5  UNL     1      14.744 -30.439  -4.933  1.00  0.00     0.239 C 
BRANCH   6   7
HETATM    7  C4  UNL     1      15.012 -31.435  -3.869  1.00  0.00     0.289 C 
HETATM    8  O2  UNL     1      15.245 -32.638  -4.233  1.00  0.00    -0.262 OA
BRANCH   7   9
HETATM    9  O1  UNL     1      15.030 -31.172  -2.524  1.00  0.00    -0.319 OA
BRANCH   9  10
HETATM   10  C3  UNL     1      16.239 -31.237  -1.781  1.00  0.00     0.183 C 
BRANCH  10  11
HETATM   11  C2  UNL     1      17.347 -30.553  -2.583  1.00  0.00     0.011 C 
HETATM   12  C1  UNL     1      18.334 -31.621  -3.067  1.00  0.00     0.012 C 
BRANCH  11  13
HETATM   13  C10 UNL     1      18.009 -29.562  -1.684  1.00  0.00     0.001 A 
HETATM   14  C11 UNL     1      19.525 -29.575  -1.653  1.00  0.00     0.016 A 
HETATM   15  C12 UNL     1      19.610 -28.190  -2.101  1.00  0.00    -0.030 A 
HETATM   16  C13 UNL     1      20.243 -28.013  -3.467  1.00  0.00     0.016 C 
HETATM   17  C14 UNL     1      19.928 -27.051  -1.214  1.00  0.00     0.024 C 
HETATM   18  C28 UNL     1      18.085 -28.146  -2.114  1.00  0.00    -0.032 A 
HETATM   19  C26 UNL     1      18.907 -27.170  -0.122  1.00  0.00     0.009 C 
HETATM   20  C27 UNL     1      17.642 -27.238  -0.999  1.00  0.00     0.011 C 
HETATM   21  C29 UNL     1      17.603 -27.763  -3.472  1.00  0.00     0.016 C 
BRANCH  17  22
HETATM   22  C15 UNL     1      21.320 -26.768  -0.855  1.00  0.00     0.128 C 
BRANCH  22  23
HETATM   23  O4  UNL     1      21.257 -25.824   0.229  1.00  0.00    -0.395 OA
ATOM     24  H4  UNL     1      22.020 -25.268   0.129  1.00  0.00     0.210 HD
ENDBRANCH  22  23
BRANCH  22  25
HETATM   25  C16 UNL     1      22.175 -27.851  -0.376  1.00  0.00     0.025 C 
HETATM   26  C17 UNL     1      22.781 -27.534   0.960  1.00  0.00     0.014 C 
BRANCH  25  27
HETATM   27  C18 UNL     1      23.266 -28.366  -1.268  1.00  0.00     0.060 C 
HETATM   28  C19 UNL     1      23.102 -29.511  -2.045  1.00  0.00    -0.176 C 
HETATM   29  C20 UNL     1      22.872 -30.647  -2.839  1.00  0.00     0.107 C 
HETATM   30  C21 UNL     1      24.061 -31.603  -2.462  1.00  0.00     0.119 A 
HETATM   31  C22 UNL     1      25.025 -31.071  -1.495  1.00  0.00     0.135 A 
HETATM   32  N2  UNL     1      25.270 -31.120  -2.848  1.00  0.00    -0.383 N 
HETATM   33  C23 UNL     1      24.997 -30.086  -0.503  1.00  0.00     0.144 C 
HETATM   34  C24 UNL     1      24.585 -28.652  -0.473  1.00  0.00     0.050 C 
HETATM   35  C25 UNL     1      26.058 -30.754  -3.811  1.00  0.00     0.116 C 
BRANCH  33  36
HETATM   36  O5  UNL     1      26.335 -29.960   0.016  1.00  0.00    -0.393 OA
ATOM     37  H5  UNL     1      26.266 -29.882   0.961  1.00  0.00     0.210 HD
ENDBRANCH  33  36
ENDBRANCH  25  27
ENDBRANCH  22  25
ENDBRANCH  17  22
ENDBRANCH  11  13
ENDBRANCH  10  11
ENDBRANCH   9  10
ENDBRANCH   7   9
ENDBRANCH   6   7
BRANCH   6  38
HETATM   38  O3  UNL     1      14.515 -31.045  -6.164  1.00  0.00    -0.384 OA
ATOM     39  H3  UNL     1      13.768 -30.665  -6.613  1.00  0.00     0.210 HD
ENDBRANCH   6  38
ENDBRANCH   1   6
TORSDOF 12
ENDMDL
MODEL 3
REMARK VINA RESULT: -7.610184884      2.355      8.939
REMARK  12 active torsions:
REMARK  status: ('A' for Active; 'I' for Inactive)
REMARK    1  A    between atoms: C2_2  and  C3_3 
REMARK    2  A    between atoms: C2_2  and  C10_15 
REMARK    3  A    between atoms: C3_3  and  O1_4 
REMARK    4  A    between atoms: O1_4  and  C4_5 
REMARK    5  A    between atoms: C4_5  and  C5_7 
REMARK    6  A    between atoms: C5_7  and  O3_8 
REMARK    7  A    between atoms: C5_7  and  C6_10 
REMARK    8  A    between atoms: C14_19  and  C15_20 
REMARK    9  A    between atoms: C15_20  and  O4_21 
REMARK   10  A    between atoms: C15_20  and  C16_23 
REMARK   11  A    between atoms: C16_23  and  C18_25 
REMARK   12  A    between atoms: C23_30  and  O5_31 
ROOT
HETATM    1  C6  UNL     1      13.593 -29.785  -4.494  1.00  0.00     0.077 C 
HETATM    2  C7  UNL     1      14.006 -28.649  -3.582  1.00  0.00     0.034 C 
HETATM    3  C8  UNL     1      12.717 -30.704  -3.643  1.00  0.00     0.034 C 
HETATM    4  C9  UNL     1      12.851 -29.314  -5.644  1.00  0.00     0.071 C 
HETATM    5  N1  UNL     1      12.261 -28.955  -6.570  1.00  0.00    -0.196 NA
ENDROOT
BRANCH   1   6
HETATM    6  C5  UNL     1      14.791 -30.586  -4.933  1.00  0.00     0.239 C 
BRANCH   6   7
HETATM    7  C4  UNL     1      15.063 -31.615  -3.902  1.00  0.00     0.289 C 
HETATM    8  O2  UNL     1      15.407 -32.778  -4.307  1.00  0.00    -0.262 OA
BRANCH   7   9
HETATM    9  O1  UNL     1      14.975 -31.422  -2.548  1.00  0.00    -0.319 OA
BRANCH   9  10
HETATM   10  C3  UNL     1      16.143 -31.306  -1.747  1.00  0.00     0.183 C 
BRANCH  10  11
HETATM   11  C2  UNL     1      17.178 -30.475  -2.505  1.00  0.00     0.011 C 
HETATM   12  C1  UNL     1      18.405 -31.350  -2.781  1.00  0.00     0.012 C 
BRANCH  11  13
HETATM   13  C10 UNL     1      17.525 -29.299  -1.651  1.00  0.00     0.001 A 
HETATM   14  C11 UNL     1      18.960 -29.205  -1.170  1.00  0.00     0.016 A 
HETATM   15  C12 UNL     1      19.162 -27.917  -1.824  1.00  0.00    -0.030 A 
HETATM   16  C13 UNL     1      20.178 -27.940  -2.949  1.00  0.00     0.016 C 
HETATM   17  C14 UNL     1      19.183 -26.622  -1.112  1.00  0.00     0.024 C 
HETATM   18  C28 UNL     1      17.712 -27.979  -2.296  1.00  0.00    -0.032 A 
HETATM   19  C26 UNL     1      17.880 -26.617  -0.369  1.00  0.00     0.009 C 
HETATM   20  C27 UNL     1      16.942 -26.922  -1.553  1.00  0.00     0.011 C 
HETATM   21  C29 UNL     1      17.662 -27.872  -3.782  1.00  0.00     0.016 C 
BRANCH  17  22
HETATM   22  C15 UNL     1      20.397 -26.189  -0.415  1.00  0.00     0.128 C 
BRANCH  22  23
HETATM   23  O4  UNL     1      20.016 -25.025   0.340  1.00  0.00    -0.395 OA
ATOM     24  H4  UNL     1      20.673 -24.367   0.145  1.00  0.00     0.210 HD
ENDBRANCH  22  23
BRANCH  22  25
HETATM   25  C16 UNL     1      21.034 -27.083   0.547  1.00  0.00     0.025 C 
HETATM   26  C17 UNL     1      20.748 -26.674   1.962  1.00  0.00     0.014 C 
BRANCH  25  27
HETATM   27  C18 UNL     1      22.506 -27.348   0.432  1.00  0.00     0.060 C 
HETATM   28  C19 UNL     1      23.410 -26.342   0.096  1.00  0.00    -0.176 C 
HETATM   29  C20 UNL     1      24.284 -25.284  -0.206  1.00  0.00     0.107 C 
HETATM   30  C21 UNL     1      25.079 -25.813  -1.454  1.00  0.00     0.119 A 
HETATM   31  C22 UNL     1      24.744 -27.169  -1.896  1.00  0.00     0.135 A 
HETATM   32  N2  UNL     1      25.872 -26.876  -1.163  1.00  0.00    -0.383 N 
HETATM   33  C23 UNL     1      23.637 -28.013  -1.762  1.00  0.00     0.144 C 
HETATM   34  C24 UNL     1      22.819 -28.479  -0.605  1.00  0.00     0.050 C 
HETATM   35  C25 UNL     1      26.876 -27.358  -0.500  1.00  0.00     0.116 C 
BRANCH  33  36
HETATM   36  O5  UNL     1      23.998 -29.289  -2.327  1.00  0.00    -0.393 OA
ATOM     37  H5  UNL     1      23.303 -29.541  -2.924  1.00  0.00     0.210 HD
ENDBRANCH  33  36
ENDBRANCH  25  27
ENDBRANCH  22  25
ENDBRANCH  17  22
ENDBRANCH  11  13
ENDBRANCH  10  11
ENDBRANCH   9  10
ENDBRANCH   7   9
ENDBRANCH   6   7
BRANCH   6  38
HETATM   38  O3  UNL     1      14.610 -31.149  -6.192  1.00  0.00    -0.384 OA
ATOM     39  H3  UNL     1      14.358 -30.499  -6.838  1.00  0.00     0.210 HD
ENDBRANCH   6  38
ENDBRANCH   1   6
TORSDOF 12
ENDMDL
MODEL 4
REMARK VINA RESULT: -7.605186929      3.874      9.120
REMARK  12 active torsions:
REMARK  status: ('A' for Active; 'I' for Inactive)
REMARK    1  A    between atoms: C2_2  and  C3_3 
REMARK    2  A    between atoms: C2_2  and  C10_15 
REMARK    3  A    between atoms: C3_3  and  O1_4 
REMARK    4  A    between atoms: O1_4  and  C4_5 
REMARK    5  A    between atoms: C4_5  and  C5_7 
REMARK    6  A    between atoms: C5_7  and  O3_8 
REMARK    7  A    between atoms: C5_7  and  C6_10 
REMARK    8  A    between atoms: C14_19  and  C15_20 
REMARK    9  A    between atoms: C15_20  and  O4_21 
REMARK   10  A    between atoms: C15_20  and  C16_23 
REMARK   11  A    between atoms: C16_23  and  C18_25 
REMARK   12  A    between atoms: C23_30  and  O5_31 
ROOT
HETATM    1  C6  UNL     1      12.898 -30.210  -4.630  1.00  0.00     0.077 C 
HETATM    2  C7  UNL     1      12.885 -30.752  -3.215  1.00  0.00     0.034 C 
HETATM    3  C8  UNL     1      12.002 -31.145  -5.441  1.00  0.00     0.034 C 
HETATM    4  C9  UNL     1      12.394 -28.855  -4.695  1.00  0.00     0.071 C 
HETATM    5  N1  UNL     1      11.997 -27.772  -4.765  1.00  0.00    -0.196 NA
ENDROOT
BRANCH   1   6
HETATM    6  C5  UNL     1      14.280 -30.286  -5.222  1.00  0.00     0.239 C 
BRANCH   6   7
HETATM    7  C4  UNL     1      15.261 -30.017  -4.144  1.00  0.00     0.289 C 
HETATM    8  O2  UNL     1      16.140 -30.915  -3.910  1.00  0.00    -0.262 OA
BRANCH   7   9
HETATM    9  O1  UNL     1      15.303 -28.882  -3.377  1.00  0.00    -0.319 OA
BRANCH   9  10
HETATM   10  C3  UNL     1      16.283 -27.879  -3.606  1.00  0.00     0.183 C 
BRANCH  10  11
HETATM   11  C2  UNL     1      16.623 -27.209  -2.274  1.00  0.00     0.011 C 
HETATM   12  C1  UNL     1      16.004 -25.808  -2.256  1.00  0.00     0.012 C 
BRANCH  11  13
HETATM   13  C10 UNL     1      18.111 -27.152  -2.166  1.00  0.00     0.001 A 
HETATM   14  C11 UNL     1      18.681 -26.372  -0.996  1.00  0.00     0.016 A 
HETATM   15  C12 UNL     1      19.376 -27.542  -0.472  1.00  0.00    -0.030 A 
HETATM   16  C13 UNL     1      18.870 -28.019   0.875  1.00  0.00     0.016 C 
HETATM   17  C14 UNL     1      20.831 -27.768  -0.606  1.00  0.00     0.024 C 
HETATM   18  C28 UNL     1      18.836 -28.339  -1.656  1.00  0.00    -0.032 A 
HETATM   19  C26 UNL     1      21.062 -27.659  -2.084  1.00  0.00     0.009 C 
HETATM   20  C27 UNL     1      19.996 -28.668  -2.555  1.00  0.00     0.011 C 
HETATM   21  C29 UNL     1      18.066 -29.515  -1.161  1.00  0.00     0.016 C 
BRANCH  17  22
HETATM   22  C15 UNL     1      21.764 -27.102   0.307  1.00  0.00     0.128 C 
BRANCH  22  23
HETATM   23  O4  UNL     1      23.076 -27.528  -0.100  1.00  0.00    -0.395 OA
ATOM     24  H4  UNL     1      23.224 -27.126  -0.947  1.00  0.00     0.210 HD
ENDBRANCH  22  23
BRANCH  22  25
HETATM   25  C16 UNL     1      21.822 -25.643   0.339  1.00  0.00     0.025 C 
HETATM   26  C17 UNL     1      23.201 -25.135   0.031  1.00  0.00     0.014 C 
BRANCH  25  27
HETATM   27  C18 UNL     1      21.325 -24.920   1.555  1.00  0.00     0.060 C 
HETATM   28  C19 UNL     1      20.881 -25.603   2.687  1.00  0.00    -0.176 C 
HETATM   29  C20 UNL     1      20.483 -26.337   3.816  1.00  0.00     0.107 C 
HETATM   30  C21 UNL     1      19.031 -25.807   4.102  1.00  0.00     0.119 A 
HETATM   31  C22 UNL     1      18.550 -24.751   3.209  1.00  0.00     0.135 A 
HETATM   32  N2  UNL     1      19.010 -24.504   4.482  1.00  0.00    -0.383 N 
HETATM   33  C23 UNL     1      18.865 -24.324   1.915  1.00  0.00     0.144 C 
HETATM   34  C24 UNL     1      20.134 -23.961   1.220  1.00  0.00     0.050 C 
HETATM   35  C25 UNL     1      19.356 -23.598   5.342  1.00  0.00     0.116 C 
BRANCH  33  36
HETATM   36  O5  UNL     1      18.102 -23.128   1.659  1.00  0.00    -0.393 OA
ATOM     37  H5  UNL     1      17.603 -23.275   0.865  1.00  0.00     0.210 HD
ENDBRANCH  33  36
ENDBRANCH  25  27
ENDBRANCH  22  25
ENDBRANCH  17  22
ENDBRANCH  11  13
ENDBRANCH  10  11
ENDBRANCH   9  10
ENDBRANCH   7   9
ENDBRANCH   6   7
BRANCH   6  38
HETATM   38  O3  UNL     1      14.517 -31.508  -5.844  1.00  0.00    -0.384 OA
ATOM     39  H3  UNL     1      13.724 -32.027  -5.916  1.00  0.00     0.210 HD
ENDBRANCH   6  38
ENDBRANCH   1   6
TORSDOF 12
ENDMDL
MODEL 5
REMARK VINA RESULT: -7.517922463      4.608      8.195
REMARK  12 active torsions:
REMARK  status: ('A' for Active; 'I' for Inactive)
REMARK    1  A    between atoms: C2_2  and  C3_3 
REMARK    2  A    between atoms: C2_2  and  C10_15 
REMARK    3  A    between atoms: C3_3  and  O1_4 
REMARK    4  A    between atoms: O1_4  and  C4_5 
REMARK    5  A    between atoms: C4_5  and  C5_7 
REMARK    6  A    between atoms: C5_7  and  O3_8 
REMARK    7  A    between atoms: C5_7  and  C6_10 
REMARK    8  A    between atoms: C14_19  and  C15_20 
REMARK    9  A    between atoms: C15_20  and  O4_21 
REMARK   10  A    between atoms: C15_20  and  C16_23 
REMARK   11  A    between atoms: C16_23  and  C18_25 
REMARK   12  A    between atoms: C23_30  and  O5_31 
ROOT
HETATM    1  C6  UNL     1      16.636 -25.312   5.400  1.00  0.00     0.077 C 
HETATM    2  C7  UNL     1      17.387 -26.581   5.745  1.00  0.00     0.034 C 
HETATM    3  C8  UNL     1      16.200 -25.469   3.945  1.00  0.00     0.034 C 
HETATM    4  C9  UNL     1      15.480 -25.118   6.249  1.00  0.00     0.071 C 
HETATM    5  N1  UNL     1      14.556 -24.947   6.920  1.00  0.00    -0.196 NA
ENDROOT
BRANCH   1   6
HETATM    6  C5  UNL     1      17.546 -24.113   5.471  1.00  0.00     0.239 C 
BRANCH   6   7
HETATM    7  C4  UNL     1      17.090 -23.126   4.464  1.00  0.00     0.289 C 
HETATM    8  O2  UNL     1      16.148 -22.331   4.802  1.00  0.00    -0.262 OA
BRANCH   7   9
HETATM    9  O1  UNL     1      17.597 -22.995   3.197  1.00  0.00    -0.319 OA
BRANCH   9  10
HETATM   10  C3  UNL     1      18.792 -22.266   2.958  1.00  0.00     0.183 C 
BRANCH  10  11
HETATM   11  C2  UNL     1      19.949 -23.254   2.804  1.00  0.00     0.011 C 
HETATM   12  C1  UNL     1      21.054 -22.592   1.975  1.00  0.00     0.012 C 
BRANCH  11  13
HETATM   13  C10 UNL     1      19.413 -24.473   2.128  1.00  0.00     0.001 A 
HETATM   14  C11 UNL     1      19.512 -24.515   0.615  1.00  0.00     0.016 A 
HETATM   15  C12 UNL     1      20.325 -25.725   0.638  1.00  0.00    -0.030 A 
HETATM   16  C13 UNL     1      21.738 -25.539   0.121  1.00  0.00     0.016 C 
HETATM   17  C14 UNL     1      19.811 -27.073   0.313  1.00  0.00     0.024 C 
HETATM   18  C28 UNL     1      20.215 -25.718   2.160  1.00  0.00    -0.032 A 
HETATM   19  C26 UNL     1      18.643 -27.228   1.240  1.00  0.00     0.009 C 
HETATM   20  C27 UNL     1      19.354 -26.884   2.563  1.00  0.00     0.011 C 
HETATM   21  C29 UNL     1      21.579 -25.700   2.763  1.00  0.00     0.016 C 
BRANCH  17  22
HETATM   22  C15 UNL     1      19.665 -27.484  -1.086  1.00  0.00     0.128 C 
BRANCH  22  23
HETATM   23  O4  UNL     1      20.552 -28.604  -1.255  1.00  0.00    -0.395 OA
ATOM     24  H4  UNL     1      19.990 -29.364  -1.345  1.00  0.00     0.210 HD
ENDBRANCH  22  23
BRANCH  22  25
HETATM   25  C16 UNL     1      18.366 -27.941  -1.571  1.00  0.00     0.025 C 
HETATM   26  C17 UNL     1      18.492 -29.166  -2.430  1.00  0.00     0.014 C 
BRANCH  25  27
HETATM   27  C18 UNL     1      17.470 -26.970  -2.280  1.00  0.00     0.060 C 
HETATM   28  C19 UNL     1      16.532 -26.199  -1.596  1.00  0.00    -0.176 C 
HETATM   29  C20 UNL     1      15.631 -25.417  -0.854  1.00  0.00     0.107 C 
HETATM   30  C21 UNL     1      14.248 -25.701  -1.544  1.00  0.00     0.119 A 
HETATM   31  C22 UNL     1      14.285 -26.598  -2.702  1.00  0.00     0.135 A 
HETATM   32  N2  UNL     1      14.187 -25.230  -2.817  1.00  0.00    -0.383 N 
HETATM   33  C23 UNL     1      15.152 -27.595  -3.159  1.00  0.00     0.144 C 
HETATM   34  C24 UNL     1      16.623 -27.664  -3.399  1.00  0.00     0.050 C 
HETATM   35  C25 UNL     1      14.218 -24.215  -3.622  1.00  0.00     0.116 C 
BRANCH  33  36
HETATM   36  O5  UNL     1      14.679 -28.016  -4.453  1.00  0.00    -0.393 OA
ATOM     37  H5  UNL     1      14.413 -27.236  -4.926  1.00  0.00     0.210 HD
ENDBRANCH  33  36
ENDBRANCH  25  27
ENDBRANCH  22  25
ENDBRANCH  17  22
ENDBRANCH  11  13
ENDBRANCH  10  11
ENDBRANCH   9  10
ENDBRANCH   7   9
ENDBRANCH   6   7
BRANCH   6  38
HETATM   38  O3  UNL     1      17.591 -23.566   6.749  1.00  0.00    -0.384 OA
ATOM     39  H3  UNL     1      16.750 -23.211   7.012  1.00  0.00     0.210 HD
ENDBRANCH   6  38
ENDBRANCH   1   6
TORSDOF 12
ENDMDL
