MODEL 1
REMARK VINA RESULT: -5.828796729      0.000      0.000
REMARK  5 active torsions:
REMARK  status: ('A' for Active; 'I' for Inactive)
REMARK    1  A    between atoms: C2_2  and  C3_4 
REMARK    2  A    between atoms: C3_4  and  C4_5 
REMARK    3  A    between atoms: C3_4  and  C5_12 
REMARK    4  A    between atoms: C4_5  and  N1_6 
REMARK    5  A    between atoms: C4_5  and  O2_10 
ROOT
HETATM    1  C3  UNL     1      31.163   8.916  37.640  1.00  0.00     0.140 C 
ENDROOT
BRANCH   1   2
HETATM    2  C2  UNL     1      31.530  10.263  38.043  1.00  0.00     0.134 C 
HETATM    3  C1  UNL     1      32.732  10.990  37.610  1.00  0.00     0.091 C 
HETATM    4  O1  UNL     1      30.777  10.886  38.827  1.00  0.00    -0.298 OA
ENDBRANCH   1   2
BRANCH   1   5
HETATM    5  C4  UNL     1      30.351   9.043  36.342  1.00  0.00     0.329 C 
BRANCH   5   6
HETATM    6  N1  UNL     1      29.516  10.207  36.316  1.00  0.00    -0.052 N 
ATOM      7  H13 UNL     1      28.955  10.273  37.165  1.00  0.00     0.277 HD
ATOM      8  H12 UNL     1      30.072  11.057  36.417  1.00  0.00     0.277 HD
ATOM      9  H11 UNL     1      28.925  10.255  35.486  1.00  0.00     0.277 HD
ENDBRANCH   5   6
BRANCH   5  10
HETATM   10  O2  UNL     1      31.188   8.984  35.227  1.00  0.00    -0.369 OA
ATOM     11  H2  UNL     1      30.731   8.609  34.482  1.00  0.00     0.212 HD
ENDBRANCH   5  10
ENDBRANCH   1   5
BRANCH   1  12
HETATM   12  C5  UNL     1      30.366   8.166  38.661  1.00  0.00     0.136 C 
HETATM   13  C6  UNL     1      30.935   6.890  39.145  1.00  0.00     0.033 C 
HETATM   14  C7  UNL     1      30.061   6.366  40.301  1.00  0.00     0.004 C 
HETATM   15  C8  UNL     1      28.651   6.248  39.831  1.00  0.00     0.026 C 
HETATM   16  C9  UNL     1      28.272   7.639  39.294  1.00  0.00     0.168 C 
HETATM   17  O3  UNL     1      29.057   7.937  38.189  1.00  0.00    -0.385 OA
ENDBRANCH   1  12
TORSDOF 5
ENDMDL
MODEL 2
REMARK VINA RESULT: -5.811340691      1.668      1.719
REMARK  5 active torsions:
REMARK  status: ('A' for Active; 'I' for Inactive)
REMARK    1  A    between atoms: C2_2  and  C3_4 
REMARK    2  A    between atoms: C3_4  and  C4_5 
REMARK    3  A    between atoms: C3_4  and  C5_12 
REMARK    4  A    between atoms: C4_5  and  N1_6 
REMARK    5  A    between atoms: C4_5  and  O2_10 
ROOT
HETATM    1  C3  UNL     1      31.607   9.548  37.371  1.00  0.00     0.140 C 
ENDROOT
BRANCH   1   2
HETATM    2  C2  UNL     1      31.697  10.700  38.253  1.00  0.00     0.134 C 
HETATM    3  C1  UNL     1      32.849  11.606  38.365  1.00  0.00     0.091 C 
HETATM    4  O1  UNL     1      30.724  10.971  38.994  1.00  0.00    -0.298 OA
ENDBRANCH   1   2
BRANCH   1   5
HETATM    5  C4  UNL     1      30.592   9.902  36.273  1.00  0.00     0.329 C 
BRANCH   5   6
HETATM    6  N1  UNL     1      30.878   9.268  35.020  1.00  0.00    -0.052 N 
ATOM      7  H13 UNL     1      30.102   9.382  34.369  1.00  0.00     0.277 HD
ATOM      8  H12 UNL     1      31.600   9.779  34.511  1.00  0.00     0.277 HD
ATOM      9  H11 UNL     1      31.128   8.285  35.120  1.00  0.00     0.277 HD
ENDBRANCH   5   6
BRANCH   5  10
HETATM   10  O2  UNL     1      29.290   9.638  36.700  1.00  0.00    -0.369 OA
ATOM     11  H2  UNL     1      29.145   9.982  37.574  1.00  0.00     0.212 HD
ENDBRANCH   5  10
ENDBRANCH   1   5
BRANCH   1  12
HETATM   12  C5  UNL     1      31.187   8.284  38.055  1.00  0.00     0.136 C 
HETATM   13  C6  UNL     1      32.125   7.723  39.052  1.00  0.00     0.033 C 
HETATM   14  C7  UNL     1      31.444   6.535  39.757  1.00  0.00     0.004 C 
HETATM   15  C8  UNL     1      31.003   5.546  38.732  1.00  0.00     0.026 C 
HETATM   16  C9  UNL     1      30.114   6.330  37.751  1.00  0.00     0.168 C 
HETATM   17  O3  UNL     1      30.878   7.290  37.103  1.00  0.00    -0.385 OA
ENDBRANCH   1  12
TORSDOF 5
ENDMDL
MODEL 3
REMARK VINA RESULT: -5.651544950      2.358      4.567
REMARK  5 active torsions:
REMARK  status: ('A' for Active; 'I' for Inactive)
REMARK    1  A    between atoms: C2_2  and  C3_4 
REMARK    2  A    between atoms: C3_4  and  C4_5 
REMARK    3  A    between atoms: C3_4  and  C5_12 
REMARK    4  A    between atoms: C4_5  and  N1_6 
REMARK    5  A    between atoms: C4_5  and  O2_10 
ROOT
HETATM    1  C3  UNL     1      29.771   6.715  37.739  1.00  0.00     0.140 C 
ENDROOT
BRANCH   1   2
HETATM    2  C2  UNL     1      28.855   6.388  38.819  1.00  0.00     0.134 C 
HETATM    3  C1  UNL     1      28.179   7.358  39.693  1.00  0.00     0.091 C 
HETATM    4  O1  UNL     1      28.599   5.185  39.052  1.00  0.00    -0.298 OA
ENDBRANCH   1   2
BRANCH   1   5
HETATM    5  C4  UNL     1      31.095   5.994  38.041  1.00  0.00     0.329 C 
BRANCH   5   6
HETATM    6  N1  UNL     1      31.312   5.788  39.443  1.00  0.00    -0.052 N 
ATOM      7  H13 UNL     1      31.124   6.641  39.970  1.00  0.00     0.277 HD
ATOM      8  H12 UNL     1      30.591   5.185  39.838  1.00  0.00     0.277 HD
ATOM      9  H11 UNL     1      32.244   5.429  39.652  1.00  0.00     0.277 HD
ENDBRANCH   5   6
BRANCH   5  10
HETATM   10  O2  UNL     1      31.182   4.800  37.325  1.00  0.00    -0.369 OA
ATOM     11  H2  UNL     1      31.530   4.105  37.871  1.00  0.00     0.212 HD
ENDBRANCH   5  10
ENDBRANCH   1   5
BRANCH   1  12
HETATM   12  C5  UNL     1      30.023   8.181  37.572  1.00  0.00     0.136 C 
HETATM   13  C6  UNL     1      30.092   8.691  36.185  1.00  0.00     0.033 C 
HETATM   14  C7  UNL     1      30.185  10.228  36.227  1.00  0.00     0.004 C 
HETATM   15  C8  UNL     1      31.354  10.623  37.065  1.00  0.00     0.026 C 
HETATM   16  C9  UNL     1      31.144   9.935  38.425  1.00  0.00     0.168 C 
HETATM   17  O3  UNL     1      31.195   8.559  38.259  1.00  0.00    -0.385 OA
ENDBRANCH   1  12
TORSDOF 5
ENDMDL
MODEL 4
REMARK VINA RESULT: -5.468568775      2.123      4.363
REMARK  5 active torsions:
REMARK  status: ('A' for Active; 'I' for Inactive)
REMARK    1  A    between atoms: C2_2  and  C3_4 
REMARK    2  A    between atoms: C3_4  and  C4_5 
REMARK    3  A    between atoms: C3_4  and  C5_12 
REMARK    4  A    between atoms: C4_5  and  N1_6 
REMARK    5  A    between atoms: C4_5  and  O2_10 
ROOT
HETATM    1  C3  UNL     1      29.832   7.480  39.453  1.00  0.00     0.140 C 
ENDROOT
BRANCH   1   2
HETATM    2  C2  UNL     1      30.796   6.595  40.086  1.00  0.00     0.134 C 
HETATM    3  C1  UNL     1      32.231   6.528  39.775  1.00  0.00     0.091 C 
HETATM    4  O1  UNL     1      30.401   5.808  40.977  1.00  0.00    -0.298 OA
ENDBRANCH   1   2
BRANCH   1   5
HETATM    5  C4  UNL     1      28.675   6.599  38.955  1.00  0.00     0.329 C 
BRANCH   5   6
HETATM    6  N1  UNL     1      29.122   5.401  38.307  1.00  0.00    -0.052 N 
ATOM      7  H13 UNL     1      30.101   5.480  38.031  1.00  0.00     0.277 HD
ATOM      8  H12 UNL     1      29.199   4.633  38.974  1.00  0.00     0.277 HD
ATOM      9  H11 UNL     1      28.540   5.137  37.512  1.00  0.00     0.277 HD
ENDBRANCH   5   6
BRANCH   5  10
HETATM   10  O2  UNL     1      27.783   6.321  39.992  1.00  0.00    -0.369 OA
ATOM     11  H2  UNL     1      26.887   6.478  39.716  1.00  0.00     0.212 HD
ENDBRANCH   5  10
ENDBRANCH   1   5
BRANCH   1  12
HETATM   12  C5  UNL     1      30.386   8.274  38.312  1.00  0.00     0.136 C 
HETATM   13  C6  UNL     1      30.705   9.693  38.581  1.00  0.00     0.033 C 
HETATM   14  C7  UNL     1      31.415  10.283  37.348  1.00  0.00     0.004 C 
HETATM   15  C8  UNL     1      30.551  10.085  36.148  1.00  0.00     0.026 C 
HETATM   16  C9  UNL     1      30.264   8.575  36.085  1.00  0.00     0.168 C 
HETATM   17  O3  UNL     1      29.524   8.200  37.198  1.00  0.00    -0.385 OA
ENDBRANCH   1  12
TORSDOF 5
ENDMDL
MODEL 5
REMARK VINA RESULT: -5.463426888      1.988      4.522
REMARK  5 active torsions:
REMARK  status: ('A' for Active; 'I' for Inactive)
REMARK    1  A    between atoms: C2_2  and  C3_4 
REMARK    2  A    between atoms: C3_4  and  C4_5 
REMARK    3  A    between atoms: C3_4  and  C5_12 
REMARK    4  A    between atoms: C4_5  and  N1_6 
REMARK    5  A    between atoms: C4_5  and  O2_10 
ROOT
HETATM    1  C3  UNL     1      30.768  10.045  37.807  1.00  0.00     0.140 C 
ENDROOT
BRANCH   1   2
HETATM    2  C2  UNL     1      30.598   8.623  38.054  1.00  0.00     0.134 C 
HETATM    3  C1  UNL     1      31.583   7.740  38.695  1.00  0.00     0.091 C 
HETATM    4  O1  UNL     1      29.530   8.071  37.701  1.00  0.00    -0.298 OA
ENDBRANCH   1   2
BRANCH   1   5
HETATM    5  C4  UNL     1      30.580  10.262  36.297  1.00  0.00     0.329 C 
BRANCH   5   6
HETATM    6  N1  UNL     1      31.102   9.187  35.507  1.00  0.00    -0.052 N 
ATOM      7  H13 UNL     1      30.456   8.938  34.758  1.00  0.00     0.277 HD
ATOM      8  H12 UNL     1      31.895   9.499  34.946  1.00  0.00     0.277 HD
ATOM      9  H11 UNL     1      31.348   8.368  36.063  1.00  0.00     0.277 HD
ENDBRANCH   5   6
BRANCH   5  10
HETATM   10  O2  UNL     1      29.241  10.519  35.998  1.00  0.00    -0.369 OA
ATOM     11  H2  UNL     1      29.169  11.129  35.273  1.00  0.00     0.212 HD
ENDBRANCH   5  10
ENDBRANCH   1   5
BRANCH   1  12
HETATM   12  C5  UNL     1      32.098  10.586  38.231  1.00  0.00     0.136 C 
HETATM   13  C6  UNL     1      32.087  11.830  39.029  1.00  0.00     0.033 C 
HETATM   14  C7  UNL     1      33.522  12.125  39.506  1.00  0.00     0.004 C 
HETATM   15  C8  UNL     1      34.426  12.186  38.321  1.00  0.00     0.026 C 
HETATM   16  C9  UNL     1      34.236  10.850  37.582  1.00  0.00     0.168 C 
HETATM   17  O3  UNL     1      32.934  10.766  37.109  1.00  0.00    -0.385 OA
ENDBRANCH   1  12
TORSDOF 5
ENDMDL
