MODEL 1
REMARK VINA RESULT: -6.084132541      0.000      0.000
REMARK  4 active torsions:
REMARK  status: ('A' for Active; 'I' for Inactive)
REMARK    1  A    between atoms: C2_2  and  N2_6 
REMARK    2  A    between atoms: N2_6  and  N3_7 
REMARK    3  A    between atoms: N2_6  and  N4_10 
REMARK    4  A    between atoms: N5_12  and  N6_14 
ROOT
HETATM    1  N4  UNL     1      28.547   7.905  40.052  1.00  0.00    -0.206 N 
ATOM      2  H4  UNL     1      28.770   8.816  40.455  1.00  0.00     0.212 HD
HETATM    3  N5  UNL     1      28.963   7.576  38.896  1.00  0.00    -0.229 N 
ATOM      4  H5  UNL     1      28.712   6.654  38.540  1.00  0.00     0.209 HD
ENDROOT
BRANCH   1   5
HETATM    5  N2  UNL     1      27.781   6.983  40.744  1.00  0.00    -0.176 N 
BRANCH   5   6
HETATM    6  C2  UNL     1      28.160   5.632  40.768  1.00  0.00     0.112 C 
HETATM    7  C1  UNL     1      29.340   5.217  41.542  1.00  0.00     0.092 C 
HETATM    8  N1  UNL     1      27.480   4.767  40.117  1.00  0.00    -0.386 N 
ATOM      9  H12 UNL     1      27.756   3.786  40.134  1.00  0.00     0.157 HD
ATOM     10  H11 UNL     1      26.662   5.055  39.580  1.00  0.00     0.157 HD
ENDBRANCH   5   6
BRANCH   5  11
HETATM   11  N3  UNL     1      26.642   7.415  41.404  1.00  0.00    -0.322 N 
ATOM     12  H32 UNL     1      26.204   6.800  42.090  1.00  0.00     0.179 HD
ATOM     13  H31 UNL     1      26.243   8.334  41.214  1.00  0.00     0.179 HD
ENDBRANCH   5  11
ENDBRANCH   1   5
BRANCH   3  14
HETATM   14  N6  UNL     1      29.733   8.393  38.097  1.00  0.00    -0.312 N 
HETATM   15  C3  UNL     1      29.250   8.854  36.830  1.00  0.00     0.144 C 
HETATM   16  C4  UNL     1      30.409   9.437  36.010  1.00  0.00     0.021 C 
HETATM   17  C5  UNL     1      31.169  10.487  36.781  1.00  0.00     0.003 C 
HETATM   18  C6  UNL     1      31.116  10.308  38.271  1.00  0.00     0.021 C 
HETATM   19  C7  UNL     1      31.041   8.801  38.527  1.00  0.00     0.144 C 
ENDBRANCH   3  14
TORSDOF 4
ENDMDL
MODEL 2
REMARK VINA RESULT: -6.075240298      0.336      1.407
REMARK  4 active torsions:
REMARK  status: ('A' for Active; 'I' for Inactive)
REMARK    1  A    between atoms: C2_2  and  N2_6 
REMARK    2  A    between atoms: N2_6  and  N3_7 
REMARK    3  A    between atoms: N2_6  and  N4_10 
REMARK    4  A    between atoms: N5_12  and  N6_14 
ROOT
HETATM    1  N4  UNL     1      28.515   7.993  40.077  1.00  0.00    -0.206 N 
ATOM      2  H4  UNL     1      28.709   8.886  40.531  1.00  0.00     0.212 HD
HETATM    3  N5  UNL     1      28.920   7.752  38.896  1.00  0.00    -0.229 N 
ATOM      4  H5  UNL     1      28.700   6.843  38.489  1.00  0.00     0.209 HD
ENDROOT
BRANCH   1   5
HETATM    5  N2  UNL     1      27.801   6.999  40.725  1.00  0.00    -0.176 N 
BRANCH   5   6
HETATM    6  C2  UNL     1      28.242   5.668  40.668  1.00  0.00     0.112 C 
HETATM    7  C1  UNL     1      29.474   5.274  41.369  1.00  0.00     0.092 C 
HETATM    8  N1  UNL     1      27.573   4.802  40.007  1.00  0.00    -0.386 N 
ATOM      9  H12 UNL     1      27.894   3.835  39.966  1.00  0.00     0.157 HD
ATOM     10  H11 UNL     1      26.719   5.075  39.521  1.00  0.00     0.157 HD
ENDBRANCH   5   6
BRANCH   5  11
HETATM   11  N3  UNL     1      26.654   7.341  41.422  1.00  0.00    -0.322 N 
ATOM     12  H32 UNL     1      26.301   8.296  41.357  1.00  0.00     0.179 HD
ATOM     13  H31 UNL     1      26.162   6.654  41.993  1.00  0.00     0.179 HD
ENDBRANCH   5  11
ENDBRANCH   1   5
BRANCH   3  14
HETATM   14  N6  UNL     1      29.639   8.648  38.135  1.00  0.00    -0.312 N 
HETATM   15  C3  UNL     1      30.862   9.214  38.619  1.00  0.00     0.144 C 
HETATM   16  C4  UNL     1      31.261  10.415  37.752  1.00  0.00     0.021 C 
HETATM   17  C5  UNL     1      31.302  10.061  36.287  1.00  0.00     0.003 C 
HETATM   18  C6  UNL     1      30.383   8.936  35.905  1.00  0.00     0.021 C 
HETATM   19  C7  UNL     1      29.170   9.030  36.832  1.00  0.00     0.144 C 
ENDBRANCH   3  14
TORSDOF 4
ENDMDL
MODEL 3
REMARK VINA RESULT: -5.810390524      5.494      7.526
REMARK  4 active torsions:
REMARK  status: ('A' for Active; 'I' for Inactive)
REMARK    1  A    between atoms: C2_2  and  N2_6 
REMARK    2  A    between atoms: N2_6  and  N3_7 
REMARK    3  A    between atoms: N2_6  and  N4_10 
REMARK    4  A    between atoms: N5_12  and  N6_14 
ROOT
HETATM    1  N4  UNL     1      28.939   2.217  44.841  1.00  0.00    -0.206 N 
ATOM      2  H4  UNL     1      28.769   3.207  45.021  1.00  0.00     0.212 HD
HETATM    3  N5  UNL     1      29.298   1.809  43.691  1.00  0.00    -0.229 N 
ATOM      4  H5  UNL     1      29.456   0.809  43.564  1.00  0.00     0.209 HD
ENDROOT
BRANCH   1   5
HETATM    5  N2  UNL     1      28.789   1.270  45.839  1.00  0.00    -0.176 N 
BRANCH   5   6
HETATM    6  C2  UNL     1      27.590   1.197  46.564  1.00  0.00     0.112 C 
HETATM    7  C1  UNL     1      26.518   0.294  46.117  1.00  0.00     0.092 C 
HETATM    8  N1  UNL     1      27.432   1.916  47.609  1.00  0.00    -0.386 N 
ATOM      9  H12 UNL     1      26.560   1.864  48.135  1.00  0.00     0.157 HD
ATOM     10  H11 UNL     1      28.175   2.542  47.918  1.00  0.00     0.157 HD
ENDBRANCH   5   6
BRANCH   5  11
HETATM   11  N3  UNL     1      29.838   0.405  46.107  1.00  0.00    -0.322 N 
ATOM     12  H32 UNL     1      30.207  -0.174  45.353  1.00  0.00     0.179 HD
ATOM     13  H31 UNL     1      30.241   0.342  47.042  1.00  0.00     0.179 HD
ENDBRANCH   5  11
ENDBRANCH   1   5
BRANCH   3  14
HETATM   14  N6  UNL     1      29.484   2.639  42.607  1.00  0.00    -0.312 N 
HETATM   15  C3  UNL     1      28.723   2.468  41.406  1.00  0.00     0.144 C 
HETATM   16  C4  UNL     1      29.360   3.271  40.265  1.00  0.00     0.021 C 
HETATM   17  C5  UNL     1      29.567   4.716  40.643  1.00  0.00     0.003 C 
HETATM   18  C6  UNL     1      29.747   4.941  42.117  1.00  0.00     0.021 C 
HETATM   19  C7  UNL     1      30.452   3.698  42.665  1.00  0.00     0.144 C 
ENDBRANCH   3  14
TORSDOF 4
ENDMDL
MODEL 4
REMARK VINA RESULT: -5.680396743      1.327      1.790
REMARK  4 active torsions:
REMARK  status: ('A' for Active; 'I' for Inactive)
REMARK    1  A    between atoms: C2_2  and  N2_6 
REMARK    2  A    between atoms: N2_6  and  N3_7 
REMARK    3  A    between atoms: N2_6  and  N4_10 
REMARK    4  A    between atoms: N5_12  and  N6_14 
ROOT
HETATM    1  N4  UNL     1      28.302   7.968  39.507  1.00  0.00    -0.206 N 
ATOM      2  H4  UNL     1      28.167   8.971  39.635  1.00  0.00     0.212 HD
HETATM    3  N5  UNL     1      29.159   7.518  38.681  1.00  0.00    -0.229 N 
ATOM      4  H5  UNL     1      29.254   6.506  38.592  1.00  0.00     0.209 HD
ENDROOT
BRANCH   1   5
HETATM    5  N2  UNL     1      27.558   7.046  40.225  1.00  0.00    -0.176 N 
BRANCH   5   6
HETATM    6  C2  UNL     1      27.044   7.388  41.484  1.00  0.00     0.112 C 
HETATM    7  C1  UNL     1      26.469   8.724  41.702  1.00  0.00     0.092 C 
HETATM    8  N1  UNL     1      27.078   6.538  42.439  1.00  0.00    -0.386 N 
ATOM      9  H12 UNL     1      26.705   6.787  43.355  1.00  0.00     0.157 HD
ATOM     10  H11 UNL     1      27.477   5.612  42.288  1.00  0.00     0.157 HD
ENDBRANCH   5   6
BRANCH   5  11
HETATM   11  N3  UNL     1      27.336   5.792  39.680  1.00  0.00    -0.322 N 
ATOM     12  H32 UNL     1      26.442   5.330  39.849  1.00  0.00     0.179 HD
ATOM     13  H31 UNL     1      28.050   5.330  39.117  1.00  0.00     0.179 HD
ENDBRANCH   5  11
ENDBRANCH   1   5
BRANCH   3  14
HETATM   14  N6  UNL     1      29.965   8.317  37.902  1.00  0.00    -0.312 N 
HETATM   15  C3  UNL     1      29.530   8.775  36.617  1.00  0.00     0.144 C 
HETATM   16  C4  UNL     1      30.723   9.335  35.830  1.00  0.00     0.021 C 
HETATM   17  C5  UNL     1      31.474  10.379  36.617  1.00  0.00     0.003 C 
HETATM   18  C6  UNL     1      31.371  10.212  38.106  1.00  0.00     0.021 C 
HETATM   19  C7  UNL     1      31.265   8.709  38.370  1.00  0.00     0.144 C 
ENDBRANCH   3  14
TORSDOF 4
ENDMDL
MODEL 5
REMARK VINA RESULT: -5.642630576      4.895      6.718
REMARK  4 active torsions:
REMARK  status: ('A' for Active; 'I' for Inactive)
REMARK    1  A    between atoms: C2_2  and  N2_6 
REMARK    2  A    between atoms: N2_6  and  N3_7 
REMARK    3  A    between atoms: N2_6  and  N4_10 
REMARK    4  A    between atoms: N5_12  and  N6_14 
ROOT
HETATM    1  N4  UNL     1      29.133   1.811  43.180  1.00  0.00    -0.206 N 
ATOM      2  H4  UNL     1      28.682   1.695  42.272  1.00  0.00     0.212 HD
HETATM    3  N5  UNL     1      29.963   2.753  43.389  1.00  0.00    -0.229 N 
ATOM      4  H5  UNL     1      30.385   2.824  44.315  1.00  0.00     0.209 HD
ENDROOT
BRANCH   1   5
HETATM    5  N2  UNL     1      28.865   0.949  44.230  1.00  0.00    -0.176 N 
BRANCH   5   6
HETATM    6  C2  UNL     1      28.169   1.410  45.357  1.00  0.00     0.112 C 
HETATM    7  C1  UNL     1      26.714   1.621  45.283  1.00  0.00     0.092 C 
HETATM    8  N1  UNL     1      28.799   1.646  46.444  1.00  0.00    -0.386 N 
ATOM      9  H12 UNL     1      28.292   1.982  47.263  1.00  0.00     0.157 HD
ATOM     10  H11 UNL     1      29.807   1.500  46.495  1.00  0.00     0.157 HD
ENDBRANCH   5   6
BRANCH   5  11
HETATM   11  N3  UNL     1      29.296  -0.365  44.147  1.00  0.00    -0.322 N 
ATOM     12  H32 UNL     1      28.771  -1.023  43.569  1.00  0.00     0.179 HD
ATOM     13  H31 UNL     1      30.125  -0.679  44.650  1.00  0.00     0.179 HD
ENDBRANCH   5  11
ENDBRANCH   1   5
BRANCH   3  14
HETATM   14  N6  UNL     1      30.323   3.682  42.438  1.00  0.00    -0.312 N 
HETATM   15  C3  UNL     1      29.541   4.862  42.225  1.00  0.00     0.144 C 
HETATM   16  C4  UNL     1      29.951   5.529  40.905  1.00  0.00     0.021 C 
HETATM   17  C5  UNL     1      31.437   5.773  40.837  1.00  0.00     0.003 C 
HETATM   18  C6  UNL     1      32.251   4.812  41.655  1.00  0.00     0.021 C 
HETATM   19  C7  UNL     1      31.499   3.480  41.639  1.00  0.00     0.144 C 
ENDBRANCH   3  14
TORSDOF 4
ENDMDL
