MODEL 1
REMARK VINA RESULT: -9.150497768      0.000      0.000
REMARK  5 active torsions:
REMARK  status: ('A' for Active; 'I' for Inactive)
REMARK    1  A    between atoms: C7_8  and  C8_9 
REMARK    2  A    between atoms: C8_9  and  C9_10 
REMARK    3  A    between atoms: C13_16  and  S1_17 
REMARK    4  A    between atoms: S1_17  and  N3_20 
REMARK    5  A    between atoms: N3_20  and  C14_22 
ROOT
HETATM    1  N1  UNL     1       6.025  36.885  75.015  1.00  0.00    -0.191 NA
HETATM    2  C1  UNL     1       6.954  37.284  74.457  1.00  0.00     0.100 C 
HETATM    3  C2  UNL     1       8.084  37.787  73.733  1.00  0.00     0.051 A 
HETATM    4  C3  UNL     1       7.914  38.945  72.981  1.00  0.00     0.023 A 
HETATM    5  C4  UNL     1       8.950  39.439  72.235  1.00  0.00     0.002 A 
HETATM    6  C5  UNL     1      10.163  38.778  72.235  1.00  0.00     0.001 A 
HETATM    7  C6  UNL     1      10.350  37.638  72.967  1.00  0.00     0.009 A 
HETATM    8  C7  UNL     1       9.298  37.126  73.736  1.00  0.00    -0.032 A 
ENDROOT
BRANCH   8   9
HETATM    9  C8  UNL     1       9.551  35.909  74.518  1.00  0.00     0.098 C 
BRANCH   9  10
HETATM   10  C9  UNL     1       9.306  34.643  73.802  1.00  0.00     0.024 A 
HETATM   11  N2  UNL     1       8.148  33.934  73.825  1.00  0.00    -0.367 N 
HETATM   12  C10 UNL     1       8.248  32.828  73.077  1.00  0.00     0.100 A 
ATOM     13  H2  UNL     1       7.313  34.208  74.343  1.00  0.00     0.165 HD
HETATM   14  C11 UNL     1       9.509  32.776  72.524  1.00  0.00    -0.007 A 
HETATM   15  C12 UNL     1      10.110  31.852  71.668  1.00  0.00     0.039 A 
HETATM   16  C21 UNL     1      10.167  33.911  72.977  1.00  0.00    -0.002 A 
HETATM   17  C13 UNL     1      11.401  32.085  71.266  1.00  0.00     0.080 A 
HETATM   18  C19 UNL     1      12.068  33.203  71.702  1.00  0.00     0.026 A 
HETATM   19  C20 UNL     1      11.452  34.115  72.555  1.00  0.00     0.016 A 
BRANCH  17  20
HETATM   20  S1  UNL     1      12.200  30.922  70.194  1.00  0.00     0.264 S 
HETATM   21  O1  UNL     1      12.024  29.530  70.790  1.00  0.00    -0.200 OA
HETATM   22  O2  UNL     1      11.556  30.958  68.861  1.00  0.00    -0.200 OA
BRANCH  20  23
HETATM   23  N3  UNL     1      13.869  31.263  70.195  1.00  0.00    -0.266 N 
ATOM     24  H3  UNL     1      14.152  32.143  69.763  1.00  0.00     0.180 HD
BRANCH  23  25
HETATM   25  C14 UNL     1      14.803  30.544  70.676  1.00  0.00     0.114 A 
HETATM   26  C15 UNL     1      15.736  29.833  69.986  1.00  0.00     0.049 A 
HETATM   27  C16 UNL     1      16.722  29.098  70.650  1.00  0.00     0.005 A 
HETATM   28  C17 UNL     1      16.727  29.109  72.018  1.00  0.00     0.017 A 
HETATM   29  C18 UNL     1      15.777  29.833  72.721  1.00  0.00     0.089 A 
HETATM   30  N4  UNL     1      14.860  30.516  72.045  1.00  0.00    -0.352 N 
ATOM     31  H4  UNL     1      14.165  31.046  72.571  1.00  0.00     0.166 HD
ENDBRANCH  23  25
ENDBRANCH  20  23
ENDBRANCH  17  20
ENDBRANCH   9  10
ENDBRANCH   8   9
TORSDOF 5
ENDMDL
MODEL 2
REMARK VINA RESULT: -8.753383648      7.366     11.148
REMARK  5 active torsions:
REMARK  status: ('A' for Active; 'I' for Inactive)
REMARK    1  A    between atoms: C7_8  and  C8_9 
REMARK    2  A    between atoms: C8_9  and  C9_10 
REMARK    3  A    between atoms: C13_16  and  S1_17 
REMARK    4  A    between atoms: S1_17  and  N3_20 
REMARK    5  A    between atoms: N3_20  and  C14_22 
ROOT
HETATM    1  N1  UNL     1       1.360  38.852  80.361  1.00  0.00    -0.191 NA
HETATM    2  C1  UNL     1       1.127  39.982  80.422  1.00  0.00     0.100 C 
HETATM    3  C2  UNL     1       0.812  41.376  80.528  1.00  0.00     0.051 A 
HETATM    4  C3  UNL     1       0.724  41.929  81.801  1.00  0.00     0.023 A 
HETATM    5  C4  UNL     1       0.381  43.245  81.956  1.00  0.00     0.002 A 
HETATM    6  C5  UNL     1       0.123  44.017  80.839  1.00  0.00     0.001 A 
HETATM    7  C6  UNL     1       0.204  43.491  79.580  1.00  0.00     0.009 A 
HETATM    8  C7  UNL     1       0.556  42.147  79.410  1.00  0.00    -0.032 A 
ENDROOT
BRANCH   8   9
HETATM    9  C8  UNL     1       0.647  41.631  78.038  1.00  0.00     0.098 C 
BRANCH   9  10
HETATM   10  C9  UNL     1       1.987  41.710  77.428  1.00  0.00     0.024 A 
HETATM   11  N2  UNL     1       2.665  42.855  77.154  1.00  0.00    -0.367 N 
HETATM   12  C10 UNL     1       3.853  42.588  76.596  1.00  0.00     0.100 A 
ATOM     13  H2  UNL     1       2.315  43.793  77.348  1.00  0.00     0.165 HD
HETATM   14  C11 UNL     1       3.996  41.222  76.484  1.00  0.00    -0.007 A 
HETATM   15  C12 UNL     1       5.038  40.436  75.992  1.00  0.00     0.039 A 
HETATM   16  C21 UNL     1       2.831  40.676  77.006  1.00  0.00    -0.002 A 
HETATM   17  C13 UNL     1       4.894  39.071  76.030  1.00  0.00     0.080 A 
HETATM   18  C19 UNL     1       3.751  38.513  76.544  1.00  0.00     0.026 A 
HETATM   19  C20 UNL     1       2.721  39.313  77.031  1.00  0.00     0.016 A 
BRANCH  17  20
HETATM   20  S1  UNL     1       6.191  38.043  75.396  1.00  0.00     0.264 S 
HETATM   21  O1  UNL     1       7.367  38.113  76.363  1.00  0.00    -0.200 OA
HETATM   22  O2  UNL     1       5.716  36.643  75.319  1.00  0.00    -0.200 OA
BRANCH  20  23
HETATM   23  N3  UNL     1       6.715  38.708  73.917  1.00  0.00    -0.266 N 
ATOM     24  H3  UNL     1       6.022  39.236  73.387  1.00  0.00     0.180 HD
BRANCH  23  25
HETATM   25  C14 UNL     1       7.875  38.620  73.400  1.00  0.00     0.114 A 
HETATM   26  C15 UNL     1       8.414  39.422  72.441  1.00  0.00     0.049 A 
HETATM   27  C16 UNL     1       9.717  39.218  71.977  1.00  0.00     0.005 A 
HETATM   28  C17 UNL     1      10.441  38.188  72.511  1.00  0.00     0.017 A 
HETATM   29  C18 UNL     1       9.893  37.372  73.488  1.00  0.00     0.089 A 
HETATM   30  N4  UNL     1       8.651  37.605  73.897  1.00  0.00    -0.352 N 
ATOM     31  H4  UNL     1       8.255  36.999  74.616  1.00  0.00     0.166 HD
ENDBRANCH  23  25
ENDBRANCH  20  23
ENDBRANCH  17  20
ENDBRANCH   9  10
ENDBRANCH   8   9
TORSDOF 5
ENDMDL
MODEL 3
REMARK VINA RESULT: -8.556274514      1.779      1.872
REMARK  5 active torsions:
REMARK  status: ('A' for Active; 'I' for Inactive)
REMARK    1  A    between atoms: C7_8  and  C8_9 
REMARK    2  A    between atoms: C8_9  and  C9_10 
REMARK    3  A    between atoms: C13_16  and  S1_17 
REMARK    4  A    between atoms: S1_17  and  N3_20 
REMARK    5  A    between atoms: N3_20  and  C14_22 
ROOT
HETATM    1  N1  UNL     1       6.021  37.026  75.047  1.00  0.00    -0.191 NA
HETATM    2  C1  UNL     1       6.951  37.396  74.469  1.00  0.00     0.100 C 
HETATM    3  C2  UNL     1       8.080  37.862  73.720  1.00  0.00     0.051 A 
HETATM    4  C3  UNL     1       7.928  39.019  72.963  1.00  0.00     0.023 A 
HETATM    5  C4  UNL     1       8.963  39.479  72.195  1.00  0.00     0.002 A 
HETATM    6  C5  UNL     1      10.158  38.785  72.178  1.00  0.00     0.001 A 
HETATM    7  C6  UNL     1      10.327  37.646  72.915  1.00  0.00     0.009 A 
HETATM    8  C7  UNL     1       9.275  37.168  73.706  1.00  0.00    -0.032 A 
ENDROOT
BRANCH   8   9
HETATM    9  C8  UNL     1       9.509  35.950  74.493  1.00  0.00     0.098 C 
BRANCH   9  10
HETATM   10  C9  UNL     1       9.243  34.686  73.782  1.00  0.00     0.024 A 
HETATM   11  N2  UNL     1       8.060  34.019  73.771  1.00  0.00    -0.367 N 
HETATM   12  C10 UNL     1       8.145  32.902  73.039  1.00  0.00     0.100 A 
ATOM     13  H2  UNL     1       7.218  34.329  74.257  1.00  0.00     0.165 HD
HETATM   14  C11 UNL     1       9.422  32.798  72.531  1.00  0.00    -0.007 A 
HETATM   15  C12 UNL     1      10.017  31.843  71.706  1.00  0.00     0.039 A 
HETATM   16  C21 UNL     1      10.105  33.914  72.995  1.00  0.00    -0.002 A 
HETATM   17  C13 UNL     1      11.330  32.024  71.346  1.00  0.00     0.080 A 
HETATM   18  C19 UNL     1      12.021  33.123  71.794  1.00  0.00     0.026 A 
HETATM   19  C20 UNL     1      11.410  34.066  72.616  1.00  0.00     0.016 A 
BRANCH  17  20
HETATM   20  S1  UNL     1      12.122  30.821  70.315  1.00  0.00     0.264 S 
HETATM   21  O1  UNL     1      11.474  30.878  68.937  1.00  0.00    -0.200 OA
HETATM   22  O2  UNL     1      13.559  31.154  70.184  1.00  0.00    -0.200 OA
BRANCH  20  23
HETATM   23  N3  UNL     1      11.797  29.278  70.961  1.00  0.00    -0.266 N 
ATOM     24  H3  UNL     1      10.862  29.133  71.340  1.00  0.00     0.180 HD
BRANCH  23  25
HETATM   25  C14 UNL     1      12.592  28.285  71.024  1.00  0.00     0.114 A 
HETATM   26  C15 UNL     1      12.289  26.972  70.831  1.00  0.00     0.049 A 
HETATM   27  C16 UNL     1      13.274  25.984  70.913  1.00  0.00     0.005 A 
HETATM   28  C17 UNL     1      14.557  26.369  71.193  1.00  0.00     0.017 A 
HETATM   29  C18 UNL     1      14.865  27.706  71.389  1.00  0.00     0.089 A 
HETATM   30  N4  UNL     1      13.895  28.608  71.301  1.00  0.00    -0.352 N 
ATOM     31  H4  UNL     1      14.131  29.590  71.447  1.00  0.00     0.166 HD
ENDBRANCH  23  25
ENDBRANCH  20  23
ENDBRANCH  17  20
ENDBRANCH   9  10
ENDBRANCH   8   9
TORSDOF 5
ENDMDL
MODEL 4
REMARK VINA RESULT: -8.159488351      1.990      2.552
REMARK  5 active torsions:
REMARK  status: ('A' for Active; 'I' for Inactive)
REMARK    1  A    between atoms: C7_8  and  C8_9 
REMARK    2  A    between atoms: C8_9  and  C9_10 
REMARK    3  A    between atoms: C13_16  and  S1_17 
REMARK    4  A    between atoms: S1_17  and  N3_20 
REMARK    5  A    between atoms: N3_20  and  C14_22 
ROOT
HETATM    1  N1  UNL     1       5.930  37.769  74.920  1.00  0.00    -0.191 NA
HETATM    2  C1  UNL     1       6.860  37.998  74.274  1.00  0.00     0.100 C 
HETATM    3  C2  UNL     1       7.993  38.271  73.441  1.00  0.00     0.051 A 
HETATM    4  C3  UNL     1       7.773  38.939  72.240  1.00  0.00     0.023 A 
HETATM    5  C4  UNL     1       8.817  39.182  71.389  1.00  0.00     0.002 A 
HETATM    6  C5  UNL     1      10.087  38.759  71.731  1.00  0.00     0.001 A 
HETATM    7  C6  UNL     1      10.323  38.102  72.906  1.00  0.00     0.009 A 
HETATM    8  C7  UNL     1       9.263  37.850  73.786  1.00  0.00    -0.032 A 
ENDROOT
BRANCH   8   9
HETATM    9  C8  UNL     1       9.568  37.156  75.044  1.00  0.00     0.098 C 
BRANCH   9  10
HETATM   10  C9  UNL     1       9.050  35.778  75.139  1.00  0.00     0.024 A 
HETATM   11  N2  UNL     1       8.124  35.342  76.031  1.00  0.00    -0.367 N 
HETATM   12  C10 UNL     1       7.871  34.038  75.862  1.00  0.00     0.100 A 
ATOM     13  H2  UNL     1       7.681  35.929  76.737  1.00  0.00     0.165 HD
HETATM   14  C11 UNL     1       8.644  33.565  74.823  1.00  0.00    -0.007 A 
HETATM   15  C12 UNL     1       8.746  32.300  74.244  1.00  0.00     0.039 A 
HETATM   16  C21 UNL     1       9.378  34.653  74.372  1.00  0.00    -0.002 A 
HETATM   17  C13 UNL     1       9.608  32.137  73.188  1.00  0.00     0.080 A 
HETATM   18  C19 UNL     1      10.340  33.202  72.727  1.00  0.00     0.026 A 
HETATM   19  C20 UNL     1      10.225  34.458  73.317  1.00  0.00     0.016 A 
BRANCH  17  20
HETATM   20  S1  UNL     1       9.775  30.539  72.442  1.00  0.00     0.264 S 
HETATM   21  O1  UNL     1      10.790  29.742  73.252  1.00  0.00    -0.200 OA
HETATM   22  O2  UNL     1       8.471  29.837  72.483  1.00  0.00    -0.200 OA
BRANCH  20  23
HETATM   23  N3  UNL     1      10.428  30.751  70.882  1.00  0.00    -0.266 N 
ATOM     24  H3  UNL     1       9.758  30.886  70.125  1.00  0.00     0.180 HD
BRANCH  23  25
HETATM   25  C14 UNL     1      11.658  30.759  70.556  1.00  0.00     0.114 A 
HETATM   26  C15 UNL     1      12.331  31.743  69.898  1.00  0.00     0.049 A 
HETATM   27  C16 UNL     1      13.696  31.624  69.621  1.00  0.00     0.005 A 
HETATM   28  C17 UNL     1      14.344  30.490  70.029  1.00  0.00     0.017 A 
HETATM   29  C18 UNL     1      13.659  29.488  70.698  1.00  0.00     0.089 A 
HETATM   30  N4  UNL     1      12.362  29.647  70.939  1.00  0.00    -0.352 N 
ATOM     31  H4  UNL     1      11.866  28.905  71.432  1.00  0.00     0.166 HD
ENDBRANCH  23  25
ENDBRANCH  20  23
ENDBRANCH  17  20
ENDBRANCH   9  10
ENDBRANCH   8   9
TORSDOF 5
ENDMDL
MODEL 5
REMARK VINA RESULT: -8.133221808      1.413      2.038
REMARK  5 active torsions:
REMARK  status: ('A' for Active; 'I' for Inactive)
REMARK    1  A    between atoms: C7_8  and  C8_9 
REMARK    2  A    between atoms: C8_9  and  C9_10 
REMARK    3  A    between atoms: C13_16  and  S1_17 
REMARK    4  A    between atoms: S1_17  and  N3_20 
REMARK    5  A    between atoms: N3_20  and  C14_22 
ROOT
HETATM    1  N1  UNL     1       9.984  36.065  76.714  1.00  0.00    -0.191 NA
HETATM    2  C1  UNL     1       9.378  36.402  75.791  1.00  0.00     0.100 C 
HETATM    3  C2  UNL     1       8.620  36.856  74.662  1.00  0.00     0.051 A 
HETATM    4  C3  UNL     1       8.870  38.138  74.182  1.00  0.00     0.023 A 
HETATM    5  C4  UNL     1       8.141  38.634  73.136  1.00  0.00     0.002 A 
HETATM    6  C5  UNL     1       7.157  37.852  72.561  1.00  0.00     0.001 A 
HETATM    7  C6  UNL     1       6.897  36.590  73.018  1.00  0.00     0.009 A 
HETATM    8  C7  UNL     1       7.638  36.072  74.087  1.00  0.00    -0.032 A 
ENDROOT
BRANCH   8   9
HETATM    9  C8  UNL     1       7.334  34.706  74.532  1.00  0.00     0.098 C 
BRANCH   9  10
HETATM   10  C9  UNL     1       7.678  33.644  73.568  1.00  0.00     0.024 A 
HETATM   11  N2  UNL     1       6.806  32.751  73.032  1.00  0.00    -0.367 N 
HETATM   12  C10 UNL     1       7.431  31.912  72.196  1.00  0.00     0.100 A 
ATOM     13  H2  UNL     1       5.808  32.723  73.238  1.00  0.00     0.165 HD
HETATM   14  C11 UNL     1       8.770  32.238  72.156  1.00  0.00    -0.007 A 
HETATM   15  C12 UNL     1       9.837  31.693  71.441  1.00  0.00     0.039 A 
HETATM   16  C21 UNL     1       8.921  33.320  73.012  1.00  0.00    -0.002 A 
HETATM   17  C13 UNL     1      11.078  32.256  71.599  1.00  0.00     0.080 A 
HETATM   18  C19 UNL     1      11.247  33.328  72.440  1.00  0.00     0.026 A 
HETATM   19  C20 UNL     1      10.171  33.859  73.144  1.00  0.00     0.016 A 
BRANCH  17  20
HETATM   20  S1  UNL     1      12.459  31.575  70.720  1.00  0.00     0.264 S 
HETATM   21  O1  UNL     1      12.020  30.255  70.098  1.00  0.00    -0.200 OA
HETATM   22  O2  UNL     1      12.860  32.505  69.638  1.00  0.00    -0.200 OA
BRANCH  20  23
HETATM   23  N3  UNL     1      13.681  31.218  71.852  1.00  0.00    -0.266 N 
ATOM     24  H3  UNL     1      13.548  31.588  72.793  1.00  0.00     0.180 HD
BRANCH  23  25
HETATM   25  C14 UNL     1      14.741  30.542  71.655  1.00  0.00     0.114 A 
HETATM   26  C15 UNL     1      15.643  30.131  72.587  1.00  0.00     0.049 A 
HETATM   27  C16 UNL     1      16.760  29.372  72.227  1.00  0.00     0.005 A 
HETATM   28  C17 UNL     1      16.927  29.049  70.908  1.00  0.00     0.017 A 
HETATM   29  C18 UNL     1      16.008  29.468  69.958  1.00  0.00     0.089 A 
HETATM   30  N4  UNL     1      14.962  30.187  70.349  1.00  0.00    -0.352 N 
ATOM     31  H4  UNL     1      14.291  30.491  69.643  1.00  0.00     0.166 HD
ENDBRANCH  23  25
ENDBRANCH  20  23
ENDBRANCH  17  20
ENDBRANCH   9  10
ENDBRANCH   8   9
TORSDOF 5
ENDMDL
