MODEL 1
REMARK VINA RESULT: -8.793441534      0.000      0.000
REMARK  5 active torsions:
REMARK  status: ('A' for Active; 'I' for Inactive)
REMARK    1  A    between atoms: C3_6  and  O1_7 
REMARK    2  A    between atoms: C4_9  and  C5_10 
REMARK    3  A    between atoms: C5_10  and  N3_11 
REMARK    4  A    between atoms: C15_21  and  C16_22 
REMARK    5  A    between atoms: C16_22  and  N4_23 
ROOT
HETATM    1  N1  UNL     1       6.375  36.442  79.896  1.00  0.00    -0.190 NA
HETATM    2  C1  UNL     1       6.202  35.882  78.918  1.00  0.00     0.118 C 
HETATM    3  C2  UNL     1       6.003  35.152  77.719  1.00  0.00     0.124 A 
HETATM    4  N2  UNL     1       5.904  33.787  77.682  1.00  0.00    -0.327 N 
ATOM      5  H2  UNL     1       5.953  33.168  78.491  1.00  0.00     0.168 HD
HETATM    6  C3  UNL     1       5.732  33.395  76.422  1.00  0.00     0.149 A 
HETATM    7  C4  UNL     1       5.720  34.536  75.629  1.00  0.00     0.022 A 
HETATM    8  C15 UNL     1       5.896  35.672  76.474  1.00  0.00     0.009 A 
ENDROOT
BRANCH   8   9
HETATM    9  C16 UNL     1       5.864  37.036  75.926  1.00  0.00     0.168 C 
BRANCH   9  10
HETATM   10  N4  UNL     1       6.958  37.491  75.157  1.00  0.00    -0.339 N 
HETATM   11  C17 UNL     1       8.339  37.092  75.306  1.00  0.00     0.166 C 
HETATM   12  C18 UNL     1       9.046  37.599  74.109  1.00  0.00    -0.025 A 
HETATM   13  C19 UNL     1      10.295  37.313  73.646  1.00  0.00     0.010 A 
HETATM   14  C23 UNL     1       8.279  38.539  73.512  1.00  0.00     0.040 A 
HETATM   15  C20 UNL     1      10.792  38.015  72.530  1.00  0.00     0.001 A 
HETATM   16  C21 UNL     1      10.035  38.975  71.913  1.00  0.00     0.001 A 
HETATM   17  C22 UNL     1       8.765  39.233  72.421  1.00  0.00     0.017 A 
HETATM   18  C24 UNL     1       6.965  38.497  74.161  1.00  0.00     0.255 C 
HETATM   19  O2  UNL     1       6.011  39.239  73.876  1.00  0.00    -0.267 OA
ENDBRANCH   9  10
ENDBRANCH   8   9
BRANCH   6  20
HETATM   20  O1  UNL     1       5.589  32.061  75.994  1.00  0.00    -0.346 OA
ATOM     21  H1  UNL     1       4.909  31.737  75.416  1.00  0.00     0.219 HD
ENDBRANCH   6  20
BRANCH   7  22
HETATM   22  C5  UNL     1       5.506  34.521  74.175  1.00  0.00     0.171 C 
BRANCH  22  23
HETATM   23  N3  UNL     1       6.558  33.807  73.444  1.00  0.00    -0.361 N 
HETATM   24  C6  UNL     1       6.249  32.828  72.587  1.00  0.00     0.091 A 
HETATM   25  C7  UNL     1       7.204  32.135  71.877  1.00  0.00     0.029 A 
HETATM   26  C8  UNL     1       8.536  32.402  72.008  1.00  0.00    -0.023 A 
HETATM   27  C9  UNL     1       9.527  31.736  71.335  1.00  0.00     0.012 A 
HETATM   28  C13 UNL     1       8.853  33.428  72.908  1.00  0.00    -0.010 A 
HETATM   29  C10 UNL     1      10.865  32.032  71.499  1.00  0.00     0.001 A 
HETATM   30  C11 UNL     1      11.206  33.054  72.389  1.00  0.00     0.001 A 
HETATM   31  C12 UNL     1      10.204  33.712  73.057  1.00  0.00     0.013 A 
HETATM   32  C14 UNL     1       7.853  34.091  73.592  1.00  0.00     0.103 A 
ENDBRANCH  22  23
ENDBRANCH   7  22
TORSDOF 5
ENDMDL
MODEL 2
REMARK VINA RESULT: -8.551579994      1.548      5.064
REMARK  5 active torsions:
REMARK  status: ('A' for Active; 'I' for Inactive)
REMARK    1  A    between atoms: C3_6  and  O1_7 
REMARK    2  A    between atoms: C4_9  and  C5_10 
REMARK    3  A    between atoms: C5_10  and  N3_11 
REMARK    4  A    between atoms: C15_21  and  C16_22 
REMARK    5  A    between atoms: C16_22  and  N4_23 
ROOT
HETATM    1  N1  UNL     1       5.520  31.208  76.805  1.00  0.00    -0.190 NA
HETATM    2  C1  UNL     1       5.591  32.341  76.918  1.00  0.00     0.118 C 
HETATM    3  C2  UNL     1       5.669  33.744  77.100  1.00  0.00     0.124 A 
HETATM    4  N2  UNL     1       5.878  34.330  78.319  1.00  0.00    -0.327 N 
ATOM      5  H2  UNL     1       6.004  33.833  79.201  1.00  0.00     0.168 HD
HETATM    6  C3  UNL     1       5.891  35.653  78.173  1.00  0.00     0.149 A 
HETATM    7  C4  UNL     1       5.685  35.924  76.826  1.00  0.00     0.022 A 
HETATM    8  C15 UNL     1       5.542  34.683  76.134  1.00  0.00     0.009 A 
ENDROOT
BRANCH   8   9
HETATM    9  C16 UNL     1       5.374  34.645  74.674  1.00  0.00     0.168 C 
BRANCH   9  10
HETATM   10  N4  UNL     1       6.419  34.127  73.878  1.00  0.00    -0.339 N 
HETATM   11  C17 UNL     1       7.823  34.452  73.984  1.00  0.00     0.166 C 
HETATM   12  C18 UNL     1       8.541  33.457  73.156  1.00  0.00    -0.025 A 
HETATM   13  C19 UNL     1       9.872  33.175  73.087  1.00  0.00     0.010 A 
HETATM   14  C23 UNL     1       7.657  32.859  72.325  1.00  0.00     0.040 A 
HETATM   15  C20 UNL     1      10.330  32.249  72.129  1.00  0.00     0.001 A 
HETATM   16  C21 UNL     1       9.454  31.635  71.275  1.00  0.00     0.001 A 
HETATM   17  C22 UNL     1       8.103  31.954  71.382  1.00  0.00     0.017 A 
HETATM   18  C24 UNL     1       6.317  33.273  72.754  1.00  0.00     0.255 C 
HETATM   19  O2  UNL     1       5.260  32.925  72.203  1.00  0.00    -0.267 OA
ENDBRANCH   9  10
ENDBRANCH   8   9
BRANCH   6  20
HETATM   20  O1  UNL     1       6.081  36.588  79.209  1.00  0.00    -0.346 OA
ATOM     21  H1  UNL     1       6.281  37.509  79.091  1.00  0.00     0.219 HD
ENDBRANCH   6  20
BRANCH   7  22
HETATM   22  C5  UNL     1       5.677  37.278  76.254  1.00  0.00     0.171 C 
BRANCH  22  23
HETATM   23  N3  UNL     1       6.828  37.544  75.385  1.00  0.00    -0.361 N 
HETATM   24  C6  UNL     1       8.075  37.316  75.815  1.00  0.00     0.091 A 
HETATM   25  C7  UNL     1       9.183  37.547  75.031  1.00  0.00     0.029 A 
HETATM   26  C8  UNL     1       9.080  38.031  73.759  1.00  0.00    -0.023 A 
HETATM   27  C9  UNL     1      10.149  38.288  72.941  1.00  0.00     0.012 A 
HETATM   28  C13 UNL     1       7.772  38.267  73.315  1.00  0.00    -0.010 A 
HETATM   29  C10 UNL     1      10.004  38.783  71.661  1.00  0.00     0.001 A 
HETATM   30  C11 UNL     1       8.708  39.024  71.195  1.00  0.00     0.001 A 
HETATM   31  C12 UNL     1       7.646  38.763  72.024  1.00  0.00     0.013 A 
HETATM   32  C14 UNL     1       6.696  38.016  74.144  1.00  0.00     0.103 A 
ENDBRANCH  22  23
ENDBRANCH   7  22
TORSDOF 5
ENDMDL
MODEL 3
REMARK VINA RESULT: -8.536420730      1.791      5.007
REMARK  5 active torsions:
REMARK  status: ('A' for Active; 'I' for Inactive)
REMARK    1  A    between atoms: C3_6  and  O1_7 
REMARK    2  A    between atoms: C4_9  and  C5_10 
REMARK    3  A    between atoms: C5_10  and  N3_11 
REMARK    4  A    between atoms: C15_21  and  C16_22 
REMARK    5  A    between atoms: C16_22  and  N4_23 
ROOT
HETATM    1  N1  UNL     1       8.697  32.353  79.972  1.00  0.00    -0.190 NA
HETATM    2  C1  UNL     1       8.283  33.303  79.496  1.00  0.00     0.118 C 
HETATM    3  C2  UNL     1       7.777  34.505  78.941  1.00  0.00     0.124 A 
HETATM    4  N2  UNL     1       8.135  35.747  79.392  1.00  0.00    -0.327 N 
ATOM      5  H2  UNL     1       8.791  35.934  80.150  1.00  0.00     0.168 HD
HETATM    6  C3  UNL     1       7.491  36.671  78.685  1.00  0.00     0.149 A 
HETATM    7  C4  UNL     1       6.699  36.008  77.756  1.00  0.00     0.022 A 
HETATM    8  C15 UNL     1       6.888  34.604  77.925  1.00  0.00     0.009 A 
ENDROOT
BRANCH   8   9
HETATM    9  C16 UNL     1       6.226  33.638  77.037  1.00  0.00     0.168 C 
BRANCH   9  10
HETATM   10  N4  UNL     1       6.711  33.473  75.721  1.00  0.00    -0.339 N 
HETATM   11  C17 UNL     1       8.069  33.162  75.337  1.00  0.00     0.166 C 
HETATM   12  C18 UNL     1       8.021  32.805  73.902  1.00  0.00    -0.025 A 
HETATM   13  C19 UNL     1       8.969  32.224  73.113  1.00  0.00     0.010 A 
HETATM   14  C23 UNL     1       6.852  33.243  73.380  1.00  0.00     0.040 A 
HETATM   15  C20 UNL     1       8.723  32.085  71.733  1.00  0.00     0.001 A 
HETATM   16  C21 UNL     1       7.550  32.525  71.183  1.00  0.00     0.001 A 
HETATM   17  C22 UNL     1       6.611  33.111  72.026  1.00  0.00     0.017 A 
HETATM   18  C24 UNL     1       6.016  33.677  74.504  1.00  0.00     0.255 C 
HETATM   19  O2  UNL     1       4.875  34.155  74.393  1.00  0.00    -0.267 OA
ENDBRANCH   9  10
ENDBRANCH   8   9
BRANCH   6  20
HETATM   20  O1  UNL     1       7.607  38.064  78.864  1.00  0.00    -0.346 OA
ATOM     21  H1  UNL     1       7.208  38.726  78.311  1.00  0.00     0.219 HD
ENDBRANCH   6  20
BRANCH   7  22
HETATM   22  C5  UNL     1       5.865  36.689  76.754  1.00  0.00     0.171 C 
BRANCH  22  23
HETATM   23  N3  UNL     1       6.644  37.284  75.664  1.00  0.00    -0.361 N 
HETATM   24  C6  UNL     1       6.139  38.285  74.932  1.00  0.00     0.091 A 
HETATM   25  C7  UNL     1       6.838  38.875  73.903  1.00  0.00     0.029 A 
HETATM   26  C8  UNL     1       8.095  38.473  73.559  1.00  0.00    -0.023 A 
HETATM   27  C9  UNL     1       8.829  39.019  72.537  1.00  0.00     0.012 A 
HETATM   28  C13 UNL     1       8.618  37.425  74.329  1.00  0.00    -0.010 A 
HETATM   29  C10 UNL     1      10.097  38.579  72.216  1.00  0.00     0.001 A 
HETATM   30  C11 UNL     1      10.640  37.536  72.972  1.00  0.00     0.001 A 
HETATM   31  C12 UNL     1       9.896  36.998  73.991  1.00  0.00     0.013 A 
HETATM   32  C14 UNL     1       7.873  36.870  75.351  1.00  0.00     0.103 A 
ENDBRANCH  22  23
ENDBRANCH   7  22
TORSDOF 5
ENDMDL
MODEL 4
REMARK VINA RESULT: -8.529405360      2.074      5.099
REMARK  5 active torsions:
REMARK  status: ('A' for Active; 'I' for Inactive)
REMARK    1  A    between atoms: C3_6  and  O1_7 
REMARK    2  A    between atoms: C4_9  and  C5_10 
REMARK    3  A    between atoms: C5_10  and  N3_11 
REMARK    4  A    between atoms: C15_21  and  C16_22 
REMARK    5  A    between atoms: C16_22  and  N4_23 
ROOT
HETATM    1  N1  UNL     1       3.950  39.404  76.735  1.00  0.00    -0.190 NA
HETATM    2  C1  UNL     1       4.843  39.146  76.076  1.00  0.00     0.118 C 
HETATM    3  C2  UNL     1       5.930  38.833  75.222  1.00  0.00     0.124 A 
HETATM    4  N2  UNL     1       6.036  39.305  73.941  1.00  0.00    -0.327 N 
ATOM      5  H2  UNL     1       5.366  39.921  73.481  1.00  0.00     0.168 HD
HETATM    6  C3  UNL     1       7.151  38.833  73.391  1.00  0.00     0.149 A 
HETATM    7  C4  UNL     1       7.780  38.037  74.342  1.00  0.00     0.022 A 
HETATM    8  C15 UNL     1       6.984  38.041  75.527  1.00  0.00     0.009 A 
ENDROOT
BRANCH   8   9
HETATM    9  C16 UNL     1       7.426  37.333  76.737  1.00  0.00     0.168 C 
BRANCH   9  10
HETATM   10  N4  UNL     1       7.385  35.921  76.758  1.00  0.00    -0.339 N 
HETATM   11  C17 UNL     1       6.202  35.094  76.675  1.00  0.00     0.166 C 
HETATM   12  C18 UNL     1       6.681  33.713  76.443  1.00  0.00    -0.025 A 
HETATM   13  C19 UNL     1       5.989  32.599  76.072  1.00  0.00     0.010 A 
HETATM   14  C23 UNL     1       7.995  33.646  76.756  1.00  0.00     0.040 A 
HETATM   15  C20 UNL     1       6.657  31.360  76.021  1.00  0.00     0.001 A 
HETATM   16  C21 UNL     1       7.985  31.267  76.339  1.00  0.00     0.001 A 
HETATM   17  C22 UNL     1       8.651  32.431  76.712  1.00  0.00     0.017 A 
HETATM   18  C24 UNL     1       8.457  35.021  76.969  1.00  0.00     0.255 C 
HETATM   19  O2  UNL     1       9.614  35.336  77.290  1.00  0.00    -0.267 OA
ENDBRANCH   9  10
ENDBRANCH   8   9
BRANCH   6  20
HETATM   20  O1  UNL     1       7.595  39.104  72.082  1.00  0.00    -0.346 OA
ATOM     21  H1  UNL     1       8.414  38.805  71.704  1.00  0.00     0.219 HD
ENDBRANCH   6  20
BRANCH   7  22
HETATM   22  C5  UNL     1       9.072  37.370  74.128  1.00  0.00     0.171 C 
BRANCH  22  23
HETATM   23  N3  UNL     1       8.936  35.964  73.736  1.00  0.00    -0.361 N 
HETATM   24  C6  UNL     1       9.999  35.150  73.736  1.00  0.00     0.091 A 
HETATM   25  C7  UNL     1       9.916  33.822  73.379  1.00  0.00     0.029 A 
HETATM   26  C8  UNL     1       8.738  33.250  72.996  1.00  0.00    -0.023 A 
HETATM   27  C9  UNL     1       8.603  31.938  72.622  1.00  0.00     0.012 A 
HETATM   28  C13 UNL     1       7.630  34.107  72.998  1.00  0.00    -0.010 A 
HETATM   29  C10 UNL     1       7.394  31.397  72.236  1.00  0.00     0.001 A 
HETATM   30  C11 UNL     1       6.273  32.232  72.232  1.00  0.00     0.001 A 
HETATM   31  C12 UNL     1       6.422  33.543  72.608  1.00  0.00     0.013 A 
HETATM   32  C14 UNL     1       7.771  35.431  73.367  1.00  0.00     0.103 A 
ENDBRANCH  22  23
ENDBRANCH   7  22
TORSDOF 5
ENDMDL
MODEL 5
REMARK VINA RESULT: -8.524649339      1.042      1.467
REMARK  5 active torsions:
REMARK  status: ('A' for Active; 'I' for Inactive)
REMARK    1  A    between atoms: C3_6  and  O1_7 
REMARK    2  A    between atoms: C4_9  and  C5_10 
REMARK    3  A    between atoms: C5_10  and  N3_11 
REMARK    4  A    between atoms: C15_21  and  C16_22 
REMARK    5  A    between atoms: C16_22  and  N4_23 
ROOT
HETATM    1  N1  UNL     1       7.224  36.788  80.212  1.00  0.00    -0.190 NA
HETATM    2  C1  UNL     1       6.848  36.212  79.303  1.00  0.00     0.118 C 
HETATM    3  C2  UNL     1       6.397  35.459  78.190  1.00  0.00     0.124 A 
HETATM    4  N2  UNL     1       6.137  34.117  78.250  1.00  0.00    -0.327 N 
ATOM      5  H2  UNL     1       6.231  33.533  79.081  1.00  0.00     0.168 HD
HETATM    6  C3  UNL     1       5.742  33.694  77.052  1.00  0.00     0.149 A 
HETATM    7  C4  UNL     1       5.747  34.792  76.200  1.00  0.00     0.022 A 
HETATM    8  C15 UNL     1       6.172  35.934  76.943  1.00  0.00     0.009 A 
ENDROOT
BRANCH   8   9
HETATM    9  C16 UNL     1       6.218  37.266  76.322  1.00  0.00     0.168 C 
BRANCH   9  10
HETATM   10  N4  UNL     1       7.100  37.488  75.242  1.00  0.00    -0.339 N 
HETATM   11  C17 UNL     1       6.764  38.073  73.963  1.00  0.00     0.166 C 
HETATM   12  C18 UNL     1       8.051  38.363  73.292  1.00  0.00    -0.025 A 
HETATM   13  C19 UNL     1       8.307  39.109  72.180  1.00  0.00     0.010 A 
HETATM   14  C23 UNL     1       9.034  37.667  73.907  1.00  0.00     0.040 A 
HETATM   15  C20 UNL     1       9.618  39.146  71.666  1.00  0.00     0.001 A 
HETATM   16  C21 UNL     1      10.628  38.446  72.269  1.00  0.00     0.001 A 
HETATM   17  C22 UNL     1      10.319  37.698  73.402  1.00  0.00     0.017 A 
HETATM   18  C24 UNL     1       8.457  37.099  75.130  1.00  0.00     0.255 C 
HETATM   19  O2  UNL     1       9.073  36.383  75.936  1.00  0.00    -0.267 OA
ENDBRANCH   9  10
ENDBRANCH   8   9
BRANCH   6  20
HETATM   20  O1  UNL     1       5.386  32.369  76.729  1.00  0.00    -0.346 OA
ATOM     21  H1  UNL     1       5.013  31.736  77.331  1.00  0.00     0.219 HD
ENDBRANCH   6  20
BRANCH   7  22
HETATM   22  C5  UNL     1       5.326  34.739  74.792  1.00  0.00     0.171 C 
BRANCH  22  23
HETATM   23  N3  UNL     1       6.232  33.955  73.948  1.00  0.00    -0.361 N 
HETATM   24  C6  UNL     1       5.754  33.015  73.124  1.00  0.00     0.091 A 
HETATM   25  C7  UNL     1       6.569  32.259  72.311  1.00  0.00     0.029 A 
HETATM   26  C8  UNL     1       7.924  32.418  72.297  1.00  0.00    -0.023 A 
HETATM   27  C9  UNL     1       8.780  31.685  71.517  1.00  0.00     0.012 A 
HETATM   28  C13 UNL     1       8.418  33.403  73.163  1.00  0.00    -0.010 A 
HETATM   29  C10 UNL     1      10.147  31.872  71.536  1.00  0.00     0.001 A 
HETATM   30  C11 UNL     1      10.663  32.852  72.390  1.00  0.00     0.001 A 
HETATM   31  C12 UNL     1       9.796  33.577  73.166  1.00  0.00     0.013 A 
HETATM   32  C14 UNL     1       7.554  34.134  73.956  1.00  0.00     0.103 A 
ENDBRANCH  22  23
ENDBRANCH   7  22
TORSDOF 5
ENDMDL
