MODEL 1
REMARK VINA RESULT: -8.359898779      0.000      0.000
REMARK  12 active torsions:
REMARK  status: ('A' for Active; 'I' for Inactive)
REMARK    1  A    between atoms: C2_2  and  C3_4 
REMARK    2  A    between atoms: C3_4  and  C4_5 
REMARK    3  A    between atoms: N1_6  and  N2_8 
REMARK    4  A    between atoms: N2_8  and  C5_10 
REMARK    5  A    between atoms: C5_10  and  O2_11 
REMARK    6  A    between atoms: C5_10  and  C6_13 
REMARK    7  A    between atoms: C6_13  and  C7_14 
REMARK    8  A    between atoms: C7_14  and  C8_15 
REMARK    9  A    between atoms: C8_15  and  C9_16 
REMARK   10  A    between atoms: C9_16  and  C10_17 
REMARK   11  A    between atoms: C13_20  and  O3_21 
REMARK   12  A    between atoms: C21_32  and  O6_33 
ROOT
HETATM    1  C10 UNL     1      -4.001 -20.604  20.807  1.00  0.00     0.016 A 
HETATM    2  C11 UNL     1      -4.473 -21.095  21.996  1.00  0.00    -0.014 A 
HETATM    3  C12 UNL     1      -3.535 -21.495  23.049  1.00  0.00     0.052 C 
HETATM    4  C13 UNL     1      -5.843 -21.117  22.274  1.00  0.00     0.086 A 
HETATM    5  C14 UNL     1      -6.767 -20.646  21.380  1.00  0.00     0.041 A 
HETATM    6  C15 UNL     1      -8.112 -20.679  21.735  1.00  0.00    -0.034 A 
HETATM    7  C16 UNL     1      -8.625 -21.208  22.997  1.00  0.00     0.050 C 
HETATM    8  C17 UNL     1      -8.973 -20.150  20.757  1.00  0.00     0.021 A 
HETATM    9  C18 UNL     1     -10.435 -20.141  21.078  1.00  0.00     0.055 C 
HETATM   10  C19 UNL     1      -8.478 -19.658  19.564  1.00  0.00     0.294 A 
HETATM   11  O4  UNL     1      -9.345 -19.205  18.748  1.00  0.00    -0.259 OA
HETATM   12  O5  UNL     1      -7.196 -19.668  19.314  1.00  0.00    -0.271 OA
HETATM   13  C20 UNL     1      -6.342 -20.150  20.202  1.00  0.00     0.127 A 
HETATM   14  C21 UNL     1      -4.983 -20.129  19.919  1.00  0.00     0.112 A 
ENDROOT
BRANCH   1  15
HETATM   15  C9  UNL     1      -2.623 -20.493  20.359  1.00  0.00     0.070 C 
BRANCH  15  16
HETATM   16  C8  UNL     1      -1.729 -21.249  20.003  1.00  0.00    -0.127 C 
BRANCH  16  17
HETATM   17  C7  UNL     1      -0.716 -22.131  19.593  1.00  0.00     0.060 C 
BRANCH  17  18
HETATM   18  C6  UNL     1      -0.772 -23.475  19.590  1.00  0.00     0.065 C 
BRANCH  18  19
HETATM   19  C5  UNL     1      -1.306 -24.264  20.652  1.00  0.00     0.155 C 
BRANCH  19  20
HETATM   20  N2  UNL     1      -2.641 -24.572  20.844  1.00  0.00    -0.281 N 
ATOM     21  H2  UNL     1      -3.276 -24.682  20.053  1.00  0.00     0.189 HD
BRANCH  20  22
HETATM   22  N1  UNL     1      -3.110 -24.734  22.223  1.00  0.00    -0.313 N 
HETATM   23  C4  UNL     1      -4.357 -24.865  22.295  1.00  0.00     0.087 C 
ATOM     24  H1  UNL     1      -2.492 -24.739  23.034  1.00  0.00     0.185 HD
BRANCH  23  25
HETATM   25  C3  UNL     1      -5.300 -25.059  23.421  1.00  0.00     0.124 C 
BRANCH  25  26
HETATM   26  C2  UNL     1      -4.728 -26.107  24.324  1.00  0.00     0.127 C 
HETATM   27  C1  UNL     1      -5.187 -26.132  25.775  1.00  0.00     0.091 C 
HETATM   28  O1  UNL     1      -3.936 -26.888  23.872  1.00  0.00    -0.298 OA
ENDBRANCH  25  26
ENDBRANCH  23  25
ENDBRANCH  20  22
ENDBRANCH  19  20
BRANCH  19  29
HETATM   29  O2  UNL     1      -0.444 -24.740  21.529  1.00  0.00    -0.345 OA
ATOM     30  H2  UNL     1       0.305 -25.213  21.189  1.00  0.00     0.219 HD
ENDBRANCH  19  29
ENDBRANCH  18  19
ENDBRANCH  17  18
ENDBRANCH  16  17
ENDBRANCH  15  16
ENDBRANCH   1  15
BRANCH  14  31
HETATM   31  O6  UNL     1      -4.631 -19.595  18.669  1.00  0.00    -0.357 OA
ATOM     32  H6  UNL     1      -5.186 -18.958  18.235  1.00  0.00     0.217 HD
ENDBRANCH  14  31
BRANCH   4  33
HETATM   33  O3  UNL     1      -6.256 -21.624  23.446  1.00  0.00    -0.359 OA
ATOM     34  H3  UNL     1      -6.956 -22.266  23.445  1.00  0.00     0.217 HD
ENDBRANCH   4  33
TORSDOF 12
ENDMDL
MODEL 2
REMARK VINA RESULT: -8.295265098      3.067      7.773
REMARK  12 active torsions:
REMARK  status: ('A' for Active; 'I' for Inactive)
REMARK    1  A    between atoms: C2_2  and  C3_4 
REMARK    2  A    between atoms: C3_4  and  C4_5 
REMARK    3  A    between atoms: N1_6  and  N2_8 
REMARK    4  A    between atoms: N2_8  and  C5_10 
REMARK    5  A    between atoms: C5_10  and  O2_11 
REMARK    6  A    between atoms: C5_10  and  C6_13 
REMARK    7  A    between atoms: C6_13  and  C7_14 
REMARK    8  A    between atoms: C7_14  and  C8_15 
REMARK    9  A    between atoms: C8_15  and  C9_16 
REMARK   10  A    between atoms: C9_16  and  C10_17 
REMARK   11  A    between atoms: C13_20  and  O3_21 
REMARK   12  A    between atoms: C21_32  and  O6_33 
ROOT
HETATM    1  C10 UNL     1      -4.668 -22.618  20.604  1.00  0.00     0.016 A 
HETATM    2  C11 UNL     1      -4.490 -21.785  19.530  1.00  0.00    -0.014 A 
HETATM    3  C12 UNL     1      -5.548 -20.846  19.146  1.00  0.00     0.052 C 
HETATM    4  C13 UNL     1      -3.267 -21.730  18.855  1.00  0.00     0.086 A 
HETATM    5  C14 UNL     1      -2.198 -22.496  19.239  1.00  0.00     0.041 A 
HETATM    6  C15 UNL     1      -1.004 -22.371  18.534  1.00  0.00    -0.034 A 
HETATM    7  C16 UNL     1      -0.807 -21.493  17.384  1.00  0.00     0.050 C 
HETATM    8  C17 UNL     1       0.034 -23.183  19.024  1.00  0.00     0.021 A 
HETATM    9  C18 UNL     1       1.353 -23.089  18.321  1.00  0.00     0.055 C 
HETATM   10  C19 UNL     1      -0.165 -24.015  20.109  1.00  0.00     0.294 A 
HETATM   11  O4  UNL     1       0.842 -24.708  20.469  1.00  0.00    -0.259 OA
HETATM   12  O5  UNL     1      -1.322 -24.069  20.710  1.00  0.00    -0.271 OA
HETATM   13  C20 UNL     1      -2.332 -23.323  20.293  1.00  0.00     0.127 A 
HETATM   14  C21 UNL     1      -3.546 -23.385  20.965  1.00  0.00     0.112 A 
ENDROOT
BRANCH   1  15
HETATM   15  C9  UNL     1      -5.856 -22.793  21.422  1.00  0.00     0.070 C 
BRANCH  15  16
HETATM   16  C8  UNL     1      -6.404 -22.212  22.349  1.00  0.00    -0.127 C 
BRANCH  16  17
HETATM   17  C7  UNL     1      -7.016 -21.540  23.420  1.00  0.00     0.060 C 
BRANCH  17  18
HETATM   18  C6  UNL     1      -7.838 -22.074  24.341  1.00  0.00     0.065 C 
BRANCH  18  19
HETATM   19  C5  UNL     1      -9.124 -22.622  24.057  1.00  0.00     0.155 C 
BRANCH  19  20
HETATM   20  N2  UNL     1     -10.218 -21.922  23.580  1.00  0.00    -0.281 N 
ATOM     21  H2  UNL     1     -10.895 -21.503  24.217  1.00  0.00     0.189 HD
BRANCH  20  22
HETATM   22  N1  UNL     1     -10.369 -21.805  22.127  1.00  0.00    -0.313 N 
HETATM   23  C4  UNL     1     -10.085 -20.656  21.704  1.00  0.00     0.087 C 
ATOM     24  H1  UNL     1     -10.671 -22.571  21.524  1.00  0.00     0.185 HD
BRANCH  23  25
HETATM   25  C3  UNL     1     -10.070 -20.038  20.358  1.00  0.00     0.124 C 
BRANCH  25  26
HETATM   26  C2  UNL     1      -9.160 -18.850  20.407  1.00  0.00     0.127 C 
HETATM   27  C1  UNL     1      -8.541 -18.477  21.746  1.00  0.00     0.091 C 
HETATM   28  O1  UNL     1      -8.951 -18.242  19.394  1.00  0.00    -0.298 OA
ENDBRANCH  25  26
ENDBRANCH  23  25
ENDBRANCH  20  22
ENDBRANCH  19  20
BRANCH  19  29
HETATM   29  O2  UNL     1      -9.280 -23.913  24.274  1.00  0.00    -0.345 OA
ATOM     30  H2  UNL     1      -8.763 -24.508  23.745  1.00  0.00     0.219 HD
ENDBRANCH  19  29
ENDBRANCH  18  19
ENDBRANCH  17  18
ENDBRANCH  16  17
ENDBRANCH  15  16
ENDBRANCH   1  15
BRANCH  14  31
HETATM   31  O6  UNL     1      -3.595 -24.274  22.050  1.00  0.00    -0.357 OA
ATOM     32  H6  UNL     1      -3.628 -25.213  21.913  1.00  0.00     0.217 HD
ENDBRANCH  14  31
BRANCH   4  33
HETATM   33  O3  UNL     1      -3.148 -20.911  17.799  1.00  0.00    -0.359 OA
ATOM     34  H3  UNL     1      -2.661 -21.211  17.041  1.00  0.00     0.217 HD
ENDBRANCH   4  33
TORSDOF 12
ENDMDL
MODEL 3
REMARK VINA RESULT: -8.283091042      2.861      7.229
REMARK  12 active torsions:
REMARK  status: ('A' for Active; 'I' for Inactive)
REMARK    1  A    between atoms: C2_2  and  C3_4 
REMARK    2  A    between atoms: C3_4  and  C4_5 
REMARK    3  A    between atoms: N1_6  and  N2_8 
REMARK    4  A    between atoms: N2_8  and  C5_10 
REMARK    5  A    between atoms: C5_10  and  O2_11 
REMARK    6  A    between atoms: C5_10  and  C6_13 
REMARK    7  A    between atoms: C6_13  and  C7_14 
REMARK    8  A    between atoms: C7_14  and  C8_15 
REMARK    9  A    between atoms: C8_15  and  C9_16 
REMARK   10  A    between atoms: C9_16  and  C10_17 
REMARK   11  A    between atoms: C13_20  and  O3_21 
REMARK   12  A    between atoms: C21_32  and  O6_33 
ROOT
HETATM    1  C10 UNL     1      -4.633 -22.827  20.992  1.00  0.00     0.016 A 
HETATM    2  C11 UNL     1      -3.707 -23.704  21.495  1.00  0.00    -0.014 A 
HETATM    3  C12 UNL     1      -4.088 -24.649  22.548  1.00  0.00     0.052 C 
HETATM    4  C13 UNL     1      -2.426 -23.795  20.943  1.00  0.00     0.086 A 
HETATM    5  C14 UNL     1      -2.044 -23.022  19.877  1.00  0.00     0.041 A 
HETATM    6  C15 UNL     1      -0.760 -23.185  19.366  1.00  0.00    -0.034 A 
HETATM    7  C16 UNL     1       0.236 -24.110  19.900  1.00  0.00     0.050 C 
HETATM    8  C17 UNL     1      -0.479 -22.362  18.261  1.00  0.00     0.021 A 
HETATM    9  C18 UNL     1       0.881 -22.494  17.650  1.00  0.00     0.055 C 
HETATM   10  C19 UNL     1      -1.426 -21.485  17.767  1.00  0.00     0.294 A 
HETATM   11  O4  UNL     1      -1.067 -20.786  16.765  1.00  0.00    -0.259 OA
HETATM   12  O5  UNL     1      -2.609 -21.398  18.313  1.00  0.00    -0.271 OA
HETATM   13  C20 UNL     1      -2.927 -22.153  19.352  1.00  0.00     0.127 A 
HETATM   14  C21 UNL     1      -4.200 -22.055  19.899  1.00  0.00     0.112 A 
ENDROOT
BRANCH   1  15
HETATM   15  C9  UNL     1      -6.001 -22.610  21.430  1.00  0.00     0.070 C 
BRANCH  15  16
HETATM   16  C8  UNL     1      -6.573 -22.034  22.345  1.00  0.00    -0.127 C 
BRANCH  16  17
HETATM   17  C7  UNL     1      -7.234 -21.357  23.383  1.00  0.00     0.060 C 
BRANCH  17  18
HETATM   18  C6  UNL     1      -8.098 -21.888  24.268  1.00  0.00     0.065 C 
BRANCH  18  19
HETATM   19  C5  UNL     1      -9.210 -22.711  23.918  1.00  0.00     0.155 C 
BRANCH  19  20
HETATM   20  N2  UNL     1     -10.341 -22.301  23.235  1.00  0.00    -0.281 N 
ATOM     21  H2  UNL     1     -11.159 -22.905  23.158  1.00  0.00     0.189 HD
BRANCH  20  22
HETATM   22  N1  UNL     1     -10.322 -20.968  22.627  1.00  0.00    -0.313 N 
HETATM   23  C4  UNL     1     -10.098 -21.005  21.391  1.00  0.00     0.087 C 
ATOM     24  H1  UNL     1     -10.474 -20.104  23.149  1.00  0.00     0.185 HD
BRANCH  23  25
HETATM   25  C3  UNL     1      -9.986 -19.965  20.343  1.00  0.00     0.124 C 
BRANCH  25  26
HETATM   26  C2  UNL     1      -8.644 -19.315  20.481  1.00  0.00     0.127 C 
HETATM   27  C1  UNL     1      -8.450 -18.301  21.600  1.00  0.00     0.091 C 
HETATM   28  O1  UNL     1      -7.773 -19.620  19.712  1.00  0.00    -0.298 OA
ENDBRANCH  25  26
ENDBRANCH  23  25
ENDBRANCH  20  22
ENDBRANCH  19  20
BRANCH  19  29
HETATM   29  O2  UNL     1      -9.151 -23.976  24.284  1.00  0.00    -0.345 OA
ATOM     30  H2  UNL     1      -8.830 -24.599  23.644  1.00  0.00     0.219 HD
ENDBRANCH  19  29
ENDBRANCH  18  19
ENDBRANCH  17  18
ENDBRANCH  16  17
ENDBRANCH  15  16
ENDBRANCH   1  15
BRANCH  14  31
HETATM   31  O6  UNL     1      -5.054 -21.123  19.288  1.00  0.00    -0.357 OA
ATOM     32  H6  UNL     1      -5.165 -21.105  18.345  1.00  0.00     0.217 HD
ENDBRANCH  14  31
BRANCH   4  33
HETATM   33  O3  UNL     1      -1.550 -24.657  21.481  1.00  0.00    -0.359 OA
ATOM     34  H3  UNL     1      -1.548 -24.778  22.424  1.00  0.00     0.217 HD
ENDBRANCH   4  33
TORSDOF 12
ENDMDL
MODEL 4
REMARK VINA RESULT: -8.238963723      3.052      5.655
REMARK  12 active torsions:
REMARK  status: ('A' for Active; 'I' for Inactive)
REMARK    1  A    between atoms: C2_2  and  C3_4 
REMARK    2  A    between atoms: C3_4  and  C4_5 
REMARK    3  A    between atoms: N1_6  and  N2_8 
REMARK    4  A    between atoms: N2_8  and  C5_10 
REMARK    5  A    between atoms: C5_10  and  O2_11 
REMARK    6  A    between atoms: C5_10  and  C6_13 
REMARK    7  A    between atoms: C6_13  and  C7_14 
REMARK    8  A    between atoms: C7_14  and  C8_15 
REMARK    9  A    between atoms: C8_15  and  C9_16 
REMARK   10  A    between atoms: C9_16  and  C10_17 
REMARK   11  A    between atoms: C13_20  and  O3_21 
REMARK   12  A    between atoms: C21_32  and  O6_33 
ROOT
HETATM    1  C10 UNL     1      -6.251 -24.454  24.060  1.00  0.00     0.016 A 
HETATM    2  C11 UNL     1      -5.326 -24.177  23.088  1.00  0.00    -0.014 A 
HETATM    3  C12 UNL     1      -4.212 -25.100  22.849  1.00  0.00     0.052 C 
HETATM    4  C13 UNL     1      -5.483 -23.081  22.234  1.00  0.00     0.086 A 
HETATM    5  C14 UNL     1      -6.565 -22.245  22.326  1.00  0.00     0.041 A 
HETATM    6  C15 UNL     1      -6.666 -21.189  21.427  1.00  0.00    -0.034 A 
HETATM    7  C16 UNL     1      -5.680 -20.880  20.393  1.00  0.00     0.050 C 
HETATM    8  C17 UNL     1      -7.823 -20.408  21.592  1.00  0.00     0.021 A 
HETATM    9  C18 UNL     1      -8.005 -19.260  20.649  1.00  0.00     0.055 C 
HETATM   10  C19 UNL     1      -8.746 -20.705  22.578  1.00  0.00     0.294 A 
HETATM   11  O4  UNL     1      -9.758 -19.933  22.642  1.00  0.00    -0.259 OA
HETATM   12  O5  UNL     1      -8.568 -21.719  23.381  1.00  0.00    -0.271 OA
HETATM   13  C20 UNL     1      -7.499 -22.488  23.265  1.00  0.00     0.127 A 
HETATM   14  C21 UNL     1      -7.346 -23.573  24.119  1.00  0.00     0.112 A 
ENDROOT
BRANCH   1  15
HETATM   15  C9  UNL     1      -6.254 -25.547  25.017  1.00  0.00     0.070 C 
BRANCH  15  16
HETATM   16  C8  UNL     1      -5.913 -25.728  26.178  1.00  0.00    -0.127 C 
BRANCH  16  17
HETATM   17  C7  UNL     1      -5.526 -25.955  27.509  1.00  0.00     0.060 C 
BRANCH  17  18
HETATM   18  C6  UNL     1      -5.004 -25.054  28.361  1.00  0.00     0.065 C 
BRANCH  18  19
HETATM   19  C5  UNL     1      -3.751 -25.200  29.025  1.00  0.00     0.155 C 
BRANCH  19  20
HETATM   20  N2  UNL     1      -2.543 -24.670  28.608  1.00  0.00    -0.281 N 
ATOM     21  H2  UNL     1      -1.955 -24.130  29.243  1.00  0.00     0.189 HD
BRANCH  20  22
HETATM   22  N1  UNL     1      -2.137 -24.913  27.221  1.00  0.00    -0.313 N 
HETATM   23  C4  UNL     1      -2.056 -26.137  26.949  1.00  0.00     0.087 C 
ATOM     24  H1  UNL     1      -1.942 -24.170  26.549  1.00  0.00     0.185 HD
BRANCH  23  25
HETATM   25  C3  UNL     1      -1.702 -26.889  25.723  1.00  0.00     0.124 C 
BRANCH  25  26
HETATM   26  C2  UNL     1      -2.744 -27.943  25.513  1.00  0.00     0.127 C 
HETATM   27  C1  UNL     1      -3.196 -28.754  26.719  1.00  0.00     0.091 C 
HETATM   28  O1  UNL     1      -3.186 -28.106  24.408  1.00  0.00    -0.298 OA
ENDBRANCH  25  26
ENDBRANCH  23  25
ENDBRANCH  20  22
ENDBRANCH  19  20
BRANCH  19  29
HETATM   29  O2  UNL     1      -3.747 -25.908  30.137  1.00  0.00    -0.345 OA
ATOM     30  H2  UNL     1      -3.939 -26.835  30.063  1.00  0.00     0.219 HD
ENDBRANCH  19  29
ENDBRANCH  18  19
ENDBRANCH  17  18
ENDBRANCH  16  17
ENDBRANCH  15  16
ENDBRANCH   1  15
BRANCH  14  31
HETATM   31  O6  UNL     1      -8.367 -23.749  25.066  1.00  0.00    -0.357 OA
ATOM     32  H6  UNL     1      -8.182 -23.714  25.997  1.00  0.00     0.217 HD
ENDBRANCH  14  31
BRANCH   4  33
HETATM   33  O3  UNL     1      -4.540 -22.842  21.309  1.00  0.00    -0.359 OA
ATOM     34  H3  UNL     1      -4.811 -22.574  20.439  1.00  0.00     0.217 HD
ENDBRANCH   4  33
TORSDOF 12
ENDMDL
MODEL 5
REMARK VINA RESULT: -8.141247565      2.910      6.844
REMARK  12 active torsions:
REMARK  status: ('A' for Active; 'I' for Inactive)
REMARK    1  A    between atoms: C2_2  and  C3_4 
REMARK    2  A    between atoms: C3_4  and  C4_5 
REMARK    3  A    between atoms: N1_6  and  N2_8 
REMARK    4  A    between atoms: N2_8  and  C5_10 
REMARK    5  A    between atoms: C5_10  and  O2_11 
REMARK    6  A    between atoms: C5_10  and  C6_13 
REMARK    7  A    between atoms: C6_13  and  C7_14 
REMARK    8  A    between atoms: C7_14  and  C8_15 
REMARK    9  A    between atoms: C8_15  and  C9_16 
REMARK   10  A    between atoms: C9_16  and  C10_17 
REMARK   11  A    between atoms: C13_20  and  O3_21 
REMARK   12  A    between atoms: C21_32  and  O6_33 
ROOT
HETATM    1  C10 UNL     1      -4.144 -22.900  20.677  1.00  0.00     0.016 A 
HETATM    2  C11 UNL     1      -4.197 -22.022  19.626  1.00  0.00    -0.014 A 
HETATM    3  C12 UNL     1      -5.391 -21.198  19.416  1.00  0.00     0.052 C 
HETATM    4  C13 UNL     1      -3.083 -21.810  18.808  1.00  0.00     0.086 A 
HETATM    5  C14 UNL     1      -1.896 -22.460  19.023  1.00  0.00     0.041 A 
HETATM    6  C15 UNL     1      -0.824 -22.181  18.182  1.00  0.00    -0.034 A 
HETATM    7  C16 UNL     1      -0.872 -21.254  17.054  1.00  0.00     0.050 C 
HETATM    8  C17 UNL     1       0.351 -22.883  18.504  1.00  0.00     0.021 A 
HETATM    9  C18 UNL     1       1.551 -22.621  17.648  1.00  0.00     0.055 C 
HETATM   10  C19 UNL     1       0.384 -23.763  19.570  1.00  0.00     0.294 A 
HETATM   11  O4  UNL     1       1.498 -24.347  19.772  1.00  0.00    -0.259 OA
HETATM   12  O5  UNL     1      -0.674 -23.965  20.307  1.00  0.00    -0.271 OA
HETATM   13  C20 UNL     1      -1.804 -23.326  20.050  1.00  0.00     0.127 A 
HETATM   14  C21 UNL     1      -2.908 -23.544  20.863  1.00  0.00     0.112 A 
ENDROOT
BRANCH   1  15
HETATM   15  C9  UNL     1      -5.191 -23.231  21.629  1.00  0.00     0.070 C 
BRANCH  15  16
HETATM   16  C8  UNL     1      -5.895 -22.638  22.435  1.00  0.00    -0.127 C 
BRANCH  16  17
HETATM   17  C7  UNL     1      -6.688 -21.948  23.366  1.00  0.00     0.060 C 
BRANCH  17  18
HETATM   18  C6  UNL     1      -8.004 -22.119  23.587  1.00  0.00     0.065 C 
BRANCH  18  19
HETATM   19  C5  UNL     1      -8.566 -23.210  24.315  1.00  0.00     0.155 C 
BRANCH  19  20
HETATM   20  N2  UNL     1      -8.051 -24.492  24.383  1.00  0.00    -0.281 N 
ATOM     21  H2  UNL     1      -8.381 -25.227  23.758  1.00  0.00     0.189 HD
BRANCH  20  22
HETATM   22  N1  UNL     1      -7.014 -24.756  25.385  1.00  0.00    -0.313 N 
HETATM   23  C4  UNL     1      -6.199 -25.638  25.014  1.00  0.00     0.087 C 
ATOM     24  H1  UNL     1      -6.960 -24.277  26.284  1.00  0.00     0.185 HD
BRANCH  23  25
HETATM   25  C3  UNL     1      -5.002 -26.247  25.637  1.00  0.00     0.124 C 
BRANCH  25  26
HETATM   26  C2  UNL     1      -4.066 -26.648  24.539  1.00  0.00     0.127 C 
HETATM   27  C1  UNL     1      -2.847 -27.483  24.905  1.00  0.00     0.091 C 
HETATM   28  O1  UNL     1      -4.313 -26.303  23.416  1.00  0.00    -0.298 OA
ENDBRANCH  25  26
ENDBRANCH  23  25
ENDBRANCH  20  22
ENDBRANCH  19  20
BRANCH  19  29
HETATM   29  O2  UNL     1      -9.679 -22.970  24.979  1.00  0.00    -0.345 OA
ATOM     30  H2  UNL     1     -10.427 -23.523  24.787  1.00  0.00     0.219 HD
ENDBRANCH  19  29
ENDBRANCH  18  19
ENDBRANCH  17  18
ENDBRANCH  16  17
ENDBRANCH  15  16
ENDBRANCH   1  15
BRANCH  14  31
HETATM   31  O6  UNL     1      -2.721 -24.463  21.909  1.00  0.00    -0.357 OA
ATOM     32  H6  UNL     1      -2.949 -24.239  22.803  1.00  0.00     0.217 HD
ENDBRANCH  14  31
BRANCH   4  33
HETATM   33  O3  UNL     1      -3.190 -20.953  17.780  1.00  0.00    -0.359 OA
ATOM     34  H3  UNL     1      -2.514 -20.296  17.661  1.00  0.00     0.217 HD
ENDBRANCH   4  33
TORSDOF 12
ENDMDL
