MODEL 1
REMARK VINA RESULT: -3.876497808      0.000      0.000
REMARK  2 active torsions:
REMARK  status: ('A' for Active; 'I' for Inactive)
REMARK    1  A    between atoms: C3_4  and  N2_5 
REMARK    2  A    between atoms: N2_5  and  C4_7 
ROOT
HETATM    1  N2  UNL     1      12.372 -19.568   7.962  1.00  0.00    -0.355 N 
ATOM      2  H2  UNL     1      11.665 -18.845   8.094  1.00  0.00     0.162 HD
ENDROOT
BRANCH   1   3
HETATM    3  C3  UNL     1      12.992 -19.755   6.671  1.00  0.00     0.350 A 
HETATM    4  N1  UNL     1      12.299 -19.336   5.473  1.00  0.00     0.112 N 
HETATM    5  C1  UNL     1      12.601 -20.140   4.277  1.00  0.00     0.312 C 
HETATM    6  C2  UNL     1      13.497 -18.564   6.000  1.00  0.00     0.331 A 
ENDBRANCH   1   3
BRANCH   1   7
HETATM    7  C4  UNL     1      12.751 -20.392   9.033  1.00  0.00     0.170 C 
HETATM    8  N3  UNL     1      12.060 -20.402  10.107  1.00  0.00    -0.395 N 
ATOM      9  H32 UNL     1      11.235 -19.805  10.170  1.00  0.00     0.156 HD
ATOM     10  H31 UNL     1      12.335 -21.000  10.886  1.00  0.00     0.156 HD
ENDBRANCH   1   7
TORSDOF 2
ENDMDL
MODEL 2
REMARK VINA RESULT: -3.796752720      9.445      9.985
REMARK  2 active torsions:
REMARK  status: ('A' for Active; 'I' for Inactive)
REMARK    1  A    between atoms: C3_4  and  N2_5 
REMARK    2  A    between atoms: N2_5  and  C4_7 
ROOT
HETATM    1  N2  UNL     1       6.105 -12.193   8.237  1.00  0.00    -0.355 N 
ATOM      2  H2  UNL     1       6.606 -11.313   8.358  1.00  0.00     0.162 HD
ENDROOT
BRANCH   1   3
HETATM    3  C3  UNL     1       6.498 -13.364   8.987  1.00  0.00     0.350 A 
HETATM    4  N1  UNL     1       7.770 -13.385   9.674  1.00  0.00     0.112 N 
HETATM    5  C1  UNL     1       8.388 -14.717   9.779  1.00  0.00     0.312 C 
HETATM    6  C2  UNL     1       6.464 -13.263  10.439  1.00  0.00     0.331 A 
ENDBRANCH   1   3
BRANCH   1   7
HETATM    7  C4  UNL     1       5.029 -12.278   7.340  1.00  0.00     0.170 C 
HETATM    8  N3  UNL     1       3.830 -12.272   7.779  1.00  0.00    -0.395 N 
ATOM      9  H32 UNL     1       3.671 -12.204   8.784  1.00  0.00     0.156 HD
ATOM     10  H31 UNL     1       3.048 -12.334   7.127  1.00  0.00     0.156 HD
ENDBRANCH   1   7
TORSDOF 2
ENDMDL
MODEL 3
REMARK VINA RESULT: -3.704590457      1.105      1.165
REMARK  2 active torsions:
REMARK  status: ('A' for Active; 'I' for Inactive)
REMARK    1  A    between atoms: C3_4  and  N2_5 
REMARK    2  A    between atoms: N2_5  and  C4_7 
ROOT
HETATM    1  N2  UNL     1      12.337 -19.607   8.081  1.00  0.00    -0.355 N 
ATOM      2  H2  UNL     1      11.449 -19.195   8.370  1.00  0.00     0.162 HD
ENDROOT
BRANCH   1   3
HETATM    3  C3  UNL     1      12.899 -19.293   6.788  1.00  0.00     0.350 A 
HETATM    4  N1  UNL     1      13.212 -20.358   5.862  1.00  0.00     0.112 N 
HETATM    5  C1  UNL     1      14.350 -20.081   4.970  1.00  0.00     0.312 C 
HETATM    6  C2  UNL     1      12.025 -19.438   5.632  1.00  0.00     0.331 A 
ENDBRANCH   1   3
BRANCH   1   7
HETATM    7  C4  UNL     1      13.023 -20.483   8.936  1.00  0.00     0.170 C 
HETATM    8  N3  UNL     1      12.770 -20.483  10.188  1.00  0.00    -0.395 N 
ATOM      9  H32 UNL     1      12.066 -19.840  10.550  1.00  0.00     0.156 HD
ATOM     10  H31 UNL     1      13.268 -21.120  10.810  1.00  0.00     0.156 HD
ENDBRANCH   1   7
TORSDOF 2
ENDMDL
MODEL 4
REMARK VINA RESULT: -3.611293314      2.304      4.162
REMARK  2 active torsions:
REMARK  status: ('A' for Active; 'I' for Inactive)
REMARK    1  A    between atoms: C3_4  and  N2_5 
REMARK    2  A    between atoms: N2_5  and  C4_7 
ROOT
HETATM    1  N2  UNL     1      11.735 -19.149   4.489  1.00  0.00    -0.355 N 
ATOM      2  H2  UNL     1      10.950 -18.499   4.435  1.00  0.00     0.162 HD
ENDROOT
BRANCH   1   3
HETATM    3  C3  UNL     1      12.457 -19.318   5.728  1.00  0.00     0.350 A 
HETATM    4  N1  UNL     1      13.617 -20.180   5.773  1.00  0.00     0.112 N 
HETATM    5  C1  UNL     1      13.841 -20.840   7.069  1.00  0.00     0.312 C 
HETATM    6  C2  UNL     1      13.757 -18.669   5.832  1.00  0.00     0.331 A 
ENDBRANCH   1   3
BRANCH   1   7
HETATM    7  C4  UNL     1      12.122 -19.886   3.360  1.00  0.00     0.170 C 
HETATM    8  N3  UNL     1      12.591 -19.286   2.335  1.00  0.00    -0.395 N 
ATOM      9  H32 UNL     1      12.679 -18.270   2.354  1.00  0.00     0.156 HD
ATOM     10  H31 UNL     1      12.873 -19.822   1.514  1.00  0.00     0.156 HD
ENDBRANCH   1   7
TORSDOF 2
ENDMDL
MODEL 5
REMARK VINA RESULT: -3.517167001      1.968      3.913
REMARK  2 active torsions:
REMARK  status: ('A' for Active; 'I' for Inactive)
REMARK    1  A    between atoms: C3_4  and  N2_5 
REMARK    2  A    between atoms: N2_5  and  C4_7 
ROOT
HETATM    1  N2  UNL     1      12.292 -19.416   4.021  1.00  0.00    -0.355 N 
ATOM      2  H2  UNL     1      13.093 -19.664   3.439  1.00  0.00     0.162 HD
ENDROOT
BRANCH   1   3
HETATM    3  C3  UNL     1      12.481 -19.068   5.411  1.00  0.00     0.350 A 
HETATM    4  N1  UNL     1      13.163 -19.986   6.295  1.00  0.00     0.112 N 
HETATM    5  C1  UNL     1      12.715 -19.934   7.697  1.00  0.00     0.312 C 
HETATM    6  C2  UNL     1      13.829 -18.704   5.826  1.00  0.00     0.331 A 
ENDBRANCH   1   3
BRANCH   1   7
HETATM    7  C4  UNL     1      10.998 -19.409   3.480  1.00  0.00     0.170 C 
HETATM    8  N3  UNL     1      10.000 -19.101   4.214  1.00  0.00    -0.395 N 
ATOM      9  H32 UNL     1      10.160 -18.862   5.192  1.00  0.00     0.156 HD
ATOM     10  H31 UNL     1       9.058 -19.097   3.820  1.00  0.00     0.156 HD
ENDBRANCH   1   7
TORSDOF 2
ENDMDL
