MODEL 1
REMARK VINA RESULT: -4.265802759      0.000      0.000
REMARK  2 active torsions:
REMARK  status: ('A' for Active; 'I' for Inactive)
REMARK    1  A    between atoms: C1_4  and  N2_5 
REMARK    2  A    between atoms: N2_5  and  C2_7 
ROOT
HETATM    1  N2  UNL     1       7.452 -13.256   9.510  1.00  0.00    -0.382 N 
ATOM      2  H2  UNL     1       7.707 -12.390   9.984  1.00  0.00     0.160 HD
ENDROOT
BRANCH   1   3
HETATM    3  C1  UNL     1       8.196 -14.419   9.828  1.00  0.00     0.169 C 
HETATM    4  N1  UNL     1       8.276 -14.899  11.030  1.00  0.00    -0.396 N 
ATOM      5  H12 UNL     1       7.775 -14.405  11.768  1.00  0.00     0.156 HD
ATOM      6  H11 UNL     1       8.811 -15.736  11.258  1.00  0.00     0.156 HD
ENDBRANCH   1   3
BRANCH   1   7
HETATM    7  C2  UNL     1       6.371 -13.205   8.574  1.00  0.00     0.082 A 
HETATM    8  C3  UNL     1       5.856 -11.980   7.973  1.00  0.00     0.027 A 
HETATM    9  C4  UNL     1       5.097 -12.588   9.143  1.00  0.00     0.027 A 
ENDBRANCH   1   7
TORSDOF 2
ENDMDL
MODEL 2
REMARK VINA RESULT: -4.092474716      2.084      3.559
REMARK  2 active torsions:
REMARK  status: ('A' for Active; 'I' for Inactive)
REMARK    1  A    between atoms: C1_4  and  N2_5 
REMARK    2  A    between atoms: N2_5  and  C2_7 
ROOT
HETATM    1  N2  UNL     1       6.095 -13.152   8.168  1.00  0.00    -0.382 N 
ATOM      2  H2  UNL     1       6.057 -14.069   7.723  1.00  0.00     0.160 HD
ENDROOT
BRANCH   1   3
HETATM    3  C1  UNL     1       5.227 -12.148   7.675  1.00  0.00     0.169 C 
HETATM    4  N1  UNL     1       3.938 -12.208   7.796  1.00  0.00    -0.396 N 
ATOM      5  H12 UNL     1       3.547 -13.022   8.270  1.00  0.00     0.156 HD
ATOM      6  H11 UNL     1       3.313 -11.485   7.440  1.00  0.00     0.156 HD
ENDBRANCH   1   3
BRANCH   1   7
HETATM    7  C2  UNL     1       7.022 -12.978   9.245  1.00  0.00     0.082 A 
HETATM    8  C3  UNL     1       7.676 -14.070   9.957  1.00  0.00     0.027 A 
HETATM    9  C4  UNL     1       6.470 -13.403  10.603  1.00  0.00     0.027 A 
ENDBRANCH   1   7
TORSDOF 2
ENDMDL
MODEL 3
REMARK VINA RESULT: -4.074407838      0.970      1.284
REMARK  2 active torsions:
REMARK  status: ('A' for Active; 'I' for Inactive)
REMARK    1  A    between atoms: C1_4  and  N2_5 
REMARK    2  A    between atoms: N2_5  and  C2_7 
ROOT
HETATM    1  N2  UNL     1       6.918 -13.279   9.094  1.00  0.00    -0.382 N 
ATOM      2  H2  UNL     1       7.501 -13.801   8.441  1.00  0.00     0.160 HD
ENDROOT
BRANCH   1   3
HETATM    3  C1  UNL     1       6.945 -13.672  10.454  1.00  0.00     0.169 C 
HETATM    4  N1  UNL     1       7.880 -14.418  10.955  1.00  0.00    -0.396 N 
ATOM      5  H12 UNL     1       8.622 -14.727  10.327  1.00  0.00     0.156 HD
ATOM      6  H11 UNL     1       7.899 -14.701  11.934  1.00  0.00     0.156 HD
ENDBRANCH   1   3
BRANCH   1   7
HETATM    7  C2  UNL     1       6.134 -12.204   8.567  1.00  0.00     0.082 A 
HETATM    8  C3  UNL     1       4.676 -12.197   8.508  1.00  0.00     0.027 A 
HETATM    9  C4  UNL     1       5.451 -12.535   7.243  1.00  0.00     0.027 A 
ENDBRANCH   1   7
TORSDOF 2
ENDMDL
MODEL 4
REMARK VINA RESULT: -3.982381854      1.223      1.242
REMARK  2 active torsions:
REMARK  status: ('A' for Active; 'I' for Inactive)
REMARK    1  A    between atoms: C1_4  and  N2_5 
REMARK    2  A    between atoms: N2_5  and  C2_7 
ROOT
HETATM    1  N2  UNL     1       5.945 -12.974   9.870  1.00  0.00    -0.382 N 
ATOM      2  H2  UNL     1       5.202 -12.506  10.389  1.00  0.00     0.160 HD
ENDROOT
BRANCH   1   3
HETATM    3  C1  UNL     1       6.912 -13.692  10.616  1.00  0.00     0.169 C 
HETATM    4  N1  UNL     1       8.031 -14.104  10.108  1.00  0.00    -0.396 N 
ATOM      5  H12 UNL     1       8.207 -13.894   9.125  1.00  0.00     0.156 HD
ATOM      6  H11 UNL     1       8.727 -14.620  10.645  1.00  0.00     0.156 HD
ENDBRANCH   1   3
BRANCH   1   7
HETATM    7  C2  UNL     1       5.932 -12.857   8.444  1.00  0.00     0.082 A 
HETATM    8  C3  UNL     1       5.901 -11.591   7.719  1.00  0.00     0.027 A 
HETATM    9  C4  UNL     1       4.601 -12.366   7.882  1.00  0.00     0.027 A 
ENDBRANCH   1   7
TORSDOF 2
ENDMDL
MODEL 5
REMARK VINA RESULT: -3.963963096      2.161      3.663
REMARK  2 active torsions:
REMARK  status: ('A' for Active; 'I' for Inactive)
REMARK    1  A    between atoms: C1_4  and  N2_5 
REMARK    2  A    between atoms: N2_5  and  C2_7 
ROOT
HETATM    1  N2  UNL     1       6.137 -12.352   8.355  1.00  0.00    -0.382 N 
ATOM      2  H2  UNL     1       6.890 -11.663   8.371  1.00  0.00     0.160 HD
ENDROOT
BRANCH   1   3
HETATM    3  C1  UNL     1       5.111 -12.179   7.395  1.00  0.00     0.169 C 
HETATM    4  N1  UNL     1       3.850 -12.253   7.688  1.00  0.00    -0.396 N 
ATOM      5  H12 UNL     1       3.604 -12.444   8.659  1.00  0.00     0.156 HD
ATOM      6  H11 UNL     1       3.112 -12.128   6.997  1.00  0.00     0.156 HD
ENDBRANCH   1   3
BRANCH   1   7
HETATM    7  C2  UNL     1       6.198 -13.421   9.305  1.00  0.00     0.082 A 
HETATM    8  C3  UNL     1       6.606 -13.267  10.697  1.00  0.00     0.027 A 
HETATM    9  C4  UNL     1       7.621 -13.809   9.700  1.00  0.00     0.027 A 
ENDBRANCH   1   7
TORSDOF 2
ENDMDL
