MODEL 1
REMARK VINA RESULT: -6.836161684      0.000      0.000
REMARK  12 active torsions:
REMARK  status: ('A' for Active; 'I' for Inactive)
REMARK    1  A    between atoms: C1_4  and  N2_5 
REMARK    2  A    between atoms: N2_5  and  C2_7 
REMARK    3  A    between atoms: C2_7  and  C3_8 
REMARK    4  A    between atoms: C3_8  and  C4_9 
REMARK    5  A    between atoms: C4_9  and  O1_10 
REMARK    6  A    between atoms: O1_10  and  N3_11 
REMARK    7  A    between atoms: N3_11  and  C5_13 
REMARK    8  A    between atoms: C5_13  and  C6_14 
REMARK    9  A    between atoms: C8_16  and  N4_17 
REMARK   10  A    between atoms: C9_21  and  N5_22 
REMARK   11  A    between atoms: C12_27  and  N7_28 
REMARK   12  A    between atoms: C13_33  and  N9_34 
ROOT
HETATM    1  C6  UNL     1      10.824  20.636  17.714  1.00  0.00     0.146 C 
HETATM    2  C7  UNL     1      12.089  20.920  16.984  1.00  0.00     0.071 C 
HETATM    3  C8  UNL     1      11.568  20.813  15.538  1.00  0.00     0.234 C 
HETATM    4  C9  UNL     1      10.113  21.061  15.711  1.00  0.00     0.261 C 
HETATM    5  O2  UNL     1       9.857  21.325  17.054  1.00  0.00    -0.357 OA
ENDROOT
BRANCH   4   6
HETATM    6  N5  UNL     1       9.514  22.061  14.842  1.00  0.00    -0.297 N 
HETATM    7  C10 UNL     1       9.444  23.420  15.074  1.00  0.00     0.188 A 
HETATM    8  N6  UNL     1       8.801  23.914  14.056  1.00  0.00    -0.346 N 
HETATM    9  C11 UNL     1       8.441  22.946  13.175  1.00  0.00     0.123 A 
ATOM     10  H6  UNL     1       8.594  24.905  13.935  1.00  0.00     0.167 HD
HETATM   11  C12 UNL     1       7.730  22.993  12.018  1.00  0.00     0.145 A 
HETATM   12  C14 UNL     1       8.898  21.773  13.693  1.00  0.00     0.157 A 
HETATM   13  N8  UNL     1       7.509  21.762  11.406  1.00  0.00    -0.175 N 
HETATM   14  C13 UNL     1       7.930  20.610  11.871  1.00  0.00     0.679 A 
ATOM     15  H8  UNL     1       6.980  21.756  10.533  1.00  0.00     0.186 HD
HETATM   16  N10 UNL     1       8.649  20.627  13.049  1.00  0.00    -0.174 N 
ATOM     17  H10 UNL     1       8.996  19.749  13.437  1.00  0.00     0.186 HD
BRANCH  11  18
HETATM   18  N7  UNL     1       7.287  24.003  11.422  1.00  0.00    -0.383 N 
ATOM     19  H72 UNL     1       6.373  24.344  11.719  1.00  0.00     0.157 HD
ATOM     20  H71 UNL     1       7.713  24.515  10.649  1.00  0.00     0.157 HD
ENDBRANCH  11  18
BRANCH  14  21
HETATM   21  N9  UNL     1       7.709  19.488  11.309  1.00  0.00    -0.234 N 
ATOM     22  H92 UNL     1       8.506  18.931  11.001  1.00  0.00     0.174 HD
ATOM     23  H91 UNL     1       6.779  19.100  11.151  1.00  0.00     0.174 HD
ENDBRANCH  14  21
ENDBRANCH   4   6
BRANCH   3  24
HETATM   24  N4  UNL     1      12.304  21.690  14.690  1.00  0.00    -0.071 N 
ATOM     25  H43 UNL     1      13.307  21.640  14.867  1.00  0.00     0.274 HD
ATOM     26  H42 UNL     1      12.308  21.371  13.721  1.00  0.00     0.274 HD
ATOM     27  H41 UNL     1      11.946  22.641  14.779  1.00  0.00     0.274 HD
ENDBRANCH   3  24
BRANCH   1  28
HETATM   28  C5  UNL     1      10.845  20.839  19.207  1.00  0.00     0.178 C 
BRANCH  28  29
HETATM   29  N3  UNL     1      12.097  20.300  19.776  1.00  0.00    -0.300 N 
ATOM     30  H3  UNL     1      12.777  20.924  20.210  1.00  0.00     0.187 HD
BRANCH  29  31
HETATM   31  O1  UNL     1      12.300  19.156  19.723  1.00  0.00    -0.285 OA
BRANCH  31  32
HETATM   32  C4  UNL     1      12.523  17.928  19.666  1.00  0.00     0.202 C 
BRANCH  32  33
HETATM   33  C3  UNL     1      13.881  17.562  18.967  1.00  0.00     0.048 C 
BRANCH  33  34
HETATM   34  C2  UNL     1      14.987  17.897  19.875  1.00  0.00     0.122 C 
BRANCH  34  35
HETATM   35  N2  UNL     1      14.694  18.282  21.218  1.00  0.00    -0.386 N 
ATOM     36  H2  UNL     1      13.740  18.458  21.534  1.00  0.00     0.160 HD
BRANCH  35  37
HETATM   37  C1  UNL     1      15.814  18.407  22.094  1.00  0.00     0.168 C 
HETATM   38  N1  UNL     1      16.188  17.559  22.931  1.00  0.00    -0.396 N 
ATOM     39  H12 UNL     1      15.631  16.706  22.980  1.00  0.00     0.156 HD
ATOM     40  H11 UNL     1      16.988  17.648  23.557  1.00  0.00     0.156 HD
ENDBRANCH  35  37
ENDBRANCH  34  35
ENDBRANCH  33  34
ENDBRANCH  32  33
ENDBRANCH  31  32
ENDBRANCH  29  31
ENDBRANCH  28  29
ENDBRANCH   1  28
TORSDOF 12
ENDMDL
MODEL 2
REMARK VINA RESULT: -6.744084292      1.466      1.949
REMARK  12 active torsions:
REMARK  status: ('A' for Active; 'I' for Inactive)
REMARK    1  A    between atoms: C1_4  and  N2_5 
REMARK    2  A    between atoms: N2_5  and  C2_7 
REMARK    3  A    between atoms: C2_7  and  C3_8 
REMARK    4  A    between atoms: C3_8  and  C4_9 
REMARK    5  A    between atoms: C4_9  and  O1_10 
REMARK    6  A    between atoms: O1_10  and  N3_11 
REMARK    7  A    between atoms: N3_11  and  C5_13 
REMARK    8  A    between atoms: C5_13  and  C6_14 
REMARK    9  A    between atoms: C8_16  and  N4_17 
REMARK   10  A    between atoms: C9_21  and  N5_22 
REMARK   11  A    between atoms: C12_27  and  N7_28 
REMARK   12  A    between atoms: C13_33  and  N9_34 
ROOT
HETATM    1  C6  UNL     1      10.248  20.496  17.742  1.00  0.00     0.146 C 
HETATM    2  C7  UNL     1      11.437  20.125  16.928  1.00  0.00     0.071 C 
HETATM    3  C8  UNL     1      10.907  20.501  15.531  1.00  0.00     0.234 C 
HETATM    4  C9  UNL     1       9.841  21.484  15.855  1.00  0.00     0.261 C 
HETATM    5  O2  UNL     1       9.811  21.678  17.234  1.00  0.00    -0.357 OA
ENDROOT
BRANCH   4   6
HETATM    6  N5  UNL     1       9.878  22.747  15.135  1.00  0.00    -0.297 N 
HETATM    7  C10 UNL     1      10.490  23.914  15.547  1.00  0.00     0.188 A 
HETATM    8  N6  UNL     1      10.242  24.785  14.612  1.00  0.00    -0.346 N 
HETATM    9  C11 UNL     1       9.493  24.248  13.615  1.00  0.00     0.123 A 
ATOM     10  H6  UNL     1      10.569  25.751  14.627  1.00  0.00     0.167 HD
HETATM   11  C12 UNL     1       8.969  24.789  12.484  1.00  0.00     0.145 A 
HETATM   12  C14 UNL     1       9.267  22.952  13.965  1.00  0.00     0.157 A 
HETATM   13  N8  UNL     1       8.193  23.925  11.716  1.00  0.00    -0.175 N 
HETATM   14  C13 UNL     1       7.949  22.672  12.018  1.00  0.00     0.679 A 
ATOM     15  H8  UNL     1       7.784  24.294  10.857  1.00  0.00     0.186 HD
HETATM   16  N10 UNL     1       8.511  22.179  13.179  1.00  0.00    -0.174 N 
ATOM     17  H10 UNL     1       8.346  21.207  13.441  1.00  0.00     0.186 HD
BRANCH  11  18
HETATM   18  N7  UNL     1       9.130  25.948  12.033  1.00  0.00    -0.383 N 
ATOM     19  H72 UNL     1       9.979  26.435  12.320  1.00  0.00     0.157 HD
ATOM     20  H71 UNL     1       8.502  26.484  11.434  1.00  0.00     0.157 HD
ENDBRANCH  11  18
BRANCH  14  21
HETATM   21  N9  UNL     1       7.225  21.894  11.314  1.00  0.00    -0.234 N 
ATOM     22  H92 UNL     1       7.539  21.652  10.375  1.00  0.00     0.174 HD
ATOM     23  H91 UNL     1       6.346  21.487  11.633  1.00  0.00     0.174 HD
ENDBRANCH  14  21
ENDBRANCH   4   6
BRANCH   3  24
HETATM   24  N4  UNL     1      11.985  20.925  14.701  1.00  0.00    -0.071 N 
ATOM     25  H43 UNL     1      12.606  21.575  15.182  1.00  0.00     0.274 HD
ATOM     26  H42 UNL     1      12.656  20.176  14.533  1.00  0.00     0.274 HD
ATOM     27  H41 UNL     1      11.621  21.315  13.831  1.00  0.00     0.274 HD
ENDBRANCH   3  24
BRANCH   1  28
HETATM   28  C5  UNL     1      10.417  20.469  19.238  1.00  0.00     0.178 C 
BRANCH  28  29
HETATM   29  N3  UNL     1      11.742  19.920  19.590  1.00  0.00    -0.300 N 
ATOM     30  H3  UNL     1      11.917  18.917  19.531  1.00  0.00     0.187 HD
BRANCH  29  31
HETATM   31  O1  UNL     1      12.585  20.643  19.936  1.00  0.00    -0.285 OA
BRANCH  31  32
HETATM   32  C4  UNL     1      13.490  21.421  20.303  1.00  0.00     0.202 C 
BRANCH  32  33
HETATM   33  C3  UNL     1      14.925  20.782  20.276  1.00  0.00     0.048 C 
BRANCH  33  34
HETATM   34  C2  UNL     1      15.083  19.919  21.456  1.00  0.00     0.122 C 
BRANCH  34  35
HETATM   35  N2  UNL     1      14.416  18.658  21.490  1.00  0.00    -0.386 N 
ATOM     36  H2  UNL     1      13.808  18.388  22.264  1.00  0.00     0.160 HD
BRANCH  35  37
HETATM   37  C1  UNL     1      14.650  17.794  20.377  1.00  0.00     0.168 C 
HETATM   38  N1  UNL     1      13.942  16.821  20.043  1.00  0.00    -0.396 N 
ATOM     39  H12 UNL     1      13.127  16.641  20.630  1.00  0.00     0.156 HD
ATOM     40  H11 UNL     1      14.108  16.204  19.249  1.00  0.00     0.156 HD
ENDBRANCH  35  37
ENDBRANCH  34  35
ENDBRANCH  33  34
ENDBRANCH  32  33
ENDBRANCH  31  32
ENDBRANCH  29  31
ENDBRANCH  28  29
ENDBRANCH   1  28
TORSDOF 12
ENDMDL
MODEL 3
REMARK VINA RESULT: -6.677949625      1.795      8.290
REMARK  12 active torsions:
REMARK  status: ('A' for Active; 'I' for Inactive)
REMARK    1  A    between atoms: C1_4  and  N2_5 
REMARK    2  A    between atoms: N2_5  and  C2_7 
REMARK    3  A    between atoms: C2_7  and  C3_8 
REMARK    4  A    between atoms: C3_8  and  C4_9 
REMARK    5  A    between atoms: C4_9  and  O1_10 
REMARK    6  A    between atoms: O1_10  and  N3_11 
REMARK    7  A    between atoms: N3_11  and  C5_13 
REMARK    8  A    between atoms: C5_13  and  C6_14 
REMARK    9  A    between atoms: C8_16  and  N4_17 
REMARK   10  A    between atoms: C9_21  and  N5_22 
REMARK   11  A    between atoms: C12_27  and  N7_28 
REMARK   12  A    between atoms: C13_33  and  N9_34 
ROOT
HETATM    1  C6  UNL     1      10.461  19.962  15.735  1.00  0.00     0.146 C 
HETATM    2  C7  UNL     1      11.692  20.579  15.170  1.00  0.00     0.071 C 
HETATM    3  C8  UNL     1      12.003  21.584  16.295  1.00  0.00     0.234 C 
HETATM    4  C9  UNL     1      11.297  20.983  17.456  1.00  0.00     0.261 C 
HETATM    5  O2  UNL     1      10.716  19.781  17.057  1.00  0.00    -0.357 OA
ENDROOT
BRANCH   4   6
HETATM    6  N5  UNL     1      12.067  20.828  18.679  1.00  0.00    -0.297 N 
HETATM    7  C10 UNL     1      12.342  21.809  19.611  1.00  0.00     0.188 A 
HETATM    8  N6  UNL     1      13.080  21.232  20.515  1.00  0.00    -0.346 N 
HETATM    9  C11 UNL     1      13.306  19.927  20.217  1.00  0.00     0.123 A 
ATOM     10  H6  UNL     1      13.443  21.702  21.344  1.00  0.00     0.167 HD
HETATM   11  C12 UNL     1      14.044  18.971  20.839  1.00  0.00     0.145 A 
HETATM   12  C14 UNL     1      12.658  19.687  19.044  1.00  0.00     0.157 A 
HETATM   13  N8  UNL     1      14.086  17.738  20.194  1.00  0.00    -0.175 N 
HETATM   14  C13 UNL     1      13.478  17.466  19.064  1.00  0.00     0.679 A 
ATOM     15  H8  UNL     1      14.629  16.993  20.631  1.00  0.00     0.186 HD
HETATM   16  N10 UNL     1      12.742  18.477  18.481  1.00  0.00    -0.174 N 
ATOM     17  H10 UNL     1      12.252  18.299  17.604  1.00  0.00     0.186 HD
BRANCH  11  18
HETATM   18  N7  UNL     1      14.654  19.052  21.932  1.00  0.00    -0.383 N 
ATOM     19  H72 UNL     1      14.849  19.992  22.277  1.00  0.00     0.157 HD
ATOM     20  H71 UNL     1      15.012  18.293  22.512  1.00  0.00     0.157 HD
ENDBRANCH  11  18
BRANCH  14  21
HETATM   21  N9  UNL     1      13.535  16.337  18.474  1.00  0.00    -0.234 N 
ATOM     22  H92 UNL     1      12.662  15.882  18.208  1.00  0.00     0.174 HD
ATOM     23  H91 UNL     1      14.404  15.856  18.241  1.00  0.00     0.174 HD
ENDBRANCH  14  21
ENDBRANCH   4   6
BRANCH   3  24
HETATM   24  N4  UNL     1      13.411  21.784  16.392  1.00  0.00    -0.071 N 
ATOM     25  H43 UNL     1      13.922  21.247  15.692  1.00  0.00     0.274 HD
ATOM     26  H42 UNL     1      13.686  22.719  16.094  1.00  0.00     0.274 HD
ATOM     27  H41 UNL     1      13.727  21.575  17.340  1.00  0.00     0.274 HD
ENDBRANCH   3  24
BRANCH   1  28
HETATM   28  C5  UNL     1       9.921  18.752  15.018  1.00  0.00     0.178 C 
BRANCH  28  29
HETATM   29  N3  UNL     1       8.632  19.077  14.374  1.00  0.00    -0.300 N 
ATOM     30  H3  UNL     1       7.752  18.827  14.826  1.00  0.00     0.187 HD
BRANCH  29  31
HETATM   31  O1  UNL     1       8.630  19.620  13.345  1.00  0.00    -0.285 OA
BRANCH  31  32
HETATM   32  C4  UNL     1       8.632  20.201  12.240  1.00  0.00     0.202 C 
BRANCH  32  33
HETATM   33  C3  UNL     1       7.521  21.304  12.102  1.00  0.00     0.048 C 
BRANCH  33  34
HETATM   34  C2  UNL     1       7.989  22.533  12.757  1.00  0.00     0.122 C 
BRANCH  34  35
HETATM   35  N2  UNL     1       9.259  22.535  13.410  1.00  0.00    -0.386 N 
ATOM     36  H2  UNL     1      10.005  21.892  13.143  1.00  0.00     0.160 HD
BRANCH  35  37
HETATM   37  C1  UNL     1       9.424  23.491  14.457  1.00  0.00     0.168 C 
HETATM   38  N1  UNL     1       8.507  24.123  15.023  1.00  0.00    -0.396 N 
ATOM     39  H12 UNL     1       7.562  23.928  14.695  1.00  0.00     0.156 HD
ATOM     40  H11 UNL     1       8.625  24.806  15.771  1.00  0.00     0.156 HD
ENDBRANCH  35  37
ENDBRANCH  34  35
ENDBRANCH  33  34
ENDBRANCH  32  33
ENDBRANCH  31  32
ENDBRANCH  29  31
ENDBRANCH  28  29
ENDBRANCH   1  28
TORSDOF 12
ENDMDL
MODEL 4
REMARK VINA RESULT: -6.668045034      2.188      3.503
REMARK  12 active torsions:
REMARK  status: ('A' for Active; 'I' for Inactive)
REMARK    1  A    between atoms: C1_4  and  N2_5 
REMARK    2  A    between atoms: N2_5  and  C2_7 
REMARK    3  A    between atoms: C2_7  and  C3_8 
REMARK    4  A    between atoms: C3_8  and  C4_9 
REMARK    5  A    between atoms: C4_9  and  O1_10 
REMARK    6  A    between atoms: O1_10  and  N3_11 
REMARK    7  A    between atoms: N3_11  and  C5_13 
REMARK    8  A    between atoms: C5_13  and  C6_14 
REMARK    9  A    between atoms: C8_16  and  N4_17 
REMARK   10  A    between atoms: C9_21  and  N5_22 
REMARK   11  A    between atoms: C12_27  and  N7_28 
REMARK   12  A    between atoms: C13_33  and  N9_34 
ROOT
HETATM    1  C6  UNL     1      13.461  22.190  17.843  1.00  0.00     0.146 C 
HETATM    2  C7  UNL     1      12.255  22.735  18.522  1.00  0.00     0.071 C 
HETATM    3  C8  UNL     1      11.622  23.488  17.336  1.00  0.00     0.234 C 
HETATM    4  C9  UNL     1      12.222  22.791  16.169  1.00  0.00     0.261 C 
HETATM    5  O2  UNL     1      13.033  21.757  16.629  1.00  0.00    -0.357 OA
ENDROOT
BRANCH   4   6
HETATM    6  N5  UNL     1      11.303  22.336  15.138  1.00  0.00    -0.297 N 
HETATM    7  C10 UNL     1      10.778  23.091  14.108  1.00  0.00     0.188 A 
HETATM    8  N6  UNL     1       9.988  22.287  13.456  1.00  0.00    -0.346 N 
HETATM    9  C11 UNL     1       9.965  21.049  14.012  1.00  0.00     0.123 A 
ATOM     10  H6  UNL     1       9.453  22.555  12.631  1.00  0.00     0.167 HD
HETATM   11  C12 UNL     1       9.262  19.929  13.701  1.00  0.00     0.145 A 
HETATM   12  C14 UNL     1      10.804  21.098  15.084  1.00  0.00     0.157 A 
HETATM   13  N8  UNL     1       9.463  18.845  14.550  1.00  0.00    -0.175 N 
HETATM   14  C13 UNL     1      10.260  18.850  15.592  1.00  0.00     0.679 A 
ATOM     15  H8  UNL     1       8.954  17.984  14.348  1.00  0.00     0.186 HD
HETATM   16  N10 UNL     1      10.950  20.017  15.857  1.00  0.00    -0.174 N 
ATOM     17  H10 UNL     1      11.582  20.054  16.657  1.00  0.00     0.186 HD
BRANCH  11  18
HETATM   18  N7  UNL     1       8.491  19.744  12.729  1.00  0.00    -0.383 N 
ATOM     19  H72 UNL     1       7.731  19.078  12.870  1.00  0.00     0.157 HD
ATOM     20  H71 UNL     1       8.544  20.153  11.796  1.00  0.00     0.157 HD
ENDBRANCH  11  18
BRANCH  14  21
HETATM   21  N9  UNL     1      10.426  17.855  16.372  1.00  0.00    -0.234 N 
ATOM     22  H92 UNL     1      11.327  17.376  16.366  1.00  0.00     0.174 HD
ATOM     23  H91 UNL     1       9.715  17.506  17.014  1.00  0.00     0.174 HD
ENDBRANCH  14  21
ENDBRANCH   4   6
BRANCH   3  24
HETATM   24  N4  UNL     1      10.204  23.491  17.464  1.00  0.00    -0.071 N 
ATOM     25  H43 UNL     1       9.853  22.617  17.856  1.00  0.00     0.274 HD
ATOM     26  H42 UNL     1       9.887  24.122  18.199  1.00  0.00     0.274 HD
ATOM     27  H41 UNL     1       9.774  23.706  16.563  1.00  0.00     0.274 HD
ENDBRANCH   3  24
BRANCH   1  28
HETATM   28  C5  UNL     1      14.285  21.197  18.621  1.00  0.00     0.178 C 
BRANCH  28  29
HETATM   29  N3  UNL     1      14.111  21.418  20.071  1.00  0.00    -0.300 N 
ATOM     30  H3  UNL     1      13.696  22.284  20.415  1.00  0.00     0.187 HD
BRANCH  29  31
HETATM   31  O1  UNL     1      14.454  20.594  20.818  1.00  0.00    -0.285 OA
BRANCH  31  32
HETATM   32  C4  UNL     1      14.824  19.713  21.622  1.00  0.00     0.202 C 
BRANCH  32  33
HETATM   33  C3  UNL     1      15.495  18.469  20.934  1.00  0.00     0.048 C 
BRANCH  33  34
HETATM   34  C2  UNL     1      14.482  17.767  20.134  1.00  0.00     0.122 C 
BRANCH  34  35
HETATM   35  N2  UNL     1      13.101  17.931  20.457  1.00  0.00    -0.386 N 
ATOM     36  H2  UNL     1      12.747  17.790  21.404  1.00  0.00     0.160 HD
BRANCH  35  37
HETATM   37  C1  UNL     1      12.245  18.304  19.378  1.00  0.00     0.168 C 
HETATM   38  N1  UNL     1      11.361  19.186  19.415  1.00  0.00    -0.396 N 
ATOM     39  H12 UNL     1      11.256  19.675  20.304  1.00  0.00     0.156 HD
ATOM     40  H11 UNL     1      10.749  19.453  18.644  1.00  0.00     0.156 HD
ENDBRANCH  35  37
ENDBRANCH  34  35
ENDBRANCH  33  34
ENDBRANCH  32  33
ENDBRANCH  31  32
ENDBRANCH  29  31
ENDBRANCH  28  29
ENDBRANCH   1  28
TORSDOF 12
ENDMDL
MODEL 5
REMARK VINA RESULT: -6.652824768      2.093      2.907
REMARK  12 active torsions:
REMARK  status: ('A' for Active; 'I' for Inactive)
REMARK    1  A    between atoms: C1_4  and  N2_5 
REMARK    2  A    between atoms: N2_5  and  C2_7 
REMARK    3  A    between atoms: C2_7  and  C3_8 
REMARK    4  A    between atoms: C3_8  and  C4_9 
REMARK    5  A    between atoms: C4_9  and  O1_10 
REMARK    6  A    between atoms: O1_10  and  N3_11 
REMARK    7  A    between atoms: N3_11  and  C5_13 
REMARK    8  A    between atoms: C5_13  and  C6_14 
REMARK    9  A    between atoms: C8_16  and  N4_17 
REMARK   10  A    between atoms: C9_21  and  N5_22 
REMARK   11  A    between atoms: C12_27  and  N7_28 
REMARK   12  A    between atoms: C13_33  and  N9_34 
ROOT
HETATM    1  C6  UNL     1      10.215  20.531  17.527  1.00  0.00     0.146 C 
HETATM    2  C7  UNL     1      11.443  20.210  16.751  1.00  0.00     0.071 C 
HETATM    3  C8  UNL     1      10.956  20.600  15.343  1.00  0.00     0.234 C 
HETATM    4  C9  UNL     1       9.851  21.546  15.646  1.00  0.00     0.261 C 
HETATM    5  O2  UNL     1       9.764  21.710  17.026  1.00  0.00    -0.357 OA
ENDROOT
BRANCH   4   6
HETATM    6  N5  UNL     1       9.879  22.824  14.953  1.00  0.00    -0.297 N 
HETATM    7  C10 UNL     1      10.510  23.978  15.375  1.00  0.00     0.188 A 
HETATM    8  N6  UNL     1      10.245  24.871  14.466  1.00  0.00    -0.346 N 
HETATM    9  C11 UNL     1       9.468  24.361  13.476  1.00  0.00     0.123 A 
ATOM     10  H6  UNL     1      10.580  25.834  14.493  1.00  0.00     0.167 HD
HETATM   11  C12 UNL     1       8.920  24.930  12.371  1.00  0.00     0.145 A 
HETATM   12  C14 UNL     1       9.241  23.060  13.804  1.00  0.00     0.157 A 
HETATM   13  N8  UNL     1       8.118  24.089  11.604  1.00  0.00    -0.175 N 
HETATM   14  C13 UNL     1       7.873  22.831  11.884  1.00  0.00     0.679 A 
ATOM     15  H8  UNL     1       7.690  24.479  10.764  1.00  0.00     0.186 HD
HETATM   16  N10 UNL     1       8.460  22.309  13.020  1.00  0.00    -0.174 N 
ATOM     17  H10 UNL     1       8.294  21.333  13.265  1.00  0.00     0.186 HD
BRANCH  11  18
HETATM   18  N7  UNL     1       9.078  26.098  11.941  1.00  0.00    -0.383 N 
ATOM     19  H72 UNL     1       9.471  26.190  11.005  1.00  0.00     0.157 HD
ATOM     20  H71 UNL     1       8.891  26.977  12.424  1.00  0.00     0.157 HD
ENDBRANCH  11  18
BRANCH  14  21
HETATM   21  N9  UNL     1       7.125  22.074  11.183  1.00  0.00    -0.234 N 
ATOM     22  H92 UNL     1       6.666  21.285  11.638  1.00  0.00     0.174 HD
ATOM     23  H91 UNL     1       6.947  22.209  10.188  1.00  0.00     0.174 HD
ENDBRANCH  14  21
ENDBRANCH   4   6
BRANCH   3  24
HETATM   24  N4  UNL     1      12.051  21.070  14.563  1.00  0.00    -0.071 N 
ATOM     25  H43 UNL     1      12.691  20.317  14.308  1.00  0.00     0.274 HD
ATOM     26  H42 UNL     1      11.763  21.344  13.624  1.00  0.00     0.274 HD
ATOM     27  H41 UNL     1      12.527  21.828  15.053  1.00  0.00     0.274 HD
ENDBRANCH   3  24
BRANCH   1  28
HETATM   28  C5  UNL     1      10.329  20.477  19.028  1.00  0.00     0.178 C 
BRANCH  28  29
HETATM   29  N3  UNL     1      11.101  19.286  19.436  1.00  0.00    -0.300 N 
ATOM     30  H3  UNL     1      10.688  18.355  19.369  1.00  0.00     0.187 HD
BRANCH  29  31
HETATM   31  O1  UNL     1      12.186  19.420  19.836  1.00  0.00    -0.285 OA
BRANCH  31  32
HETATM   32  C4  UNL     1      13.351  19.566  20.262  1.00  0.00     0.202 C 
BRANCH  32  33
HETATM   33  C3  UNL     1      14.172  20.665  19.497  1.00  0.00     0.048 C 
BRANCH  33  34
HETATM   34  C2  UNL     1      14.091  21.926  20.248  1.00  0.00     0.122 C 
BRANCH  34  35
HETATM   35  N2  UNL     1      12.812  22.512  20.491  1.00  0.00    -0.386 N 
ATOM     36  H2  UNL     1      12.189  22.167  21.222  1.00  0.00     0.160 HD
BRANCH  35  37
HETATM   37  C1  UNL     1      12.455  23.609  19.650  1.00  0.00     0.168 C 
HETATM   38  N1  UNL     1      11.992  23.525  18.493  1.00  0.00    -0.396 N 
ATOM     39  H12 UNL     1      11.864  22.579  18.131  1.00  0.00     0.156 HD
ATOM     40  H11 UNL     1      11.737  24.308  17.892  1.00  0.00     0.156 HD
ENDBRANCH  35  37
ENDBRANCH  34  35
ENDBRANCH  33  34
ENDBRANCH  32  33
ENDBRANCH  31  32
ENDBRANCH  29  31
ENDBRANCH  28  29
ENDBRANCH   1  28
TORSDOF 12
ENDMDL
