MODEL 1
REMARK VINA RESULT: -5.712350364      0.000      0.000
REMARK  3 active torsions:
REMARK  status: ('A' for Active; 'I' for Inactive)
REMARK    1  A    between atoms: N1_3  and  C4_5 
REMARK    2  A    between atoms: C9_10  and  C10_11 
REMARK    3  A    between atoms: N2_12  and  N3_14 
ROOT
HETATM    1  C1  UNL     1     -39.344   1.763  -1.433  1.00  0.00     0.123 C 
HETATM    2  C2  UNL     1     -40.472   2.200  -1.607  1.00  0.00    -0.073 C 
HETATM    3  N1  UNL     1     -41.772   2.690  -1.797  1.00  0.00    -0.321 N 
HETATM    4  C3  UNL     1     -42.264   2.798  -3.156  1.00  0.00     0.166 C 
ENDROOT
BRANCH   3   5
HETATM    5  C4  UNL     1     -42.521   3.049  -0.641  1.00  0.00     0.052 A 
HETATM    6  C5  UNL     1     -43.318   2.094   0.003  1.00  0.00     0.031 A 
HETATM    7  C6  UNL     1     -44.084   2.383   1.102  1.00  0.00     0.002 A 
HETATM    8  C7  UNL     1     -44.044   3.668   1.562  1.00  0.00     0.001 A 
HETATM    9  C8  UNL     1     -43.252   4.624   0.926  1.00  0.00     0.015 A 
HETATM   10  C9  UNL     1     -42.475   4.354  -0.178  1.00  0.00     0.008 A 
BRANCH  10  11
HETATM   11  C10 UNL     1     -41.621   5.314  -0.840  1.00  0.00     0.120 C 
HETATM   12  N2  UNL     1     -41.964   6.161  -1.689  1.00  0.00    -0.309 N 
ATOM     13  H2  UNL     1     -41.157   6.709  -1.988  1.00  0.00     0.186 HD
BRANCH  12  14
HETATM   14  N3  UNL     1     -43.061   6.572  -2.329  1.00  0.00    -0.276 N 
HETATM   15  C11 UNL     1     -43.080   7.550  -3.166  1.00  0.00     0.215 C 
HETATM   16  N4  UNL     1     -41.865   8.230  -3.425  1.00  0.00    -0.065 NA
HETATM   17  N5  UNL     1     -44.320   7.876  -3.770  1.00  0.00    -0.065 NA
ATOM     18  H3  UNL     1     -43.936   6.082  -2.143  1.00  0.00     0.189 HD
ENDBRANCH  12  14
ENDBRANCH  10  11
ENDBRANCH   3   5
TORSDOF 3
ENDMDL
MODEL 2
REMARK VINA RESULT: -5.684349666      2.354      4.220
REMARK  3 active torsions:
REMARK  status: ('A' for Active; 'I' for Inactive)
REMARK    1  A    between atoms: N1_3  and  C4_5 
REMARK    2  A    between atoms: C9_10  and  C10_11 
REMARK    3  A    between atoms: N2_12  and  N3_14 
ROOT
HETATM    1  C1  UNL     1     -44.143   9.184  -0.386  1.00  0.00     0.123 C 
HETATM    2  C2  UNL     1     -44.772   8.138  -0.338  1.00  0.00    -0.073 C 
HETATM    3  N1  UNL     1     -45.482   6.929  -0.291  1.00  0.00    -0.321 N 
HETATM    4  C3  UNL     1     -46.818   6.907  -0.853  1.00  0.00     0.166 C 
ENDROOT
BRANCH   3   5
HETATM    5  C4  UNL     1     -44.843   5.807   0.307  1.00  0.00     0.052 A 
HETATM    6  C5  UNL     1     -44.670   5.757   1.696  1.00  0.00     0.031 A 
HETATM    7  C6  UNL     1     -44.039   4.720   2.331  1.00  0.00     0.002 A 
HETATM    8  C7  UNL     1     -43.570   3.708   1.543  1.00  0.00     0.001 A 
HETATM    9  C8  UNL     1     -43.739   3.751   0.159  1.00  0.00     0.015 A 
HETATM   10  C9  UNL     1     -44.371   4.783  -0.498  1.00  0.00     0.008 A 
BRANCH  10  11
HETATM   11  C10 UNL     1     -44.588   4.842  -1.925  1.00  0.00     0.120 C 
HETATM   12  N2  UNL     1     -43.928   5.497  -2.757  1.00  0.00    -0.309 N 
ATOM     13  H2  UNL     1     -44.300   5.353  -3.695  1.00  0.00     0.186 HD
BRANCH  12  14
HETATM   14  N3  UNL     1     -42.884   6.327  -2.798  1.00  0.00    -0.276 N 
HETATM   15  C11 UNL     1     -42.878   7.440  -3.446  1.00  0.00     0.215 C 
HETATM   16  N4  UNL     1     -44.046   7.805  -4.157  1.00  0.00    -0.065 NA
HETATM   17  N5  UNL     1     -41.696   8.221  -3.400  1.00  0.00    -0.065 NA
ATOM     18  H3  UNL     1     -42.042   6.065  -2.286  1.00  0.00     0.189 HD
ENDBRANCH  12  14
ENDBRANCH  10  11
ENDBRANCH   3   5
TORSDOF 3
ENDMDL
MODEL 3
REMARK VINA RESULT: -5.682228845      0.683      1.480
REMARK  3 active torsions:
REMARK  status: ('A' for Active; 'I' for Inactive)
REMARK    1  A    between atoms: N1_3  and  C4_5 
REMARK    2  A    between atoms: C9_10  and  C10_11 
REMARK    3  A    between atoms: N2_12  and  N3_14 
ROOT
HETATM    1  C1  UNL     1     -41.737   3.880  -4.292  1.00  0.00     0.123 C 
HETATM    2  C2  UNL     1     -41.421   3.443  -3.196  1.00  0.00    -0.073 C 
HETATM    3  N1  UNL     1     -41.061   2.957  -1.931  1.00  0.00    -0.321 N 
HETATM    4  C3  UNL     1     -39.740   2.380  -1.778  1.00  0.00     0.166 C 
ENDROOT
BRANCH   3   5
HETATM    5  C4  UNL     1     -42.018   3.061  -0.883  1.00  0.00     0.052 A 
HETATM    6  C5  UNL     1     -42.714   1.923  -0.455  1.00  0.00     0.031 A 
HETATM    7  C6  UNL     1     -43.668   1.962   0.529  1.00  0.00     0.002 A 
HETATM    8  C7  UNL     1     -43.925   3.178   1.094  1.00  0.00     0.001 A 
HETATM    9  C8  UNL     1     -43.234   4.315   0.671  1.00  0.00     0.015 A 
HETATM   10  C9  UNL     1     -42.273   4.298  -0.313  1.00  0.00     0.008 A 
BRANCH  10  11
HETATM   11  C10 UNL     1     -41.520   5.451  -0.751  1.00  0.00     0.120 C 
HETATM   12  N2  UNL     1     -41.938   6.397  -1.449  1.00  0.00    -0.309 N 
ATOM     13  H2  UNL     1     -41.192   7.076  -1.605  1.00  0.00     0.186 HD
BRANCH  12  14
HETATM   14  N3  UNL     1     -43.058   6.796  -2.054  1.00  0.00    -0.276 N 
HETATM   15  C11 UNL     1     -43.088   7.646  -3.021  1.00  0.00     0.215 C 
HETATM   16  N4  UNL     1     -41.860   8.190  -3.469  1.00  0.00    -0.065 NA
HETATM   17  N5  UNL     1     -44.353   7.976  -3.568  1.00  0.00    -0.065 NA
ATOM     18  H3  UNL     1     -43.943   6.404  -1.732  1.00  0.00     0.189 HD
ENDBRANCH  12  14
ENDBRANCH  10  11
ENDBRANCH   3   5
TORSDOF 3
ENDMDL
MODEL 4
REMARK VINA RESULT: -5.625051108      3.940      6.295
REMARK  3 active torsions:
REMARK  status: ('A' for Active; 'I' for Inactive)
REMARK    1  A    between atoms: N1_3  and  C4_5 
REMARK    2  A    between atoms: C9_10  and  C10_11 
REMARK    3  A    between atoms: N2_12  and  N3_14 
ROOT
HETATM    1  C1  UNL     1     -47.106  11.917  -1.098  1.00  0.00     0.123 C 
HETATM    2  C2  UNL     1     -46.909  10.732  -1.319  1.00  0.00    -0.073 C 
HETATM    3  N1  UNL     1     -46.668   9.372  -1.564  1.00  0.00    -0.321 N 
HETATM    4  C3  UNL     1     -46.635   8.929  -2.944  1.00  0.00     0.166 C 
ENDROOT
BRANCH   3   5
HETATM    5  C4  UNL     1     -46.474   8.520  -0.441  1.00  0.00     0.052 A 
HETATM    6  C5  UNL     1     -47.529   7.726   0.027  1.00  0.00     0.031 A 
HETATM    7  C6  UNL     1     -47.415   6.907   1.119  1.00  0.00     0.002 A 
HETATM    8  C7  UNL     1     -46.207   6.888   1.755  1.00  0.00     0.001 A 
HETATM    9  C8  UNL     1     -45.152   7.676   1.293  1.00  0.00     0.015 A 
HETATM   10  C9  UNL     1     -45.245   8.505   0.198  1.00  0.00     0.008 A 
BRANCH  10  11
HETATM   11  C10 UNL     1     -44.162   9.309  -0.322  1.00  0.00     0.120 C 
HETATM   12  N2  UNL     1     -43.097   8.896  -0.824  1.00  0.00    -0.309 N 
ATOM     13  H2  UNL     1     -42.514   9.683  -1.109  1.00  0.00     0.186 HD
BRANCH  12  14
HETATM   14  N3  UNL     1     -42.486   7.744  -1.104  1.00  0.00    -0.276 N 
HETATM   15  C11 UNL     1     -41.987   7.457  -2.256  1.00  0.00     0.215 C 
HETATM   16  N4  UNL     1     -42.092   8.422  -3.287  1.00  0.00    -0.065 NA
HETATM   17  N5  UNL     1     -41.366   6.193  -2.409  1.00  0.00    -0.065 NA
ATOM     18  H3  UNL     1     -42.410   7.048  -0.361  1.00  0.00     0.189 HD
ENDBRANCH  12  14
ENDBRANCH  10  11
ENDBRANCH   3   5
TORSDOF 3
ENDMDL
MODEL 5
REMARK VINA RESULT: -5.604446833      2.491      4.362
REMARK  3 active torsions:
REMARK  status: ('A' for Active; 'I' for Inactive)
REMARK    1  A    between atoms: N1_3  and  C4_5 
REMARK    2  A    between atoms: C9_10  and  C10_11 
REMARK    3  A    between atoms: N2_12  and  N3_14 
ROOT
HETATM    1  C1  UNL     1     -43.851   4.094   2.685  1.00  0.00     0.123 C 
HETATM    2  C2  UNL     1     -43.857   4.224   1.470  1.00  0.00    -0.073 C 
HETATM    3  N1  UNL     1     -43.872   4.387   0.077  1.00  0.00    -0.321 N 
HETATM    4  C3  UNL     1     -44.305   3.265  -0.731  1.00  0.00     0.166 C 
ENDROOT
BRANCH   3   5
HETATM    5  C4  UNL     1     -43.460   5.644  -0.448  1.00  0.00     0.052 A 
HETATM    6  C5  UNL     1     -44.294   6.762  -0.326  1.00  0.00     0.031 A 
HETATM    7  C6  UNL     1     -43.969   7.993  -0.835  1.00  0.00     0.002 A 
HETATM    8  C7  UNL     1     -42.771   8.096  -1.483  1.00  0.00     0.001 A 
HETATM    9  C8  UNL     1     -41.935   6.986  -1.607  1.00  0.00     0.015 A 
HETATM   10  C9  UNL     1     -42.243   5.743  -1.104  1.00  0.00     0.008 A 
BRANCH  10  11
HETATM   11  C10 UNL     1     -41.385   4.582  -1.190  1.00  0.00     0.120 C 
HETATM   12  N2  UNL     1     -40.889   4.094  -2.225  1.00  0.00    -0.309 N 
ATOM     13  H2  UNL     1     -40.323   3.277  -1.993  1.00  0.00     0.186 HD
BRANCH  12  14
HETATM   14  N3  UNL     1     -40.868   4.310  -3.541  1.00  0.00    -0.276 N 
HETATM   15  C11 UNL     1     -41.388   3.511  -4.408  1.00  0.00     0.215 C 
HETATM   16  N4  UNL     1     -42.018   2.334  -3.937  1.00  0.00    -0.065 NA
HETATM   17  N5  UNL     1     -41.290   3.870  -5.775  1.00  0.00    -0.065 NA
ATOM     18  H3  UNL     1     -40.414   5.158  -3.881  1.00  0.00     0.189 HD
ENDBRANCH  12  14
ENDBRANCH  10  11
ENDBRANCH   3   5
TORSDOF 3
ENDMDL
