MODEL 1
REMARK VINA RESULT: -6.340758117      0.000      0.000
REMARK  5 active torsions:
REMARK  status: ('A' for Active; 'I' for Inactive)
REMARK    1  A    between atoms: C4_9  and  O1_10 
REMARK    2  A    between atoms: O1_10  and  C5_11 
REMARK    3  A    between atoms: C5_11  and  C6_12 
REMARK    4  A    between atoms: C6_12  and  C7_13 
REMARK    5  A    between atoms: C7_13  and  N3_14 
ROOT
HETATM    1  N1  UNL     1       2.795  11.491  -6.747  1.00  0.00    -0.235 N 
ATOM      2  H11 UNL     1       2.979  10.829  -7.501  1.00  0.00     0.174 HD
ATOM      3  H12 UNL     1       1.882  11.873  -6.503  1.00  0.00     0.174 HD
HETATM    4  C1  UNL     1       3.814  11.873  -6.046  1.00  0.00     0.667 C 
HETATM    5  N2  UNL     1       3.554  12.811  -4.977  1.00  0.00    -0.227 N 
ATOM      6  H2  UNL     1       2.606  12.837  -4.598  1.00  0.00     0.177 HD
HETATM    7  C2  UNL     1       4.523  13.714  -4.401  1.00  0.00     0.140 C 
HETATM    8  C3  UNL     1       5.530  12.930  -3.613  1.00  0.00     0.054 C 
HETATM    9  C4  UNL     1       5.819  11.546  -4.066  1.00  0.00     0.141 C 
HETATM   10  C12 UNL     1       6.256  11.415  -5.510  1.00  0.00     0.170 C 
HETATM   11  N4  UNL     1       5.088  11.340  -6.386  1.00  0.00    -0.224 N 
ATOM     12  H4  UNL     1       5.192  10.880  -7.291  1.00  0.00     0.177 HD
ENDROOT
BRANCH   9  13
HETATM   13  O1  UNL     1       4.795  10.715  -3.730  1.00  0.00    -0.384 OA
BRANCH  13  14
HETATM   14  C5  UNL     1       4.693  10.267  -2.459  1.00  0.00     0.170 C 
BRANCH  14  15
HETATM   15  C6  UNL     1       3.633   9.201  -2.357  1.00  0.00     0.056 C 
BRANCH  15  16
HETATM   16  C7  UNL     1       3.354   8.830  -0.911  1.00  0.00     0.274 C 
BRANCH  16  17
HETATM   17  N3  UNL     1       2.033   9.273  -0.504  1.00  0.00     0.088 N 
HETATM   18  C8  UNL     1       1.143   8.169  -0.353  1.00  0.00     0.272 C 
HETATM   19  C9  UNL     1       0.477   8.296   1.000  1.00  0.00     0.032 C 
HETATM   20  C10 UNL     1       0.923   9.607   1.564  1.00  0.00     0.032 C 
HETATM   21  C11 UNL     1       2.171   9.922   0.775  1.00  0.00     0.272 C 
ENDBRANCH  16  17
ENDBRANCH  15  16
ENDBRANCH  14  15
ENDBRANCH  13  14
ENDBRANCH   9  13
TORSDOF 5
ENDMDL
MODEL 2
REMARK VINA RESULT: -6.279062888      5.223      7.324
REMARK  5 active torsions:
REMARK  status: ('A' for Active; 'I' for Inactive)
REMARK    1  A    between atoms: C4_9  and  O1_10 
REMARK    2  A    between atoms: O1_10  and  C5_11 
REMARK    3  A    between atoms: C5_11  and  C6_12 
REMARK    4  A    between atoms: C6_12  and  C7_13 
REMARK    5  A    between atoms: C7_13  and  N3_14 
ROOT
HETATM    1  N1  UNL     1       1.476  15.255   4.249  1.00  0.00    -0.235 N 
ATOM      2  H11 UNL     1       1.141  15.989   3.627  1.00  0.00     0.174 HD
ATOM      3  H12 UNL     1       0.896  14.695   4.873  1.00  0.00     0.174 HD
HETATM    4  C1  UNL     1       2.749  15.019   4.240  1.00  0.00     0.667 C 
HETATM    5  N2  UNL     1       3.225  13.978   5.122  1.00  0.00    -0.227 N 
ATOM      6  H2  UNL     1       2.554  13.264   5.408  1.00  0.00     0.177 HD
HETATM    7  C2  UNL     1       4.572  13.863   5.632  1.00  0.00     0.140 C 
HETATM    8  C3  UNL     1       5.500  13.490   4.514  1.00  0.00     0.054 C 
HETATM    9  C4  UNL     1       5.143  13.954   3.150  1.00  0.00     0.141 C 
HETATM   10  C12 UNL     1       4.932  15.447   3.009  1.00  0.00     0.170 C 
HETATM   11  N4  UNL     1       3.559  15.800   3.369  1.00  0.00    -0.224 N 
ATOM     12  H4  UNL     1       3.161  16.652   2.975  1.00  0.00     0.177 HD
ENDROOT
BRANCH   9  13
HETATM   13  O1  UNL     1       4.117  13.211   2.651  1.00  0.00    -0.384 OA
BRANCH  13  14
HETATM   14  C5  UNL     1       4.329  11.912   2.339  1.00  0.00     0.170 C 
BRANCH  14  15
HETATM   15  C6  UNL     1       3.019  11.202   2.113  1.00  0.00     0.056 C 
BRANCH  15  16
HETATM   16  C7  UNL     1       3.068  10.324   0.876  1.00  0.00     0.274 C 
BRANCH  16  17
HETATM   17  N3  UNL     1       2.079   9.266   0.947  1.00  0.00     0.088 N 
HETATM   18  C8  UNL     1       0.876   9.727   1.560  1.00  0.00     0.272 C 
HETATM   19  C9  UNL     1      -0.277   9.340   0.660  1.00  0.00     0.032 C 
HETATM   20  C10 UNL     1       0.308   8.508  -0.435  1.00  0.00     0.032 C 
HETATM   21  C11 UNL     1       1.774   8.867  -0.403  1.00  0.00     0.272 C 
ENDBRANCH  16  17
ENDBRANCH  15  16
ENDBRANCH  14  15
ENDBRANCH  13  14
ENDBRANCH   9  13
TORSDOF 5
ENDMDL
MODEL 3
REMARK VINA RESULT: -6.191236094      5.358      7.703
REMARK  5 active torsions:
REMARK  status: ('A' for Active; 'I' for Inactive)
REMARK    1  A    between atoms: C4_9  and  O1_10 
REMARK    2  A    between atoms: O1_10  and  C5_11 
REMARK    3  A    between atoms: C5_11  and  C6_12 
REMARK    4  A    between atoms: C6_12  and  C7_13 
REMARK    5  A    between atoms: C7_13  and  N3_14 
ROOT
HETATM    1  N1  UNL     1       1.676  15.742   3.224  1.00  0.00    -0.235 N 
ATOM      2  H11 UNL     1       1.779  15.862   2.217  1.00  0.00     0.174 HD
ATOM      3  H12 UNL     1       0.852  15.990   3.770  1.00  0.00     0.174 HD
HETATM    4  C1  UNL     1       2.684  15.230   3.856  1.00  0.00     0.667 C 
HETATM    5  N2  UNL     1       2.539  15.060   5.283  1.00  0.00    -0.227 N 
ATOM      6  H2  UNL     1       1.590  14.993   5.652  1.00  0.00     0.177 HD
HETATM    7  C2  UNL     1       3.626  14.976   6.232  1.00  0.00     0.140 C 
HETATM    8  C3  UNL     1       4.355  13.679   6.042  1.00  0.00     0.054 C 
HETATM    9  C4  UNL     1       4.372  13.102   4.674  1.00  0.00     0.141 C 
HETATM   10  C12 UNL     1       4.903  14.018   3.591  1.00  0.00     0.170 C 
HETATM   11  N4  UNL     1       3.834  14.884   3.094  1.00  0.00    -0.224 N 
ATOM     12  H4  UNL     1       3.919  15.260   2.149  1.00  0.00     0.177 HD
ENDROOT
BRANCH   9  13
HETATM   13  O1  UNL     1       3.162  12.554   4.378  1.00  0.00    -0.384 OA
BRANCH  13  14
HETATM   14  C5  UNL     1       3.094  11.254   4.014  1.00  0.00     0.170 C 
BRANCH  14  15
HETATM   15  C6  UNL     1       2.777  11.132   2.546  1.00  0.00     0.056 C 
BRANCH  15  16
HETATM   16  C7  UNL     1       1.786  10.012   2.281  1.00  0.00     0.274 C 
BRANCH  16  17
HETATM   17  N3  UNL     1       1.339  10.026   0.901  1.00  0.00     0.088 N 
HETATM   18  C8  UNL     1       2.298   9.412   0.043  1.00  0.00     0.272 C 
HETATM   19  C9  UNL     1       1.570   8.395  -0.809  1.00  0.00     0.032 C 
HETATM   20  C10 UNL     1       0.116   8.553  -0.498  1.00  0.00     0.032 C 
HETATM   21  C11 UNL     1       0.118   9.265   0.834  1.00  0.00     0.272 C 
ENDBRANCH  16  17
ENDBRANCH  15  16
ENDBRANCH  14  15
ENDBRANCH  13  14
ENDBRANCH   9  13
TORSDOF 5
ENDMDL
MODEL 4
REMARK VINA RESULT: -6.112752623      0.589      1.074
REMARK  5 active torsions:
REMARK  status: ('A' for Active; 'I' for Inactive)
REMARK    1  A    between atoms: C4_9  and  O1_10 
REMARK    2  A    between atoms: O1_10  and  C5_11 
REMARK    3  A    between atoms: C5_11  and  C6_12 
REMARK    4  A    between atoms: C6_12  and  C7_13 
REMARK    5  A    between atoms: C7_13  and  N3_14 
ROOT
HETATM    1  N1  UNL     1       2.736  11.554  -6.683  1.00  0.00    -0.235 N 
ATOM      2  H11 UNL     1       2.885  10.798  -7.351  1.00  0.00     0.174 HD
ATOM      3  H12 UNL     1       1.863  12.063  -6.548  1.00  0.00     0.174 HD
HETATM    4  C1  UNL     1       3.747  11.889  -5.947  1.00  0.00     0.667 C 
HETATM    5  N2  UNL     1       3.536  12.960  -4.999  1.00  0.00    -0.227 N 
ATOM      6  H2  UNL     1       2.577  13.135  -4.698  1.00  0.00     0.177 HD
HETATM    7  C2  UNL     1       4.570  13.802  -4.442  1.00  0.00     0.140 C 
HETATM    8  C3  UNL     1       5.420  12.996  -3.506  1.00  0.00     0.054 C 
HETATM    9  C4  UNL     1       5.567  11.547  -3.797  1.00  0.00     0.141 C 
HETATM   10  C12 UNL     1       6.076  11.213  -5.183  1.00  0.00     0.170 C 
HETATM   11  N4  UNL     1       4.965  11.179  -6.135  1.00  0.00    -0.224 N 
ATOM     12  H4  UNL     1       5.070  10.616  -6.979  1.00  0.00     0.177 HD
ENDROOT
BRANCH   9  13
HETATM   13  O1  UNL     1       4.429  10.881  -3.460  1.00  0.00    -0.384 OA
BRANCH  13  14
HETATM   14  C5  UNL     1       4.514   9.616  -2.990  1.00  0.00     0.170 C 
BRANCH  14  15
HETATM   15  C6  UNL     1       3.896   9.517  -1.620  1.00  0.00     0.056 C 
BRANCH  15  16
HETATM   16  C7  UNL     1       2.532   8.852  -1.670  1.00  0.00     0.274 C 
BRANCH  16  17
HETATM   17  N3  UNL     1       2.019   8.612  -0.335  1.00  0.00     0.088 N 
HETATM   18  C8  UNL     1       2.369   9.674   0.550  1.00  0.00     0.272 C 
HETATM   19  C9  UNL     1       1.108  10.119   1.258  1.00  0.00     0.032 C 
HETATM   20  C10 UNL     1       0.035   9.165   0.841  1.00  0.00     0.032 C 
HETATM   21  C11 UNL     1       0.583   8.556  -0.428  1.00  0.00     0.272 C 
ENDBRANCH  16  17
ENDBRANCH  15  16
ENDBRANCH  14  15
ENDBRANCH  13  14
ENDBRANCH   9  13
TORSDOF 5
ENDMDL
MODEL 5
REMARK VINA RESULT: -5.879895321      2.409      6.963
REMARK  5 active torsions:
REMARK  status: ('A' for Active; 'I' for Inactive)
REMARK    1  A    between atoms: C4_9  and  O1_10 
REMARK    2  A    between atoms: O1_10  and  C5_11 
REMARK    3  A    between atoms: C5_11  and  C6_12 
REMARK    4  A    between atoms: C6_12  and  C7_13 
REMARK    5  A    between atoms: C7_13  and  N3_14 
ROOT
HETATM    1  N1  UNL     1       0.244   6.698   0.585  1.00  0.00    -0.235 N 
ATOM      2  H11 UNL     1      -0.404   6.715  -0.203  1.00  0.00     0.174 HD
ATOM      3  H12 UNL     1       0.728   5.873   0.937  1.00  0.00     0.174 HD
HETATM    4  C1  UNL     1       0.464   7.826   1.182  1.00  0.00     0.667 C 
HETATM    5  N2  UNL     1       1.383   7.803   2.297  1.00  0.00    -0.227 N 
ATOM      6  H2  UNL     1       2.063   7.042   2.328  1.00  0.00     0.177 HD
HETATM    7  C2  UNL     1       1.419   8.767   3.373  1.00  0.00     0.140 C 
HETATM    8  C3  UNL     1       1.918  10.080   2.849  1.00  0.00     0.054 C 
HETATM    9  C4  UNL     1       1.630  10.400   1.428  1.00  0.00     0.141 C 
HETATM   10  C12 UNL     1       0.169  10.346   1.036  1.00  0.00     0.170 C 
HETATM   11  N4  UNL     1      -0.211   8.977   0.690  1.00  0.00    -0.224 N 
ATOM     12  H4  UNL     1      -1.003   8.840   0.062  1.00  0.00     0.177 HD
ENDROOT
BRANCH   9  13
HETATM   13  O1  UNL     1       2.441   9.677   0.608  1.00  0.00    -0.384 OA
BRANCH  13  14
HETATM   14  C5  UNL     1       3.638  10.187   0.240  1.00  0.00     0.170 C 
BRANCH  14  15
HETATM   15  C6  UNL     1       4.247   9.363  -0.864  1.00  0.00     0.056 C 
BRANCH  15  16
HETATM   16  C7  UNL     1       3.343   9.309  -2.083  1.00  0.00     0.274 C 
BRANCH  16  17
HETATM   17  N3  UNL     1       4.097   9.533  -3.302  1.00  0.00     0.088 N 
HETATM   18  C8  UNL     1       3.230   9.689  -4.424  1.00  0.00     0.272 C 
HETATM   19  C9  UNL     1       3.645  10.947  -5.155  1.00  0.00     0.032 C 
HETATM   20  C10 UNL     1       4.886  11.434  -4.480  1.00  0.00     0.032 C 
HETATM   21  C11 UNL     1       4.841  10.755  -3.132  1.00  0.00     0.272 C 
ENDBRANCH  16  17
ENDBRANCH  15  16
ENDBRANCH  14  15
ENDBRANCH  13  14
ENDBRANCH   9  13
TORSDOF 5
ENDMDL
