MODEL 1
REMARK VINA RESULT: -6.535764516      0.000      0.000
REMARK  7 active torsions:
REMARK  status: ('A' for Active; 'I' for Inactive)
REMARK    1  A    between atoms: C2_2  and  C3_3 
REMARK    2  A    between atoms: C3_3  and  N1_4 
REMARK    3  A    between atoms: N1_4  and  C4_6 
REMARK    4  A    between atoms: C5_9  and  N3_10 
REMARK    5  A    between atoms: N3_10  and  C6_12 
REMARK    6  A    between atoms: C8_16  and  N5_17 
REMARK    7  A    between atoms: N5_17  and  C9_19 
ROOT
HETATM    1  C4  UNL     1       3.806   9.281  -2.338  1.00  0.00     0.707 A 
HETATM    2  N2  UNL     1       3.287   8.830  -3.489  1.00  0.00    -0.022 N 
ATOM      3  H2  UNL     1       2.597   8.079  -3.464  1.00  0.00     0.203 HD
HETATM    4  C5  UNL     1       3.659   9.348  -4.689  1.00  0.00     0.707 A 
HETATM    5  N4  UNL     1       4.564  10.334  -4.751  1.00  0.00    -0.022 N 
ATOM      6  H4  UNL     1       4.845  10.725  -5.650  1.00  0.00     0.203 HD
HETATM    7  C8  UNL     1       5.095  10.798  -3.607  1.00  0.00     0.707 A 
HETATM    8  N6  UNL     1       4.710  10.267  -2.416  1.00  0.00    -0.022 N 
ATOM      9  H6  UNL     1       5.121  10.631  -1.556  1.00  0.00     0.203 HD
ENDROOT
BRANCH   1  10
HETATM   10  N1  UNL     1       3.456   8.794  -1.200  1.00  0.00    -0.225 N 
ATOM     11  H1  UNL     1       4.156   8.447  -0.545  1.00  0.00     0.177 HD
BRANCH  10  12
HETATM   12  C3  UNL     1       2.046   8.749  -0.870  1.00  0.00     0.137 C 
BRANCH  12  13
HETATM   13  C2  UNL     1       1.764   9.472   0.430  1.00  0.00     0.016 C 
HETATM   14  C1  UNL     1       0.320   9.371   0.791  1.00  0.00     0.006 C 
ENDBRANCH  12  13
ENDBRANCH  10  12
ENDBRANCH   1  10
BRANCH   4  15
HETATM   15  N3  UNL     1       3.172   8.928  -5.807  1.00  0.00    -0.225 N 
ATOM     16  H3  UNL     1       2.882   7.957  -5.922  1.00  0.00     0.177 HD
BRANCH  15  17
HETATM   17  C6  UNL     1       3.047   9.879  -6.899  1.00  0.00     0.133 C 
HETATM   18  C7  UNL     1       3.961   9.469  -8.048  1.00  0.00     0.027 C 
ENDBRANCH  15  17
ENDBRANCH   4  15
BRANCH   7  19
HETATM   19  N5  UNL     1       5.955  11.733  -3.643  1.00  0.00    -0.220 N 
ATOM     20  H5  UNL     1       6.798  11.672  -3.072  1.00  0.00     0.178 HD
BRANCH  19  21
HETATM   21  C9  UNL     1       5.741  12.877  -4.487  1.00  0.00     0.099 A 
HETATM   22  C10 UNL     1       6.122  14.194  -3.885  1.00  0.00     0.028 A 
HETATM   23  C11 UNL     1       4.669  13.841  -4.059  1.00  0.00     0.028 A 
ENDBRANCH  19  21
ENDBRANCH   7  19
TORSDOF 7
ENDMDL
MODEL 2
REMARK VINA RESULT: -6.228241324      0.634      4.712
REMARK  7 active torsions:
REMARK  status: ('A' for Active; 'I' for Inactive)
REMARK    1  A    between atoms: C2_2  and  C3_3 
REMARK    2  A    between atoms: C3_3  and  N1_4 
REMARK    3  A    between atoms: N1_4  and  C4_6 
REMARK    4  A    between atoms: C5_9  and  N3_10 
REMARK    5  A    between atoms: N3_10  and  C6_12 
REMARK    6  A    between atoms: C8_16  and  N5_17 
REMARK    7  A    between atoms: N5_17  and  C9_19 
ROOT
HETATM    1  C4  UNL     1       3.724   9.392  -4.804  1.00  0.00     0.707 A 
HETATM    2  N2  UNL     1       3.377   8.866  -3.620  1.00  0.00    -0.022 N 
ATOM      3  H2  UNL     1       2.706   8.098  -3.593  1.00  0.00     0.203 HD
HETATM    4  C5  UNL     1       3.898   9.331  -2.455  1.00  0.00     0.707 A 
HETATM    5  N4  UNL     1       4.780  10.340  -2.460  1.00  0.00    -0.022 N 
ATOM      6  H4  UNL     1       5.173  10.691  -1.586  1.00  0.00     0.203 HD
HETATM    7  C8  UNL     1       5.138  10.879  -3.637  1.00  0.00     0.707 A 
HETATM    8  N6  UNL     1       4.607  10.400  -4.793  1.00  0.00    -0.022 N 
ATOM      9  H6  UNL     1       4.890  10.819  -5.679  1.00  0.00     0.203 HD
ENDROOT
BRANCH   1  10
HETATM   10  N1  UNL     1       3.234   8.954  -5.909  1.00  0.00    -0.225 N 
ATOM     11  H1  UNL     1       2.517   8.229  -5.910  1.00  0.00     0.177 HD
BRANCH  10  12
HETATM   12  C3  UNL     1       3.723   9.514  -7.154  1.00  0.00     0.137 C 
BRANCH  12  13
HETATM   13  C2  UNL     1       2.706  10.449  -7.771  1.00  0.00     0.016 C 
HETATM   14  C1  UNL     1       3.223  11.849  -7.804  1.00  0.00     0.006 C 
ENDBRANCH  12  13
ENDBRANCH  10  12
ENDBRANCH   1  10
BRANCH   4  15
HETATM   15  N3  UNL     1       3.577   8.839  -1.306  1.00  0.00    -0.225 N 
ATOM     16  H3  UNL     1       4.293   8.534  -0.647  1.00  0.00     0.177 HD
BRANCH  15  17
HETATM   17  C6  UNL     1       2.166   8.732  -0.977  1.00  0.00     0.133 C 
HETATM   18  C7  UNL     1       1.893   9.413   0.359  1.00  0.00     0.027 C 
ENDBRANCH  15  17
ENDBRANCH   4  15
BRANCH   7  19
HETATM   19  N5  UNL     1       5.974  11.836  -3.665  1.00  0.00    -0.220 N 
ATOM     20  H5  UNL     1       6.814  11.796  -3.088  1.00  0.00     0.178 HD
BRANCH  19  21
HETATM   21  C9  UNL     1       5.738  12.975  -4.511  1.00  0.00     0.099 A 
HETATM   22  C10 UNL     1       6.141  14.295  -3.930  1.00  0.00     0.028 A 
HETATM   23  C11 UNL     1       4.683  13.945  -4.058  1.00  0.00     0.028 A 
ENDBRANCH  19  21
ENDBRANCH   7  19
TORSDOF 7
ENDMDL
MODEL 3
REMARK VINA RESULT: -6.206728909      0.925      5.657
REMARK  7 active torsions:
REMARK  status: ('A' for Active; 'I' for Inactive)
REMARK    1  A    between atoms: C2_2  and  C3_3 
REMARK    2  A    between atoms: C3_3  and  N1_4 
REMARK    3  A    between atoms: N1_4  and  C4_6 
REMARK    4  A    between atoms: C5_9  and  N3_10 
REMARK    5  A    between atoms: N3_10  and  C6_12 
REMARK    6  A    between atoms: C8_16  and  N5_17 
REMARK    7  A    between atoms: N5_17  and  C9_19 
ROOT
HETATM    1  C4  UNL     1       3.301   9.716  -4.812  1.00  0.00     0.707 A 
HETATM    2  N2  UNL     1       4.430  10.441  -4.801  1.00  0.00    -0.022 N 
ATOM      3  H2  UNL     1       4.756  10.869  -5.667  1.00  0.00     0.203 HD
HETATM    4  C5  UNL     1       5.149  10.620  -3.662  1.00  0.00     0.707 A 
HETATM    5  N4  UNL     1       4.744  10.069  -2.509  1.00  0.00    -0.022 N 
ATOM      6  H4  UNL     1       5.282  10.201  -1.653  1.00  0.00     0.203 HD
HETATM    7  C8  UNL     1       3.616   9.338  -2.503  1.00  0.00     0.707 A 
HETATM    8  N6  UNL     1       2.909   9.171  -3.653  1.00  0.00    -0.022 N 
ATOM      9  H6  UNL     1       2.054   8.615  -3.631  1.00  0.00     0.203 HD
ENDROOT
BRANCH   1  10
HETATM   10  N1  UNL     1       2.617   9.545  -5.888  1.00  0.00    -0.225 N 
ATOM     11  H1  UNL     1       1.651   9.220  -5.845  1.00  0.00     0.177 HD
BRANCH  10  12
HETATM   12  C3  UNL     1       3.249   9.826  -7.162  1.00  0.00     0.137 C 
BRANCH  12  13
HETATM   13  C2  UNL     1       2.607  11.017  -7.841  1.00  0.00     0.016 C 
HETATM   14  C1  UNL     1       3.626  12.062  -8.152  1.00  0.00     0.006 C 
ENDBRANCH  12  13
ENDBRANCH  10  12
ENDBRANCH   1  10
BRANCH   4  15
HETATM   15  N3  UNL     1       6.236  11.313  -3.630  1.00  0.00    -0.225 N 
ATOM     16  H3  UNL     1       7.050  10.989  -3.108  1.00  0.00     0.177 HD
BRANCH  15  17
HETATM   17  C6  UNL     1       6.268  12.570  -4.358  1.00  0.00     0.133 C 
HETATM   18  C7  UNL     1       5.542  13.648  -3.562  1.00  0.00     0.027 C 
ENDBRANCH  15  17
ENDBRANCH   4  15
BRANCH   7  19
HETATM   19  N5  UNL     1       3.213   8.807  -1.421  1.00  0.00    -0.220 N 
ATOM     20  H5  UNL     1       3.811   8.146  -0.925  1.00  0.00     0.178 HD
BRANCH  19  21
HETATM   21  C9  UNL     1       1.917   9.136  -0.895  1.00  0.00     0.099 A 
HETATM   22  C10 UNL     1       1.692   8.753   0.535  1.00  0.00     0.028 A 
HETATM   23  C11 UNL     1       1.009   7.984  -0.565  1.00  0.00     0.028 A 
ENDBRANCH  19  21
ENDBRANCH   7  19
TORSDOF 7
ENDMDL
MODEL 4
REMARK VINA RESULT: -6.170909430      0.689      4.855
REMARK  7 active torsions:
REMARK  status: ('A' for Active; 'I' for Inactive)
REMARK    1  A    between atoms: C2_2  and  C3_3 
REMARK    2  A    between atoms: C3_3  and  N1_4 
REMARK    3  A    between atoms: N1_4  and  C4_6 
REMARK    4  A    between atoms: C5_9  and  N3_10 
REMARK    5  A    between atoms: N3_10  and  C6_12 
REMARK    6  A    between atoms: C8_16  and  N5_17 
REMARK    7  A    between atoms: N5_17  and  C9_19 
ROOT
HETATM    1  C4  UNL     1       5.203  10.577  -3.631  1.00  0.00     0.707 A 
HETATM    2  N2  UNL     1       4.483  10.432  -4.754  1.00  0.00    -0.022 N 
ATOM      3  H2  UNL     1       4.817  10.857  -5.619  1.00  0.00     0.203 HD
HETATM    4  C5  UNL     1       3.319   9.731  -4.767  1.00  0.00     0.707 A 
HETATM    5  N4  UNL     1       2.856   9.162  -3.646  1.00  0.00    -0.022 N 
ATOM      6  H4  UNL     1       1.983   8.635  -3.653  1.00  0.00     0.203 HD
HETATM    7  C8  UNL     1       3.564   9.298  -2.512  1.00  0.00     0.707 A 
HETATM    8  N6  UNL     1       4.727  10.003  -2.518  1.00  0.00    -0.022 N 
ATOM      9  H6  UNL     1       5.254  10.096  -1.649  1.00  0.00     0.203 HD
ENDROOT
BRANCH   1  10
HETATM   10  N1  UNL     1       6.305  11.239  -3.615  1.00  0.00    -0.225 N 
ATOM     11  H1  UNL     1       7.100  10.915  -3.064  1.00  0.00     0.177 HD
BRANCH  10  12
HETATM   12  C3  UNL     1       6.393  12.457  -4.396  1.00  0.00     0.137 C 
BRANCH  12  13
HETATM   13  C2  UNL     1       5.724  13.614  -3.684  1.00  0.00     0.016 C 
HETATM   14  C1  UNL     1       4.572  14.132  -4.480  1.00  0.00     0.006 C 
ENDBRANCH  12  13
ENDBRANCH  10  12
ENDBRANCH   1  10
BRANCH   4  15
HETATM   15  N3  UNL     1       2.613   9.579  -5.836  1.00  0.00    -0.225 N 
ATOM     16  H3  UNL     1       1.629   9.317  -5.782  1.00  0.00     0.177 HD
BRANCH  15  17
HETATM   17  C6  UNL     1       3.260   9.793  -7.120  1.00  0.00     0.133 C 
HETATM   18  C7  UNL     1       2.646  11.003  -7.813  1.00  0.00     0.027 C 
ENDBRANCH  15  17
ENDBRANCH   4  15
BRANCH   7  19
HETATM   19  N5  UNL     1       3.144   8.766  -1.437  1.00  0.00    -0.220 N 
ATOM     20  H5  UNL     1       3.786   8.238  -0.846  1.00  0.00     0.178 HD
BRANCH  19  21
HETATM   21  C9  UNL     1       1.766   8.908  -1.053  1.00  0.00     0.099 A 
HETATM   22  C10 UNL     1       1.541   9.376   0.352  1.00  0.00     0.028 A 
HETATM   23  C11 UNL     1       1.251   7.945  -0.019  1.00  0.00     0.028 A 
ENDBRANCH  19  21
ENDBRANCH   7  19
TORSDOF 7
ENDMDL
MODEL 5
REMARK VINA RESULT: -6.141562985      1.267      1.435
REMARK  7 active torsions:
REMARK  status: ('A' for Active; 'I' for Inactive)
REMARK    1  A    between atoms: C2_2  and  C3_3 
REMARK    2  A    between atoms: C3_3  and  N1_4 
REMARK    3  A    between atoms: N1_4  and  C4_6 
REMARK    4  A    between atoms: C5_9  and  N3_10 
REMARK    5  A    between atoms: N3_10  and  C6_12 
REMARK    6  A    between atoms: C8_16  and  N5_17 
REMARK    7  A    between atoms: N5_17  and  C9_19 
ROOT
HETATM    1  C4  UNL     1       3.787   9.406  -2.504  1.00  0.00     0.707 A 
HETATM    2  N2  UNL     1       3.048   9.194  -3.604  1.00  0.00    -0.022 N 
ATOM      3  H2  UNL     1       2.293   8.509  -3.573  1.00  0.00     0.203 HD
HETATM    4  C5  UNL     1       3.282   9.870  -4.759  1.00  0.00     0.707 A 
HETATM    5  N4  UNL     1       4.267  10.776  -4.829  1.00  0.00    -0.022 N 
ATOM      6  H4  UNL     1       4.444  11.285  -5.695  1.00  0.00     0.203 HD
HETATM    7  C8  UNL     1       5.018  11.000  -3.737  1.00  0.00     0.707 A 
HETATM    8  N6  UNL     1       4.769  10.314  -2.590  1.00  0.00    -0.022 N 
ATOM      9  H6  UNL     1       5.347  10.496  -1.769  1.00  0.00     0.203 HD
ENDROOT
BRANCH   1  10
HETATM   10  N1  UNL     1       3.569   8.768  -1.409  1.00  0.00    -0.225 N 
ATOM     11  H1  UNL     1       3.875   7.802  -1.300  1.00  0.00     0.177 HD
BRANCH  10  12
HETATM   12  C3  UNL     1       2.880   9.453  -0.334  1.00  0.00     0.137 C 
BRANCH  12  13
HETATM   13  C2  UNL     1       1.746   8.612   0.214  1.00  0.00     0.016 C 
HETATM   14  C1  UNL     1       0.677   8.430  -0.811  1.00  0.00     0.006 C 
ENDBRANCH  12  13
ENDBRANCH  10  12
ENDBRANCH   1  10
BRANCH   4  15
HETATM   15  N3  UNL     1       2.583   9.682  -5.827  1.00  0.00    -0.225 N 
ATOM     16  H3  UNL     1       1.597   9.428  -5.771  1.00  0.00     0.177 HD
BRANCH  15  17
HETATM   17  C6  UNL     1       3.242   9.841  -7.113  1.00  0.00     0.133 C 
HETATM   18  C7  UNL     1       2.609  10.997  -7.878  1.00  0.00     0.027 C 
ENDBRANCH  15  17
ENDBRANCH   4  15
BRANCH   7  19
HETATM   19  N5  UNL     1       5.958  11.854  -3.781  1.00  0.00    -0.220 N 
ATOM     20  H5  UNL     1       5.868  12.735  -3.275  1.00  0.00     0.178 HD
BRANCH  19  21
HETATM   21  C9  UNL     1       7.146  11.580  -4.542  1.00  0.00     0.099 A 
HETATM   22  C10 UNL     1       8.084  12.738  -4.698  1.00  0.00     0.028 A 
HETATM   23  C11 UNL     1       7.268  12.268  -5.874  1.00  0.00     0.028 A 
ENDBRANCH  19  21
ENDBRANCH   7  19
TORSDOF 7
ENDMDL
