MODEL 1
REMARK VINA RESULT: -3.707906289      0.000      0.000
REMARK  6 active torsions:
REMARK  status: ('A' for Active; 'I' for Inactive)
REMARK    1  A    between atoms: O1_2  and  C2_3 
REMARK    2  A    between atoms: C3_4  and  O2_5 
REMARK    3  A    between atoms: C4_7  and  C6_9 
REMARK    4  A    between atoms: C6_9  and  O3_10 
REMARK    5  A    between atoms: C7_12  and  O4_13 
REMARK    6  A    between atoms: C7_12  and  O5_15 
ROOT
HETATM    1  C2  UNL     1       0.154  -4.890 -16.035  1.00  0.00     0.213 C 
HETATM    2  C3  UNL     1       1.271  -4.111 -16.724  1.00  0.00     0.168 C 
HETATM    3  C4  UNL     1       2.177  -4.514 -15.617  1.00  0.00     0.065 C 
HETATM    4  C5  UNL     1       2.311  -3.600 -14.455  1.00  0.00     0.026 C 
HETATM    5  C7  UNL     1       1.263  -5.726 -15.383  1.00  0.00     0.202 C 
ENDROOT
BRANCH   3   6
HETATM    6  C6  UNL     1       3.567  -4.964 -16.087  1.00  0.00     0.181 C 
BRANCH   6   7
HETATM    7  O3  UNL     1       4.375  -5.205 -14.978  1.00  0.00    -0.400 OA
ATOM      8  H3  UNL     1       4.788  -6.056 -15.067  1.00  0.00     0.209 HD
ENDBRANCH   6   7
ENDBRANCH   3   6
BRANCH   2   9
HETATM    9  O2  UNL     1       1.033  -2.775 -16.907  1.00  0.00    -0.392 OA
ATOM     10  H2  UNL     1       1.008  -2.483 -17.811  1.00  0.00     0.210 HD
ENDBRANCH   2   9
BRANCH   5  11
HETATM   11  O4  UNL     1       1.025  -6.016 -14.066  1.00  0.00    -0.362 OA
ATOM     12  H4  UNL     1       1.007  -6.947 -13.881  1.00  0.00     0.213 HD
ENDBRANCH   5  11
BRANCH   5  13
HETATM   13  O5  UNL     1       1.674  -6.755 -16.201  1.00  0.00    -0.357 OA
HETATM   14  C8  UNL     1       0.655  -7.604 -16.595  1.00  0.00     0.205 C 
ENDBRANCH   5  13
BRANCH   1  15
HETATM   15  O1  UNL     1      -0.515  -4.063 -15.160  1.00  0.00    -0.383 OA
HETATM   16  C1  UNL     1      -1.746  -3.638 -15.609  1.00  0.00     0.202 C 
ENDBRANCH   1  15
TORSDOF 6
ENDMDL
MODEL 2
REMARK VINA RESULT: -3.476872101      1.646      3.424
REMARK  6 active torsions:
REMARK  status: ('A' for Active; 'I' for Inactive)
REMARK    1  A    between atoms: O1_2  and  C2_3 
REMARK    2  A    between atoms: C3_4  and  O2_5 
REMARK    3  A    between atoms: C4_7  and  C6_9 
REMARK    4  A    between atoms: C6_9  and  O3_10 
REMARK    5  A    between atoms: C7_12  and  O4_13 
REMARK    6  A    between atoms: C7_12  and  O5_15 
ROOT
HETATM    1  C2  UNL     1      -0.718  -5.489 -15.566  1.00  0.00     0.213 C 
HETATM    2  C3  UNL     1       0.549  -5.167 -14.778  1.00  0.00     0.168 C 
HETATM    3  C4  UNL     1       0.968  -4.280 -15.894  1.00  0.00     0.065 C 
HETATM    4  C5  UNL     1       1.826  -4.854 -16.961  1.00  0.00     0.026 C 
HETATM    5  C7  UNL     1      -0.516  -4.138 -16.266  1.00  0.00     0.202 C 
ENDROOT
BRANCH   3   6
HETATM    6  C6  UNL     1       1.544  -2.934 -15.434  1.00  0.00     0.181 C 
BRANCH   6   7
HETATM    7  O3  UNL     1       2.637  -3.158 -14.600  1.00  0.00    -0.400 OA
ATOM      8  H3  UNL     1       2.402  -2.940 -13.705  1.00  0.00     0.209 HD
ENDBRANCH   6   7
ENDBRANCH   3   6
BRANCH   2   9
HETATM    9  O2  UNL     1       1.345  -6.240 -14.475  1.00  0.00    -0.392 OA
ATOM     10  H2  UNL     1       1.667  -6.734 -15.219  1.00  0.00     0.210 HD
ENDBRANCH   2   9
BRANCH   5  11
HETATM   11  O4  UNL     1      -0.774  -4.176 -17.610  1.00  0.00    -0.362 OA
ATOM     12  H4  UNL     1      -0.587  -5.017 -18.008  1.00  0.00     0.213 HD
ENDBRANCH   5  11
BRANCH   5  13
HETATM   13  O5  UNL     1      -1.058  -3.101 -15.539  1.00  0.00    -0.357 OA
HETATM   14  C8  UNL     1      -2.341  -2.754 -15.922  1.00  0.00     0.205 C 
ENDBRANCH   5  13
BRANCH   1  15
HETATM   15  O1  UNL     1      -0.493  -6.580 -16.376  1.00  0.00    -0.383 OA
HETATM   16  C1  UNL     1      -1.639  -7.219 -16.797  1.00  0.00     0.202 C 
ENDBRANCH   1  15
TORSDOF 6
ENDMDL
MODEL 3
REMARK VINA RESULT: -3.417032435      1.939      3.360
REMARK  6 active torsions:
REMARK  status: ('A' for Active; 'I' for Inactive)
REMARK    1  A    between atoms: O1_2  and  C2_3 
REMARK    2  A    between atoms: C3_4  and  O2_5 
REMARK    3  A    between atoms: C4_7  and  C6_9 
REMARK    4  A    between atoms: C6_9  and  O3_10 
REMARK    5  A    between atoms: C7_12  and  O4_13 
REMARK    6  A    between atoms: C7_12  and  O5_15 
ROOT
HETATM    1  C2  UNL     1      -0.762  -5.799 -16.712  1.00  0.00     0.213 C 
HETATM    2  C3  UNL     1      -1.044  -4.518 -17.492  1.00  0.00     0.168 C 
HETATM    3  C4  UNL     1      -0.740  -3.749 -16.258  1.00  0.00     0.065 C 
HETATM    4  C5  UNL     1      -1.866  -3.400 -15.356  1.00  0.00     0.026 C 
HETATM    5  C7  UNL     1       0.114  -4.938 -15.793  1.00  0.00     0.202 C 
ENDROOT
BRANCH   3   6
HETATM    6  C6  UNL     1       0.136  -2.512 -16.499  1.00  0.00     0.181 C 
BRANCH   6   7
HETATM    7  O3  UNL     1       0.112  -2.183 -17.852  1.00  0.00    -0.400 OA
ATOM      8  H3  UNL     1      -0.190  -1.288 -17.955  1.00  0.00     0.209 HD
ENDBRANCH   6   7
ENDBRANCH   3   6
BRANCH   2   9
HETATM    9  O2  UNL     1      -2.303  -4.414 -18.022  1.00  0.00    -0.392 OA
ATOM     10  H2  UNL     1      -3.016  -4.601 -17.423  1.00  0.00     0.210 HD
ENDBRANCH   2   9
BRANCH   5  11
HETATM   11  O4  UNL     1      -0.015  -5.250 -14.466  1.00  0.00    -0.362 OA
ATOM     12  H4  UNL     1       0.476  -4.674 -13.892  1.00  0.00     0.213 HD
ENDBRANCH   5  11
BRANCH   5  13
HETATM   13  O5  UNL     1       1.389  -4.791 -16.294  1.00  0.00    -0.357 OA
HETATM   14  C8  UNL     1       2.390  -5.041 -15.372  1.00  0.00     0.205 C 
ENDBRANCH   5  13
BRANCH   1  15
HETATM   15  O1  UNL     1      -1.924  -6.247 -16.123  1.00  0.00    -0.383 OA
HETATM   16  C1  UNL     1      -2.503  -7.324 -16.757  1.00  0.00     0.202 C 
ENDBRANCH   1  15
TORSDOF 6
ENDMDL
MODEL 4
REMARK VINA RESULT: -3.298299282      8.001      9.471
REMARK  6 active torsions:
REMARK  status: ('A' for Active; 'I' for Inactive)
REMARK    1  A    between atoms: O1_2  and  C2_3 
REMARK    2  A    between atoms: C3_4  and  O2_5 
REMARK    3  A    between atoms: C4_7  and  C6_9 
REMARK    4  A    between atoms: C6_9  and  O3_10 
REMARK    5  A    between atoms: C7_12  and  O4_13 
REMARK    6  A    between atoms: C7_12  and  O5_15 
ROOT
HETATM    1  C2  UNL     1       8.187 -10.980 -15.895  1.00  0.00     0.213 C 
HETATM    2  C3  UNL     1       8.112  -9.555 -15.353  1.00  0.00     0.168 C 
HETATM    3  C4  UNL     1       8.294 -10.110 -13.987  1.00  0.00     0.065 C 
HETATM    4  C5  UNL     1       7.081 -10.432 -13.195  1.00  0.00     0.026 C 
HETATM    5  C7  UNL     1       8.986 -11.321 -14.630  1.00  0.00     0.202 C 
ENDROOT
BRANCH   3   6
HETATM    6  C6  UNL     1       9.283  -9.316 -13.123  1.00  0.00     0.181 C 
BRANCH   6   7
HETATM    7  O3  UNL     1       8.588  -8.650 -12.115  1.00  0.00    -0.400 OA
ATOM      8  H3  UNL     1       8.221  -7.845 -12.462  1.00  0.00     0.209 HD
ENDBRANCH   6   7
ENDBRANCH   3   6
BRANCH   2   9
HETATM    9  O2  UNL     1       6.951  -8.880 -15.625  1.00  0.00    -0.392 OA
ATOM     10  H2  UNL     1       6.198  -9.424 -15.821  1.00  0.00     0.210 HD
ENDBRANCH   2   9
BRANCH   5  11
HETATM   11  O4  UNL     1       8.649 -12.530 -14.081  1.00  0.00    -0.362 OA
ATOM     12  H4  UNL     1       7.731 -12.751 -14.187  1.00  0.00     0.213 HD
ENDBRANCH   5  11
BRANCH   5  13
HETATM   13  O5  UNL     1      10.326 -11.039 -14.781  1.00  0.00    -0.357 OA
HETATM   14  C8  UNL     1      11.153 -12.138 -14.636  1.00  0.00     0.205 C 
ENDBRANCH   5  13
BRANCH   1  15
HETATM   15  O1  UNL     1       6.924 -11.529 -15.928  1.00  0.00    -0.383 OA
HETATM   16  C1  UNL     1       6.485 -11.866 -17.189  1.00  0.00     0.202 C 
ENDBRANCH   1  15
TORSDOF 6
ENDMDL
MODEL 5
REMARK VINA RESULT: -3.264667167      1.714      2.192
REMARK  6 active torsions:
REMARK  status: ('A' for Active; 'I' for Inactive)
REMARK    1  A    between atoms: O1_2  and  C2_3 
REMARK    2  A    between atoms: C3_4  and  O2_5 
REMARK    3  A    between atoms: C4_7  and  C6_9 
REMARK    4  A    between atoms: C6_9  and  O3_10 
REMARK    5  A    between atoms: C7_12  and  O4_13 
REMARK    6  A    between atoms: C7_12  and  O5_15 
ROOT
HETATM    1  C2  UNL     1      -1.524  -4.078 -16.856  1.00  0.00     0.213 C 
HETATM    2  C3  UNL     1      -0.102  -3.917 -17.386  1.00  0.00     0.168 C 
HETATM    3  C4  UNL     1       0.395  -4.468 -16.099  1.00  0.00     0.065 C 
HETATM    4  C5  UNL     1       0.735  -3.514 -15.014  1.00  0.00     0.026 C 
HETATM    5  C7  UNL     1      -0.961  -5.171 -15.939  1.00  0.00     0.202 C 
ENDROOT
BRANCH   3   6
HETATM    6  C6  UNL     1       1.524  -5.495 -16.260  1.00  0.00     0.181 C 
BRANCH   6   7
HETATM    7  O3  UNL     1       1.803  -6.075 -15.024  1.00  0.00    -0.400 OA
ATOM      8  H3  UNL     1       2.729  -5.983 -14.833  1.00  0.00     0.209 HD
ENDBRANCH   6   7
ENDBRANCH   3   6
BRANCH   2   9
HETATM    9  O2  UNL     1       0.261  -2.640 -17.723  1.00  0.00    -0.392 OA
ATOM     10  H2  UNL     1      -0.367  -1.963 -17.502  1.00  0.00     0.210 HD
ENDBRANCH   2   9
BRANCH   5  11
HETATM   11  O4  UNL     1      -1.475  -5.139 -14.670  1.00  0.00    -0.362 OA
ATOM     12  H4  UNL     1      -0.962  -5.631 -14.041  1.00  0.00     0.213 HD
ENDBRANCH   5  11
BRANCH   5  13
HETATM   13  O5  UNL     1      -0.905  -6.392 -16.575  1.00  0.00    -0.357 OA
HETATM   14  C8  UNL     1      -2.133  -7.014 -16.710  1.00  0.00     0.205 C 
ENDBRANCH   5  13
BRANCH   1  15
HETATM   15  O1  UNL     1      -1.904  -2.930 -16.195  1.00  0.00    -0.383 OA
HETATM   16  C1  UNL     1      -3.132  -2.437 -16.575  1.00  0.00     0.202 C 
ENDBRANCH   1  15
TORSDOF 6
ENDMDL
