MODEL 1
REMARK VINA RESULT: -5.644572008      0.000      0.000
REMARK  6 active torsions:
REMARK  status: ('A' for Active; 'I' for Inactive)
REMARK    1  A    between atoms: O1_2  and  C2_3 
REMARK    2  A    between atoms: C3_4  and  O2_5 
REMARK    3  A    between atoms: C4_8  and  C5_9 
REMARK    4  A    between atoms: C5_9  and  O4_10 
REMARK    5  A    between atoms: C6_13  and  C7_14 
REMARK    6  A    between atoms: C7_14  and  O6_15 
ROOT
HETATM    1  C2  UNL     1      -0.113  -5.533 -16.195  1.00  0.00     0.207 C 
HETATM    2  C3  UNL     1       1.068  -6.456 -15.965  1.00  0.00     0.291 C 
HETATM    3  O3  UNL     1       1.780  -6.030 -14.847  1.00  0.00    -0.327 OA
HETATM    4  C4  UNL     1       2.314  -4.766 -14.998  1.00  0.00     0.287 C 
HETATM    5  O5  UNL     1       1.608  -3.998 -15.924  1.00  0.00    -0.349 OA
HETATM    6  C6  UNL     1       0.251  -4.216 -15.604  1.00  0.00     0.182 C 
ENDROOT
BRANCH   4   7
HETATM    7  C5  UNL     1       3.792  -4.798 -15.307  1.00  0.00     0.224 C 
BRANCH   7   8
HETATM    8  O4  UNL     1       4.545  -4.965 -14.146  1.00  0.00    -0.396 OA
ATOM      9  H4  UNL     1       5.463  -4.777 -14.302  1.00  0.00     0.209 HD
ENDBRANCH   7   8
ENDBRANCH   4   7
BRANCH   2  10
HETATM   10  O2  UNL     1       1.908  -6.427 -17.065  1.00  0.00    -0.368 OA
ATOM     11  H2  UNL     1       1.410  -6.594 -17.856  1.00  0.00     0.212 HD
ENDBRANCH   2  10
BRANCH   6  12
HETATM   12  C7  UNL     1      -0.612  -3.074 -16.056  1.00  0.00     0.199 C 
BRANCH  12  13
HETATM   13  O6  UNL     1      -1.869  -3.261 -15.446  1.00  0.00    -0.398 OA
ATOM     14  H6  UNL     1      -2.446  -2.603 -15.816  1.00  0.00     0.209 HD
ENDBRANCH  12  13
ENDBRANCH   6  12
BRANCH   1  15
HETATM   15  O1  UNL     1      -1.296  -6.058 -15.712  1.00  0.00    -0.383 OA
HETATM   16  C1  UNL     1      -2.139  -6.490 -16.744  1.00  0.00     0.202 C 
ENDBRANCH   1  15
TORSDOF 6
ENDMDL
MODEL 2
REMARK VINA RESULT: -5.528260836      1.375      3.981
REMARK  6 active torsions:
REMARK  status: ('A' for Active; 'I' for Inactive)
REMARK    1  A    between atoms: O1_2  and  C2_3 
REMARK    2  A    between atoms: C3_4  and  O2_5 
REMARK    3  A    between atoms: C4_8  and  C5_9 
REMARK    4  A    between atoms: C5_9  and  O4_10 
REMARK    5  A    between atoms: C6_13  and  C7_14 
REMARK    6  A    between atoms: C7_14  and  O6_15 
ROOT
HETATM    1  C2  UNL     1       0.599  -5.526 -15.551  1.00  0.00     0.207 C 
HETATM    2  C3  UNL     1      -0.830  -5.718 -16.021  1.00  0.00     0.291 C 
HETATM    3  O3  UNL     1      -1.079  -4.882 -17.106  1.00  0.00    -0.327 OA
HETATM    4  C4  UNL     1      -0.964  -3.543 -16.791  1.00  0.00     0.287 C 
HETATM    5  O5  UNL     1      -0.124  -3.324 -15.699  1.00  0.00    -0.349 OA
HETATM    6  C6  UNL     1       0.997  -4.147 -15.944  1.00  0.00     0.182 C 
ENDROOT
BRANCH   4   7
HETATM    7  C5  UNL     1      -2.306  -2.876 -16.608  1.00  0.00     0.224 C 
BRANCH   7   8
HETATM    8  O4  UNL     1      -2.663  -2.825 -15.262  1.00  0.00    -0.396 OA
ATOM      9  H4  UNL     1      -2.427  -3.629 -14.814  1.00  0.00     0.209 HD
ENDBRANCH   7   8
ENDBRANCH   4   7
BRANCH   2  10
HETATM   10  O2  UNL     1      -1.708  -5.397 -15.001  1.00  0.00    -0.368 OA
ATOM     11  H2  UNL     1      -1.714  -6.089 -14.351  1.00  0.00     0.212 HD
ENDBRANCH   2  10
BRANCH   6  12
HETATM   12  C7  UNL     1       2.222  -3.632 -15.244  1.00  0.00     0.199 C 
BRANCH  12  13
HETATM   13  O6  UNL     1       2.441  -4.489 -14.147  1.00  0.00    -0.398 OA
ATOM     14  H6  UNL     1       3.251  -4.201 -13.741  1.00  0.00     0.209 HD
ENDBRANCH  12  13
ENDBRANCH   6  12
BRANCH   1  15
HETATM   15  O1  UNL     1       1.446  -6.510 -16.020  1.00  0.00    -0.383 OA
HETATM   16  C1  UNL     1       0.754  -7.518 -16.705  1.00  0.00     0.202 C 
ENDBRANCH   1  15
TORSDOF 6
ENDMDL
MODEL 3
REMARK VINA RESULT: -5.170982008      1.701      4.715
REMARK  6 active torsions:
REMARK  status: ('A' for Active; 'I' for Inactive)
REMARK    1  A    between atoms: O1_2  and  C2_3 
REMARK    2  A    between atoms: C3_4  and  O2_5 
REMARK    3  A    between atoms: C4_8  and  C5_9 
REMARK    4  A    between atoms: C5_9  and  O4_10 
REMARK    5  A    between atoms: C6_13  and  C7_14 
REMARK    6  A    between atoms: C7_14  and  O6_15 
ROOT
HETATM    1  C2  UNL     1       1.146  -3.680 -15.975  1.00  0.00     0.207 C 
HETATM    2  C3  UNL     1       0.147  -2.626 -16.407  1.00  0.00     0.291 C 
HETATM    3  O3  UNL     1      -1.098  -2.908 -15.849  1.00  0.00    -0.327 OA
HETATM    4  C4  UNL     1      -1.617  -4.114 -16.274  1.00  0.00     0.287 C 
HETATM    5  O5  UNL     1      -0.625  -5.005 -16.683  1.00  0.00    -0.349 OA
HETATM    6  C6  UNL     1       0.367  -4.915 -15.683  1.00  0.00     0.182 C 
ENDROOT
BRANCH   4   7
HETATM    7  C5  UNL     1      -2.686  -3.943 -17.327  1.00  0.00     0.224 C 
BRANCH   7   8
HETATM    8  O4  UNL     1      -2.236  -4.371 -18.575  1.00  0.00    -0.396 OA
ATOM      9  H4  UNL     1      -2.428  -3.728 -19.248  1.00  0.00     0.209 HD
ENDBRANCH   7   8
ENDBRANCH   4   7
BRANCH   2  10
HETATM   10  O2  UNL     1       0.026  -2.628 -17.786  1.00  0.00    -0.368 OA
ATOM     11  H2  UNL     1      -0.890  -2.666 -18.030  1.00  0.00     0.212 HD
ENDBRANCH   2  10
BRANCH   6  12
HETATM   12  C7  UNL     1       1.192  -6.167 -15.610  1.00  0.00     0.199 C 
BRANCH  12  13
HETATM   13  O6  UNL     1       1.530  -6.341 -14.252  1.00  0.00    -0.398 OA
ATOM     14  H6  UNL     1       2.178  -5.676 -14.051  1.00  0.00     0.209 HD
ENDBRANCH  12  13
ENDBRANCH   6  12
BRANCH   1  15
HETATM   15  O1  UNL     1       1.941  -3.258 -14.929  1.00  0.00    -0.383 OA
HETATM   16  C1  UNL     1       3.224  -3.818 -14.984  1.00  0.00     0.202 C 
ENDBRANCH   1  15
TORSDOF 6
ENDMDL
MODEL 4
REMARK VINA RESULT: -4.745003381      1.369      2.679
REMARK  6 active torsions:
REMARK  status: ('A' for Active; 'I' for Inactive)
REMARK    1  A    between atoms: O1_2  and  C2_3 
REMARK    2  A    between atoms: C3_4  and  O2_5 
REMARK    3  A    between atoms: C4_8  and  C5_9 
REMARK    4  A    between atoms: C5_9  and  O4_10 
REMARK    5  A    between atoms: C6_13  and  C7_14 
REMARK    6  A    between atoms: C7_14  and  O6_15 
ROOT
HETATM    1  C2  UNL     1      -0.482  -3.629 -16.125  1.00  0.00     0.207 C 
HETATM    2  C3  UNL     1       0.895  -3.030 -16.334  1.00  0.00     0.291 C 
HETATM    3  O3  UNL     1       1.767  -4.015 -16.790  1.00  0.00    -0.327 OA
HETATM    4  C4  UNL     1       1.938  -5.043 -15.885  1.00  0.00     0.287 C 
HETATM    5  O5  UNL     1       0.852  -5.176 -15.020  1.00  0.00    -0.349 OA
HETATM    6  C6  UNL     1      -0.282  -5.079 -15.856  1.00  0.00     0.182 C 
ENDROOT
BRANCH   4   7
HETATM    7  C5  UNL     1       3.244  -4.940 -15.134  1.00  0.00     0.224 C 
BRANCH   7   8
HETATM    8  O4  UNL     1       3.040  -4.491 -13.831  1.00  0.00    -0.396 OA
ATOM      9  H4  UNL     1       2.677  -3.613 -13.823  1.00  0.00     0.209 HD
ENDBRANCH   7   8
ENDBRANCH   4   7
BRANCH   2  10
HETATM   10  O2  UNL     1       1.377  -2.530 -15.137  1.00  0.00    -0.368 OA
ATOM     11  H2  UNL     1       0.749  -1.922 -14.765  1.00  0.00     0.212 HD
ENDBRANCH   2  10
BRANCH   6  12
HETATM   12  C7  UNL     1      -1.472  -5.768 -15.253  1.00  0.00     0.199 C 
BRANCH  12  13
HETATM   13  O6  UNL     1      -2.138  -6.411 -16.316  1.00  0.00    -0.398 OA
ATOM     14  H6  UNL     1      -1.483  -6.571 -16.985  1.00  0.00     0.209 HD
ENDBRANCH  12  13
ENDBRANCH   6  12
BRANCH   1  15
HETATM   15  O1  UNL     1      -1.337  -3.366 -17.176  1.00  0.00    -0.383 OA
HETATM   16  C1  UNL     1      -2.528  -2.765 -16.747  1.00  0.00     0.202 C 
ENDBRANCH   1  15
TORSDOF 6
ENDMDL
MODEL 5
REMARK VINA RESULT: -4.707713292      1.492      4.063
REMARK  6 active torsions:
REMARK  status: ('A' for Active; 'I' for Inactive)
REMARK    1  A    between atoms: O1_2  and  C2_3 
REMARK    2  A    between atoms: C3_4  and  O2_5 
REMARK    3  A    between atoms: C4_8  and  C5_9 
REMARK    4  A    between atoms: C5_9  and  O4_10 
REMARK    5  A    between atoms: C6_13  and  C7_14 
REMARK    6  A    between atoms: C7_14  and  O6_15 
ROOT
HETATM    1  C2  UNL     1       2.378  -4.567 -15.036  1.00  0.00     0.207 C 
HETATM    2  C3  UNL     1       1.765  -5.938 -15.241  1.00  0.00     0.291 C 
HETATM    3  O3  UNL     1       1.035  -5.949 -16.428  1.00  0.00    -0.327 OA
HETATM    4  C4  UNL     1      -0.023  -5.062 -16.417  1.00  0.00     0.287 C 
HETATM    5  O5  UNL     1       0.179  -4.005 -15.529  1.00  0.00    -0.349 OA
HETATM    6  C6  UNL     1       1.511  -3.597 -15.760  1.00  0.00     0.182 C 
ENDROOT
BRANCH   4   7
HETATM    7  C5  UNL     1      -1.348  -5.747 -16.181  1.00  0.00     0.224 C 
BRANCH   7   8
HETATM    8  O4  UNL     1      -1.845  -5.457 -14.911  1.00  0.00    -0.396 OA
ATOM      9  H4  UNL     1      -1.180  -5.049 -14.368  1.00  0.00     0.209 HD
ENDBRANCH   7   8
ENDBRANCH   4   7
BRANCH   2  10
HETATM   10  O2  UNL     1       0.912  -6.234 -14.192  1.00  0.00    -0.368 OA
ATOM     11  H2  UNL     1       0.920  -5.526 -13.560  1.00  0.00     0.212 HD
ENDBRANCH   2  10
BRANCH   6  12
HETATM   12  C7  UNL     1       1.723  -2.163 -15.369  1.00  0.00     0.199 C 
BRANCH  12  13
HETATM   13  O6  UNL     1       2.517  -2.183 -14.204  1.00  0.00    -0.398 OA
ATOM     14  H6  UNL     1       3.410  -2.331 -14.492  1.00  0.00     0.209 HD
ENDBRANCH  12  13
ENDBRANCH   6  12
BRANCH   1  15
HETATM   15  O1  UNL     1       3.706  -4.521 -15.411  1.00  0.00    -0.383 OA
HETATM   16  C1  UNL     1       4.564  -4.495 -14.303  1.00  0.00     0.202 C 
ENDBRANCH   1  15
TORSDOF 6
ENDMDL
