MODEL 1
REMARK VINA RESULT: -7.677061023      0.000      0.000
REMARK  10 active torsions:
REMARK  status: ('A' for Active; 'I' for Inactive)
REMARK    1  A    between atoms: C1_2  and  C2_4 
REMARK    2  A    between atoms: C2_4  and  O3_5 
REMARK    3  A    between atoms: O3_5  and  C3_6 
REMARK    4  A    between atoms: C3_6  and  C4_8 
REMARK    5  A    between atoms: C4_8  and  C5_9 
REMARK    6  A    between atoms: C4_8  and  N1_13 
REMARK    7  A    between atoms: C5_9  and  C6_10 
REMARK    8  A    between atoms: N1_13  and  C7_15 
REMARK    9  A    between atoms: C7_15  and  N2_17 
REMARK   10  A    between atoms: N2_17  and  C8_19 
ROOT
HETATM    1  C4  UNL     1     -36.474  -2.344   7.156  1.00  0.00     0.193 C 
ENDROOT
BRANCH   1   2
HETATM    2  C3  UNL     1     -37.484  -3.378   6.955  1.00  0.00     0.282 C 
HETATM    3  O4  UNL     1     -38.680  -3.228   7.293  1.00  0.00    -0.263 OA
BRANCH   2   4
HETATM    4  O3  UNL     1     -37.152  -4.590   6.371  1.00  0.00    -0.309 OA
BRANCH   4   5
HETATM    5  C2  UNL     1     -36.464  -5.615   7.092  1.00  0.00     0.291 C 
BRANCH   5   6
HETATM    6  C1  UNL     1     -35.899  -6.585   6.158  1.00  0.00     0.198 C 
HETATM    7  O1  UNL     1     -36.656  -7.129   5.311  1.00  0.00    -0.646 OA
HETATM    8  O2  UNL     1     -34.553  -6.905   6.204  1.00  0.00    -0.646 OA
ENDBRANCH   5   6
ENDBRANCH   4   5
ENDBRANCH   2   4
ENDBRANCH   1   2
BRANCH   1   9
HETATM    9  C5  UNL     1     -35.462  -2.652   8.216  1.00  0.00     0.148 C 
BRANCH   9  10
HETATM   10  C6  UNL     1     -35.749  -2.092   9.528  1.00  0.00     0.175 C 
HETATM   11  O5  UNL     1     -35.106  -2.368  10.566  1.00  0.00    -0.648 OA
HETATM   12  O6  UNL     1     -36.792  -1.193   9.671  1.00  0.00    -0.648 OA
ENDBRANCH   9  10
ENDBRANCH   1   9
BRANCH   1  13
HETATM   13  N1  UNL     1     -35.818  -2.035   5.904  1.00  0.00    -0.353 N 
ATOM     14  H1  UNL     1     -35.755  -2.785   5.215  1.00  0.00     0.162 HD
BRANCH  13  15
HETATM   15  C7  UNL     1     -35.262  -0.801   5.553  1.00  0.00     0.168 C 
HETATM   16  S1  UNL     1     -34.865   0.280   6.695  1.00  0.00    -0.041 SA
BRANCH  15  17
HETATM   17  N2  UNL     1     -35.030  -0.491   4.195  1.00  0.00    -0.363 N 
ATOM     18  H2  UNL     1     -35.225  -1.187   3.475  1.00  0.00     0.162 HD
BRANCH  17  19
HETATM   19  C8  UNL     1     -34.522   0.796   3.820  1.00  0.00     0.083 C 
HETATM   20  C9  UNL     1     -33.072   0.787   3.453  1.00  0.00     0.025 C 
HETATM   21  C10 UNL     1     -32.803   1.533   2.166  1.00  0.00     0.002 C 
HETATM   22  C11 UNL     1     -33.452   2.899   2.166  1.00  0.00     0.000 C 
HETATM   23  C12 UNL     1     -34.884   2.871   2.602  1.00  0.00     0.002 C 
HETATM   24  C13 UNL     1     -35.320   1.423   2.700  1.00  0.00     0.025 C 
ENDBRANCH  17  19
ENDBRANCH  15  17
ENDBRANCH  13  15
ENDBRANCH   1  13
TORSDOF 10
ENDMDL
MODEL 2
REMARK VINA RESULT: -7.493909042      1.784      2.740
REMARK  10 active torsions:
REMARK  status: ('A' for Active; 'I' for Inactive)
REMARK    1  A    between atoms: C1_2  and  C2_4 
REMARK    2  A    between atoms: C2_4  and  O3_5 
REMARK    3  A    between atoms: O3_5  and  C3_6 
REMARK    4  A    between atoms: C3_6  and  C4_8 
REMARK    5  A    between atoms: C4_8  and  C5_9 
REMARK    6  A    between atoms: C4_8  and  N1_13 
REMARK    7  A    between atoms: C5_9  and  C6_10 
REMARK    8  A    between atoms: N1_13  and  C7_15 
REMARK    9  A    between atoms: C7_15  and  N2_17 
REMARK   10  A    between atoms: N2_17  and  C8_19 
ROOT
HETATM    1  C4  UNL     1     -35.447  -1.202   6.974  1.00  0.00     0.193 C 
ENDROOT
BRANCH   1   2
HETATM    2  C3  UNL     1     -35.065  -2.407   7.702  1.00  0.00     0.282 C 
HETATM    3  O4  UNL     1     -34.389  -2.372   8.755  1.00  0.00    -0.263 OA
BRANCH   2   4
HETATM    4  O3  UNL     1     -35.442  -3.660   7.248  1.00  0.00    -0.309 OA
BRANCH   4   5
HETATM    5  C2  UNL     1     -36.479  -4.414   7.881  1.00  0.00     0.291 C 
BRANCH   5   6
HETATM    6  C1  UNL     1     -37.696  -4.359   7.075  1.00  0.00     0.198 C 
HETATM    7  O1  UNL     1     -37.917  -5.277   6.241  1.00  0.00    -0.646 OA
HETATM    8  O2  UNL     1     -38.592  -3.314   7.223  1.00  0.00    -0.646 OA
ENDBRANCH   5   6
ENDBRANCH   4   5
ENDBRANCH   2   4
ENDBRANCH   1   2
BRANCH   1   9
HETATM    9  C5  UNL     1     -36.304  -0.245   7.746  1.00  0.00     0.148 C 
BRANCH   9  10
HETATM   10  C6  UNL     1     -35.660   0.378   8.891  1.00  0.00     0.175 C 
HETATM   11  O5  UNL     1     -34.731   1.214   8.806  1.00  0.00    -0.648 OA
HETATM   12  O6  UNL     1     -36.076   0.049  10.169  1.00  0.00    -0.648 OA
ENDBRANCH   9  10
ENDBRANCH   1   9
BRANCH   1  13
HETATM   13  N1  UNL     1     -34.271  -0.530   6.465  1.00  0.00    -0.353 N 
ATOM     14  H1  UNL     1     -33.560  -0.261   7.146  1.00  0.00     0.162 HD
BRANCH  13  15
HETATM   15  C7  UNL     1     -34.021  -0.216   5.126  1.00  0.00     0.168 C 
HETATM   16  S1  UNL     1     -32.997  -1.113   4.245  1.00  0.00    -0.041 SA
BRANCH  15  17
HETATM   17  N2  UNL     1     -34.672   0.884   4.524  1.00  0.00    -0.363 N 
ATOM     18  H2  UNL     1     -35.338   1.437   5.065  1.00  0.00     0.162 HD
BRANCH  17  19
HETATM   19  C8  UNL     1     -34.405   1.229   3.160  1.00  0.00     0.083 C 
HETATM   20  C9  UNL     1     -35.625   1.613   2.385  1.00  0.00     0.025 C 
HETATM   21  C10 UNL     1     -35.422   2.881   1.588  1.00  0.00     0.002 C 
HETATM   22  C11 UNL     1     -34.145   2.836   0.782  1.00  0.00     0.000 C 
HETATM   23  C12 UNL     1     -32.959   2.385   1.579  1.00  0.00     0.002 C 
HETATM   24  C13 UNL     1     -33.368   2.322   3.037  1.00  0.00     0.025 C 
ENDBRANCH  17  19
ENDBRANCH  15  17
ENDBRANCH  13  15
ENDBRANCH   1  13
TORSDOF 10
ENDMDL
MODEL 3
REMARK VINA RESULT: -7.423720505      1.536      2.033
REMARK  10 active torsions:
REMARK  status: ('A' for Active; 'I' for Inactive)
REMARK    1  A    between atoms: C1_2  and  C2_4 
REMARK    2  A    between atoms: C2_4  and  O3_5 
REMARK    3  A    between atoms: O3_5  and  C3_6 
REMARK    4  A    between atoms: C3_6  and  C4_8 
REMARK    5  A    between atoms: C4_8  and  C5_9 
REMARK    6  A    between atoms: C4_8  and  N1_13 
REMARK    7  A    between atoms: C5_9  and  C6_10 
REMARK    8  A    between atoms: N1_13  and  C7_15 
REMARK    9  A    between atoms: C7_15  and  N2_17 
REMARK   10  A    between atoms: N2_17  and  C8_19 
ROOT
HETATM    1  C4  UNL     1     -35.784  -1.109   6.553  1.00  0.00     0.193 C 
ENDROOT
BRANCH   1   2
HETATM    2  C3  UNL     1     -36.317  -2.429   6.875  1.00  0.00     0.282 C 
HETATM    3  O4  UNL     1     -37.517  -2.616   7.178  1.00  0.00    -0.263 OA
BRANCH   2   4
HETATM    4  O3  UNL     1     -35.500  -3.547   6.858  1.00  0.00    -0.309 OA
BRANCH   4   5
HETATM    5  C2  UNL     1     -35.840  -4.744   7.563  1.00  0.00     0.291 C 
BRANCH   5   6
HETATM    6  C1  UNL     1     -36.129  -5.815   6.613  1.00  0.00     0.198 C 
HETATM    7  O1  UNL     1     -37.321  -6.000   6.248  1.00  0.00    -0.646 OA
HETATM    8  O2  UNL     1     -35.112  -6.615   6.122  1.00  0.00    -0.646 OA
ENDBRANCH   5   6
ENDBRANCH   4   5
ENDBRANCH   2   4
ENDBRANCH   1   2
BRANCH   1   9
HETATM    9  C5  UNL     1     -34.795  -0.572   7.542  1.00  0.00     0.148 C 
BRANCH   9  10
HETATM   10  C6  UNL     1     -35.368  -0.079   8.785  1.00  0.00     0.175 C 
HETATM   11  O5  UNL     1     -35.383   1.127   9.122  1.00  0.00    -0.648 OA
HETATM   12  O6  UNL     1     -35.940  -0.973   9.673  1.00  0.00    -0.648 OA
ENDBRANCH   9  10
ENDBRANCH   1   9
BRANCH   1  13
HETATM   13  N1  UNL     1     -35.219  -1.109   5.221  1.00  0.00    -0.353 N 
ATOM     14  H1  UNL     1     -35.490  -1.873   4.602  1.00  0.00     0.162 HD
BRANCH  13  15
HETATM   15  C7  UNL     1     -34.334  -0.156   4.706  1.00  0.00     0.168 C 
HETATM   16  S1  UNL     1     -32.736  -0.430   4.704  1.00  0.00    -0.041 SA
BRANCH  15  17
HETATM   17  N2  UNL     1     -34.832   1.054   4.171  1.00  0.00    -0.363 N 
ATOM     18  H2  UNL     1     -35.423   1.656   4.745  1.00  0.00     0.162 HD
BRANCH  17  19
HETATM   19  C8  UNL     1     -34.512   1.439   2.829  1.00  0.00     0.083 C 
HETATM   20  C9  UNL     1     -35.704   1.826   2.013  1.00  0.00     0.025 C 
HETATM   21  C10 UNL     1     -35.489   3.118   1.260  1.00  0.00     0.002 C 
HETATM   22  C11 UNL     1     -34.177   3.114   0.508  1.00  0.00     0.000 C 
HETATM   23  C12 UNL     1     -33.020   2.659   1.343  1.00  0.00     0.002 C 
HETATM   24  C13 UNL     1     -33.489   2.550   2.780  1.00  0.00     0.025 C 
ENDBRANCH  17  19
ENDBRANCH  15  17
ENDBRANCH  13  15
ENDBRANCH   1  13
TORSDOF 10
ENDMDL
MODEL 4
REMARK VINA RESULT: -7.124990779      1.600      2.414
REMARK  10 active torsions:
REMARK  status: ('A' for Active; 'I' for Inactive)
REMARK    1  A    between atoms: C1_2  and  C2_4 
REMARK    2  A    between atoms: C2_4  and  O3_5 
REMARK    3  A    between atoms: O3_5  and  C3_6 
REMARK    4  A    between atoms: C3_6  and  C4_8 
REMARK    5  A    between atoms: C4_8  and  C5_9 
REMARK    6  A    between atoms: C4_8  and  N1_13 
REMARK    7  A    between atoms: C5_9  and  C6_10 
REMARK    8  A    between atoms: N1_13  and  C7_15 
REMARK    9  A    between atoms: C7_15  and  N2_17 
REMARK   10  A    between atoms: N2_17  and  C8_19 
ROOT
HETATM    1  C4  UNL     1     -35.362  -2.768   6.838  1.00  0.00     0.193 C 
ENDROOT
BRANCH   1   2
HETATM    2  C3  UNL     1     -34.882  -4.029   7.392  1.00  0.00     0.282 C 
HETATM    3  O4  UNL     1     -34.653  -4.187   8.613  1.00  0.00    -0.263 OA
BRANCH   2   4
HETATM    4  O3  UNL     1     -34.656  -5.124   6.573  1.00  0.00    -0.309 OA
BRANCH   4   5
HETATM    5  C2  UNL     1     -35.163  -6.423   6.888  1.00  0.00     0.291 C 
BRANCH   5   6
HETATM    6  C1  UNL     1     -36.284  -6.744   6.009  1.00  0.00     0.198 C 
HETATM    7  O1  UNL     1     -36.107  -7.565   5.070  1.00  0.00    -0.646 OA
HETATM    8  O2  UNL     1     -37.523  -6.157   6.204  1.00  0.00    -0.646 OA
ENDBRANCH   5   6
ENDBRANCH   4   5
ENDBRANCH   2   4
ENDBRANCH   1   2
BRANCH   1   9
HETATM    9  C5  UNL     1     -36.796  -2.777   6.403  1.00  0.00     0.148 C 
BRANCH   9  10
HETATM   10  C6  UNL     1     -37.764  -3.003   7.465  1.00  0.00     0.175 C 
HETATM   11  O5  UNL     1     -37.532  -2.809   8.680  1.00  0.00    -0.648 OA
HETATM   12  O6  UNL     1     -39.030  -3.461   7.145  1.00  0.00    -0.648 OA
ENDBRANCH   9  10
ENDBRANCH   1   9
BRANCH   1  13
HETATM   13  N1  UNL     1     -35.123  -1.688   7.772  1.00  0.00    -0.353 N 
ATOM     14  H1  UNL     1     -34.836  -1.946   8.716  1.00  0.00     0.162 HD
BRANCH  13  15
HETATM   15  C7  UNL     1     -35.252  -0.323   7.496  1.00  0.00     0.168 C 
HETATM   16  S1  UNL     1     -34.987   0.780   8.655  1.00  0.00    -0.041 SA
BRANCH  15  17
HETATM   17  N2  UNL     1     -35.603   0.106   6.197  1.00  0.00    -0.363 N 
ATOM     18  H2  UNL     1     -36.573   0.043   5.887  1.00  0.00     0.162 HD
BRANCH  17  19
HETATM   19  C8  UNL     1     -34.605   0.627   5.311  1.00  0.00     0.083 C 
HETATM   20  C9  UNL     1     -33.320  -0.136   5.335  1.00  0.00     0.025 C 
HETATM   21  C10 UNL     1     -32.810  -0.444   3.945  1.00  0.00     0.002 C 
HETATM   22  C11 UNL     1     -32.804   0.785   3.066  1.00  0.00     0.000 C 
HETATM   23  C12 UNL     1     -34.087   1.556   3.121  1.00  0.00     0.002 C 
HETATM   24  C13 UNL     1     -35.102   0.730   3.886  1.00  0.00     0.025 C 
ENDBRANCH  17  19
ENDBRANCH  15  17
ENDBRANCH  13  15
ENDBRANCH   1  13
TORSDOF 10
ENDMDL
MODEL 5
REMARK VINA RESULT: -7.124746212      1.815      2.766
REMARK  10 active torsions:
REMARK  status: ('A' for Active; 'I' for Inactive)
REMARK    1  A    between atoms: C1_2  and  C2_4 
REMARK    2  A    between atoms: C2_4  and  O3_5 
REMARK    3  A    between atoms: O3_5  and  C3_6 
REMARK    4  A    between atoms: C3_6  and  C4_8 
REMARK    5  A    between atoms: C4_8  and  C5_9 
REMARK    6  A    between atoms: C4_8  and  N1_13 
REMARK    7  A    between atoms: C5_9  and  C6_10 
REMARK    8  A    between atoms: N1_13  and  C7_15 
REMARK    9  A    between atoms: C7_15  and  N2_17 
REMARK   10  A    between atoms: N2_17  and  C8_19 
ROOT
HETATM    1  C4  UNL     1     -35.251  -2.987   6.995  1.00  0.00     0.193 C 
ENDROOT
BRANCH   1   2
HETATM    2  C3  UNL     1     -34.979  -4.384   7.316  1.00  0.00     0.282 C 
HETATM    3  O4  UNL     1     -34.977  -4.819   8.489  1.00  0.00    -0.263 OA
BRANCH   2   4
HETATM    4  O3  UNL     1     -34.708  -5.302   6.314  1.00  0.00    -0.309 OA
BRANCH   4   5
HETATM    5  C2  UNL     1     -35.030  -6.688   6.450  1.00  0.00     0.291 C 
BRANCH   5   6
HETATM    6  C1  UNL     1     -36.332  -6.957   5.846  1.00  0.00     0.198 C 
HETATM    7  O1  UNL     1     -36.455  -7.947   5.076  1.00  0.00    -0.646 OA
HETATM    8  O2  UNL     1     -37.415  -6.138   6.114  1.00  0.00    -0.646 OA
ENDBRANCH   5   6
ENDBRANCH   4   5
ENDBRANCH   2   4
ENDBRANCH   1   2
BRANCH   1   9
HETATM    9  C5  UNL     1     -36.651  -2.706   6.542  1.00  0.00     0.148 C 
BRANCH   9  10
HETATM   10  C6  UNL     1     -37.686  -2.978   7.526  1.00  0.00     0.175 C 
HETATM   11  O5  UNL     1     -37.531  -2.855   8.762  1.00  0.00    -0.648 OA
HETATM   12  O6  UNL     1     -38.934  -3.401   7.102  1.00  0.00    -0.648 OA
ENDBRANCH   9  10
ENDBRANCH   1   9
BRANCH   1  13
HETATM   13  N1  UNL     1     -34.901  -2.139   8.115  1.00  0.00    -0.353 N 
ATOM     14  H1  UNL     1     -34.830  -2.585   9.030  1.00  0.00     0.162 HD
BRANCH  13  15
HETATM   15  C7  UNL     1     -34.653  -0.764   8.056  1.00  0.00     0.168 C 
HETATM   16  S1  UNL     1     -35.479   0.264   8.999  1.00  0.00    -0.041 SA
BRANCH  15  17
HETATM   17  N2  UNL     1     -33.667  -0.261   7.178  1.00  0.00    -0.363 N 
ATOM     18  H2  UNL     1     -32.790   0.100   7.555  1.00  0.00     0.162 HD
BRANCH  17  19
HETATM   19  C8  UNL     1     -33.890  -0.255   5.763  1.00  0.00     0.083 C 
HETATM   20  C9  UNL     1     -35.059   0.576   5.341  1.00  0.00     0.025 C 
HETATM   21  C10 UNL     1     -34.728   1.482   4.177  1.00  0.00     0.002 C 
HETATM   22  C11 UNL     1     -34.045   0.728   3.059  1.00  0.00     0.000 C 
HETATM   23  C12 UNL     1     -32.922  -0.142   3.533  1.00  0.00     0.002 C 
HETATM   24  C13 UNL     1     -32.663   0.176   4.992  1.00  0.00     0.025 C 
ENDBRANCH  17  19
ENDBRANCH  15  17
ENDBRANCH  13  15
ENDBRANCH   1  13
TORSDOF 10
ENDMDL
