MODEL 1
REMARK VINA RESULT: -6.761196530      0.000      0.000
REMARK  13 active torsions:
REMARK  status: ('A' for Active; 'I' for Inactive)
REMARK    1  A    between atoms: C2_2  and  C16_32 
REMARK    2  A    between atoms: N1_3  and  C3_5 
REMARK    3  A    between atoms: C3_5  and  O1_6 
REMARK    4  A    between atoms: C4_8  and  C5_9 
REMARK    5  A    between atoms: C4_8  and  N2_16 
REMARK    6  A    between atoms: C5_9  and  C6_10 
REMARK    7  A    between atoms: N2_16  and  C12_17 
REMARK    8  A    between atoms: C12_17  and  O2_18 
REMARK    9  A    between atoms: C13_20  and  N3_21 
REMARK       I    between atoms: N3_21  and  C14_23 
REMARK   10  A    between atoms: C14_23  and  C15_25 
REMARK       I    between atoms: C15_25  and  N4_27 
REMARK   11  A    between atoms: N4_27  and  N5_29 
REMARK   12  A    between atoms: C16_32  and  N6_33 
REMARK   13  A    between atoms: C16_32  and  N7_37 
ROOT
HETATM    1  C3  UNL     1      -4.406  -4.057  18.505  1.00  0.00     0.177 C 
HETATM    2  C4  UNL     1      -4.407  -5.355  18.043  1.00  0.00     0.138 C 
ENDROOT
BRANCH   2   3
HETATM    3  C5  UNL     1      -2.904  -5.176  17.063  1.00  0.00     0.082 C 
BRANCH   3   4
HETATM    4  C6  UNL     1      -1.914  -5.848  17.817  1.00  0.00    -0.008 C 
HETATM    5  C7  UNL     1      -1.012  -5.473  18.898  1.00  0.00     0.005 C 
HETATM    6  C8  UNL     1      -0.428  -6.763  19.553  1.00  0.00     0.000 C 
HETATM    7  C9  UNL     1      -0.619  -7.963  18.665  1.00  0.00     0.000 C 
HETATM    8  C10 UNL     1      -0.118  -7.544  17.256  1.00  0.00     0.000 C 
HETATM    9  C11 UNL     1      -0.976  -6.470  16.687  1.00  0.00     0.005 C 
ENDBRANCH   3   4
ENDBRANCH   2   3
BRANCH   2  10
HETATM   10  N2  UNL     1      -4.457  -6.609  17.614  1.00  0.00    -0.380 NA
BRANCH  10  11
HETATM   11  C12 UNL     1      -4.547  -7.903  17.190  1.00  0.00     0.230 C 
HETATM   12  C13 UNL     1      -5.686  -8.758  17.327  1.00  0.00     0.163 C 
BRANCH  11  13
HETATM   13  O2  UNL     1      -3.561  -8.477  16.544  1.00  0.00    -0.335 OA
ATOM     14  H2  UNL     1      -3.708  -9.238  15.996  1.00  0.00     0.220 HD
ENDBRANCH  11  13
BRANCH  12  15
HETATM   15  N3  UNL     1      -6.463  -8.778  18.511  1.00  0.00    -0.324 N 
HETATM   16  C14 UNL     1      -7.158 -10.016  18.842  1.00  0.00     0.315 C 
HETATM   17  O3  UNL     1      -7.044 -11.007  18.092  1.00  0.00    -0.262 OA
ATOM     18  H3  UNL     1      -6.534  -7.957  19.110  1.00  0.00     0.168 HD
BRANCH  16  19
HETATM   19  C15 UNL     1      -8.002 -10.060  20.032  1.00  0.00     0.327 C 
HETATM   20  O4  UNL     1      -7.505 -10.183  21.143  1.00  0.00    -0.261 OA
HETATM   21  N4  UNL     1      -9.456  -9.968  19.866  1.00  0.00    -0.268 N 
ATOM     22  H4  UNL     1      -9.809  -9.842  18.918  1.00  0.00     0.190 HD
BRANCH  21  23
HETATM   23  N5  UNL     1     -10.379 -10.035  20.873  1.00  0.00    -0.342 N 
ATOM     24  H52 UNL     1     -10.315  -9.312  21.589  1.00  0.00     0.176 HD
ATOM     25  H51 UNL     1     -11.112 -10.740  20.963  1.00  0.00     0.176 HD
ENDBRANCH  21  23
ENDBRANCH  16  19
ENDBRANCH  12  15
ENDBRANCH  10  11
ENDBRANCH   2  10
BRANCH   1  26
HETATM   26  N1  UNL     1      -5.209  -3.415  19.467  1.00  0.00    -0.338 N 
HETATM   27  C2  UNL     1      -5.526  -2.282  19.734  1.00  0.00     0.042 C 
HETATM   28  C1  UNL     1      -5.128  -1.015  19.095  1.00  0.00     0.067 C 
ATOM     29  H1  UNL     1      -5.636  -4.084  20.108  1.00  0.00     0.167 HD
BRANCH  27  30
HETATM   30  C16 UNL     1      -6.660  -2.154  20.814  1.00  0.00     0.422 C 
BRANCH  30  31
HETATM   31  N6  UNL     1      -7.724  -1.484  20.132  1.00  0.00    -0.045 N 
ATOM     32  H63 UNL     1      -7.535  -0.502  19.927  1.00  0.00     0.277 HD
ATOM     33  H62 UNL     1      -7.850  -1.778  19.164  1.00  0.00     0.277 HD
ATOM     34  H61 UNL     1      -8.540  -1.637  20.724  1.00  0.00     0.277 HD
ENDBRANCH  30  31
BRANCH  30  35
HETATM   35  N7  UNL     1      -6.228  -1.357  21.888  1.00  0.00    -0.045 N 
ATOM     36  H73 UNL     1      -5.449  -1.786  22.389  1.00  0.00     0.277 HD
ATOM     37  H72 UNL     1      -5.755  -0.512  21.568  1.00  0.00     0.277 HD
ATOM     38  H71 UNL     1      -7.008  -1.143  22.510  1.00  0.00     0.277 HD
ENDBRANCH  30  35
ENDBRANCH  27  30
ENDBRANCH   1  26
BRANCH   1  39
HETATM   39  O1  UNL     1      -3.515  -3.152  17.991  1.00  0.00    -0.344 OA
ATOM     40  H1  UNL     1      -2.947  -3.594  17.371  1.00  0.00     0.219 HD
ENDBRANCH   1  39
TORSDOF 13
ENDMDL
MODEL 2
REMARK VINA RESULT: -6.746711192      1.667      1.817
REMARK  13 active torsions:
REMARK  status: ('A' for Active; 'I' for Inactive)
REMARK    1  A    between atoms: C2_2  and  C16_32 
REMARK    2  A    between atoms: N1_3  and  C3_5 
REMARK    3  A    between atoms: C3_5  and  O1_6 
REMARK    4  A    between atoms: C4_8  and  C5_9 
REMARK    5  A    between atoms: C4_8  and  N2_16 
REMARK    6  A    between atoms: C5_9  and  C6_10 
REMARK    7  A    between atoms: N2_16  and  C12_17 
REMARK    8  A    between atoms: C12_17  and  O2_18 
REMARK    9  A    between atoms: C13_20  and  N3_21 
REMARK       I    between atoms: N3_21  and  C14_23 
REMARK   10  A    between atoms: C14_23  and  C15_25 
REMARK       I    between atoms: C15_25  and  N4_27 
REMARK   11  A    between atoms: N4_27  and  N5_29 
REMARK   12  A    between atoms: C16_32  and  N6_33 
REMARK   13  A    between atoms: C16_32  and  N7_37 
ROOT
HETATM    1  C3  UNL     1      -4.484  -4.303  17.575  1.00  0.00     0.177 C 
HETATM    2  C4  UNL     1      -4.417  -5.675  17.686  1.00  0.00     0.138 C 
ENDROOT
BRANCH   2   3
HETATM    3  C5  UNL     1      -3.017  -5.856  16.564  1.00  0.00     0.082 C 
BRANCH   3   4
HETATM    4  C6  UNL     1      -1.929  -6.171  17.411  1.00  0.00    -0.008 C 
HETATM    5  C7  UNL     1      -1.187  -5.457  18.442  1.00  0.00     0.005 C 
HETATM    6  C8  UNL     1      -0.344  -6.476  19.270  1.00  0.00     0.000 C 
HETATM    7  C9  UNL     1      -0.210  -7.790  18.548  1.00  0.00     0.000 C 
HETATM    8  C10 UNL     1       0.237  -7.446  17.102  1.00  0.00     0.000 C 
HETATM    9  C11 UNL     1      -0.824  -6.689  16.385  1.00  0.00     0.005 C 
ENDBRANCH   3   4
ENDBRANCH   2   3
BRANCH   2  10
HETATM   10  N2  UNL     1      -4.398  -6.995  17.814  1.00  0.00    -0.380 NA
BRANCH  10  11
HETATM   11  C12 UNL     1      -4.419  -8.351  17.961  1.00  0.00     0.230 C 
HETATM   12  C13 UNL     1      -5.291  -9.260  17.282  1.00  0.00     0.163 C 
BRANCH  11  13
HETATM   13  O2  UNL     1      -3.561  -8.964  18.740  1.00  0.00    -0.335 OA
ATOM     14  H2  UNL     1      -3.600  -8.872  19.685  1.00  0.00     0.220 HD
ENDBRANCH  11  13
BRANCH  12  15
HETATM   15  N3  UNL     1      -6.660  -8.962  17.074  1.00  0.00    -0.324 N 
HETATM   16  C14 UNL     1      -7.603  -9.356  18.112  1.00  0.00     0.315 C 
HETATM   17  O3  UNL     1      -7.185  -9.927  19.141  1.00  0.00    -0.262 OA
ATOM     18  H3  UNL     1      -6.975  -8.488  16.227  1.00  0.00     0.168 HD
BRANCH  16  19
HETATM   19  C15 UNL     1      -9.027  -9.103  17.913  1.00  0.00     0.327 C 
HETATM   20  O4  UNL     1      -9.825  -9.284  18.823  1.00  0.00    -0.261 OA
HETATM   21  N4  UNL     1      -9.480  -8.641  16.598  1.00  0.00    -0.268 N 
ATOM     22  H4  UNL     1      -8.765  -8.485  15.887  1.00  0.00     0.190 HD
BRANCH  21  23
HETATM   23  N5  UNL     1     -10.779  -8.400  16.241  1.00  0.00    -0.342 N 
ATOM     24  H52 UNL     1     -11.463  -8.426  16.997  1.00  0.00     0.176 HD
ATOM     25  H51 UNL     1     -11.110  -8.201  15.297  1.00  0.00     0.176 HD
ENDBRANCH  21  23
ENDBRANCH  16  19
ENDBRANCH  12  15
ENDBRANCH  10  11
ENDBRANCH   2  10
BRANCH   1  26
HETATM   26  N1  UNL     1      -5.258  -3.353  18.270  1.00  0.00    -0.338 N 
HETATM   27  C2  UNL     1      -5.054  -2.355  18.915  1.00  0.00     0.042 C 
HETATM   28  C1  UNL     1      -3.780  -1.702  19.267  1.00  0.00     0.067 C 
ATOM     29  H1  UNL     1      -6.254  -3.566  18.214  1.00  0.00     0.167 HD
BRANCH  27  30
HETATM   30  C16 UNL     1      -6.343  -1.539  19.290  1.00  0.00     0.422 C 
BRANCH  30  31
HETATM   31  N6  UNL     1      -5.850  -0.420  20.031  1.00  0.00    -0.045 N 
ATOM     32  H63 UNL     1      -4.842  -0.281  19.958  1.00  0.00     0.277 HD
ATOM     33  H62 UNL     1      -6.116   0.486  19.646  1.00  0.00     0.277 HD
ATOM     34  H61 UNL     1      -6.182  -0.582  20.983  1.00  0.00     0.277 HD
ENDBRANCH  30  31
BRANCH  30  35
HETATM   35  N7  UNL     1      -7.186  -2.303  20.115  1.00  0.00    -0.045 N 
ATOM     36  H73 UNL     1      -7.985  -2.675  19.600  1.00  0.00     0.277 HD
ATOM     37  H72 UNL     1      -6.754  -3.188  20.383  1.00  0.00     0.277 HD
ATOM     38  H71 UNL     1      -7.476  -1.761  20.928  1.00  0.00     0.277 HD
ENDBRANCH  30  35
ENDBRANCH  27  30
ENDBRANCH   1  26
BRANCH   1  39
HETATM   39  O1  UNL     1      -3.714  -3.656  16.644  1.00  0.00    -0.344 OA
ATOM     40  H1  UNL     1      -3.518  -4.256  15.933  1.00  0.00     0.219 HD
ENDBRANCH   1  39
TORSDOF 13
ENDMDL
MODEL 3
REMARK VINA RESULT: -6.715532975      1.793      6.268
REMARK  13 active torsions:
REMARK  status: ('A' for Active; 'I' for Inactive)
REMARK    1  A    between atoms: C2_2  and  C16_32 
REMARK    2  A    between atoms: N1_3  and  C3_5 
REMARK    3  A    between atoms: C3_5  and  O1_6 
REMARK    4  A    between atoms: C4_8  and  C5_9 
REMARK    5  A    between atoms: C4_8  and  N2_16 
REMARK    6  A    between atoms: C5_9  and  C6_10 
REMARK    7  A    between atoms: N2_16  and  C12_17 
REMARK    8  A    between atoms: C12_17  and  O2_18 
REMARK    9  A    between atoms: C13_20  and  N3_21 
REMARK       I    between atoms: N3_21  and  C14_23 
REMARK   10  A    between atoms: C14_23  and  C15_25 
REMARK       I    between atoms: C15_25  and  N4_27 
REMARK   11  A    between atoms: N4_27  and  N5_29 
REMARK   12  A    between atoms: C16_32  and  N6_33 
REMARK   13  A    between atoms: C16_32  and  N7_37 
ROOT
HETATM    1  C3  UNL     1      -4.627  -7.649  18.077  1.00  0.00     0.177 C 
HETATM    2  C4  UNL     1      -4.522  -6.290  17.880  1.00  0.00     0.138 C 
ENDROOT
BRANCH   2   3
HETATM    3  C5  UNL     1      -3.185  -6.406  16.675  1.00  0.00     0.082 C 
BRANCH   3   4
HETATM    4  C6  UNL     1      -2.007  -6.331  17.454  1.00  0.00    -0.008 C 
HETATM    5  C7  UNL     1      -1.409  -5.326  18.323  1.00  0.00     0.005 C 
HETATM    6  C8  UNL     1      -0.292  -5.990  19.188  1.00  0.00     0.000 C 
HETATM    7  C9  UNL     1       0.124  -7.320  18.619  1.00  0.00     0.000 C 
HETATM    8  C10 UNL     1       0.388  -7.081  17.108  1.00  0.00     0.000 C 
HETATM    9  C11 UNL     1      -0.868  -6.706  16.403  1.00  0.00     0.005 C 
ENDBRANCH   3   4
ENDBRANCH   2   3
BRANCH   2  10
HETATM   10  N2  UNL     1      -4.450  -4.973  17.732  1.00  0.00    -0.380 NA
BRANCH  10  11
HETATM   11  C12 UNL     1      -4.338  -3.624  17.563  1.00  0.00     0.230 C 
HETATM   12  C13 UNL     1      -4.427  -2.635  18.593  1.00  0.00     0.163 C 
BRANCH  11  13
HETATM   13  O2  UNL     1      -4.076  -3.106  16.388  1.00  0.00    -0.335 OA
ATOM     14  H2  UNL     1      -3.455  -2.393  16.291  1.00  0.00     0.220 HD
ENDBRANCH  11  13
BRANCH  12  15
HETATM   15  N3  UNL     1      -5.386  -2.726  19.632  1.00  0.00    -0.324 N 
HETATM   16  C14 UNL     1      -5.895  -1.482  20.193  1.00  0.00     0.315 C 
HETATM   17  O3  UNL     1      -5.487  -0.390  19.744  1.00  0.00    -0.262 OA
ATOM     18  H3  UNL     1      -5.708  -3.631  19.975  1.00  0.00     0.168 HD
BRANCH  16  19
HETATM   19  C15 UNL     1      -6.853  -1.538  21.293  1.00  0.00     0.327 C 
HETATM   20  O4  UNL     1      -7.761  -2.357  21.286  1.00  0.00    -0.261 OA
HETATM   21  N4  UNL     1      -6.711  -0.584  22.397  1.00  0.00    -0.268 N 
ATOM     22  H4  UNL     1      -5.919   0.059  22.358  1.00  0.00     0.190 HD
BRANCH  21  23
HETATM   23  N5  UNL     1      -7.547  -0.482  23.475  1.00  0.00    -0.342 N 
ATOM     24  H52 UNL     1      -8.174  -1.270  23.632  1.00  0.00     0.176 HD
ATOM     25  H51 UNL     1      -7.591   0.307  24.120  1.00  0.00     0.176 HD
ENDBRANCH  21  23
ENDBRANCH  16  19
ENDBRANCH  12  15
ENDBRANCH  10  11
ENDBRANCH   2  10
BRANCH   1  26
HETATM   26  N1  UNL     1      -5.565  -8.412  18.799  1.00  0.00    -0.338 N 
HETATM   27  C2  UNL     1      -6.576  -9.023  18.556  1.00  0.00     0.042 C 
HETATM   28  C1  UNL     1      -7.290  -9.197  17.278  1.00  0.00     0.067 C 
ATOM     29  H1  UNL     1      -5.327  -8.461  19.790  1.00  0.00     0.167 HD
BRANCH  27  30
HETATM   30  C16 UNL     1      -7.116  -9.899  19.742  1.00  0.00     0.422 C 
BRANCH  30  31
HETATM   31  N6  UNL     1      -8.382  -9.316  20.066  1.00  0.00    -0.045 N 
ATOM     32  H63 UNL     1      -8.485  -8.347  19.762  1.00  0.00     0.277 HD
ATOM     33  H62 UNL     1      -9.163  -9.686  19.524  1.00  0.00     0.277 HD
ATOM     34  H61 UNL     1      -8.472  -9.450  21.073  1.00  0.00     0.277 HD
ENDBRANCH  30  31
BRANCH  30  35
HETATM   35  N7  UNL     1      -6.265  -9.798  20.856  1.00  0.00    -0.045 N 
ATOM     36  H73 UNL     1      -5.321 -10.123  20.642  1.00  0.00     0.277 HD
ATOM     37  H72 UNL     1      -6.044  -8.827  21.078  1.00  0.00     0.277 HD
ATOM     38  H71 UNL     1      -6.664 -10.289  21.656  1.00  0.00     0.277 HD
ENDBRANCH  30  35
ENDBRANCH  27  30
ENDBRANCH   1  26
BRANCH   1  39
HETATM   39  O1  UNL     1      -3.695  -8.491  17.528  1.00  0.00    -0.344 OA
ATOM     40  H1  UNL     1      -3.758  -8.447  16.581  1.00  0.00     0.219 HD
ENDBRANCH   1  39
TORSDOF 13
ENDMDL
MODEL 4
REMARK VINA RESULT: -6.665090552      1.254      1.406
REMARK  13 active torsions:
REMARK  status: ('A' for Active; 'I' for Inactive)
REMARK    1  A    between atoms: C2_2  and  C16_32 
REMARK    2  A    between atoms: N1_3  and  C3_5 
REMARK    3  A    between atoms: C3_5  and  O1_6 
REMARK    4  A    between atoms: C4_8  and  C5_9 
REMARK    5  A    between atoms: C4_8  and  N2_16 
REMARK    6  A    between atoms: C5_9  and  C6_10 
REMARK    7  A    between atoms: N2_16  and  C12_17 
REMARK    8  A    between atoms: C12_17  and  O2_18 
REMARK    9  A    between atoms: C13_20  and  N3_21 
REMARK       I    between atoms: N3_21  and  C14_23 
REMARK   10  A    between atoms: C14_23  and  C15_25 
REMARK       I    between atoms: C15_25  and  N4_27 
REMARK   11  A    between atoms: N4_27  and  N5_29 
REMARK   12  A    between atoms: C16_32  and  N6_33 
REMARK   13  A    between atoms: C16_32  and  N7_37 
ROOT
HETATM    1  C3  UNL     1      -4.530  -4.453  17.623  1.00  0.00     0.177 C 
HETATM    2  C4  UNL     1      -4.420  -5.810  17.837  1.00  0.00     0.138 C 
ENDROOT
BRANCH   2   3
HETATM    3  C5  UNL     1      -3.110  -6.058  16.623  1.00  0.00     0.082 C 
BRANCH   3   4
HETATM    4  C6  UNL     1      -1.942  -6.235  17.401  1.00  0.00    -0.008 C 
HETATM    5  C7  UNL     1      -1.197  -5.409  18.342  1.00  0.00     0.005 C 
HETATM    6  C8  UNL     1      -0.211  -6.310  19.150  1.00  0.00     0.000 C 
HETATM    7  C9  UNL     1      -0.012  -7.643  18.480  1.00  0.00     0.000 C 
HETATM    8  C10 UNL     1       0.301  -7.336  16.990  1.00  0.00     0.000 C 
HETATM    9  C11 UNL     1      -0.870  -6.709  16.321  1.00  0.00     0.005 C 
ENDBRANCH   3   4
ENDBRANCH   2   3
BRANCH   2  10
HETATM   10  N2  UNL     1      -4.360  -7.114  18.070  1.00  0.00    -0.380 NA
BRANCH  10  11
HETATM   11  C12 UNL     1      -4.309  -8.449  18.348  1.00  0.00     0.230 C 
HETATM   12  C13 UNL     1      -5.330  -9.410  18.059  1.00  0.00     0.163 C 
BRANCH  11  13
HETATM   13  O2  UNL     1      -3.245  -8.992  18.886  1.00  0.00    -0.335 OA
ATOM     14  H2  UNL     1      -2.790  -9.710  18.461  1.00  0.00     0.220 HD
ENDBRANCH  11  13
BRANCH  12  15
HETATM   15  N3  UNL     1      -6.703  -9.117  18.248  1.00  0.00    -0.324 N 
HETATM   16  C14 UNL     1      -7.299  -9.473  19.529  1.00  0.00     0.315 C 
HETATM   17  O3  UNL     1      -6.595 -10.008  20.410  1.00  0.00    -0.262 OA
ATOM     18  H3  UNL     1      -7.255  -8.673  17.514  1.00  0.00     0.168 HD
BRANCH  16  19
HETATM   19  C15 UNL     1      -8.722  -9.225  19.744  1.00  0.00     0.327 C 
HETATM   20  O4  UNL     1      -9.250  -8.212  19.304  1.00  0.00    -0.261 OA
HETATM   21  N4  UNL     1      -9.498 -10.205  20.509  1.00  0.00    -0.268 N 
ATOM     22  H4  UNL     1      -9.008 -11.040  20.829  1.00  0.00     0.190 HD
BRANCH  21  23
HETATM   23  N5  UNL     1     -10.823 -10.097  20.830  1.00  0.00    -0.342 N 
ATOM     24  H52 UNL     1     -11.130  -9.184  21.165  1.00  0.00     0.176 HD
ATOM     25  H51 UNL     1     -11.515 -10.844  20.762  1.00  0.00     0.176 HD
ENDBRANCH  21  23
ENDBRANCH  16  19
ENDBRANCH  12  15
ENDBRANCH  10  11
ENDBRANCH   2  10
BRANCH   1  26
HETATM   26  N1  UNL     1      -5.268  -3.464  18.300  1.00  0.00    -0.338 N 
HETATM   27  C2  UNL     1      -5.031  -2.440  18.892  1.00  0.00     0.042 C 
HETATM   28  C1  UNL     1      -3.738  -1.788  19.171  1.00  0.00     0.067 C 
ATOM     29  H1  UNL     1      -6.268  -3.666  18.288  1.00  0.00     0.167 HD
BRANCH  27  30
HETATM   30  C16 UNL     1      -6.297  -1.592  19.273  1.00  0.00     0.422 C 
BRANCH  30  31
HETATM   31  N6  UNL     1      -5.771  -0.477  19.998  1.00  0.00    -0.045 N 
ATOM     32  H63 UNL     1      -4.921  -0.683  20.522  1.00  0.00     0.277 HD
ATOM     33  H62 UNL     1      -5.366   0.251  19.409  1.00  0.00     0.277 HD
ATOM     34  H61 UNL     1      -6.551  -0.160  20.575  1.00  0.00     0.277 HD
ENDBRANCH  30  31
BRANCH  30  35
HETATM   35  N7  UNL     1      -7.147  -2.329  20.115  1.00  0.00    -0.045 N 
ATOM     36  H73 UNL     1      -6.655  -3.098  20.572  1.00  0.00     0.277 HD
ATOM     37  H72 UNL     1      -7.409  -1.801  20.947  1.00  0.00     0.277 HD
ATOM     38  H71 UNL     1      -7.965  -2.655  19.599  1.00  0.00     0.277 HD
ENDBRANCH  30  35
ENDBRANCH  27  30
ENDBRANCH   1  26
BRANCH   1  39
HETATM   39  O1  UNL     1      -3.852  -3.872  16.583  1.00  0.00    -0.344 OA
ATOM     40  H1  UNL     1      -2.921  -4.019  16.700  1.00  0.00     0.219 HD
ENDBRANCH   1  39
TORSDOF 13
ENDMDL
MODEL 5
REMARK VINA RESULT: -6.630713281      4.773     10.267
REMARK  13 active torsions:
REMARK  status: ('A' for Active; 'I' for Inactive)
REMARK    1  A    between atoms: C2_2  and  C16_32 
REMARK    2  A    between atoms: N1_3  and  C3_5 
REMARK    3  A    between atoms: C3_5  and  O1_6 
REMARK    4  A    between atoms: C4_8  and  C5_9 
REMARK    5  A    between atoms: C4_8  and  N2_16 
REMARK    6  A    between atoms: C5_9  and  C6_10 
REMARK    7  A    between atoms: N2_16  and  C12_17 
REMARK    8  A    between atoms: C12_17  and  O2_18 
REMARK    9  A    between atoms: C13_20  and  N3_21 
REMARK       I    between atoms: N3_21  and  C14_23 
REMARK   10  A    between atoms: C14_23  and  C15_25 
REMARK       I    between atoms: C15_25  and  N4_27 
REMARK   11  A    between atoms: N4_27  and  N5_29 
REMARK   12  A    between atoms: C16_32  and  N6_33 
REMARK   13  A    between atoms: C16_32  and  N7_37 
ROOT
HETATM    1  C3  UNL     1      -4.433  -1.812  19.048  1.00  0.00     0.177 C 
HETATM    2  C4  UNL     1      -4.534  -0.897  20.074  1.00  0.00     0.138 C 
ENDROOT
BRANCH   2   3
HETATM    3  C5  UNL     1      -6.123  -0.233  19.540  1.00  0.00     0.082 C 
BRANCH   3   4
HETATM    4  C6  UNL     1      -7.054  -0.780  20.454  1.00  0.00    -0.008 C 
HETATM    5  C7  UNL     1      -7.934  -1.941  20.456  1.00  0.00     0.005 C 
HETATM    6  C8  UNL     1      -8.434  -2.206  21.910  1.00  0.00     0.000 C 
HETATM    7  C9  UNL     1      -8.218  -1.005  22.791  1.00  0.00     0.000 C 
HETATM    8  C10 UNL     1      -8.786   0.212  22.013  1.00  0.00     0.000 C 
HETATM    9  C11 UNL     1      -8.000   0.462  20.775  1.00  0.00     0.005 C 
ENDBRANCH   3   4
ENDBRANCH   2   3
BRANCH   2  10
HETATM   10  N2  UNL     1      -4.580  -0.023  21.071  1.00  0.00    -0.380 NA
BRANCH  10  11
HETATM   11  C12 UNL     1      -4.602   0.850  22.118  1.00  0.00     0.230 C 
HETATM   12  C13 UNL     1      -5.438   2.006  22.235  1.00  0.00     0.163 C 
BRANCH  11  13
HETATM   13  O2  UNL     1      -3.854   0.661  23.178  1.00  0.00    -0.335 OA
ATOM     14  H2  UNL     1      -2.967   0.998  23.223  1.00  0.00     0.220 HD
ENDBRANCH  11  13
BRANCH  12  15
HETATM   15  N3  UNL     1      -5.689   2.858  21.131  1.00  0.00    -0.324 N 
HETATM   16  C14 UNL     1      -4.673   3.847  20.796  1.00  0.00     0.315 C 
HETATM   17  O3  UNL     1      -3.626   3.910  21.473  1.00  0.00    -0.262 OA
ATOM     18  H3  UNL     1      -6.550   2.781  20.590  1.00  0.00     0.168 HD
BRANCH  16  19
HETATM   19  C15 UNL     1      -4.917   4.769  19.691  1.00  0.00     0.327 C 
HETATM   20  O4  UNL     1      -4.015   5.474  19.259  1.00  0.00    -0.261 OA
HETATM   21  N4  UNL     1      -6.265   4.842  19.121  1.00  0.00    -0.268 N 
ATOM     22  H4  UNL     1      -6.969   4.212  19.508  1.00  0.00     0.190 HD
BRANCH  21  23
HETATM   23  N5  UNL     1      -6.662   5.680  18.116  1.00  0.00    -0.342 N 
ATOM     24  H52 UNL     1      -7.427   5.347  17.530  1.00  0.00     0.176 HD
ATOM     25  H51 UNL     1      -6.259   6.595  17.911  1.00  0.00     0.176 HD
ENDBRANCH  21  23
ENDBRANCH  16  19
ENDBRANCH  12  15
ENDBRANCH  10  11
ENDBRANCH   2  10
BRANCH   1  26
HETATM   26  N1  UNL     1      -3.508  -2.848  18.817  1.00  0.00    -0.338 N 
HETATM   27  C2  UNL     1      -3.551  -4.031  18.589  1.00  0.00     0.042 C 
HETATM   28  C1  UNL     1      -4.714  -4.929  18.476  1.00  0.00     0.067 C 
ATOM     29  H1  UNL     1      -2.547  -2.507  18.852  1.00  0.00     0.167 HD
BRANCH  27  30
HETATM   30  C16 UNL     1      -2.175  -4.673  18.186  1.00  0.00     0.422 C 
BRANCH  30  31
HETATM   31  N6  UNL     1      -2.430  -5.292  16.922  1.00  0.00    -0.045 N 
ATOM     32  H63 UNL     1      -2.053  -6.236  16.835  1.00  0.00     0.277 HD
ATOM     33  H62 UNL     1      -3.406  -5.546  16.770  1.00  0.00     0.277 HD
ATOM     34  H61 UNL     1      -2.061  -4.630  16.238  1.00  0.00     0.277 HD
ENDBRANCH  30  31
BRANCH  30  35
HETATM   35  N7  UNL     1      -1.802  -5.660  19.114  1.00  0.00    -0.045 N 
ATOM     36  H73 UNL     1      -1.151  -5.298  19.812  1.00  0.00     0.277 HD
ATOM     37  H72 UNL     1      -2.572  -5.905  19.738  1.00  0.00     0.277 HD
ATOM     38  H71 UNL     1      -1.429  -6.479  18.634  1.00  0.00     0.277 HD
ENDBRANCH  30  35
ENDBRANCH  27  30
ENDBRANCH   1  26
BRANCH   1  39
HETATM   39  O1  UNL     1      -5.336  -1.781  18.018  1.00  0.00    -0.344 OA
ATOM     40  H1  UNL     1      -5.643  -2.665  17.849  1.00  0.00     0.219 HD
ENDBRANCH   1  39
TORSDOF 13
ENDMDL
