MODEL 1
REMARK VINA RESULT: -7.164149136      0.000      0.000
REMARK  8 active torsions:
REMARK  status: ('A' for Active; 'I' for Inactive)
REMARK    1  A    between atoms: C1_2  and  C2_4 
REMARK    2  A    between atoms: C4_6  and  C5_7 
REMARK    3  A    between atoms: C5_7  and  C6_8 
REMARK    4  A    between atoms: C6_8  and  C7_9 
REMARK    5  A    between atoms: C7_9  and  C8_10 
REMARK    6  A    between atoms: C8_10  and  O3_11 
REMARK       I    between atoms: N1_14  and  C10_15 
REMARK    7  A    between atoms: C10_15  and  C11_17 
REMARK    8  A    between atoms: C14_20  and  N2_21 
ROOT
HETATM    1  C2  UNL     1     -38.291  20.045 107.032  1.00  0.00     0.188 C 
HETATM    2  C3  UNL     1     -39.577  20.871 107.061  1.00  0.00     0.042 C 
HETATM    3  C4  UNL     1     -39.842  21.154 105.602  1.00  0.00     0.006 C 
HETATM    4  C9  UNL     1     -38.848  20.335 104.827  1.00  0.00     0.131 C 
HETATM    5  N1  UNL     1     -38.437  19.337 105.794  1.00  0.00    -0.337 N 
HETATM    6  C10 UNL     1     -38.252  17.978 105.537  1.00  0.00     0.224 C 
HETATM    7  O4  UNL     1     -38.446  17.601 104.324  1.00  0.00    -0.273 OA
ENDROOT
BRANCH   6   8
HETATM    8  C11 UNL     1     -37.861  16.918 106.491  1.00  0.00     0.078 C 
HETATM    9  C12 UNL     1     -38.575  15.672 106.232  1.00  0.00     0.016 C 
HETATM   10  C13 UNL     1     -37.712  14.416 106.162  1.00  0.00     0.026 C 
HETATM   11  C14 UNL     1     -36.653  14.585 107.213  1.00  0.00     0.089 C 
HETATM   12  C20 UNL     1     -35.694  15.592 106.672  1.00  0.00     0.026 C 
HETATM   13  C21 UNL     1     -36.378  16.904 106.570  1.00  0.00     0.016 C 
BRANCH  11  14
HETATM   14  N2  UNL     1     -36.063  13.385 107.716  1.00  0.00    -0.330 N 
HETATM   15  C15 UNL     1     -34.683  13.086 107.285  1.00  0.00     0.128 C 
HETATM   16  C16 UNL     1     -34.357  11.634 107.378  1.00  0.00     0.022 C 
HETATM   17  C17 UNL     1     -35.447  10.749 106.814  1.00  0.00     0.021 C 
HETATM   18  C18 UNL     1     -36.156  10.123 107.990  1.00  0.00     0.124 C 
HETATM   19  N3  UNL     1     -36.721  11.135 108.844  1.00  0.00    -0.343 N 
HETATM   20  C19 UNL     1     -36.802  12.543 108.591  1.00  0.00     0.318 C 
ATOM     21  H3  UNL     1     -37.108  10.813 109.731  1.00  0.00     0.164 HD
HETATM   22  O5  UNL     1     -37.673  13.175 109.242  1.00  0.00    -0.247 OA
ENDBRANCH  11  14
ENDBRANCH   6   8
BRANCH   1  23
HETATM   23  C1  UNL     1     -37.102  20.934 107.091  1.00  0.00     0.196 C 
HETATM   24  O1  UNL     1     -35.951  20.445 106.975  1.00  0.00    -0.646 OA
HETATM   25  O2  UNL     1     -37.188  22.303 107.272  1.00  0.00    -0.646 OA
ENDBRANCH   1  23
BRANCH   3  26
HETATM   26  C5  UNL     1     -39.715  22.650 105.315  1.00  0.00     0.006 C 
BRANCH  26  27
HETATM   27  C6  UNL     1     -39.570  22.927 103.866  1.00  0.00     0.002 C 
BRANCH  27  28
HETATM   28  C7  UNL     1     -40.844  22.740 103.120  1.00  0.00     0.026 C 
BRANCH  28  29
HETATM   29  C8  UNL     1     -40.734  22.171 101.747  1.00  0.00     0.164 C 
BRANCH  29  30
HETATM   30  O3  UNL     1     -40.633  20.810 101.717  1.00  0.00    -0.401 OA
ATOM     31  H3  UNL     1     -41.471  20.360 101.712  1.00  0.00     0.209 HD
ENDBRANCH  29  30
ENDBRANCH  28  29
ENDBRANCH  27  28
ENDBRANCH  26  27
ENDBRANCH   3  26
TORSDOF 8
ENDMDL
MODEL 2
REMARK VINA RESULT: -7.142500488      1.287      1.860
REMARK  8 active torsions:
REMARK  status: ('A' for Active; 'I' for Inactive)
REMARK    1  A    between atoms: C1_2  and  C2_4 
REMARK    2  A    between atoms: C4_6  and  C5_7 
REMARK    3  A    between atoms: C5_7  and  C6_8 
REMARK    4  A    between atoms: C6_8  and  C7_9 
REMARK    5  A    between atoms: C7_9  and  C8_10 
REMARK    6  A    between atoms: C8_10  and  O3_11 
REMARK       I    between atoms: N1_14  and  C10_15 
REMARK    7  A    between atoms: C10_15  and  C11_17 
REMARK    8  A    between atoms: C14_20  and  N2_21 
ROOT
HETATM    1  C2  UNL     1     -38.353  20.095 107.249  1.00  0.00     0.188 C 
HETATM    2  C3  UNL     1     -39.658  20.891 107.259  1.00  0.00     0.042 C 
HETATM    3  C4  UNL     1     -39.849  21.266 105.809  1.00  0.00     0.006 C 
HETATM    4  C9  UNL     1     -38.794  20.522 105.039  1.00  0.00     0.131 C 
HETATM    5  N1  UNL     1     -38.414  19.469 105.960  1.00  0.00    -0.337 N 
HETATM    6  C10 UNL     1     -38.182  18.135 105.624  1.00  0.00     0.224 C 
HETATM    7  O4  UNL     1     -38.301  17.837 104.380  1.00  0.00    -0.273 OA
ENDROOT
BRANCH   6   8
HETATM    8  C11 UNL     1     -37.820  17.020 106.527  1.00  0.00     0.078 C 
HETATM    9  C12 UNL     1     -38.523  15.792 106.173  1.00  0.00     0.016 C 
HETATM   10  C13 UNL     1     -37.655  14.543 106.058  1.00  0.00     0.026 C 
HETATM   11  C14 UNL     1     -36.631  14.650 107.150  1.00  0.00     0.089 C 
HETATM   12  C20 UNL     1     -35.657  15.687 106.699  1.00  0.00     0.026 C 
HETATM   13  C21 UNL     1     -36.340  17.003 106.653  1.00  0.00     0.016 C 
BRANCH  11  14
HETATM   14  N2  UNL     1     -36.053  13.423 107.600  1.00  0.00    -0.330 N 
HETATM   15  C15 UNL     1     -34.701  13.099 107.108  1.00  0.00     0.128 C 
HETATM   16  C16 UNL     1     -34.411  11.637 107.153  1.00  0.00     0.022 C 
HETATM   17  C17 UNL     1     -35.546  10.794 106.613  1.00  0.00     0.021 C 
HETATM   18  C18 UNL     1     -36.224  10.159 107.802  1.00  0.00     0.124 C 
HETATM   19  N3  UNL     1     -36.728  11.164 108.701  1.00  0.00    -0.343 N 
HETATM   20  C19 UNL     1     -36.781  12.580 108.485  1.00  0.00     0.318 C 
ATOM     21  H3  UNL     1     -37.088  10.831 109.595  1.00  0.00     0.164 HD
HETATM   22  O5  UNL     1     -37.607  13.219 109.184  1.00  0.00    -0.247 OA
ENDBRANCH  11  14
ENDBRANCH   6   8
BRANCH   1  23
HETATM   23  C1  UNL     1     -37.191  21.002 107.434  1.00  0.00     0.196 C 
HETATM   24  O1  UNL     1     -36.054  20.646 107.038  1.00  0.00    -0.646 OA
HETATM   25  O2  UNL     1     -37.288  22.246 108.031  1.00  0.00    -0.646 OA
ENDBRANCH   1  23
BRANCH   3  26
HETATM   26  C5  UNL     1     -39.742  22.781 105.629  1.00  0.00     0.006 C 
BRANCH  26  27
HETATM   27  C6  UNL     1     -38.542  23.164 104.848  1.00  0.00     0.002 C 
BRANCH  27  28
HETATM   28  C7  UNL     1     -38.078  24.544 105.154  1.00  0.00     0.026 C 
BRANCH  28  29
HETATM   29  C8  UNL     1     -36.636  24.701 105.495  1.00  0.00     0.164 C 
BRANCH  29  30
HETATM   30  O3  UNL     1     -35.960  23.520 105.608  1.00  0.00    -0.401 OA
ATOM     31  H3  UNL     1     -36.008  22.972 104.832  1.00  0.00     0.209 HD
ENDBRANCH  29  30
ENDBRANCH  28  29
ENDBRANCH  27  28
ENDBRANCH  26  27
ENDBRANCH   3  26
TORSDOF 8
ENDMDL
MODEL 3
REMARK VINA RESULT: -7.109489968     12.646     15.742
REMARK  8 active torsions:
REMARK  status: ('A' for Active; 'I' for Inactive)
REMARK    1  A    between atoms: C1_2  and  C2_4 
REMARK    2  A    between atoms: C4_6  and  C5_7 
REMARK    3  A    between atoms: C5_7  and  C6_8 
REMARK    4  A    between atoms: C6_8  and  C7_9 
REMARK    5  A    between atoms: C7_9  and  C8_10 
REMARK    6  A    between atoms: C8_10  and  O3_11 
REMARK       I    between atoms: N1_14  and  C10_15 
REMARK    7  A    between atoms: C10_15  and  C11_17 
REMARK    8  A    between atoms: C14_20  and  N2_21 
ROOT
HETATM    1  C2  UNL     1     -36.154  20.494  93.427  1.00  0.00     0.188 C 
HETATM    2  C3  UNL     1     -34.651  20.728  93.585  1.00  0.00     0.042 C 
HETATM    3  C4  UNL     1     -34.217  21.148  92.202  1.00  0.00     0.006 C 
HETATM    4  C9  UNL     1     -35.476  21.325  91.400  1.00  0.00     0.131 C 
HETATM    5  N1  UNL     1     -36.488  21.467  92.429  1.00  0.00    -0.337 N 
HETATM    6  C10 UNL     1     -37.540  22.383  92.418  1.00  0.00     0.224 C 
HETATM    7  O4  UNL     1     -37.614  23.146  91.387  1.00  0.00    -0.273 OA
ENDROOT
BRANCH   6   8
HETATM    8  C11 UNL     1     -38.579  22.585  93.451  1.00  0.00     0.078 C 
HETATM    9  C12 UNL     1     -38.390  23.844  94.165  1.00  0.00     0.016 C 
HETATM   10  C13 UNL     1     -39.631  24.722  94.296  1.00  0.00     0.026 C 
HETATM   11  C14 UNL     1     -40.779  23.782  94.523  1.00  0.00     0.089 C 
HETATM   12  C20 UNL     1     -41.052  23.141  93.203  1.00  0.00     0.026 C 
HETATM   13  C21 UNL     1     -39.897  22.288  92.832  1.00  0.00     0.016 C 
BRANCH  11  14
HETATM   14  N2  UNL     1     -41.922  24.326  95.187  1.00  0.00    -0.330 N 
HETATM   15  C15 UNL     1     -42.593  25.469  94.539  1.00  0.00     0.128 C 
HETATM   16  C16 UNL     1     -43.373  26.296  95.503  1.00  0.00     0.022 C 
HETATM   17  C17 UNL     1     -42.610  26.595  96.775  1.00  0.00     0.021 C 
HETATM   18  C18 UNL     1     -43.204  25.725  97.856  1.00  0.00     0.124 C 
HETATM   19  N3  UNL     1     -43.086  24.332  97.514  1.00  0.00    -0.343 N 
HETATM   20  C19 UNL     1     -42.363  23.762  96.416  1.00  0.00     0.318 C 
ATOM     21  H3  UNL     1     -43.573  23.675  98.123  1.00  0.00     0.164 HD
HETATM   22  O5  UNL     1     -42.046  22.550  96.528  1.00  0.00    -0.247 OA
ENDBRANCH  11  14
ENDBRANCH   6   8
BRANCH   1  23
HETATM   23  C1  UNL     1     -36.421  19.089  93.025  1.00  0.00     0.196 C 
HETATM   24  O1  UNL     1     -35.624  18.180  93.365  1.00  0.00    -0.646 OA
HETATM   25  O2  UNL     1     -37.523  18.711  92.278  1.00  0.00    -0.646 OA
ENDBRANCH   1  23
BRANCH   3  26
HETATM   26  C5  UNL     1     -33.282  20.102  91.593  1.00  0.00     0.006 C 
BRANCH  26  27
HETATM   27  C6  UNL     1     -32.089  19.862  92.439  1.00  0.00     0.002 C 
BRANCH  27  28
HETATM   28  C7  UNL     1     -31.841  18.415  92.679  1.00  0.00     0.026 C 
BRANCH  28  29
HETATM   29  C8  UNL     1     -31.845  17.965  94.099  1.00  0.00     0.164 C 
BRANCH  29  30
HETATM   30  O3  UNL     1     -33.083  17.955  94.675  1.00  0.00    -0.401 OA
ATOM     31  H3  UNL     1     -33.382  18.810  94.963  1.00  0.00     0.209 HD
ENDBRANCH  29  30
ENDBRANCH  28  29
ENDBRANCH  27  28
ENDBRANCH  26  27
ENDBRANCH   3  26
TORSDOF 8
ENDMDL
MODEL 4
REMARK VINA RESULT: -7.047614922     12.923     15.878
REMARK  8 active torsions:
REMARK  status: ('A' for Active; 'I' for Inactive)
REMARK    1  A    between atoms: C1_2  and  C2_4 
REMARK    2  A    between atoms: C4_6  and  C5_7 
REMARK    3  A    between atoms: C5_7  and  C6_8 
REMARK    4  A    between atoms: C6_8  and  C7_9 
REMARK    5  A    between atoms: C7_9  and  C8_10 
REMARK    6  A    between atoms: C8_10  and  O3_11 
REMARK       I    between atoms: N1_14  and  C10_15 
REMARK    7  A    between atoms: C10_15  and  C11_17 
REMARK    8  A    between atoms: C14_20  and  N2_21 
ROOT
HETATM    1  C2  UNL     1     -35.906  22.517  93.298  1.00  0.00     0.188 C 
HETATM    2  C3  UNL     1     -34.888  23.547  92.810  1.00  0.00     0.042 C 
HETATM    3  C4  UNL     1     -34.813  23.288  91.325  1.00  0.00     0.006 C 
HETATM    4  C9  UNL     1     -35.902  22.299  91.015  1.00  0.00     0.131 C 
HETATM    5  N1  UNL     1     -36.778  22.423  92.164  1.00  0.00    -0.337 N 
HETATM    6  C10 UNL     1     -38.172  22.456  92.127  1.00  0.00     0.224 C 
HETATM    7  O4  UNL     1     -38.710  22.345  90.966  1.00  0.00    -0.273 OA
ENDROOT
BRANCH   6   8
HETATM    8  C11 UNL     1     -39.108  22.607  93.263  1.00  0.00     0.078 C 
HETATM    9  C12 UNL     1     -38.793  23.784  94.065  1.00  0.00     0.016 C 
HETATM   10  C13 UNL     1     -39.971  24.700  94.386  1.00  0.00     0.026 C 
HETATM   11  C14 UNL     1     -41.143  23.795  94.630  1.00  0.00     0.089 C 
HETATM   12  C20 UNL     1     -41.560  23.292  93.288  1.00  0.00     0.026 C 
HETATM   13  C21 UNL     1     -40.487  22.427  92.741  1.00  0.00     0.016 C 
BRANCH  11  14
HETATM   14  N2  UNL     1     -42.195  24.324  95.439  1.00  0.00    -0.330 N 
HETATM   15  C15 UNL     1     -42.932  25.485  94.905  1.00  0.00     0.128 C 
HETATM   16  C16 UNL     1     -43.586  26.289  95.977  1.00  0.00     0.022 C 
HETATM   17  C17 UNL     1     -42.675  26.552  97.156  1.00  0.00     0.021 C 
HETATM   18  C18 UNL     1     -43.141  25.656  98.278  1.00  0.00     0.124 C 
HETATM   19  N3  UNL     1     -43.073  24.272  97.888  1.00  0.00    -0.343 N 
HETATM   20  C19 UNL     1     -42.489  23.729  96.697  1.00  0.00     0.318 C 
ATOM     21  H3  UNL     1     -43.488  23.600  98.534  1.00  0.00     0.164 HD
HETATM   22  O5  UNL     1     -42.169  22.514  96.739  1.00  0.00    -0.247 OA
ENDBRANCH  11  14
ENDBRANCH   6   8
BRANCH   1  23
HETATM   23  C1  UNL     1     -35.227  21.244  93.655  1.00  0.00     0.196 C 
HETATM   24  O1  UNL     1     -34.229  21.262  94.415  1.00  0.00    -0.646 OA
HETATM   25  O2  UNL     1     -35.639  20.009  93.186  1.00  0.00    -0.646 OA
ENDBRANCH   1  23
BRANCH   3  26
HETATM   26  C5  UNL     1     -33.428  22.768  90.940  1.00  0.00     0.006 C 
BRANCH  26  27
HETATM   27  C6  UNL     1     -33.506  21.586  90.050  1.00  0.00     0.002 C 
BRANCH  27  28
HETATM   28  C7  UNL     1     -32.338  20.677  90.206  1.00  0.00     0.026 C 
BRANCH  28  29
HETATM   29  C8  UNL     1     -31.906  20.381  91.600  1.00  0.00     0.164 C 
BRANCH  29  30
HETATM   30  O3  UNL     1     -32.742  19.536  92.273  1.00  0.00    -0.401 OA
ATOM     31  H3  UNL     1     -32.642  19.566  93.218  1.00  0.00     0.209 HD
ENDBRANCH  29  30
ENDBRANCH  28  29
ENDBRANCH  27  28
ENDBRANCH  26  27
ENDBRANCH   3  26
TORSDOF 8
ENDMDL
MODEL 5
REMARK VINA RESULT: -6.802313145      1.680      2.581
REMARK  8 active torsions:
REMARK  status: ('A' for Active; 'I' for Inactive)
REMARK    1  A    between atoms: C1_2  and  C2_4 
REMARK    2  A    between atoms: C4_6  and  C5_7 
REMARK    3  A    between atoms: C5_7  and  C6_8 
REMARK    4  A    between atoms: C6_8  and  C7_9 
REMARK    5  A    between atoms: C7_9  and  C8_10 
REMARK    6  A    between atoms: C8_10  and  O3_11 
REMARK       I    between atoms: N1_14  and  C10_15 
REMARK    7  A    between atoms: C10_15  and  C11_17 
REMARK    8  A    between atoms: C14_20  and  N2_21 
ROOT
HETATM    1  C2  UNL     1     -38.587  20.399 107.103  1.00  0.00     0.188 C 
HETATM    2  C3  UNL     1     -39.881  21.196 106.936  1.00  0.00     0.042 C 
HETATM    3  C4  UNL     1     -39.891  21.542 105.467  1.00  0.00     0.006 C 
HETATM    4  C9  UNL     1     -38.751  20.782 104.847  1.00  0.00     0.131 C 
HETATM    5  N1  UNL     1     -38.490  19.748 105.829  1.00  0.00    -0.337 N 
HETATM    6  C10 UNL     1     -38.223  18.407 105.550  1.00  0.00     0.224 C 
HETATM    7  O4  UNL     1     -38.187  18.085 104.307  1.00  0.00    -0.273 OA
ENDROOT
BRANCH   6   8
HETATM    8  C11 UNL     1     -37.977  17.311 106.512  1.00  0.00     0.078 C 
HETATM    9  C12 UNL     1     -38.923  16.215 106.331  1.00  0.00     0.016 C 
HETATM   10  C13 UNL     1     -38.311  14.819 106.251  1.00  0.00     0.026 C 
HETATM   11  C14 UNL     1     -37.179  14.809 107.236  1.00  0.00     0.089 C 
HETATM   12  C20 UNL     1     -36.085  15.610 106.613  1.00  0.00     0.026 C 
HETATM   13  C21 UNL     1     -36.520  17.024 106.511  1.00  0.00     0.016 C 
BRANCH  11  14
HETATM   14  N2  UNL     1     -36.790  13.530 107.741  1.00  0.00    -0.330 N 
HETATM   15  C15 UNL     1     -37.285  13.159 109.080  1.00  0.00     0.128 C 
HETATM   16  C16 UNL     1     -36.432  12.129 109.740  1.00  0.00     0.022 C 
HETATM   17  C17 UNL     1     -34.953  12.428 109.626  1.00  0.00     0.021 C 
HETATM   18  C18 UNL     1     -34.390  11.474 108.601  1.00  0.00     0.124 C 
HETATM   19  N3  UNL     1     -35.039  11.650 107.328  1.00  0.00    -0.343 N 
HETATM   20  C19 UNL     1     -35.963  12.680 106.955  1.00  0.00     0.318 C 
ATOM     21  H3  UNL     1     -34.815  10.962 106.609  1.00  0.00     0.164 HD
HETATM   22  O5  UNL     1     -36.086  12.897 105.723  1.00  0.00    -0.247 OA
ENDBRANCH  11  14
ENDBRANCH   6   8
BRANCH   1  23
HETATM   23  C1  UNL     1     -37.454  21.309 107.412  1.00  0.00     0.196 C 
HETATM   24  O1  UNL     1     -37.641  22.312 108.143  1.00  0.00    -0.646 OA
HETATM   25  O2  UNL     1     -36.172  21.113 106.929  1.00  0.00    -0.646 OA
ENDBRANCH   1  23
BRANCH   3  26
HETATM   26  C5  UNL     1     -39.757  23.053 105.271  1.00  0.00     0.006 C 
BRANCH  26  27
HETATM   27  C6  UNL     1     -38.399  23.437 104.821  1.00  0.00     0.002 C 
BRANCH  27  28
HETATM   28  C7  UNL     1     -37.949  24.731 105.403  1.00  0.00     0.026 C 
BRANCH  28  29
HETATM   29  C8  UNL     1     -36.480  24.909 105.575  1.00  0.00     0.164 C 
BRANCH  29  30
HETATM   30  O3  UNL     1     -35.968  24.271 106.669  1.00  0.00    -0.401 OA
ATOM     31  H3  UNL     1     -35.469  24.836 107.247  1.00  0.00     0.209 HD
ENDBRANCH  29  30
ENDBRANCH  28  29
ENDBRANCH  27  28
ENDBRANCH  26  27
ENDBRANCH   3  26
TORSDOF 8
ENDMDL
