MODEL 1
REMARK VINA RESULT: -9.195542908      0.000      0.000
REMARK  9 active torsions:
REMARK  status: ('A' for Active; 'I' for Inactive)
REMARK    1  A    between atoms: C3_3  and  N1_4 
REMARK       I    between atoms: N1_4  and  C4_6 
REMARK    2  A    between atoms: C4_6  and  C5_8 
REMARK    3  A    between atoms: C9_12  and  C10_13 
REMARK    4  A    between atoms: C10_13  and  N2_14 
REMARK    5  A    between atoms: N2_14  and  C11_16 
REMARK    6  A    between atoms: C11_16  and  N3_18 
REMARK    7  A    between atoms: N3_18  and  N4_20 
REMARK    8  A    between atoms: C12_22  and  N5_23 
REMARK    9  A    between atoms: N5_23  and  C14_25 
ROOT
HETATM    1  C1  UNL     1     -40.474  22.166  92.751  1.00  0.00     0.014 C 
HETATM    2  C2  UNL     1     -40.650  23.152  93.430  1.00  0.00    -0.098 C 
HETATM    3  C3  UNL     1     -40.892  24.344  94.253  1.00  0.00     0.216 C 
ENDROOT
BRANCH   3   4
HETATM    4  N1  UNL     1     -41.378  23.864  95.524  1.00  0.00    -0.350 N 
HETATM    5  C4  UNL     1     -41.999  24.720  96.462  1.00  0.00     0.226 C 
HETATM    6  O1  UNL     1     -42.132  25.930  96.177  1.00  0.00    -0.273 OA
ATOM      7  H1  UNL     1     -41.271  22.877  95.753  1.00  0.00     0.163 HD
BRANCH   5   8
HETATM    8  C5  UNL     1     -42.493  24.197  97.780  1.00  0.00     0.037 C 
HETATM    9  C6  UNL     1     -43.679  25.028  98.215  1.00  0.00     0.025 C 
HETATM   10  C7  UNL     1     -42.888  22.774  97.613  1.00  0.00     0.019 C 
HETATM   11  C8  UNL     1     -43.039  22.048  98.956  1.00  0.00     0.011 C 
HETATM   12  C9  UNL     1     -41.761  22.128  99.675  1.00  0.00     0.024 C 
HETATM   13  C20 UNL     1     -41.544  23.618 100.023  1.00  0.00     0.011 C 
HETATM   14  C21 UNL     1     -41.349  24.364  98.749  1.00  0.00     0.019 C 
BRANCH  12  15
HETATM   15  C10 UNL     1     -41.477  21.278 100.844  1.00  0.00     0.068 C 
BRANCH  15  16
HETATM   16  N2  UNL     1     -40.285  21.425 101.569  1.00  0.00    -0.345 N 
ATOM     17  H2  UNL     1     -39.434  21.301 101.020  1.00  0.00     0.167 HD
BRANCH  16  18
HETATM   18  C11 UNL     1     -40.071  21.712 102.916  1.00  0.00     0.190 C 
HETATM   19  S1  UNL     1     -40.428  23.131 103.650  1.00  0.00    -0.039 SA
BRANCH  18  20
HETATM   20  N3  UNL     1     -39.545  20.636 103.747  1.00  0.00    -0.275 N 
ATOM     21  H3  UNL     1     -39.218  19.782 103.296  1.00  0.00     0.189 HD
BRANCH  20  22
HETATM   22  N4  UNL     1     -39.474  20.731 105.117  1.00  0.00    -0.294 N 
HETATM   23  C12 UNL     1     -38.387  20.730 105.789  1.00  0.00     0.195 C 
ATOM     24  H4  UNL     1     -40.351  20.809 105.633  1.00  0.00     0.187 HD
BRANCH  23  25
HETATM   25  N5  UNL     1     -38.332  20.830 107.203  1.00  0.00    -0.376 N 
HETATM   26  C13 UNL     1     -39.189  20.008 108.017  1.00  0.00     0.150 C 
BRANCH  25  27
HETATM   27  C14 UNL     1     -37.391  21.780 107.810  1.00  0.00     0.084 C 
HETATM   28  C15 UNL     1     -36.021  21.627 107.231  1.00  0.00     0.025 C 
HETATM   29  C16 UNL     1     -35.068  22.517 107.991  1.00  0.00     0.002 C 
HETATM   30  C17 UNL     1     -35.528  23.969 107.907  1.00  0.00     0.000 C 
HETATM   31  C18 UNL     1     -36.950  24.118 108.383  1.00  0.00     0.002 C 
HETATM   32  C19 UNL     1     -37.912  23.177 107.702  1.00  0.00     0.025 C 
ENDBRANCH  25  27
ENDBRANCH  23  25
ENDBRANCH  20  22
ENDBRANCH  18  20
ENDBRANCH  16  18
ENDBRANCH  15  16
ENDBRANCH  12  15
ENDBRANCH   5   8
ENDBRANCH   3   4
TORSDOF 9
ENDMDL
MODEL 2
REMARK VINA RESULT: -9.039031134      0.468      1.032
REMARK  9 active torsions:
REMARK  status: ('A' for Active; 'I' for Inactive)
REMARK    1  A    between atoms: C3_3  and  N1_4 
REMARK       I    between atoms: N1_4  and  C4_6 
REMARK    2  A    between atoms: C4_6  and  C5_8 
REMARK    3  A    between atoms: C9_12  and  C10_13 
REMARK    4  A    between atoms: C10_13  and  N2_14 
REMARK    5  A    between atoms: N2_14  and  C11_16 
REMARK    6  A    between atoms: C11_16  and  N3_18 
REMARK    7  A    between atoms: N3_18  and  N4_20 
REMARK    8  A    between atoms: C12_22  and  N5_23 
REMARK    9  A    between atoms: N5_23  and  C14_25 
ROOT
HETATM    1  C1  UNL     1     -40.361  22.172  92.680  1.00  0.00     0.014 C 
HETATM    2  C2  UNL     1     -40.784  23.148  93.257  1.00  0.00    -0.098 C 
HETATM    3  C3  UNL     1     -41.323  24.320  93.957  1.00  0.00     0.216 C 
ENDROOT
BRANCH   3   4
HETATM    4  N1  UNL     1     -41.681  23.870  95.281  1.00  0.00    -0.350 N 
HETATM    5  C4  UNL     1     -42.172  24.755  96.268  1.00  0.00     0.226 C 
HETATM    6  O1  UNL     1     -42.301  25.965  95.981  1.00  0.00    -0.273 OA
ATOM      7  H1  UNL     1     -41.577  22.883  95.511  1.00  0.00     0.163 HD
BRANCH   5   8
HETATM    8  C5  UNL     1     -42.533  24.262  97.639  1.00  0.00     0.037 C 
HETATM    9  C6  UNL     1     -43.564  25.196  98.232  1.00  0.00     0.025 C 
HETATM   10  C7  UNL     1     -43.082  22.886  97.525  1.00  0.00     0.019 C 
HETATM   11  C8  UNL     1     -43.121  22.158  98.875  1.00  0.00     0.011 C 
HETATM   12  C9  UNL     1     -41.757  22.105  99.415  1.00  0.00     0.024 C 
HETATM   13  C20 UNL     1     -41.352  23.562  99.734  1.00  0.00     0.011 C 
HETATM   14  C21 UNL     1     -41.258  24.305  98.446  1.00  0.00     0.019 C 
BRANCH  12  15
HETATM   15  C10 UNL     1     -41.402  21.215 100.534  1.00  0.00     0.068 C 
BRANCH  15  16
HETATM   16  N2  UNL     1     -40.317  21.508 101.372  1.00  0.00    -0.345 N 
ATOM     17  H2  UNL     1     -39.409  21.523 100.905  1.00  0.00     0.167 HD
BRANCH  16  18
HETATM   18  C11 UNL     1     -40.271  21.783 102.737  1.00  0.00     0.190 C 
HETATM   19  S1  UNL     1     -41.022  23.037 103.476  1.00  0.00    -0.039 SA
BRANCH  18  20
HETATM   20  N3  UNL     1     -39.549  20.839 103.580  1.00  0.00    -0.275 N 
ATOM     21  H3  UNL     1     -39.450  19.874 103.264  1.00  0.00     0.189 HD
BRANCH  20  22
HETATM   22  N4  UNL     1     -38.995  21.201 104.786  1.00  0.00    -0.294 N 
HETATM   23  C12 UNL     1     -39.153  20.558 105.879  1.00  0.00     0.195 C 
ATOM     24  H4  UNL     1     -38.418  22.042 104.809  1.00  0.00     0.187 HD
BRANCH  23  25
HETATM   25  N5  UNL     1     -38.574  20.947 107.114  1.00  0.00    -0.376 N 
HETATM   26  C13 UNL     1     -39.049  20.372 108.346  1.00  0.00     0.150 C 
BRANCH  25  27
HETATM   27  C14 UNL     1     -37.491  21.938 107.108  1.00  0.00     0.084 C 
HETATM   28  C15 UNL     1     -37.636  22.903 108.241  1.00  0.00     0.025 C 
HETATM   29  C16 UNL     1     -36.591  23.983 108.100  1.00  0.00     0.002 C 
HETATM   30  C17 UNL     1     -35.197  23.364 108.096  1.00  0.00     0.000 C 
HETATM   31  C18 UNL     1     -35.073  22.307 107.029  1.00  0.00     0.002 C 
HETATM   32  C19 UNL     1     -36.158  21.262 107.092  1.00  0.00     0.025 C 
ENDBRANCH  25  27
ENDBRANCH  23  25
ENDBRANCH  20  22
ENDBRANCH  18  20
ENDBRANCH  16  18
ENDBRANCH  15  16
ENDBRANCH  12  15
ENDBRANCH   5   8
ENDBRANCH   3   4
TORSDOF 9
ENDMDL
MODEL 3
REMARK VINA RESULT: -8.996764814      1.002      1.369
REMARK  9 active torsions:
REMARK  status: ('A' for Active; 'I' for Inactive)
REMARK    1  A    between atoms: C3_3  and  N1_4 
REMARK       I    between atoms: N1_4  and  C4_6 
REMARK    2  A    between atoms: C4_6  and  C5_8 
REMARK    3  A    between atoms: C9_12  and  C10_13 
REMARK    4  A    between atoms: C10_13  and  N2_14 
REMARK    5  A    between atoms: N2_14  and  C11_16 
REMARK    6  A    between atoms: C11_16  and  N3_18 
REMARK    7  A    between atoms: N3_18  and  N4_20 
REMARK    8  A    between atoms: C12_22  and  N5_23 
REMARK    9  A    between atoms: N5_23  and  C14_25 
ROOT
HETATM    1  C1  UNL     1     -40.354  22.123  92.708  1.00  0.00     0.014 C 
HETATM    2  C2  UNL     1     -40.771  23.117  93.257  1.00  0.00    -0.098 C 
HETATM    3  C3  UNL     1     -41.304  24.311  93.926  1.00  0.00     0.216 C 
ENDROOT
BRANCH   3   4
HETATM    4  N1  UNL     1     -41.659  23.900  95.263  1.00  0.00    -0.350 N 
HETATM    5  C4  UNL     1     -42.187  24.805  96.211  1.00  0.00     0.226 C 
HETATM    6  O1  UNL     1     -42.354  25.998  95.876  1.00  0.00    -0.273 OA
ATOM      7  H1  UNL     1     -41.524  22.926  95.532  1.00  0.00     0.163 HD
BRANCH   5   8
HETATM    8  C5  UNL     1     -42.545  24.354  97.597  1.00  0.00     0.037 C 
HETATM    9  C6  UNL     1     -43.647  25.244  98.126  1.00  0.00     0.025 C 
HETATM   10  C7  UNL     1     -43.000  22.940  97.538  1.00  0.00     0.019 C 
HETATM   11  C8  UNL     1     -43.021  22.275  98.921  1.00  0.00     0.011 C 
HETATM   12  C9  UNL     1     -41.669  22.337  99.488  1.00  0.00     0.024 C 
HETATM   13  C20 UNL     1     -41.367  23.832  99.744  1.00  0.00     0.011 C 
HETATM   14  C21 UNL     1     -41.294  24.518  98.424  1.00  0.00     0.019 C 
BRANCH  12  15
HETATM   15  C10 UNL     1     -41.280  21.525 100.655  1.00  0.00     0.068 C 
BRANCH  15  16
HETATM   16  N2  UNL     1     -41.254  22.080 101.943  1.00  0.00    -0.345 N 
ATOM     17  H2  UNL     1     -42.058  22.666 102.171  1.00  0.00     0.167 HD
BRANCH  16  18
HETATM   18  C11 UNL     1     -40.312  21.964 102.962  1.00  0.00     0.190 C 
HETATM   19  S1  UNL     1     -39.882  23.159 103.997  1.00  0.00    -0.039 SA
BRANCH  18  20
HETATM   20  N3  UNL     1     -39.709  20.652 103.161  1.00  0.00    -0.275 N 
ATOM     21  H3  UNL     1     -39.931  19.905 102.503  1.00  0.00     0.189 HD
BRANCH  20  22
HETATM   22  N4  UNL     1     -38.852  20.385 104.203  1.00  0.00    -0.294 N 
HETATM   23  C12 UNL     1     -39.103  19.577 105.161  1.00  0.00     0.195 C 
ATOM     24  H4  UNL     1     -37.952  20.865 104.212  1.00  0.00     0.187 HD
BRANCH  23  25
HETATM   25  N5  UNL     1     -38.207  19.313 106.228  1.00  0.00    -0.376 N 
HETATM   26  C13 UNL     1     -37.405  18.119 106.217  1.00  0.00     0.150 C 
BRANCH  25  27
HETATM   27  C14 UNL     1     -38.120  20.276 107.333  1.00  0.00     0.084 C 
HETATM   28  C15 UNL     1     -36.892  21.121 107.217  1.00  0.00     0.025 C 
HETATM   29  C16 UNL     1     -36.774  21.983 108.449  1.00  0.00     0.002 C 
HETATM   30  C17 UNL     1     -38.015  22.857 108.597  1.00  0.00     0.000 C 
HETATM   31  C18 UNL     1     -39.270  22.024 108.603  1.00  0.00     0.002 C 
HETATM   32  C19 UNL     1     -39.372  21.086 107.425  1.00  0.00     0.025 C 
ENDBRANCH  25  27
ENDBRANCH  23  25
ENDBRANCH  20  22
ENDBRANCH  18  20
ENDBRANCH  16  18
ENDBRANCH  15  16
ENDBRANCH  12  15
ENDBRANCH   5   8
ENDBRANCH   3   4
TORSDOF 9
ENDMDL
MODEL 4
REMARK VINA RESULT: -8.862603375      2.274      3.673
REMARK  9 active torsions:
REMARK  status: ('A' for Active; 'I' for Inactive)
REMARK    1  A    between atoms: C3_3  and  N1_4 
REMARK       I    between atoms: N1_4  and  C4_6 
REMARK    2  A    between atoms: C4_6  and  C5_8 
REMARK    3  A    between atoms: C9_12  and  C10_13 
REMARK    4  A    between atoms: C10_13  and  N2_14 
REMARK    5  A    between atoms: N2_14  and  C11_16 
REMARK    6  A    between atoms: C11_16  and  N3_18 
REMARK    7  A    between atoms: N3_18  and  N4_20 
REMARK    8  A    between atoms: C12_22  and  N5_23 
REMARK    9  A    between atoms: N5_23  and  C14_25 
ROOT
HETATM    1  C1  UNL     1     -40.596  22.201  92.696  1.00  0.00     0.014 C 
HETATM    2  C2  UNL     1     -40.616  23.175  93.413  1.00  0.00    -0.098 C 
HETATM    3  C3  UNL     1     -40.669  24.356  94.283  1.00  0.00     0.216 C 
ENDROOT
BRANCH   3   4
HETATM    4  N1  UNL     1     -41.185  23.901  95.551  1.00  0.00    -0.350 N 
HETATM    5  C4  UNL     1     -41.949  24.738  96.395  1.00  0.00     0.226 C 
HETATM    6  O1  UNL     1     -42.184  25.910  96.028  1.00  0.00    -0.273 OA
ATOM      7  H1  UNL     1     -40.994  22.944  95.847  1.00  0.00     0.163 HD
BRANCH   5   8
HETATM    8  C5  UNL     1     -42.472  24.241  97.712  1.00  0.00     0.037 C 
HETATM    9  C6  UNL     1     -43.811  24.891  97.977  1.00  0.00     0.025 C 
HETATM   10  C7  UNL     1     -42.613  22.763  97.644  1.00  0.00     0.019 C 
HETATM   11  C8  UNL     1     -42.769  22.127  99.032  1.00  0.00     0.011 C 
HETATM   12  C9  UNL     1     -41.593  22.475  99.839  1.00  0.00     0.024 C 
HETATM   13  C20 UNL     1     -41.653  24.003 100.067  1.00  0.00     0.011 C 
HETATM   14  C21 UNL     1     -41.464  24.672  98.749  1.00  0.00     0.019 C 
BRANCH  12  15
HETATM   15  C10 UNL     1     -41.284  21.777 101.099  1.00  0.00     0.068 C 
BRANCH  15  16
HETATM   16  N2  UNL     1     -41.078  22.493 102.287  1.00  0.00    -0.345 N 
ATOM     17  H2  UNL     1     -41.753  23.239 102.458  1.00  0.00     0.167 HD
BRANCH  16  18
HETATM   18  C11 UNL     1     -40.105  22.352 103.274  1.00  0.00     0.190 C 
HETATM   19  S1  UNL     1     -39.581  23.547 104.264  1.00  0.00    -0.039 SA
BRANCH  18  20
HETATM   20  N3  UNL     1     -39.558  21.018 103.481  1.00  0.00    -0.275 N 
ATOM     21  H3  UNL     1     -39.129  20.535 102.691  1.00  0.00     0.189 HD
BRANCH  20  22
HETATM   22  N4  UNL     1     -39.600  20.385 104.701  1.00  0.00    -0.294 N 
HETATM   23  C12 UNL     1     -38.810  19.447 105.060  1.00  0.00     0.195 C 
ATOM     24  H4  UNL     1     -40.313  20.685 105.367  1.00  0.00     0.187 HD
BRANCH  23  25
HETATM   25  N5  UNL     1     -38.867  18.805 106.324  1.00  0.00    -0.376 N 
HETATM   26  C13 UNL     1     -38.836  19.587 107.532  1.00  0.00     0.150 C 
BRANCH  25  27
HETATM   27  C14 UNL     1     -38.958  17.340 106.370  1.00  0.00     0.084 C 
HETATM   28  C15 UNL     1     -39.182  16.770 105.006  1.00  0.00     0.025 C 
HETATM   29  C16 UNL     1     -39.417  15.284 105.131  1.00  0.00     0.002 C 
HETATM   30  C17 UNL     1     -38.218  14.620 105.800  1.00  0.00     0.000 C 
HETATM   31  C18 UNL     1     -37.911  15.262 107.128  1.00  0.00     0.002 C 
HETATM   32  C19 UNL     1     -37.758  16.760 107.048  1.00  0.00     0.025 C 
ENDBRANCH  25  27
ENDBRANCH  23  25
ENDBRANCH  20  22
ENDBRANCH  18  20
ENDBRANCH  16  18
ENDBRANCH  15  16
ENDBRANCH  12  15
ENDBRANCH   5   8
ENDBRANCH   3   4
TORSDOF 9
ENDMDL
MODEL 5
REMARK VINA RESULT: -8.551014308      1.825      2.505
REMARK  9 active torsions:
REMARK  status: ('A' for Active; 'I' for Inactive)
REMARK    1  A    between atoms: C3_3  and  N1_4 
REMARK       I    between atoms: N1_4  and  C4_6 
REMARK    2  A    between atoms: C4_6  and  C5_8 
REMARK    3  A    between atoms: C9_12  and  C10_13 
REMARK    4  A    between atoms: C10_13  and  N2_14 
REMARK    5  A    between atoms: N2_14  and  C11_16 
REMARK    6  A    between atoms: C11_16  and  N3_18 
REMARK    7  A    between atoms: N3_18  and  N4_20 
REMARK    8  A    between atoms: C12_22  and  N5_23 
REMARK    9  A    between atoms: N5_23  and  C14_25 
ROOT
HETATM    1  C1  UNL     1     -37.632  23.900  93.890  1.00  0.00     0.014 C 
HETATM    2  C2  UNL     1     -38.707  23.533  93.473  1.00  0.00    -0.098 C 
HETATM    3  C3  UNL     1     -40.009  23.064  92.983  1.00  0.00     0.216 C 
ENDROOT
BRANCH   3   4
HETATM    4  N1  UNL     1     -40.909  23.124  94.110  1.00  0.00    -0.350 N 
HETATM    5  C4  UNL     1     -41.529  24.328  94.513  1.00  0.00     0.226 C 
HETATM    6  O1  UNL     1     -41.289  25.373  93.869  1.00  0.00    -0.273 OA
ATOM      7  H1  UNL     1     -41.105  22.270  94.631  1.00  0.00     0.163 HD
BRANCH   5   8
HETATM    8  C5  UNL     1     -42.459  24.365  95.691  1.00  0.00     0.037 C 
HETATM    9  C6  UNL     1     -43.861  24.631  95.192  1.00  0.00     0.025 C 
HETATM   10  C7  UNL     1     -42.395  23.056  96.393  1.00  0.00     0.019 C 
HETATM   11  C8  UNL     1     -43.000  23.119  97.801  1.00  0.00     0.011 C 
HETATM   12  C9  UNL     1     -42.273  24.132  98.576  1.00  0.00     0.024 C 
HETATM   13  C20 UNL     1     -42.589  25.497  97.921  1.00  0.00     0.011 C 
HETATM   14  C21 UNL     1     -41.984  25.504  96.560  1.00  0.00     0.019 C 
BRANCH  12  15
HETATM   15  C10 UNL     1     -42.397  24.223 100.041  1.00  0.00     0.068 C 
BRANCH  15  16
HETATM   16  N2  UNL     1     -41.413  23.683 100.882  1.00  0.00    -0.345 N 
ATOM     17  H2  UNL     1     -40.655  24.324 101.118  1.00  0.00     0.167 HD
BRANCH  16  18
HETATM   18  C11 UNL     1     -41.300  22.415 101.450  1.00  0.00     0.190 C 
HETATM   19  S1  UNL     1     -41.087  21.021 100.618  1.00  0.00    -0.039 SA
BRANCH  18  20
HETATM   20  N3  UNL     1     -41.307  22.338 102.905  1.00  0.00    -0.275 N 
ATOM     21  H3  UNL     1     -42.167  22.562 103.405  1.00  0.00     0.189 HD
BRANCH  20  22
HETATM   22  N4  UNL     1     -40.196  21.973 103.629  1.00  0.00    -0.294 N 
HETATM   23  C12 UNL     1     -39.983  22.300 104.846  1.00  0.00     0.195 C 
ATOM     24  H4  UNL     1     -39.492  21.401 103.162  1.00  0.00     0.187 HD
BRANCH  23  25
HETATM   25  N5  UNL     1     -38.831  21.915 105.578  1.00  0.00    -0.376 N 
HETATM   26  C13 UNL     1     -38.600  20.527 105.881  1.00  0.00     0.150 C 
BRANCH  25  27
HETATM   27  C14 UNL     1     -37.890  22.954 106.016  1.00  0.00     0.084 C 
HETATM   28  C15 UNL     1     -38.073  24.213 105.230  1.00  0.00     0.025 C 
HETATM   29  C16 UNL     1     -36.989  25.190 105.614  1.00  0.00     0.002 C 
HETATM   30  C17 UNL     1     -37.050  25.477 107.111  1.00  0.00     0.000 C 
HETATM   31  C18 UNL     1     -36.980  24.204 107.913  1.00  0.00     0.002 C 
HETATM   32  C19 UNL     1     -37.997  23.173 107.491  1.00  0.00     0.025 C 
ENDBRANCH  25  27
ENDBRANCH  23  25
ENDBRANCH  20  22
ENDBRANCH  18  20
ENDBRANCH  16  18
ENDBRANCH  15  16
ENDBRANCH  12  15
ENDBRANCH   5   8
ENDBRANCH   3   4
TORSDOF 9
ENDMDL
