MODEL 1
REMARK VINA RESULT: -8.973024626      0.000      0.000
REMARK  8 active torsions:
REMARK  status: ('A' for Active; 'I' for Inactive)
REMARK    1  A    between atoms: C2_2  and  C4_4 
REMARK    2  A    between atoms: C4_4  and  N1_5 
REMARK    3  A    between atoms: C4_4  and  C35_43 
REMARK       I    between atoms: N1_5  and  C5_7 
REMARK    4  A    between atoms: C5_7  and  C6_9 
REMARK    5  A    between atoms: C8_14  and  C9_15 
REMARK    6  A    between atoms: C35_43  and  O5_44 
REMARK    7  A    between atoms: C35_43  and  C36_46 
REMARK    8  A    between atoms: C36_46  and  C37_47 
ROOT
HETATM    1  C6  UNL     1      40.010  55.557 134.991  1.00  0.00     0.192 C 
HETATM    2  N2  UNL     1      40.098  56.565 133.916  1.00  0.00    -0.346 N 
ATOM      3  H2  UNL     1      40.322  57.489 134.288  1.00  0.00     0.163 HD
HETATM    4  C7  UNL     1      39.956  56.592 132.506  1.00  0.00     0.223 C 
HETATM    5  O2  UNL     1      40.246  57.726 132.048  1.00  0.00    -0.273 OA
HETATM    6  C8  UNL     1      39.564  55.673 131.425  1.00  0.00     0.082 C 
HETATM    7  C15 UNL     1      38.179  55.102 131.586  1.00  0.00     0.015 C 
HETATM    8  C16 UNL     1      37.555  55.481 132.937  1.00  0.00     0.007 C 
HETATM    9  C17 UNL     1      37.999  54.575 134.026  1.00  0.00     0.008 C 
HETATM   10  C18 UNL     1      37.008  53.494 134.343  1.00  0.00    -0.004 C 
HETATM   11  C19 UNL     1      35.732  53.863 134.949  1.00  0.00     0.006 C 
HETATM   12  C20 UNL     1      35.095  52.643 135.635  1.00  0.00     0.007 C 
HETATM   13  C21 UNL     1      35.535  51.367 134.948  1.00  0.00     0.009 C 
HETATM   14  C22 UNL     1      34.659  50.251 135.360  1.00  0.00     0.017 C 
HETATM   15  C23 UNL     1      33.306  50.711 135.899  1.00  0.00     0.023 C 
HETATM   16  C24 UNL     1      34.312  49.355 134.159  1.00  0.00     0.023 C 
HETATM   17  C25 UNL     1      35.229  49.345 136.382  1.00  0.00     0.135 C 
HETATM   18  O3  UNL     1      34.609  48.963 137.369  1.00  0.00    -0.297 OA
HETATM   19  C26 UNL     1      36.637  48.908 136.150  1.00  0.00     0.080 C 
HETATM   20  C27 UNL     1      37.445  50.172 136.085  1.00  0.00     0.017 C 
HETATM   21  C28 UNL     1      37.008  51.125 135.031  1.00  0.00    -0.035 C 
HETATM   22  C29 UNL     1      37.407  50.440 133.704  1.00  0.00     0.016 C 
HETATM   23  C30 UNL     1      37.781  52.394 135.066  1.00  0.00     0.005 C 
HETATM   24  C31 UNL     1      38.187  52.931 136.396  1.00  0.00     0.085 C 
HETATM   25  C32 UNL     1      38.247  54.438 136.404  1.00  0.00     0.138 C 
HETATM   26  O4  UNL     1      37.999  54.985 137.489  1.00  0.00    -0.297 OA
HETATM   27  C33 UNL     1      38.563  55.276 135.259  1.00  0.00     0.050 C 
HETATM   28  C34 UNL     1      37.911  56.644 135.433  1.00  0.00     0.026 C 
ENDROOT
BRANCH   1  29
HETATM   29  C5  UNL     1      40.834  56.081 136.068  1.00  0.00     0.242 C 
HETATM   30  N1  UNL     1      40.479  57.237 136.780  1.00  0.00    -0.352 N 
ATOM     31  H1  UNL     1      39.617  57.718 136.524  1.00  0.00     0.163 HD
HETATM   32  O1  UNL     1      41.898  55.525 136.416  1.00  0.00    -0.271 OA
BRANCH  30  33
HETATM   33  C4  UNL     1      41.287  57.787 137.874  1.00  0.00     0.117 C 
BRANCH  33  34
HETATM   34  C2  UNL     1      41.625  59.229 137.708  1.00  0.00     0.003 C 
HETATM   35  C1  UNL     1      41.235  59.885 136.452  1.00  0.00     0.011 C 
HETATM   36  C3  UNL     1      43.087  59.450 137.980  1.00  0.00     0.011 C 
ENDBRANCH  33  34
BRANCH  33  37
HETATM   37  C35 UNL     1      40.638  57.418 139.149  1.00  0.00     0.151 C 
BRANCH  37  38
HETATM   38  O5  UNL     1      40.052  56.124 139.096  1.00  0.00    -0.393 OA
ATOM     39  H5  UNL     1      39.750  55.832 139.949  1.00  0.00     0.210 HD
ENDBRANCH  37  38
BRANCH  37  40
HETATM   40  C36 UNL     1      39.730  58.402 139.776  1.00  0.00     0.146 C 
BRANCH  40  41
HETATM   41  C37 UNL     1      38.293  58.191 139.511  1.00  0.00     0.175 C 
HETATM   42  O6  UNL     1      37.824  58.109 138.355  1.00  0.00    -0.648 OA
HETATM   43  O7  UNL     1      37.367  58.070 140.553  1.00  0.00    -0.648 OA
ENDBRANCH  40  41
ENDBRANCH  37  40
ENDBRANCH  33  37
ENDBRANCH  30  33
ENDBRANCH   1  29
BRANCH   6  44
HETATM   44  C9  UNL     1      39.735  56.338 130.074  1.00  0.00    -0.002 C 
HETATM   45  C10 UNL     1      38.474  56.868 129.482  1.00  0.00     0.005 C 
HETATM   46  C11 UNL     1      38.209  56.280 128.087  1.00  0.00     0.000 C 
HETATM   47  C12 UNL     1      39.338  56.648 127.179  1.00  0.00     0.000 C 
HETATM   48  C13 UNL     1      40.637  56.241 127.826  1.00  0.00     0.000 C 
HETATM   49  C14 UNL     1      40.401  55.403 129.087  1.00  0.00     0.005 C 
ENDBRANCH   6  44
TORSDOF 8
ENDMDL
MODEL 2
REMARK VINA RESULT: -8.879013844      2.415      8.387
REMARK  8 active torsions:
REMARK  status: ('A' for Active; 'I' for Inactive)
REMARK    1  A    between atoms: C2_2  and  C4_4 
REMARK    2  A    between atoms: C4_4  and  N1_5 
REMARK    3  A    between atoms: C4_4  and  C35_43 
REMARK       I    between atoms: N1_5  and  C5_7 
REMARK    4  A    between atoms: C5_7  and  C6_9 
REMARK    5  A    between atoms: C8_14  and  C9_15 
REMARK    6  A    between atoms: C35_43  and  O5_44 
REMARK    7  A    between atoms: C35_43  and  C36_46 
REMARK    8  A    between atoms: C36_46  and  C37_47 
ROOT
HETATM    1  C6  UNL     1      38.361  53.005 132.873  1.00  0.00     0.192 C 
HETATM    2  N2  UNL     1      37.551  51.771 132.896  1.00  0.00    -0.346 N 
ATOM      3  H2  UNL     1      36.978  51.685 132.056  1.00  0.00     0.163 HD
HETATM    4  C7  UNL     1      37.357  50.675 133.773  1.00  0.00     0.223 C 
HETATM    5  O2  UNL     1      36.608  49.811 133.252  1.00  0.00    -0.273 OA
HETATM    6  C8  UNL     1      37.781  50.260 135.120  1.00  0.00     0.082 C 
HETATM    7  C15 UNL     1      37.401  51.235 136.204  1.00  0.00     0.015 C 
HETATM    8  C16 UNL     1      36.805  52.528 135.629  1.00  0.00     0.007 C 
HETATM    9  C17 UNL     1      37.858  53.486 135.208  1.00  0.00     0.008 C 
HETATM   10  C18 UNL     1      38.131  54.556 136.224  1.00  0.00    -0.004 C 
HETATM   11  C19 UNL     1      37.100  55.555 136.490  1.00  0.00     0.006 C 
HETATM   12  C20 UNL     1      37.721  56.800 137.145  1.00  0.00     0.007 C 
HETATM   13  C21 UNL     1      38.957  56.416 137.933  1.00  0.00     0.009 C 
HETATM   14  C22 UNL     1      39.333  57.519 138.840  1.00  0.00     0.017 C 
HETATM   15  C23 UNL     1      38.179  58.473 139.144  1.00  0.00     0.023 C 
HETATM   16  C24 UNL     1      39.758  56.977 140.215  1.00  0.00     0.023 C 
HETATM   17  C25 UNL     1      40.459  58.360 138.378  1.00  0.00     0.135 C 
HETATM   18  O3  UNL     1      40.445  59.587 138.410  1.00  0.00    -0.297 OA
HETATM   19  C26 UNL     1      41.647  57.625 137.852  1.00  0.00     0.080 C 
HETATM   20  C27 UNL     1      41.133  56.794 136.712  1.00  0.00     0.017 C 
HETATM   21  C28 UNL     1      40.048  55.847 137.084  1.00  0.00    -0.035 C 
HETATM   22  C29 UNL     1      40.752  54.777 137.948  1.00  0.00     0.016 C 
HETATM   23  C30 UNL     1      39.516  55.113 135.906  1.00  0.00     0.005 C 
HETATM   24  C31 UNL     1      39.419  55.844 134.611  1.00  0.00     0.085 C 
HETATM   25  C32 UNL     1      38.261  55.359 133.772  1.00  0.00     0.138 C 
HETATM   26  O4  UNL     1      37.745  56.201 133.023  1.00  0.00    -0.297 OA
HETATM   27  C33 UNL     1      37.721  54.009 133.782  1.00  0.00     0.050 C 
HETATM   28  C34 UNL     1      36.251  54.047 133.372  1.00  0.00     0.026 C 
ENDROOT
BRANCH   1  29
HETATM   29  C5  UNL     1      38.513  53.331 131.464  1.00  0.00     0.242 C 
HETATM   30  N1  UNL     1      37.835  54.408 130.874  1.00  0.00    -0.352 N 
ATOM     31  H1  UNL     1      37.218  54.971 131.458  1.00  0.00     0.163 HD
HETATM   32  O1  UNL     1      39.258  52.669 130.710  1.00  0.00    -0.271 OA
BRANCH  30  33
HETATM   33  C4  UNL     1      37.971  54.763 129.457  1.00  0.00     0.117 C 
BRANCH  33  34
HETATM   34  C2  UNL     1      36.686  55.147 128.805  1.00  0.00     0.003 C 
HETATM   35  C1  UNL     1      36.755  55.889 127.539  1.00  0.00     0.011 C 
HETATM   36  C3  UNL     1      35.807  55.871 129.787  1.00  0.00     0.011 C 
ENDBRANCH  33  34
BRANCH  33  37
HETATM   37  C35 UNL     1      39.074  55.739 129.336  1.00  0.00     0.151 C 
BRANCH  37  38
HETATM   38  O5  UNL     1      40.337  55.104 129.192  1.00  0.00    -0.393 OA
ATOM     39  H5  UNL     1      40.440  54.699 128.338  1.00  0.00     0.210 HD
ENDBRANCH  37  38
BRANCH  37  40
HETATM   40  C36 UNL     1      39.130  56.847 130.315  1.00  0.00     0.146 C 
BRANCH  40  41
HETATM   41  C37 UNL     1      40.486  57.332 130.640  1.00  0.00     0.175 C 
HETATM   42  O6  UNL     1      41.133  58.088 129.883  1.00  0.00    -0.648 OA
HETATM   43  O7  UNL     1      41.128  56.966 131.828  1.00  0.00    -0.648 OA
ENDBRANCH  40  41
ENDBRANCH  37  40
ENDBRANCH  33  37
ENDBRANCH  30  33
ENDBRANCH   1  29
BRANCH   6  44
HETATM   44  C9  UNL     1      37.276  48.865 135.430  1.00  0.00    -0.002 C 
HETATM   45  C10 UNL     1      36.052  48.824 136.280  1.00  0.00     0.005 C 
HETATM   46  C11 UNL     1      36.270  47.989 137.552  1.00  0.00     0.000 C 
HETATM   47  C12 UNL     1      36.610  46.586 137.163  1.00  0.00     0.000 C 
HETATM   48  C13 UNL     1      37.763  46.616 136.192  1.00  0.00     0.000 C 
HETATM   49  C14 UNL     1      38.360  48.021 136.067  1.00  0.00     0.005 C 
ENDBRANCH   6  44
TORSDOF 8
ENDMDL
MODEL 3
REMARK VINA RESULT: -8.739066360      2.003      6.949
REMARK  8 active torsions:
REMARK  status: ('A' for Active; 'I' for Inactive)
REMARK    1  A    between atoms: C2_2  and  C4_4 
REMARK    2  A    between atoms: C4_4  and  N1_5 
REMARK    3  A    between atoms: C4_4  and  C35_43 
REMARK       I    between atoms: N1_5  and  C5_7 
REMARK    4  A    between atoms: C5_7  and  C6_9 
REMARK    5  A    between atoms: C8_14  and  C9_15 
REMARK    6  A    between atoms: C35_43  and  O5_44 
REMARK    7  A    between atoms: C35_43  and  C36_46 
REMARK    8  A    between atoms: C36_46  and  C37_47 
ROOT
HETATM    1  C6  UNL     1      38.992  56.346 134.703  1.00  0.00     0.192 C 
HETATM    2  N2  UNL     1      39.661  57.052 135.813  1.00  0.00    -0.346 N 
ATOM      3  H2  UNL     1      40.589  57.379 135.543  1.00  0.00     0.163 HD
HETATM    4  C7  UNL     1      39.358  57.395 137.154  1.00  0.00     0.223 C 
HETATM    5  O2  UNL     1      40.264  58.114 137.649  1.00  0.00    -0.273 OA
HETATM    6  C8  UNL     1      38.288  57.150 138.135  1.00  0.00     0.082 C 
HETATM    7  C15 UNL     1      38.050  55.690 138.421  1.00  0.00     0.015 C 
HETATM    8  C16 UNL     1      38.868  54.782 137.493  1.00  0.00     0.007 C 
HETATM    9  C17 UNL     1      38.199  54.581 136.183  1.00  0.00     0.008 C 
HETATM   10  C18 UNL     1      37.442  53.289 136.093  1.00  0.00    -0.004 C 
HETATM   11  C19 UNL     1      38.187  52.033 136.090  1.00  0.00     0.006 C 
HETATM   12  C20 UNL     1      37.323  50.902 135.505  1.00  0.00     0.007 C 
HETATM   13  C21 UNL     1      35.855  51.184 135.752  1.00  0.00     0.009 C 
HETATM   14  C22 UNL     1      35.067  49.955 135.527  1.00  0.00     0.017 C 
HETATM   15  C23 UNL     1      35.897  48.677 135.627  1.00  0.00     0.023 C 
HETATM   16  C24 UNL     1      33.980  49.797 136.603  1.00  0.00     0.023 C 
HETATM   17  C25 UNL     1      34.357  49.891 134.230  1.00  0.00     0.135 C 
HETATM   18  O3  UNL     1      34.361  48.901 133.505  1.00  0.00    -0.297 OA
HETATM   19  C26 UNL     1      33.616  51.124 133.832  1.00  0.00     0.080 C 
HETATM   20  C27 UNL     1      34.646  52.216 133.792  1.00  0.00     0.017 C 
HETATM   21  C28 UNL     1      35.368  52.425 135.075  1.00  0.00    -0.035 C 
HETATM   22  C29 UNL     1      34.307  53.039 136.018  1.00  0.00     0.016 C 
HETATM   23  C30 UNL     1      36.433  53.454 134.959  1.00  0.00     0.005 C 
HETATM   24  C31 UNL     1      37.201  53.526 133.684  1.00  0.00     0.085 C 
HETATM   25  C32 UNL     1      38.622  53.983 133.903  1.00  0.00     0.138 C 
HETATM   26  O4  UNL     1      39.461  53.548 133.101  1.00  0.00    -0.297 OA
HETATM   27  C33 UNL     1      39.068  54.873 134.963  1.00  0.00     0.050 C 
HETATM   28  C34 UNL     1      40.534  54.593 135.280  1.00  0.00     0.026 C 
ENDROOT
BRANCH   1  29
HETATM   29  C5  UNL     1      39.604  56.877 133.495  1.00  0.00     0.242 C 
HETATM   30  N1  UNL     1      39.098  56.590 132.218  1.00  0.00    -0.352 N 
ATOM     31  H1  UNL     1      38.279  55.988 132.145  1.00  0.00     0.163 HD
HETATM   32  O1  UNL     1      40.609  57.619 133.536  1.00  0.00    -0.271 OA
BRANCH  30  33
HETATM   33  C4  UNL     1      39.691  57.114 130.982  1.00  0.00     0.117 C 
BRANCH  33  34
HETATM   34  C2  UNL     1      40.753  56.241 130.405  1.00  0.00     0.003 C 
HETATM   35  C1  UNL     1      42.139  56.724 130.455  1.00  0.00     0.011 C 
HETATM   36  C3  UNL     1      40.388  55.847 129.001  1.00  0.00     0.011 C 
ENDBRANCH  33  34
BRANCH  33  37
HETATM   37  C35 UNL     1      38.589  57.481 130.070  1.00  0.00     0.151 C 
BRANCH  37  38
HETATM   38  O5  UNL     1      38.608  58.862 129.735  1.00  0.00    -0.393 OA
ATOM     39  H5  UNL     1      37.795  59.146 129.334  1.00  0.00     0.210 HD
ENDBRANCH  37  38
BRANCH  37  40
HETATM   40  C36 UNL     1      37.224  57.022 130.410  1.00  0.00     0.146 C 
BRANCH  40  41
HETATM   41  C37 UNL     1      36.830  55.728 129.819  1.00  0.00     0.175 C 
HETATM   42  O6  UNL     1      36.010  55.635 128.880  1.00  0.00    -0.648 OA
HETATM   43  O7  UNL     1      37.362  54.520 130.284  1.00  0.00    -0.648 OA
ENDBRANCH  40  41
ENDBRANCH  37  40
ENDBRANCH  33  37
ENDBRANCH  30  33
ENDBRANCH   1  29
BRANCH   6  44
HETATM   44  C9  UNL     1      38.546  57.929 139.409  1.00  0.00    -0.002 C 
HETATM   45  C10 UNL     1      38.642  57.091 140.638  1.00  0.00     0.005 C 
HETATM   46  C11 UNL     1      37.632  57.533 141.709  1.00  0.00     0.000 C 
HETATM   47  C12 UNL     1      37.914  58.950 142.092  1.00  0.00     0.000 C 
HETATM   48  C13 UNL     1      37.957  59.793 140.843  1.00  0.00     0.000 C 
HETATM   49  C14 UNL     1      37.498  59.003 139.613  1.00  0.00     0.005 C 
ENDBRANCH   6  44
TORSDOF 8
ENDMDL
MODEL 4
REMARK VINA RESULT: -8.678462645      2.206      7.764
REMARK  8 active torsions:
REMARK  status: ('A' for Active; 'I' for Inactive)
REMARK    1  A    between atoms: C2_2  and  C4_4 
REMARK    2  A    between atoms: C4_4  and  N1_5 
REMARK    3  A    between atoms: C4_4  and  C35_43 
REMARK       I    between atoms: N1_5  and  C5_7 
REMARK    4  A    between atoms: C5_7  and  C6_9 
REMARK    5  A    between atoms: C8_14  and  C9_15 
REMARK    6  A    between atoms: C35_43  and  O5_44 
REMARK    7  A    between atoms: C35_43  and  C36_46 
REMARK    8  A    between atoms: C36_46  and  C37_47 
ROOT
HETATM    1  C6  UNL     1      37.858  53.274 134.542  1.00  0.00     0.192 C 
HETATM    2  N2  UNL     1      38.365  53.059 133.172  1.00  0.00    -0.346 N 
ATOM      3  H2  UNL     1      38.471  52.066 132.964  1.00  0.00     0.163 HD
HETATM    4  C7  UNL     1      38.743  53.866 132.070  1.00  0.00     0.223 C 
HETATM    5  O2  UNL     1      39.015  53.156 131.068  1.00  0.00    -0.273 OA
HETATM    6  C8  UNL     1      38.911  55.295 131.762  1.00  0.00     0.082 C 
HETATM    7  C15 UNL     1      39.901  55.996 132.656  1.00  0.00     0.015 C 
HETATM    8  C16 UNL     1      40.385  55.091 133.798  1.00  0.00     0.007 C 
HETATM    9  C17 UNL     1      39.437  55.085 134.940  1.00  0.00     0.008 C 
HETATM   10  C18 UNL     1      39.842  56.004 136.055  1.00  0.00    -0.004 C 
HETATM   11  C19 UNL     1      41.035  55.687 136.833  1.00  0.00     0.006 C 
HETATM   12  C20 UNL     1      41.002  56.421 138.184  1.00  0.00     0.007 C 
HETATM   13  C21 UNL     1      40.211  57.707 138.062  1.00  0.00     0.009 C 
HETATM   14  C22 UNL     1      40.482  58.572 139.229  1.00  0.00     0.017 C 
HETATM   15  C23 UNL     1      41.793  58.238 139.938  1.00  0.00     0.023 C 
HETATM   16  C24 UNL     1      40.639  60.040 138.797  1.00  0.00     0.023 C 
HETATM   17  C25 UNL     1      39.432  58.572 140.271  1.00  0.00     0.135 C 
HETATM   18  O3  UNL     1      39.669  58.472 141.470  1.00  0.00    -0.297 OA
HETATM   19  C26 UNL     1      38.028  58.702 139.780  1.00  0.00     0.080 C 
HETATM   20  C27 UNL     1      37.820  57.541 138.850  1.00  0.00     0.017 C 
HETATM   21  C28 UNL     1      38.774  57.488 137.712  1.00  0.00    -0.035 C 
HETATM   22  C29 UNL     1      38.366  58.677 136.812  1.00  0.00     0.016 C 
HETATM   23  C30 UNL     1      38.581  56.277 136.873  1.00  0.00     0.005 C 
HETATM   24  C31 UNL     1      38.206  55.006 137.554  1.00  0.00     0.085 C 
HETATM   25  C32 UNL     1      38.756  53.796 136.840  1.00  0.00     0.138 C 
HETATM   26  O4  UNL     1      39.013  52.815 137.554  1.00  0.00    -0.297 OA
HETATM   27  C33 UNL     1      39.001  53.700 135.410  1.00  0.00     0.050 C 
HETATM   28  C34 UNL     1      40.108  52.683 135.150  1.00  0.00     0.026 C 
ENDROOT
BRANCH   1  29
HETATM   29  C5  UNL     1      37.143  52.052 134.875  1.00  0.00     0.242 C 
HETATM   30  N1  UNL     1      37.384  50.844 134.202  1.00  0.00    -0.352 N 
ATOM     31  H1  UNL     1      38.081  50.834 133.458  1.00  0.00     0.163 HD
HETATM   32  O1  UNL     1      36.281  52.016 135.779  1.00  0.00    -0.271 OA
BRANCH  30  33
HETATM   33  C4  UNL     1      36.683  49.594 134.517  1.00  0.00     0.117 C 
BRANCH  33  34
HETATM   34  C2  UNL     1      36.082  48.923 133.329  1.00  0.00     0.003 C 
HETATM   35  C1  UNL     1      36.494  49.389 131.998  1.00  0.00     0.011 C 
HETATM   36  C3  UNL     1      34.583  48.923 133.442  1.00  0.00     0.011 C 
ENDBRANCH  33  34
BRANCH  33  37
HETATM   37  C35 UNL     1      37.583  48.763 135.343  1.00  0.00     0.151 C 
BRANCH  37  38
HETATM   38  O5  UNL     1      37.848  47.502 134.744  1.00  0.00    -0.393 OA
ATOM     39  H5  UNL     1      38.655  47.116 135.062  1.00  0.00     0.210 HD
ENDBRANCH  37  38
BRANCH  37  40
HETATM   40  C36 UNL     1      37.276  48.628 136.784  1.00  0.00     0.146 C 
BRANCH  40  41
HETATM   41  C37 UNL     1      37.528  47.292 137.358  1.00  0.00     0.175 C 
HETATM   42  O6  UNL     1      38.657  46.757 137.357  1.00  0.00    -0.648 OA
HETATM   43  O7  UNL     1      36.501  46.543 137.944  1.00  0.00    -0.648 OA
ENDBRANCH  40  41
ENDBRANCH  37  40
ENDBRANCH  33  37
ENDBRANCH  30  33
ENDBRANCH   1  29
BRANCH   6  44
HETATM   44  C9  UNL     1      39.253  55.488 130.299  1.00  0.00    -0.002 C 
HETATM   45  C10 UNL     1      40.484  56.291 130.052  1.00  0.00     0.005 C 
HETATM   46  C11 UNL     1      40.201  57.507 129.156  1.00  0.00     0.000 C 
HETATM   47  C12 UNL     1      39.686  57.032 127.836  1.00  0.00     0.000 C 
HETATM   48  C13 UNL     1      38.520  56.105 128.072  1.00  0.00     0.000 C 
HETATM   49  C14 UNL     1      38.093  56.100 129.543  1.00  0.00     0.005 C 
ENDBRANCH   6  44
TORSDOF 8
ENDMDL
MODEL 5
REMARK VINA RESULT: -8.621392375      2.073      6.980
REMARK  8 active torsions:
REMARK  status: ('A' for Active; 'I' for Inactive)
REMARK    1  A    between atoms: C2_2  and  C4_4 
REMARK    2  A    between atoms: C4_4  and  N1_5 
REMARK    3  A    between atoms: C4_4  and  C35_43 
REMARK       I    between atoms: N1_5  and  C5_7 
REMARK    4  A    between atoms: C5_7  and  C6_9 
REMARK    5  A    between atoms: C8_14  and  C9_15 
REMARK    6  A    between atoms: C35_43  and  O5_44 
REMARK    7  A    between atoms: C35_43  and  C36_46 
REMARK    8  A    between atoms: C36_46  and  C37_47 
ROOT
HETATM    1  C6  UNL     1      39.003  55.694 134.254  1.00  0.00     0.192 C 
HETATM    2  N2  UNL     1      39.769  56.476 135.245  1.00  0.00    -0.346 N 
ATOM      3  H2  UNL     1      40.668  56.778 134.869  1.00  0.00     0.163 HD
HETATM    4  C7  UNL     1      39.587  56.920 136.578  1.00  0.00     0.223 C 
HETATM    5  O2  UNL     1      40.533  57.668 136.935  1.00  0.00    -0.273 OA
HETATM    6  C8  UNL     1      38.610  56.754 137.666  1.00  0.00     0.082 C 
HETATM    7  C15 UNL     1      38.400  55.321 138.081  1.00  0.00     0.015 C 
HETATM    8  C16 UNL     1      39.133  54.341 137.152  1.00  0.00     0.007 C 
HETATM    9  C17 UNL     1      38.349  54.048 135.926  1.00  0.00     0.008 C 
HETATM   10  C18 UNL     1      37.588  52.757 136.001  1.00  0.00    -0.004 C 
HETATM   11  C19 UNL     1      38.330  51.500 136.024  1.00  0.00     0.006 C 
HETATM   12  C20 UNL     1      37.419  50.334 135.605  1.00  0.00     0.007 C 
HETATM   13  C21 UNL     1      35.979  50.642 135.961  1.00  0.00     0.009 C 
HETATM   14  C22 UNL     1      35.175  49.404 135.898  1.00  0.00     0.017 C 
HETATM   15  C23 UNL     1      36.012  48.132 136.019  1.00  0.00     0.023 C 
HETATM   16  C24 UNL     1      34.189  49.331 137.077  1.00  0.00     0.023 C 
HETATM   17  C25 UNL     1      34.351  49.248 134.679  1.00  0.00     0.135 C 
HETATM   18  O3  UNL     1      34.291  48.207 134.032  1.00  0.00    -0.297 OA
HETATM   19  C26 UNL     1      33.576  50.452 134.259  1.00  0.00     0.080 C 
HETATM   20  C27 UNL     1      34.598  51.532 134.046  1.00  0.00     0.017 C 
HETATM   21  C28 UNL     1      35.431  51.832 135.240  1.00  0.00    -0.035 C 
HETATM   22  C29 UNL     1      34.459  52.520 136.225  1.00  0.00     0.016 C 
HETATM   23  C30 UNL     1      36.481  52.843 134.953  1.00  0.00     0.005 C 
HETATM   24  C31 UNL     1      37.131  52.817 133.612  1.00  0.00     0.085 C 
HETATM   25  C32 UNL     1      38.566  53.281 133.668  1.00  0.00     0.138 C 
HETATM   26  O4  UNL     1      39.330  52.783 132.828  1.00  0.00    -0.297 OA
HETATM   27  C33 UNL     1      39.104  54.244 134.615  1.00  0.00     0.050 C 
HETATM   28  C34 UNL     1      40.593  53.980 134.819  1.00  0.00     0.026 C 
ENDROOT
BRANCH   1  29
HETATM   29  C5  UNL     1      39.504  56.131 132.961  1.00  0.00     0.242 C 
HETATM   30  N1  UNL     1      38.909  55.722 131.757  1.00  0.00    -0.352 N 
ATOM     31  H1  UNL     1      38.104  55.097 131.802  1.00  0.00     0.163 HD
HETATM   32  O1  UNL     1      40.487  56.896 132.857  1.00  0.00    -0.271 OA
BRANCH  30  33
HETATM   33  C4  UNL     1      39.389  56.148 130.438  1.00  0.00     0.117 C 
BRANCH  33  34
HETATM   34  C2  UNL     1      39.762  55.021 129.538  1.00  0.00     0.003 C 
HETATM   35  C1  UNL     1      39.883  55.302 128.101  1.00  0.00     0.011 C 
HETATM   36  C3  UNL     1      38.844  53.853 129.766  1.00  0.00     0.011 C 
ENDBRANCH  33  34
BRANCH  33  37
HETATM   37  C35 UNL     1      38.415  57.116 129.892  1.00  0.00     0.151 C 
BRANCH  37  38
HETATM   38  O5  UNL     1      38.914  58.447 129.911  1.00  0.00    -0.393 OA
ATOM     39  H5  UNL     1      38.408  59.027 129.354  1.00  0.00     0.210 HD
ENDBRANCH  37  38
BRANCH  37  40
HETATM   40  C36 UNL     1      37.021  57.050 130.382  1.00  0.00     0.146 C 
BRANCH  40  41
HETATM   41  C37 UNL     1      36.106  56.226 129.568  1.00  0.00     0.175 C 
HETATM   42  O6  UNL     1      36.356  55.904 128.386  1.00  0.00    -0.648 OA
HETATM   43  O7  UNL     1      34.893  55.755 130.082  1.00  0.00    -0.648 OA
ENDBRANCH  40  41
ENDBRANCH  37  40
ENDBRANCH  33  37
ENDBRANCH  30  33
ENDBRANCH   1  29
BRANCH   6  44
HETATM   44  C9  UNL     1      38.980  57.624 138.851  1.00  0.00    -0.002 C 
HETATM   45  C10 UNL     1      39.489  56.874 140.034  1.00  0.00     0.005 C 
HETATM   46  C11 UNL     1      38.664  57.172 141.296  1.00  0.00     0.000 C 
HETATM   47  C12 UNL     1      38.750  58.633 141.602  1.00  0.00     0.000 C 
HETATM   48  C13 UNL     1      38.369  59.412 140.369  1.00  0.00     0.000 C 
HETATM   49  C14 UNL     1      37.817  58.497 139.271  1.00  0.00     0.005 C 
ENDBRANCH   6  44
TORSDOF 8
ENDMDL
