MODEL 1
REMARK VINA RESULT: -9.400400267      0.000      0.000
REMARK  15 active torsions:
REMARK  status: ('A' for Active; 'I' for Inactive)
REMARK    1  A    between atoms: C2_2  and  C21_47 
REMARK    2  A    between atoms: N1_3  and  N2_5 
REMARK    3  A    between atoms: N2_5  and  C3_6 
REMARK    4  A    between atoms: C3_6  and  C4_7 
REMARK    5  A    between atoms: C7_11  and  O2_12 
REMARK    6  A    between atoms: C8_14  and  O3_15 
REMARK    7  A    between atoms: O3_15  and  C9_16 
REMARK    8  A    between atoms: C10_17  and  N3_18 
REMARK    9  A    between atoms: C12_23  and  N4_24 
REMARK   10  A    between atoms: C13_28  and  O4_29 
REMARK   11  A    between atoms: O4_29  and  C14_30 
REMARK   12  A    between atoms: C15_32  and  C16_33 
REMARK   13  A    between atoms: C18_37  and  O8_38 
REMARK   14  A    between atoms: C19_40  and  O9_41 
REMARK   15  A    between atoms: C20_43  and  O10_44 
REMARK       I    between atoms: C21_47  and  N5_49 
REMARK       I    between atoms: N6_52  and  C24_53 
ROOT
HETATM    1  C9  UNL     1       2.212  22.303  11.815  1.00  0.00     0.186 C 
HETATM    2  C10 UNL     1       1.817  23.503  12.634  1.00  0.00     0.217 C 
HETATM    3  C11 UNL     1       0.575  24.125  12.032  1.00  0.00     0.071 C 
HETATM    4  C12 UNL     1       0.715  24.041  10.534  1.00  0.00     0.217 C 
HETATM    5  C13 UNL     1       2.173  24.174  10.149  1.00  0.00     0.186 C 
HETATM    6  C20 UNL     1       2.888  22.884  10.556  1.00  0.00     0.180 C 
ENDROOT
BRANCH   1   7
HETATM    7  O3  UNL     1       3.076  21.430  12.427  1.00  0.00    -0.348 OA
BRANCH   7   8
HETATM    8  C8  UNL     1       2.611  20.133  12.539  1.00  0.00     0.297 C 
HETATM    9  C7  UNL     1       2.184  19.828  13.947  1.00  0.00     0.242 C 
HETATM   10  C6  UNL     1       3.405  19.941  14.789  1.00  0.00     0.163 C 
HETATM   11  C5  UNL     1       4.712  19.826  14.089  1.00  0.00     0.120 C 
HETATM   12  O1  UNL     1       3.411  20.118  15.988  1.00  0.00    -0.295 OA
HETATM   13  C4  UNL     1       4.569  18.920  12.900  1.00  0.00     0.185 C 
HETATM   14  O11 UNL     1       3.532  19.203  12.057  1.00  0.00    -0.346 OA
BRANCH   9  15
HETATM   15  O2  UNL     1       1.733  18.508  14.040  1.00  0.00    -0.383 OA
ATOM     16  H2  UNL     1       1.155  18.458  14.792  1.00  0.00     0.210 HD
ENDBRANCH   9  15
BRANCH  13  17
HETATM   17  C3  UNL     1       4.566  17.479  13.356  1.00  0.00     0.214 C 
BRANCH  17  18
HETATM   18  N2  UNL     1       3.761  16.646  13.056  1.00  0.00    -0.340 NA
BRANCH  18  19
HETATM   19  N1  UNL     1       2.825  15.865  12.679  1.00  0.00    -0.236 N 
HETATM   20  C2  UNL     1       2.730  14.548  12.767  1.00  0.00     0.104 C 
HETATM   21  C1  UNL     1       3.878  13.878  13.396  1.00  0.00     0.077 C 
ATOM     22  H1  UNL     1       2.028  16.327  12.243  1.00  0.00     0.201 HD
BRANCH  20  23
HETATM   23  C21 UNL     1       1.579  13.868  12.274  1.00  0.00     0.293 C 
HETATM   24  O12 UNL     1       1.669  13.314  11.104  1.00  0.00    -0.264 OA
HETATM   25  N5  UNL     1       0.350  13.736  12.926  1.00  0.00    -0.194 N 
HETATM   26  C22 UNL     1      -0.046  14.241  14.207  1.00  0.00     0.184 C 
HETATM   27  O14 UNL     1      -0.748  13.041  12.393  1.00  0.00    -0.145 OA
HETATM   28  C23 UNL     1      -1.581  14.095  14.153  1.00  0.00     0.185 C 
HETATM   29  N6  UNL     1      -1.784  13.800  12.764  1.00  0.00    -0.183 N 
HETATM   30  C24 UNL     1      -2.852  14.223  11.958  1.00  0.00     0.356 C 
HETATM   31  N7  UNL     1      -2.998  13.901  10.590  1.00  0.00    -0.038 NA
HETATM   32  O13 UNL     1      -3.776  14.950  12.459  1.00  0.00    -0.248 OA
ENDBRANCH  20  23
ENDBRANCH  18  19
ENDBRANCH  17  18
ENDBRANCH  13  17
ENDBRANCH   7   8
ENDBRANCH   1   7
BRANCH   2  33
HETATM   33  N3  UNL     1       1.669  23.239  14.029  1.00  0.00    -0.072 N 
ATOM     34  H33 UNL     1       0.681  23.201  14.281  1.00  0.00     0.274 HD
ATOM     35  H32 UNL     1       1.939  22.279  14.240  1.00  0.00     0.274 HD
ATOM     36  H31 UNL     1       2.166  23.891  14.635  1.00  0.00     0.274 HD
ENDBRANCH   2  33
BRANCH   6  37
HETATM   37  O10 UNL     1       2.936  21.966   9.535  1.00  0.00    -0.390 OA
ATOM     38  H10 UNL     1       3.753  21.481   9.535  1.00  0.00     0.210 HD
ENDBRANCH   6  37
BRANCH   5  39
HETATM   39  O4  UNL     1       2.339  24.290   8.782  1.00  0.00    -0.348 OA
BRANCH  39  40
HETATM   40  C14 UNL     1       3.365  25.169   8.434  1.00  0.00     0.292 C 
HETATM   41  O5  UNL     1       4.564  24.476   8.556  1.00  0.00    -0.343 OA
HETATM   42  C15 UNL     1       5.673  25.265   8.394  1.00  0.00     0.228 C 
HETATM   43  C17 UNL     1       5.705  26.438   9.353  1.00  0.00     0.077 C 
HETATM   44  C18 UNL     1       4.505  26.279  10.271  1.00  0.00     0.154 C 
HETATM   45  C19 UNL     1       3.272  26.346   9.376  1.00  0.00     0.202 C 
BRANCH  42  46
HETATM   46  C16 UNL     1       6.882  24.466   8.649  1.00  0.00     0.203 C 
HETATM   47  O6  UNL     1       8.008  24.976   8.496  1.00  0.00    -0.646 OA
HETATM   48  O7  UNL     1       6.776  23.158   9.056  1.00  0.00    -0.646 OA
ENDBRANCH  42  46
BRANCH  44  49
HETATM   49  O8  UNL     1       4.475  27.246  11.271  1.00  0.00    -0.393 OA
ATOM     50  H8  UNL     1       3.602  27.371  11.624  1.00  0.00     0.210 HD
ENDBRANCH  44  49
BRANCH  45  51
HETATM   51  O9  UNL     1       3.301  27.568   8.717  1.00  0.00    -0.388 OA
ATOM     52  H9  UNL     1       2.520  27.728   8.201  1.00  0.00     0.210 HD
ENDBRANCH  45  51
ENDBRANCH  39  40
ENDBRANCH   5  39
BRANCH   4  53
HETATM   53  N4  UNL     1      -0.115  25.050   9.946  1.00  0.00    -0.072 N 
ATOM     54  H43 UNL     1      -0.170  24.971   8.931  1.00  0.00     0.274 HD
ATOM     55  H42 UNL     1      -1.104  24.913  10.151  1.00  0.00     0.274 HD
ATOM     56  H41 UNL     1       0.226  25.962  10.250  1.00  0.00     0.274 HD
ENDBRANCH   4  53
TORSDOF 15
ENDMDL
MODEL 2
REMARK VINA RESULT: -9.065308790      2.546      3.383
REMARK  15 active torsions:
REMARK  status: ('A' for Active; 'I' for Inactive)
REMARK    1  A    between atoms: C2_2  and  C21_47 
REMARK    2  A    between atoms: N1_3  and  N2_5 
REMARK    3  A    between atoms: N2_5  and  C3_6 
REMARK    4  A    between atoms: C3_6  and  C4_7 
REMARK    5  A    between atoms: C7_11  and  O2_12 
REMARK    6  A    between atoms: C8_14  and  O3_15 
REMARK    7  A    between atoms: O3_15  and  C9_16 
REMARK    8  A    between atoms: C10_17  and  N3_18 
REMARK    9  A    between atoms: C12_23  and  N4_24 
REMARK   10  A    between atoms: C13_28  and  O4_29 
REMARK   11  A    between atoms: O4_29  and  C14_30 
REMARK   12  A    between atoms: C15_32  and  C16_33 
REMARK   13  A    between atoms: C18_37  and  O8_38 
REMARK   14  A    between atoms: C19_40  and  O9_41 
REMARK   15  A    between atoms: C20_43  and  O10_44 
REMARK       I    between atoms: C21_47  and  N5_49 
REMARK       I    between atoms: N6_52  and  C24_53 
ROOT
HETATM    1  C9  UNL     1       1.934  23.176  12.162  1.00  0.00     0.186 C 
HETATM    2  C10 UNL     1       1.145  24.445  12.341  1.00  0.00     0.217 C 
HETATM    3  C11 UNL     1       0.117  24.549  11.233  1.00  0.00     0.071 C 
HETATM    4  C12 UNL     1       0.767  24.042   9.973  1.00  0.00     0.217 C 
HETATM    5  C13 UNL     1       2.242  24.382   9.987  1.00  0.00     0.186 C 
HETATM    6  C20 UNL     1       2.924  23.481  11.019  1.00  0.00     0.180 C 
ENDROOT
BRANCH   1   7
HETATM    7  O3  UNL     1       2.635  22.758  13.264  1.00  0.00    -0.348 OA
BRANCH   7   8
HETATM    8  C8  UNL     1       2.724  21.385  13.411  1.00  0.00     0.297 C 
HETATM    9  C7  UNL     1       1.363  20.763  13.541  1.00  0.00     0.242 C 
HETATM   10  C6  UNL     1       0.769  21.311  14.792  1.00  0.00     0.163 C 
HETATM   11  C5  UNL     1       1.718  21.870  15.790  1.00  0.00     0.120 C 
HETATM   12  O1  UNL     1      -0.414  21.333  15.050  1.00  0.00    -0.295 OA
HETATM   13  C4  UNL     1       3.027  21.138  15.710  1.00  0.00     0.185 C 
HETATM   14  O11 UNL     1       3.568  21.025  14.461  1.00  0.00    -0.346 OA
BRANCH   9  15
HETATM   15  O2  UNL     1       1.477  19.379  13.704  1.00  0.00    -0.383 OA
ATOM     16  H2  UNL     1       1.055  19.155  14.525  1.00  0.00     0.210 HD
ENDBRANCH   9  15
BRANCH  13  17
HETATM   17  C3  UNL     1       2.908  19.805  16.411  1.00  0.00     0.214 C 
BRANCH  17  18
HETATM   18  N2  UNL     1       3.199  18.738  15.953  1.00  0.00    -0.340 NA
BRANCH  18  19
HETATM   19  N1  UNL     1       3.647  17.647  15.465  1.00  0.00    -0.236 N 
HETATM   20  C2  UNL     1       3.397  16.396  15.814  1.00  0.00     0.104 C 
HETATM   21  C1  UNL     1       2.460  16.233  16.935  1.00  0.00     0.077 C 
ATOM     22  H1  UNL     1       4.296  17.758  14.687  1.00  0.00     0.201 HD
BRANCH  20  23
HETATM   23  C21 UNL     1       4.015  15.312  15.124  1.00  0.00     0.293 C 
HETATM   24  O12 UNL     1       5.225  14.998  15.469  1.00  0.00    -0.264 OA
HETATM   25  N5  UNL     1       3.446  14.547  14.103  1.00  0.00    -0.194 N 
HETATM   26  C22 UNL     1       2.146  14.662  13.512  1.00  0.00     0.184 C 
HETATM   27  O14 UNL     1       4.102  13.480  13.467  1.00  0.00    -0.145 OA
HETATM   28  C23 UNL     1       2.297  13.816  12.229  1.00  0.00     0.185 C 
HETATM   29  N6  UNL     1       3.717  13.616  12.194  1.00  0.00    -0.183 N 
HETATM   30  C24 UNL     1       4.536  13.572  11.055  1.00  0.00     0.356 C 
HETATM   31  N7  UNL     1       5.934  13.371  11.083  1.00  0.00    -0.038 NA
HETATM   32  O13 UNL     1       4.019  13.718   9.896  1.00  0.00    -0.248 OA
ENDBRANCH  20  23
ENDBRANCH  18  19
ENDBRANCH  17  18
ENDBRANCH  13  17
ENDBRANCH   7   8
ENDBRANCH   1   7
BRANCH   2  33
HETATM   33  N3  UNL     1       0.562  24.597  13.636  1.00  0.00    -0.072 N 
ATOM     34  H33 UNL     1      -0.236  25.232  13.595  1.00  0.00     0.274 HD
ATOM     35  H32 UNL     1       0.087  23.739  13.915  1.00  0.00     0.274 HD
ATOM     36  H31 UNL     1       1.217  24.893  14.359  1.00  0.00     0.274 HD
ENDBRANCH   2  33
BRANCH   6  37
HETATM   37  O10 UNL     1       3.425  22.329  10.460  1.00  0.00    -0.390 OA
ATOM     38  H10 UNL     1       3.912  22.508   9.664  1.00  0.00     0.210 HD
ENDBRANCH   6  37
BRANCH   5  39
HETATM   39  O4  UNL     1       2.849  24.105   8.776  1.00  0.00    -0.348 OA
BRANCH  39  40
HETATM   40  C14 UNL     1       3.574  25.187   8.275  1.00  0.00     0.292 C 
HETATM   41  O5  UNL     1       4.902  24.788   8.181  1.00  0.00    -0.343 OA
HETATM   42  C15 UNL     1       5.758  25.805   7.848  1.00  0.00     0.228 C 
HETATM   43  C17 UNL     1       5.683  26.976   8.808  1.00  0.00     0.077 C 
HETATM   44  C18 UNL     1       4.723  26.568   9.912  1.00  0.00     0.154 C 
HETATM   45  C19 UNL     1       3.374  26.333   9.240  1.00  0.00     0.202 C 
BRANCH  42  46
HETATM   46  C16 UNL     1       7.143  25.309   7.881  1.00  0.00     0.203 C 
HETATM   47  O6  UNL     1       7.993  25.785   7.105  1.00  0.00    -0.646 OA
HETATM   48  O7  UNL     1       7.505  24.322   8.764  1.00  0.00    -0.646 OA
ENDBRANCH  42  46
BRANCH  44  49
HETATM   49  O8  UNL     1       4.642  27.524  10.919  1.00  0.00    -0.393 OA
ATOM     50  H8  UNL     1       5.496  27.763  11.258  1.00  0.00     0.210 HD
ENDBRANCH  44  49
BRANCH  45  51
HETATM   51  O9  UNL     1       3.013  27.514   8.607  1.00  0.00    -0.388 OA
ATOM     52  H9  UNL     1       3.669  28.196   8.694  1.00  0.00     0.210 HD
ENDBRANCH  45  51
ENDBRANCH  39  40
ENDBRANCH   5  39
BRANCH   4  53
HETATM   53  N4  UNL     1       0.074  24.602   8.851  1.00  0.00    -0.072 N 
ATOM     54  H43 UNL     1       0.122  24.009   8.023  1.00  0.00     0.274 HD
ATOM     55  H42 UNL     1      -0.939  24.591   8.971  1.00  0.00     0.274 HD
ATOM     56  H41 UNL     1       0.439  25.539   8.684  1.00  0.00     0.274 HD
ENDBRANCH   4  53
TORSDOF 15
ENDMDL
MODEL 3
REMARK VINA RESULT: -8.943184456      3.095     10.593
REMARK  15 active torsions:
REMARK  status: ('A' for Active; 'I' for Inactive)
REMARK    1  A    between atoms: C2_2  and  C21_47 
REMARK    2  A    between atoms: N1_3  and  N2_5 
REMARK    3  A    between atoms: N2_5  and  C3_6 
REMARK    4  A    between atoms: C3_6  and  C4_7 
REMARK    5  A    between atoms: C7_11  and  O2_12 
REMARK    6  A    between atoms: C8_14  and  O3_15 
REMARK    7  A    between atoms: O3_15  and  C9_16 
REMARK    8  A    between atoms: C10_17  and  N3_18 
REMARK    9  A    between atoms: C12_23  and  N4_24 
REMARK   10  A    between atoms: C13_28  and  O4_29 
REMARK   11  A    between atoms: O4_29  and  C14_30 
REMARK   12  A    between atoms: C15_32  and  C16_33 
REMARK   13  A    between atoms: C18_37  and  O8_38 
REMARK   14  A    between atoms: C19_40  and  O9_41 
REMARK   15  A    between atoms: C20_43  and  O10_44 
REMARK       I    between atoms: C21_47  and  N5_49 
REMARK       I    between atoms: N6_52  and  C24_53 
ROOT
HETATM    1  C9  UNL     1       2.726  20.431  13.621  1.00  0.00     0.186 C 
HETATM    2  C10 UNL     1       3.063  19.788  14.939  1.00  0.00     0.217 C 
HETATM    3  C11 UNL     1       4.412  19.107  14.828  1.00  0.00     0.071 C 
HETATM    4  C12 UNL     1       4.484  18.485  13.458  1.00  0.00     0.217 C 
HETATM    5  C13 UNL     1       3.107  18.025  13.032  1.00  0.00     0.186 C 
HETATM    6  C20 UNL     1       2.272  19.268  12.715  1.00  0.00     0.180 C 
ENDROOT
BRANCH   1   7
HETATM    7  O3  UNL     1       1.738  21.381  13.663  1.00  0.00    -0.348 OA
BRANCH   7   8
HETATM    8  C8  UNL     1       2.006  22.533  12.948  1.00  0.00     0.297 C 
HETATM    9  C7  UNL     1       1.482  23.749  13.658  1.00  0.00     0.242 C 
HETATM   10  C6  UNL     1       0.002  23.593  13.719  1.00  0.00     0.163 C 
HETATM   11  C5  UNL     1      -0.611  22.661  12.737  1.00  0.00     0.120 C 
HETATM   12  O1  UNL     1      -0.726  24.164  14.501  1.00  0.00    -0.295 OA
HETATM   13  C4  UNL     1       0.202  22.649  11.475  1.00  0.00     0.185 C 
HETATM   14  O11 UNL     1       1.545  22.453  11.635  1.00  0.00    -0.346 OA
BRANCH   9  15
HETATM   15  O2  UNL     1       1.749  24.899  12.910  1.00  0.00    -0.383 OA
ATOM     16  H2  UNL     1       1.133  25.567  13.186  1.00  0.00     0.210 HD
ENDBRANCH   9  15
BRANCH  13  17
HETATM   17  C3  UNL     1      -0.109  23.883  10.659  1.00  0.00     0.214 C 
BRANCH  17  18
HETATM   18  N2  UNL     1       0.693  24.634  10.182  1.00  0.00    -0.340 NA
BRANCH  18  19
HETATM   19  N1  UNL     1       1.628  25.406   9.788  1.00  0.00    -0.236 N 
HETATM   20  C2  UNL     1       2.879  25.127   9.458  1.00  0.00     0.104 C 
HETATM   21  C1  UNL     1       3.250  23.707   9.557  1.00  0.00     0.077 C 
ATOM     22  H1  UNL     1       1.373  26.391   9.718  1.00  0.00     0.201 HD
BRANCH  20  23
HETATM   23  C21 UNL     1       3.768  26.159   9.040  1.00  0.00     0.293 C 
HETATM   24  O12 UNL     1       3.241  27.275   8.641  1.00  0.00    -0.264 OA
HETATM   25  N5  UNL     1       5.163  26.092   9.015  1.00  0.00    -0.194 N 
HETATM   26  C22 UNL     1       6.017  25.003   9.385  1.00  0.00     0.184 C 
HETATM   27  O14 UNL     1       5.989  27.150   8.603  1.00  0.00    -0.145 OA
HETATM   28  C23 UNL     1       7.367  25.424   8.766  1.00  0.00     0.185 C 
HETATM   29  N6  UNL     1       6.961  26.521   7.935  1.00  0.00    -0.183 N 
HETATM   30  C24 UNL     1       7.479  26.863   6.676  1.00  0.00     0.356 C 
HETATM   31  N7  UNL     1       7.037  27.958   5.901  1.00  0.00    -0.038 NA
HETATM   32  O13 UNL     1       8.415  26.161   6.163  1.00  0.00    -0.248 OA
ENDBRANCH  20  23
ENDBRANCH  18  19
ENDBRANCH  17  18
ENDBRANCH  13  17
ENDBRANCH   7   8
ENDBRANCH   1   7
BRANCH   2  33
HETATM   33  N3  UNL     1       2.995  20.672  16.059  1.00  0.00    -0.072 N 
ATOM     34  H33 UNL     1       2.856  21.634  15.746  1.00  0.00     0.274 HD
ATOM     35  H32 UNL     1       2.125  20.530  16.572  1.00  0.00     0.274 HD
ATOM     36  H31 UNL     1       3.795  20.615  16.689  1.00  0.00     0.274 HD
ENDBRANCH   2  33
BRANCH   6  37
HETATM   37  O10 UNL     1       2.323  19.610  11.385  1.00  0.00    -0.390 OA
ATOM     38  H10 UNL     1       1.517  20.023  11.097  1.00  0.00     0.210 HD
ENDBRANCH   6  37
BRANCH   5  39
HETATM   39  O4  UNL     1       3.146  17.283  11.866  1.00  0.00    -0.348 OA
BRANCH  39  40
HETATM   40  C14 UNL     1       2.969  15.917  12.089  1.00  0.00     0.292 C 
HETATM   41  O5  UNL     1       4.199  15.302  11.893  1.00  0.00    -0.343 OA
HETATM   42  C15 UNL     1       4.140  13.933  11.927  1.00  0.00     0.228 C 
HETATM   43  C17 UNL     1       3.161  13.362  10.921  1.00  0.00     0.077 C 
HETATM   44  C18 UNL     1       2.632  14.536  10.117  1.00  0.00     0.154 C 
HETATM   45  C19 UNL     1       1.917  15.446  11.111  1.00  0.00     0.202 C 
BRANCH  42  46
HETATM   46  C16 UNL     1       5.464  13.379  11.602  1.00  0.00     0.203 C 
HETATM   47  O6  UNL     1       5.553  12.342  10.918  1.00  0.00    -0.646 OA
HETATM   48  O7  UNL     1       6.605  13.999  12.049  1.00  0.00    -0.646 OA
ENDBRANCH  42  46
BRANCH  44  49
HETATM   49  O8  UNL     1       1.792  14.133   9.085  1.00  0.00    -0.393 OA
ATOM     50  H8  UNL     1       0.884  14.357   9.251  1.00  0.00     0.210 HD
ENDBRANCH  44  49
BRANCH  45  51
HETATM   51  O9  UNL     1       0.915  14.699  11.714  1.00  0.00    -0.388 OA
ATOM     52  H9  UNL     1       0.171  15.226  11.980  1.00  0.00     0.210 HD
ENDBRANCH  45  51
ENDBRANCH  39  40
ENDBRANCH   5  39
BRANCH   4  53
HETATM   53  N4  UNL     1       5.443  17.421  13.497  1.00  0.00    -0.072 N 
ATOM     54  H43 UNL     1       5.890  17.328  14.409  1.00  0.00     0.274 HD
ATOM     55  H42 UNL     1       5.008  16.499  13.461  1.00  0.00     0.274 HD
ATOM     56  H41 UNL     1       6.115  17.567  12.744  1.00  0.00     0.274 HD
ENDBRANCH   4  53
TORSDOF 15
ENDMDL
MODEL 4
REMARK VINA RESULT: -8.915539001      1.032      1.304
REMARK  15 active torsions:
REMARK  status: ('A' for Active; 'I' for Inactive)
REMARK    1  A    between atoms: C2_2  and  C21_47 
REMARK    2  A    between atoms: N1_3  and  N2_5 
REMARK    3  A    between atoms: N2_5  and  C3_6 
REMARK    4  A    between atoms: C3_6  and  C4_7 
REMARK    5  A    between atoms: C7_11  and  O2_12 
REMARK    6  A    between atoms: C8_14  and  O3_15 
REMARK    7  A    between atoms: O3_15  and  C9_16 
REMARK    8  A    between atoms: C10_17  and  N3_18 
REMARK    9  A    between atoms: C12_23  and  N4_24 
REMARK   10  A    between atoms: C13_28  and  O4_29 
REMARK   11  A    between atoms: O4_29  and  C14_30 
REMARK   12  A    between atoms: C15_32  and  C16_33 
REMARK   13  A    between atoms: C18_37  and  O8_38 
REMARK   14  A    between atoms: C19_40  and  O9_41 
REMARK   15  A    between atoms: C20_43  and  O10_44 
REMARK       I    between atoms: C21_47  and  N5_49 
REMARK       I    between atoms: N6_52  and  C24_53 
ROOT
HETATM    1  C9  UNL     1       2.005  22.308  11.828  1.00  0.00     0.186 C 
HETATM    2  C10 UNL     1       1.740  23.533  12.662  1.00  0.00     0.217 C 
HETATM    3  C11 UNL     1       0.566  24.288  12.073  1.00  0.00     0.071 C 
HETATM    4  C12 UNL     1       0.690  24.207  10.574  1.00  0.00     0.217 C 
HETATM    5  C13 UNL     1       2.152  24.193  10.183  1.00  0.00     0.186 C 
HETATM    6  C20 UNL     1       2.731  22.831  10.572  1.00  0.00     0.180 C 
ENDROOT
BRANCH   1   7
HETATM    7  O3  UNL     1       2.776  21.344  12.425  1.00  0.00    -0.348 OA
BRANCH   7   8
HETATM    8  C8  UNL     1       2.150  20.123  12.600  1.00  0.00     0.297 C 
HETATM    9  C7  UNL     1       1.991  19.798  14.058  1.00  0.00     0.242 C 
HETATM   10  C6  UNL     1       3.367  19.680  14.614  1.00  0.00     0.163 C 
HETATM   11  C5  UNL     1       4.459  19.419  13.639  1.00  0.00     0.120 C 
HETATM   12  O1  UNL     1       3.656  19.780  15.786  1.00  0.00    -0.295 OA
HETATM   13  C4  UNL     1       3.927  18.619  12.486  1.00  0.00     0.185 C 
HETATM   14  O11 UNL     1       2.791  19.101  11.901  1.00  0.00    -0.346 OA
BRANCH   9  15
HETATM   15  O2  UNL     1       1.371  18.554  14.211  1.00  0.00    -0.383 OA
ATOM     16  H2  UNL     1       0.860  18.394  13.427  1.00  0.00     0.210 HD
ENDBRANCH   9  15
BRANCH  13  17
HETATM   17  C3  UNL     1       3.798  17.168  12.891  1.00  0.00     0.214 C 
BRANCH  17  18
HETATM   18  N2  UNL     1       2.841  16.470  12.718  1.00  0.00    -0.340 NA
BRANCH  18  19
HETATM   19  N1  UNL     1       1.817  15.779  12.400  1.00  0.00    -0.236 N 
HETATM   20  C2  UNL     1       1.075  14.970  13.139  1.00  0.00     0.104 C 
HETATM   21  C1  UNL     1       1.491  14.848  14.544  1.00  0.00     0.077 C 
ATOM     22  H1  UNL     1       1.526  15.862  11.426  1.00  0.00     0.201 HD
BRANCH  20  23
HETATM   23  C21 UNL     1      -0.040  14.286  12.572  1.00  0.00     0.293 C 
HETATM   24  O12 UNL     1       0.152  13.071  12.161  1.00  0.00    -0.264 OA
HETATM   25  N5  UNL     1      -1.331  14.795  12.411  1.00  0.00    -0.194 N 
HETATM   26  C22 UNL     1      -1.836  16.090  12.759  1.00  0.00     0.184 C 
HETATM   27  O14 UNL     1      -2.395  14.066  11.856  1.00  0.00    -0.145 OA
HETATM   28  C23 UNL     1      -3.170  16.136  11.983  1.00  0.00     0.185 C 
HETATM   29  N6  UNL     1      -3.037  14.989  11.133  1.00  0.00    -0.183 N 
HETATM   30  C24 UNL     1      -3.488  14.862   9.810  1.00  0.00     0.356 C 
HETATM   31  N7  UNL     1      -3.327  13.703   9.018  1.00  0.00    -0.038 NA
HETATM   32  O13 UNL     1      -4.091  15.838   9.248  1.00  0.00    -0.248 OA
ENDBRANCH  20  23
ENDBRANCH  18  19
ENDBRANCH  17  18
ENDBRANCH  13  17
ENDBRANCH   7   8
ENDBRANCH   1   7
BRANCH   2  33
HETATM   33  N3  UNL     1       1.570  23.270  14.055  1.00  0.00    -0.072 N 
ATOM     34  H33 UNL     1       1.580  22.265  14.231  1.00  0.00     0.274 HD
ATOM     35  H32 UNL     1       2.404  23.545  14.573  1.00  0.00     0.274 HD
ATOM     36  H31 UNL     1       0.739  23.696  14.464  1.00  0.00     0.274 HD
ENDBRANCH   2  33
BRANCH   6  37
HETATM   37  O10 UNL     1       2.679  21.925   9.540  1.00  0.00    -0.390 OA
ATOM     38  H10 UNL     1       3.505  21.876   9.072  1.00  0.00     0.210 HD
ENDBRANCH   6  37
BRANCH   5  39
HETATM   39  O4  UNL     1       2.324  24.307   8.816  1.00  0.00    -0.348 OA
BRANCH  39  40
HETATM   40  C14 UNL     1       3.368  25.165   8.471  1.00  0.00     0.292 C 
HETATM   41  O5  UNL     1       4.554  24.455   8.619  1.00  0.00    -0.343 OA
HETATM   42  C15 UNL     1       5.677  25.224   8.462  1.00  0.00     0.228 C 
HETATM   43  C17 UNL     1       5.714  26.410   9.407  1.00  0.00     0.077 C 
HETATM   44  C18 UNL     1       4.500  26.281  10.309  1.00  0.00     0.154 C 
HETATM   45  C19 UNL     1       3.280  26.356   9.396  1.00  0.00     0.202 C 
BRANCH  42  46
HETATM   46  C16 UNL     1       6.870  24.411   8.745  1.00  0.00     0.203 C 
HETATM   47  O6  UNL     1       8.002  24.928   8.695  1.00  0.00    -0.646 OA
HETATM   48  O7  UNL     1       6.743  23.081   9.063  1.00  0.00    -0.646 OA
ENDBRANCH  42  46
BRANCH  44  49
HETATM   49  O8  UNL     1       4.471  27.261  11.296  1.00  0.00    -0.393 OA
ATOM     50  H8  UNL     1       3.587  27.459  11.581  1.00  0.00     0.210 HD
ENDBRANCH  44  49
BRANCH  45  51
HETATM   51  O9  UNL     1       3.338  27.568   8.722  1.00  0.00    -0.388 OA
ATOM     52  H9  UNL     1       2.929  27.534   7.866  1.00  0.00     0.210 HD
ENDBRANCH  45  51
ENDBRANCH  39  40
ENDBRANCH   5  39
BRANCH   4  53
HETATM   53  N4  UNL     1      -0.033  25.304  10.002  1.00  0.00    -0.072 N 
ATOM     54  H43 UNL     1      -0.824  25.595  10.577  1.00  0.00     0.274 HD
ATOM     55  H42 UNL     1       0.491  26.178  10.034  1.00  0.00     0.274 HD
ATOM     56  H41 UNL     1      -0.309  25.047   9.055  1.00  0.00     0.274 HD
ENDBRANCH   4  53
TORSDOF 15
ENDMDL
MODEL 5
REMARK VINA RESULT: -8.882978243      0.984      1.052
REMARK  15 active torsions:
REMARK  status: ('A' for Active; 'I' for Inactive)
REMARK    1  A    between atoms: C2_2  and  C21_47 
REMARK    2  A    between atoms: N1_3  and  N2_5 
REMARK    3  A    between atoms: N2_5  and  C3_6 
REMARK    4  A    between atoms: C3_6  and  C4_7 
REMARK    5  A    between atoms: C7_11  and  O2_12 
REMARK    6  A    between atoms: C8_14  and  O3_15 
REMARK    7  A    between atoms: O3_15  and  C9_16 
REMARK    8  A    between atoms: C10_17  and  N3_18 
REMARK    9  A    between atoms: C12_23  and  N4_24 
REMARK   10  A    between atoms: C13_28  and  O4_29 
REMARK   11  A    between atoms: O4_29  and  C14_30 
REMARK   12  A    between atoms: C15_32  and  C16_33 
REMARK   13  A    between atoms: C18_37  and  O8_38 
REMARK   14  A    between atoms: C19_40  and  O9_41 
REMARK   15  A    between atoms: C20_43  and  O10_44 
REMARK       I    between atoms: C21_47  and  N5_49 
REMARK       I    between atoms: N6_52  and  C24_53 
ROOT
HETATM    1  C9  UNL     1       1.800  22.909  11.621  1.00  0.00     0.186 C 
HETATM    2  C10 UNL     1       1.206  24.179  12.166  1.00  0.00     0.217 C 
HETATM    3  C11 UNL     1       0.060  24.612  11.275  1.00  0.00     0.071 C 
HETATM    4  C12 UNL     1       0.468  24.325   9.854  1.00  0.00     0.217 C 
HETATM    5  C13 UNL     1       1.962  24.514   9.703  1.00  0.00     0.186 C 
HETATM    6  C20 UNL     1       2.658  23.354  10.418  1.00  0.00     0.180 C 
ENDROOT
BRANCH   1   7
HETATM    7  O3  UNL     1       2.585  22.202  12.496  1.00  0.00    -0.348 OA
BRANCH   7   8
HETATM    8  C8  UNL     1       2.169  20.905  12.734  1.00  0.00     0.297 C 
HETATM    9  C7  UNL     1       2.818  20.344  13.968  1.00  0.00     0.242 C 
HETATM   10  C6  UNL     1       4.280  20.302  13.690  1.00  0.00     0.163 C 
HETATM   11  C5  UNL     1       4.687  20.321  12.260  1.00  0.00     0.120 C 
HETATM   12  O1  UNL     1       5.148  20.253  14.533  1.00  0.00    -0.295 OA
HETATM   13  C4  UNL     1       3.635  19.651  11.425  1.00  0.00     0.185 C 
HETATM   14  O11 UNL     1       2.354  20.083  11.623  1.00  0.00    -0.346 OA
BRANCH   9  15
HETATM   15  O2  UNL     1       2.395  19.028  14.181  1.00  0.00    -0.383 OA
ATOM     16  H2  UNL     1       3.161  18.519  14.416  1.00  0.00     0.210 HD
ENDBRANCH   9  15
BRANCH  13  17
HETATM   17  C3  UNL     1       3.764  18.150  11.552  1.00  0.00     0.214 C 
BRANCH  17  18
HETATM   18  N2  UNL     1       2.869  17.357  11.497  1.00  0.00    -0.340 NA
BRANCH  18  19
HETATM   19  N1  UNL     1       2.017  16.411  11.428  1.00  0.00    -0.236 N 
HETATM   20  C2  UNL     1       2.186  15.105  11.551  1.00  0.00     0.104 C 
HETATM   21  C1  UNL     1       3.568  14.674  11.810  1.00  0.00     0.077 C 
ATOM     22  H1  UNL     1       1.057  16.707  11.249  1.00  0.00     0.201 HD
BRANCH  20  23
HETATM   23  C21 UNL     1       1.079  14.214  11.436  1.00  0.00     0.293 C 
HETATM   24  O12 UNL     1       0.906  13.623  10.294  1.00  0.00    -0.264 OA
HETATM   25  N5  UNL     1       0.150  13.911  12.434  1.00  0.00    -0.194 N 
HETATM   26  C22 UNL     1       0.080  14.408  13.777  1.00  0.00     0.184 C 
HETATM   27  O14 UNL     1      -0.916  13.013  12.264  1.00  0.00    -0.145 OA
HETATM   28  C23 UNL     1      -1.348  14.001  14.198  1.00  0.00     0.185 C 
HETATM   29  N6  UNL     1      -1.908  13.603  12.939  1.00  0.00    -0.183 N 
HETATM   30  C24 UNL     1      -3.227  13.796  12.502  1.00  0.00     0.356 C 
HETATM   31  N7  UNL     1      -3.722  13.383  11.246  1.00  0.00    -0.038 NA
HETATM   32  O13 UNL     1      -4.069  14.382  13.265  1.00  0.00    -0.248 OA
ENDBRANCH  20  23
ENDBRANCH  18  19
ENDBRANCH  17  18
ENDBRANCH  13  17
ENDBRANCH   7   8
ENDBRANCH   1   7
BRANCH   2  33
HETATM   33  N3  UNL     1       0.826  24.108  13.540  1.00  0.00    -0.072 N 
ATOM     34  H33 UNL     1       1.283  23.318  13.996  1.00  0.00     0.274 HD
ATOM     35  H32 UNL     1       1.242  24.876  14.065  1.00  0.00     0.274 HD
ATOM     36  H31 UNL     1      -0.182  24.074  13.696  1.00  0.00     0.274 HD
ENDBRANCH   2  33
BRANCH   6  37
HETATM   37  O10 UNL     1       2.933  22.306   9.574  1.00  0.00    -0.390 OA
ATOM     38  H10 UNL     1       3.863  22.115   9.541  1.00  0.00     0.210 HD
ENDBRANCH   6  37
BRANCH   5  39
HETATM   39  O4  UNL     1       2.362  24.445   8.381  1.00  0.00    -0.348 OA
BRANCH  39  40
HETATM   40  C14 UNL     1       3.422  25.304   8.092  1.00  0.00     0.292 C 
HETATM   41  O5  UNL     1       4.598  24.581   8.253  1.00  0.00    -0.343 OA
HETATM   42  C15 UNL     1       5.731  25.345   8.151  1.00  0.00     0.228 C 
HETATM   43  C17 UNL     1       5.749  26.502   9.130  1.00  0.00     0.077 C 
HETATM   44  C18 UNL     1       4.508  26.358   9.993  1.00  0.00     0.154 C 
HETATM   45  C19 UNL     1       3.316  26.469   9.048  1.00  0.00     0.202 C 
BRANCH  42  46
HETATM   46  C16 UNL     1       6.909  24.514   8.444  1.00  0.00     0.203 C 
HETATM   47  O6  UNL     1       8.039  24.885   8.075  1.00  0.00    -0.646 OA
HETATM   48  O7  UNL     1       6.770  23.328   9.123  1.00  0.00    -0.646 OA
ENDBRANCH  42  46
BRANCH  44  49
HETATM   49  O8  UNL     1       4.458  27.310  11.007  1.00  0.00    -0.393 OA
ATOM     50  H8  UNL     1       3.743  27.154  11.612  1.00  0.00     0.210 HD
ENDBRANCH  44  49
BRANCH  45  51
HETATM   51  O9  UNL     1       3.402  27.699   8.411  1.00  0.00    -0.388 OA
ATOM     52  H9  UNL     1       3.449  28.428   9.020  1.00  0.00     0.210 HD
ENDBRANCH  45  51
ENDBRANCH  39  40
ENDBRANCH   5  39
BRANCH   4  53
HETATM   53  N4  UNL     1      -0.295  25.174   8.987  1.00  0.00    -0.072 N 
ATOM     54  H43 UNL     1       0.293  25.740   8.375  1.00  0.00     0.274 HD
ATOM     55  H42 UNL     1      -0.787  24.652   8.262  1.00  0.00     0.274 HD
ATOM     56  H41 UNL     1      -0.922  25.737   9.560  1.00  0.00     0.274 HD
ENDBRANCH   4  53
TORSDOF 15
ENDMDL
