MODEL 1
REMARK VINA RESULT: -6.721226600      0.000      0.000
REMARK  10 active torsions:
REMARK  status: ('A' for Active; 'I' for Inactive)
REMARK    1  A    between atoms: C3_3  and  C4_4 
REMARK    2  A    between atoms: C4_4  and  O1_5 
REMARK    3  A    between atoms: C4_4  and  S1_7 
REMARK    4  A    between atoms: S1_7  and  C5_8 
REMARK    5  A    between atoms: S1_7  and  C8_12 
REMARK    6  A    between atoms: C5_8  and  C6_9 
REMARK    7  A    between atoms: C6_9  and  C7_10 
REMARK    8  A    between atoms: C8_12  and  C9_13 
REMARK    9  A    between atoms: C14_19  and  O4_20 
REMARK   10  A    between atoms: C15_22  and  O5_23 
ROOT
HETATM    1  C4  UNL     1     -51.562  24.488 -31.930  1.00  0.00     0.228 C 
ENDROOT
BRANCH   1   2
HETATM    2  C3  UNL     1     -50.363  23.615 -31.938  1.00  0.00     0.102 A 
HETATM    3  C2  UNL     1     -49.662  23.262 -30.765  1.00  0.00     0.009 A 
HETATM    4  C1  UNL     1     -50.017  23.703 -29.394  1.00  0.00     0.054 C 
HETATM    5  C15 UNL     1     -48.606  22.452 -31.106  1.00  0.00     0.133 A 
HETATM    6  C14 UNL     1     -48.691  22.331 -32.476  1.00  0.00     0.218 A 
HETATM    7  O3  UNL     1     -49.719  23.020 -32.898  1.00  0.00    -0.286 OA
BRANCH   5   8
HETATM    8  O5  UNL     1     -47.666  21.882 -30.256  1.00  0.00    -0.356 OA
ATOM      9  H5  UNL     1     -47.041  21.196 -30.460  1.00  0.00     0.218 HD
ENDBRANCH   5   8
BRANCH   6  10
HETATM   10  O4  UNL     1     -47.825  21.596 -33.283  1.00  0.00    -0.339 OA
ATOM     11  H4  UNL     1     -47.061  21.941 -33.730  1.00  0.00     0.220 HD
ENDBRANCH   6  10
ENDBRANCH   1   2
BRANCH   1  12
HETATM   12  O1  UNL     1     -51.497  25.350 -33.011  1.00  0.00    -0.379 OA
ATOM     13  H1  UNL     1     -51.135  26.180 -32.722  1.00  0.00     0.211 HD
ENDBRANCH   1  12
BRANCH   1  14
HETATM   14  S1  UNL     1     -53.009  23.600 -31.739  1.00  0.00    -0.184 SA
BRANCH  14  15
HETATM   15  C5  UNL     1     -53.557  22.683 -33.128  1.00  0.00     0.073 C 
BRANCH  15  16
HETATM   16  C6  UNL     1     -54.296  23.539 -34.100  1.00  0.00     0.079 C 
BRANCH  16  17
HETATM   17  C7  UNL     1     -53.520  23.651 -35.389  1.00  0.00     0.231 C 
HETATM   18  O2  UNL     1     -52.595  24.415 -35.461  1.00  0.00    -0.307 OA
ENDBRANCH  16  17
ENDBRANCH  15  16
ENDBRANCH  14  15
BRANCH  14  19
HETATM   19  C8  UNL     1     -54.307  24.418 -30.896  1.00  0.00     0.070 C 
BRANCH  19  20
HETATM   20  C9  UNL     1     -54.573  23.845 -29.519  1.00  0.00    -0.006 C 
HETATM   21  C10 UNL     1     -55.867  24.507 -29.029  1.00  0.00     0.005 C 
HETATM   22  C11 UNL     1     -55.816  24.422 -27.537  1.00  0.00     0.000 C 
HETATM   23  C12 UNL     1     -54.358  24.459 -27.183  1.00  0.00     0.000 C 
HETATM   24  C13 UNL     1     -53.588  24.368 -28.490  1.00  0.00     0.005 C 
ENDBRANCH  19  20
ENDBRANCH  14  19
ENDBRANCH   1  14
TORSDOF 10
ENDMDL
MODEL 2
REMARK VINA RESULT: -6.553143960      0.921      1.418
REMARK  10 active torsions:
REMARK  status: ('A' for Active; 'I' for Inactive)
REMARK    1  A    between atoms: C3_3  and  C4_4 
REMARK    2  A    between atoms: C4_4  and  O1_5 
REMARK    3  A    between atoms: C4_4  and  S1_7 
REMARK    4  A    between atoms: S1_7  and  C5_8 
REMARK    5  A    between atoms: S1_7  and  C8_12 
REMARK    6  A    between atoms: C5_8  and  C6_9 
REMARK    7  A    between atoms: C6_9  and  C7_10 
REMARK    8  A    between atoms: C8_12  and  C9_13 
REMARK    9  A    between atoms: C14_19  and  O4_20 
REMARK   10  A    between atoms: C15_22  and  O5_23 
ROOT
HETATM    1  C4  UNL     1     -51.926  24.680 -32.033  1.00  0.00     0.228 C 
ENDROOT
BRANCH   1   2
HETATM    2  C3  UNL     1     -50.794  23.745 -31.822  1.00  0.00     0.102 A 
HETATM    3  C2  UNL     1     -50.383  23.314 -30.543  1.00  0.00     0.009 A 
HETATM    4  C1  UNL     1     -51.010  23.723 -29.262  1.00  0.00     0.054 C 
HETATM    5  C15 UNL     1     -49.315  22.460 -30.684  1.00  0.00     0.133 A 
HETATM    6  C14 UNL     1     -49.104  22.393 -32.044  1.00  0.00     0.218 A 
HETATM    7  O3  UNL     1     -49.983  23.151 -32.646  1.00  0.00    -0.286 OA
BRANCH   5   8
HETATM    8  O5  UNL     1     -48.610  21.811 -29.678  1.00  0.00    -0.356 OA
ATOM      9  H5  UNL     1     -48.361  20.895 -29.643  1.00  0.00     0.218 HD
ENDBRANCH   5   8
BRANCH   6  10
HETATM   10  O4  UNL     1     -48.116  21.642 -32.677  1.00  0.00    -0.339 OA
ATOM     11  H4  UNL     1     -47.223  21.532 -32.368  1.00  0.00     0.220 HD
ENDBRANCH   6  10
ENDBRANCH   1   2
BRANCH   1  12
HETATM   12  O1  UNL     1     -51.645  25.485 -33.124  1.00  0.00    -0.379 OA
ATOM     13  H1  UNL     1     -51.394  26.347 -32.814  1.00  0.00     0.211 HD
ENDBRANCH   1  12
BRANCH   1  14
HETATM   14  S1  UNL     1     -53.435  23.880 -32.034  1.00  0.00    -0.184 SA
BRANCH  14  15
HETATM   15  C5  UNL     1     -53.598  22.510 -33.114  1.00  0.00     0.073 C 
BRANCH  15  16
HETATM   16  C6  UNL     1     -54.201  22.902 -34.420  1.00  0.00     0.079 C 
BRANCH  16  17
HETATM   17  C7  UNL     1     -53.117  23.191 -35.428  1.00  0.00     0.231 C 
HETATM   18  O2  UNL     1     -52.721  24.317 -35.569  1.00  0.00    -0.307 OA
ENDBRANCH  16  17
ENDBRANCH  15  16
ENDBRANCH  14  15
BRANCH  14  19
HETATM   19  C8  UNL     1     -54.850  24.911 -32.009  1.00  0.00     0.070 C 
BRANCH  19  20
HETATM   20  C9  UNL     1     -55.611  24.841 -30.700  1.00  0.00    -0.006 C 
HETATM   21  C10 UNL     1     -54.641  24.233 -29.680  1.00  0.00     0.005 C 
HETATM   22  C11 UNL     1     -55.506  23.633 -28.618  1.00  0.00     0.000 C 
HETATM   23  C12 UNL     1     -56.770  23.223 -29.315  1.00  0.00     0.000 C 
HETATM   24  C13 UNL     1     -56.688  23.771 -30.730  1.00  0.00     0.005 C 
ENDBRANCH  19  20
ENDBRANCH  14  19
ENDBRANCH   1  14
TORSDOF 10
ENDMDL
MODEL 3
REMARK VINA RESULT: -6.479088364      1.625      2.263
REMARK  10 active torsions:
REMARK  status: ('A' for Active; 'I' for Inactive)
REMARK    1  A    between atoms: C3_3  and  C4_4 
REMARK    2  A    between atoms: C4_4  and  O1_5 
REMARK    3  A    between atoms: C4_4  and  S1_7 
REMARK    4  A    between atoms: S1_7  and  C5_8 
REMARK    5  A    between atoms: S1_7  and  C8_12 
REMARK    6  A    between atoms: C5_8  and  C6_9 
REMARK    7  A    between atoms: C6_9  and  C7_10 
REMARK    8  A    between atoms: C8_12  and  C9_13 
REMARK    9  A    between atoms: C14_19  and  O4_20 
REMARK   10  A    between atoms: C15_22  and  O5_23 
ROOT
HETATM    1  C4  UNL     1     -52.375  24.515 -32.504  1.00  0.00     0.228 C 
ENDROOT
BRANCH   1   2
HETATM    2  C3  UNL     1     -51.155  23.964 -31.865  1.00  0.00     0.102 A 
HETATM    3  C2  UNL     1     -51.036  23.779 -30.471  1.00  0.00     0.009 A 
HETATM    4  C1  UNL     1     -52.088  24.101 -29.475  1.00  0.00     0.054 C 
HETATM    5  C15 UNL     1     -49.795  23.257 -30.197  1.00  0.00     0.133 A 
HETATM    6  C14 UNL     1     -49.191  23.137 -31.430  1.00  0.00     0.218 A 
HETATM    7  O3  UNL     1     -50.019  23.558 -32.349  1.00  0.00    -0.286 OA
BRANCH   5   8
HETATM    8  O5  UNL     1     -49.271  22.925 -28.954  1.00  0.00    -0.356 OA
ATOM      9  H5  UNL     1     -49.276  22.074 -28.531  1.00  0.00     0.218 HD
ENDBRANCH   5   8
BRANCH   6  10
HETATM   10  O4  UNL     1     -47.907  22.648 -31.661  1.00  0.00    -0.339 OA
ATOM     11  H4  UNL     1     -47.117  22.944 -31.224  1.00  0.00     0.220 HD
ENDBRANCH   6  10
ENDBRANCH   1   2
BRANCH   1  12
HETATM   12  O1  UNL     1     -51.999  25.417 -33.485  1.00  0.00    -0.379 OA
ATOM     13  H1  UNL     1     -52.518  26.207 -33.393  1.00  0.00     0.211 HD
ENDBRANCH   1  12
BRANCH   1  14
HETATM   14  S1  UNL     1     -53.475  23.292 -32.965  1.00  0.00    -0.184 SA
BRANCH  14  15
HETATM   15  C5  UNL     1     -53.548  22.903 -34.672  1.00  0.00     0.073 C 
BRANCH  15  16
HETATM   16  C6  UNL     1     -54.765  23.472 -35.318  1.00  0.00     0.079 C 
BRANCH  16  17
HETATM   17  C7  UNL     1     -54.445  24.806 -35.946  1.00  0.00     0.231 C 
HETATM   18  O2  UNL     1     -53.300  25.101 -36.161  1.00  0.00    -0.307 OA
ENDBRANCH  16  17
ENDBRANCH  15  16
ENDBRANCH  14  15
BRANCH  14  19
HETATM   19  C8  UNL     1     -55.049  23.348 -32.202  1.00  0.00     0.070 C 
BRANCH  19  20
HETATM   20  C9  UNL     1     -55.310  24.654 -31.478  1.00  0.00    -0.006 C 
HETATM   21  C10 UNL     1     -56.500  24.390 -30.547  1.00  0.00     0.005 C 
HETATM   22  C11 UNL     1     -57.115  25.731 -30.298  1.00  0.00     0.000 C 
HETATM   23  C12 UNL     1     -56.843  26.532 -31.537  1.00  0.00     0.000 C 
HETATM   24  C13 UNL     1     -55.907  25.701 -32.400  1.00  0.00     0.005 C 
ENDBRANCH  19  20
ENDBRANCH  14  19
ENDBRANCH   1  14
TORSDOF 10
ENDMDL
MODEL 4
REMARK VINA RESULT: -6.262048106      1.638      2.195
REMARK  10 active torsions:
REMARK  status: ('A' for Active; 'I' for Inactive)
REMARK    1  A    between atoms: C3_3  and  C4_4 
REMARK    2  A    between atoms: C4_4  and  O1_5 
REMARK    3  A    between atoms: C4_4  and  S1_7 
REMARK    4  A    between atoms: S1_7  and  C5_8 
REMARK    5  A    between atoms: S1_7  and  C8_12 
REMARK    6  A    between atoms: C5_8  and  C6_9 
REMARK    7  A    between atoms: C6_9  and  C7_10 
REMARK    8  A    between atoms: C8_12  and  C9_13 
REMARK    9  A    between atoms: C14_19  and  O4_20 
REMARK   10  A    between atoms: C15_22  and  O5_23 
ROOT
HETATM    1  C4  UNL     1     -52.400  24.598 -32.398  1.00  0.00     0.228 C 
ENDROOT
BRANCH   1   2
HETATM    2  C3  UNL     1     -51.167  24.031 -31.801  1.00  0.00     0.102 A 
HETATM    3  C2  UNL     1     -51.022  23.796 -30.416  1.00  0.00     0.009 A 
HETATM    4  C1  UNL     1     -52.057  24.076 -29.391  1.00  0.00     0.054 C 
HETATM    5  C15 UNL     1     -49.774  23.272 -30.183  1.00  0.00     0.133 A 
HETATM    6  C14 UNL     1     -49.190  23.201 -31.430  1.00  0.00     0.218 A 
HETATM    7  O3  UNL     1     -50.037  23.649 -32.319  1.00  0.00    -0.286 OA
BRANCH   5   8
HETATM    8  O5  UNL     1     -49.226  22.899 -28.962  1.00  0.00    -0.356 OA
ATOM      9  H5  UNL     1     -48.306  22.854 -28.729  1.00  0.00     0.218 HD
ENDBRANCH   5   8
BRANCH   6  10
HETATM   10  O4  UNL     1     -47.908  22.727 -31.701  1.00  0.00    -0.339 OA
ATOM     11  H4  UNL     1     -47.640  22.288 -32.501  1.00  0.00     0.220 HD
ENDBRANCH   6  10
ENDBRANCH   1   2
BRANCH   1  12
HETATM   12  O1  UNL     1     -52.049  25.609 -33.276  1.00  0.00    -0.379 OA
ATOM     13  H1  UNL     1     -51.530  26.254 -32.810  1.00  0.00     0.211 HD
ENDBRANCH   1  12
BRANCH   1  14
HETATM   14  S1  UNL     1     -53.445  23.387 -32.997  1.00  0.00    -0.184 SA
BRANCH  14  15
HETATM   15  C5  UNL     1     -53.460  23.150 -34.733  1.00  0.00     0.073 C 
BRANCH  15  16
HETATM   16  C6  UNL     1     -54.531  22.202 -35.154  1.00  0.00     0.079 C 
BRANCH  16  17
HETATM   17  C7  UNL     1     -54.232  21.656 -36.528  1.00  0.00     0.231 C 
HETATM   18  O2  UNL     1     -53.358  22.153 -37.187  1.00  0.00    -0.307 OA
ENDBRANCH  16  17
ENDBRANCH  15  16
ENDBRANCH  14  15
BRANCH  14  19
HETATM   19  C8  UNL     1     -55.041  23.325 -32.279  1.00  0.00     0.070 C 
BRANCH  19  20
HETATM   20  C9  UNL     1     -55.291  24.451 -31.295  1.00  0.00    -0.006 C 
HETATM   21  C10 UNL     1     -56.088  23.832 -30.140  1.00  0.00     0.005 C 
HETATM   22  C11 UNL     1     -56.818  24.973 -29.505  1.00  0.00     0.000 C 
HETATM   23  C12 UNL     1     -57.067  25.955 -30.613  1.00  0.00     0.000 C 
HETATM   24  C13 UNL     1     -56.303  25.450 -31.826  1.00  0.00     0.005 C 
ENDBRANCH  19  20
ENDBRANCH  14  19
ENDBRANCH   1  14
TORSDOF 10
ENDMDL
MODEL 5
REMARK VINA RESULT: -6.174296393      2.795      5.553
REMARK  10 active torsions:
REMARK  status: ('A' for Active; 'I' for Inactive)
REMARK    1  A    between atoms: C3_3  and  C4_4 
REMARK    2  A    between atoms: C4_4  and  O1_5 
REMARK    3  A    between atoms: C4_4  and  S1_7 
REMARK    4  A    between atoms: S1_7  and  C5_8 
REMARK    5  A    between atoms: S1_7  and  C8_12 
REMARK    6  A    between atoms: C5_8  and  C6_9 
REMARK    7  A    between atoms: C6_9  and  C7_10 
REMARK    8  A    between atoms: C8_12  and  C9_13 
REMARK    9  A    between atoms: C14_19  and  O4_20 
REMARK   10  A    between atoms: C15_22  and  O5_23 
ROOT
HETATM    1  C4  UNL     1     -54.083  24.122 -31.118  1.00  0.00     0.228 C 
ENDROOT
BRANCH   1   2
HETATM    2  C3  UNL     1     -53.909  24.262 -29.652  1.00  0.00     0.102 A 
HETATM    3  C2  UNL     1     -54.943  23.998 -28.728  1.00  0.00     0.009 A 
HETATM    4  C1  UNL     1     -56.312  23.554 -29.084  1.00  0.00     0.054 C 
HETATM    5  C15 UNL     1     -54.470  24.220 -27.457  1.00  0.00     0.133 A 
HETATM    6  C14 UNL     1     -53.161  24.614 -27.640  1.00  0.00     0.218 A 
HETATM    7  O3  UNL     1     -52.896  24.619 -28.920  1.00  0.00    -0.286 OA
BRANCH   5   8
HETATM    8  O5  UNL     1     -55.159  24.079 -26.259  1.00  0.00    -0.356 OA
ATOM      9  H5  UNL     1     -56.083  24.231 -26.101  1.00  0.00     0.218 HD
ENDBRANCH   5   8
BRANCH   6  10
HETATM   10  O4  UNL     1     -52.265  24.952 -26.627  1.00  0.00    -0.339 OA
ATOM     11  H4  UNL     1     -52.503  25.234 -25.752  1.00  0.00     0.220 HD
ENDBRANCH   6  10
ENDBRANCH   1   2
BRANCH   1  12
HETATM   12  O1  UNL     1     -55.155  24.901 -31.519  1.00  0.00    -0.379 OA
ATOM     13  H1  UNL     1     -55.789  24.349 -31.961  1.00  0.00     0.211 HD
ENDBRANCH   1  12
BRANCH   1  14
HETATM   14  S1  UNL     1     -52.616  24.333 -31.968  1.00  0.00    -0.184 SA
BRANCH  14  15
HETATM   15  C5  UNL     1     -52.665  25.384 -33.370  1.00  0.00     0.073 C 
BRANCH  15  16
HETATM   16  C6  UNL     1     -52.853  24.614 -34.633  1.00  0.00     0.079 C 
BRANCH  16  17
HETATM   17  C7  UNL     1     -54.233  24.860 -35.191  1.00  0.00     0.231 C 
HETATM   18  O2  UNL     1     -55.121  25.194 -34.454  1.00  0.00    -0.307 OA
ENDBRANCH  16  17
ENDBRANCH  15  16
ENDBRANCH  14  15
BRANCH  14  19
HETATM   19  C8  UNL     1     -51.660  22.889 -32.221  1.00  0.00     0.070 C 
BRANCH  19  20
HETATM   20  C9  UNL     1     -50.220  23.046 -31.775  1.00  0.00    -0.006 C 
HETATM   21  C10 UNL     1     -49.518  21.733 -32.144  1.00  0.00     0.005 C 
HETATM   22  C11 UNL     1     -48.340  21.642 -31.227  1.00  0.00     0.000 C 
HETATM   23  C12 UNL     1     -48.752  22.356 -29.973  1.00  0.00     0.000 C 
HETATM   24  C13 UNL     1     -50.090  23.015 -30.264  1.00  0.00     0.005 C 
ENDBRANCH  19  20
ENDBRANCH  14  19
ENDBRANCH   1  14
TORSDOF 10
ENDMDL
