MODEL 1
REMARK VINA RESULT: -7.338512857      0.000      0.000
REMARK  3 active torsions:
REMARK  status: ('A' for Active; 'I' for Inactive)
REMARK    1  A    between atoms: C2_2  and  C3_3 
REMARK    2  A    between atoms: C3_3  and  C4_4 
REMARK    3  A    between atoms: C4_4  and  C5_5 
ROOT
HETATM    1  C5  UNL     1      -3.230   0.258  19.837  1.00  0.00    -0.017 C 
HETATM    2  N1  UNL     1      -2.989   1.439  20.300  1.00  0.00    -0.396 N 
ATOM      3  H1  UNL     1      -2.525   2.093  19.669  1.00  0.00     0.159 HD
HETATM    4  C6  UNL     1      -3.301   1.920  21.592  1.00  0.00     0.120 C 
HETATM    5  C7  UNL     1      -2.446   3.082  21.988  1.00  0.00     0.028 C 
HETATM    6  C8  UNL     1      -0.971   2.852  21.906  1.00  0.00     0.006 C 
HETATM    7  C9  UNL     1      -0.472   3.674  20.722  1.00  0.00     0.014 C 
HETATM    8  C10 UNL     1      -0.255   3.366  23.112  1.00  0.00    -0.012 C 
HETATM    9  C11 UNL     1       0.023   2.682  24.200  1.00  0.00    -0.019 C 
HETATM   10  C12 UNL     1       0.765   3.448  25.292  1.00  0.00     0.052 C 
HETATM   11  C13 UNL     1      -0.293   1.297  24.478  1.00  0.00     0.166 C 
HETATM   12  O1  UNL     1      -0.979   1.055  25.536  1.00  0.00    -0.292 OA
HETATM   13  C14 UNL     1       0.075   0.099  23.699  1.00  0.00     0.137 C 
HETATM   14  C15 UNL     1       0.974  -0.732  24.642  1.00  0.00     0.027 C 
HETATM   15  C16 UNL     1      -1.086  -0.802  23.421  1.00  0.00     0.197 C 
HETATM   16  O2  UNL     1      -1.751  -1.142  24.380  1.00  0.00    -0.285 OA
HETATM   17  S1  UNL     1      -1.394  -1.293  21.757  1.00  0.00    -0.091 SA
HETATM   18  C17 UNL     1      -3.059  -1.747  21.362  1.00  0.00     0.088 C 
HETATM   19  C18 UNL     1      -3.913  -0.744  20.692  1.00  0.00     0.062 C 
ENDROOT
BRANCH   1  20
HETATM   20  C4  UNL     1      -2.856  -0.134  18.457  1.00  0.00     0.052 C 
BRANCH  20  21
HETATM   21  C3  UNL     1      -3.123   0.850  17.382  1.00  0.00     0.005 C 
BRANCH  21  22
HETATM   22  C2  UNL     1      -4.628   0.688  17.061  1.00  0.00    -0.004 C 
HETATM   23  C1  UNL     1      -4.996   1.437  15.827  1.00  0.00     0.005 C 
ENDBRANCH  21  22
ENDBRANCH  20  21
ENDBRANCH   1  20
TORSDOF 3
ENDMDL
MODEL 2
REMARK VINA RESULT: -7.284444404      2.150      3.870
REMARK  3 active torsions:
REMARK  status: ('A' for Active; 'I' for Inactive)
REMARK    1  A    between atoms: C2_2  and  C3_3 
REMARK    2  A    between atoms: C3_3  and  C4_4 
REMARK    3  A    between atoms: C4_4  and  C5_5 
ROOT
HETATM    1  C5  UNL     1      -3.222   0.874  20.648  1.00  0.00    -0.017 C 
HETATM    2  N1  UNL     1      -3.129  -0.202  21.357  1.00  0.00    -0.396 N 
ATOM      3  H1  UNL     1      -4.003  -0.671  21.595  1.00  0.00     0.159 HD
HETATM    4  C6  UNL     1      -1.940  -0.797  21.836  1.00  0.00     0.120 C 
HETATM    5  C7  UNL     1      -2.183  -1.675  23.024  1.00  0.00     0.028 C 
HETATM    6  C8  UNL     1      -2.889  -1.024  24.169  1.00  0.00     0.006 C 
HETATM    7  C9  UNL     1      -4.291  -1.625  24.208  1.00  0.00     0.014 C 
HETATM    8  C10 UNL     1      -2.251  -1.351  25.479  1.00  0.00    -0.012 C 
HETATM    9  C11 UNL     1      -1.311  -0.654  26.081  1.00  0.00    -0.019 C 
HETATM   10  C12 UNL     1      -0.827  -1.209  27.418  1.00  0.00     0.052 C 
HETATM   11  C13 UNL     1      -0.688   0.570  25.622  1.00  0.00     0.166 C 
HETATM   12  O1  UNL     1       0.590   0.565  25.502  1.00  0.00    -0.292 OA
HETATM   13  C14 UNL     1      -1.333   1.849  25.268  1.00  0.00     0.137 C 
HETATM   14  C15 UNL     1      -0.779   2.872  26.286  1.00  0.00     0.027 C 
HETATM   15  C16 UNL     1      -0.892   2.384  23.943  1.00  0.00     0.197 C 
HETATM   16  O2  UNL     1       0.307   2.483  23.769  1.00  0.00    -0.285 OA
HETATM   17  S1  UNL     1      -2.120   2.823  22.758  1.00  0.00    -0.091 SA
HETATM   18  C17 UNL     1      -1.628   2.788  21.059  1.00  0.00     0.088 C 
HETATM   19  C18 UNL     1      -1.993   1.604  20.252  1.00  0.00     0.062 C 
ENDROOT
BRANCH   1  20
HETATM   20  C4  UNL     1      -4.531   1.406  20.199  1.00  0.00     0.052 C 
BRANCH  20  21
HETATM   21  C3  UNL     1      -5.472   0.443  19.582  1.00  0.00     0.005 C 
BRANCH  21  22
HETATM   22  C2  UNL     1      -5.263   0.605  18.057  1.00  0.00    -0.004 C 
HETATM   23  C1  UNL     1      -6.428   0.073  17.296  1.00  0.00     0.005 C 
ENDBRANCH  21  22
ENDBRANCH  20  21
ENDBRANCH   1  20
TORSDOF 3
ENDMDL
MODEL 3
REMARK VINA RESULT: -7.168877508      2.433      5.267
REMARK  3 active torsions:
REMARK  status: ('A' for Active; 'I' for Inactive)
REMARK    1  A    between atoms: C2_2  and  C3_3 
REMARK    2  A    between atoms: C3_3  and  C4_4 
REMARK    3  A    between atoms: C4_4  and  C5_5 
ROOT
HETATM    1  C5  UNL     1      -2.334   4.419  22.743  1.00  0.00    -0.017 C 
HETATM    2  N1  UNL     1      -2.411   3.670  21.694  1.00  0.00    -0.396 N 
ATOM      3  H1  UNL     1      -3.229   3.799  21.098  1.00  0.00     0.159 HD
HETATM    4  C6  UNL     1      -1.479   2.690  21.285  1.00  0.00     0.120 C 
HETATM    5  C7  UNL     1      -2.090   1.666  20.381  1.00  0.00     0.028 C 
HETATM    6  C8  UNL     1      -3.304   0.979  20.917  1.00  0.00     0.006 C 
HETATM    7  C9  UNL     1      -4.488   1.505  20.111  1.00  0.00     0.014 C 
HETATM    8  C10 UNL     1      -3.259  -0.497  20.691  1.00  0.00    -0.012 C 
HETATM    9  C11 UNL     1      -2.777  -1.395  21.523  1.00  0.00    -0.019 C 
HETATM   10  C12 UNL     1      -2.849  -2.844  21.047  1.00  0.00     0.052 C 
HETATM   11  C13 UNL     1      -2.190  -1.169  22.827  1.00  0.00     0.166 C 
HETATM   12  O1  UNL     1      -0.999  -1.608  23.015  1.00  0.00    -0.292 OA
HETATM   13  C14 UNL     1      -2.786  -0.489  23.994  1.00  0.00     0.137 C 
HETATM   14  C15 UNL     1      -2.873  -1.577  25.088  1.00  0.00     0.027 C 
HETATM   15  C16 UNL     1      -1.891   0.551  24.589  1.00  0.00     0.197 C 
HETATM   16  O2  UNL     1      -0.761   0.201  24.868  1.00  0.00    -0.285 OA
HETATM   17  S1  UNL     1      -2.532   2.174  24.836  1.00  0.00    -0.091 SA
HETATM   18  C17 UNL     1      -1.352   3.492  24.876  1.00  0.00     0.088 C 
HETATM   19  C18 UNL     1      -1.167   4.298  23.651  1.00  0.00     0.062 C 
ENDROOT
BRANCH   1  20
HETATM   20  C4  UNL     1      -3.378   5.420  23.070  1.00  0.00     0.052 C 
BRANCH  20  21
HETATM   21  C3  UNL     1      -3.894   6.244  21.953  1.00  0.00     0.005 C 
BRANCH  21  22
HETATM   22  C2  UNL     1      -2.721   7.182  21.577  1.00  0.00    -0.004 C 
HETATM   23  C1  UNL     1      -3.134   8.168  20.540  1.00  0.00     0.005 C 
ENDBRANCH  21  22
ENDBRANCH  20  21
ENDBRANCH   1  20
TORSDOF 3
ENDMDL
MODEL 4
REMARK VINA RESULT: -6.964600974      1.618      1.830
REMARK  3 active torsions:
REMARK  status: ('A' for Active; 'I' for Inactive)
REMARK    1  A    between atoms: C2_2  and  C3_3 
REMARK    2  A    between atoms: C3_3  and  C4_4 
REMARK    3  A    between atoms: C4_4  and  C5_5 
ROOT
HETATM    1  C5  UNL     1      -3.823  -0.193  21.864  1.00  0.00    -0.017 C 
HETATM    2  N1  UNL     1      -3.645   0.969  22.399  1.00  0.00    -0.396 N 
ATOM      3  H1  UNL     1      -3.664   1.771  21.769  1.00  0.00     0.159 HD
HETATM    4  C6  UNL     1      -3.427   1.244  23.768  1.00  0.00     0.120 C 
HETATM    5  C7  UNL     1      -2.744   2.558  23.983  1.00  0.00     0.028 C 
HETATM    6  C8  UNL     1      -1.456   2.739  23.247  1.00  0.00     0.006 C 
HETATM    7  C9  UNL     1      -1.730   3.756  22.143  1.00  0.00     0.014 C 
HETATM    8  C10 UNL     1      -0.393   3.329  24.114  1.00  0.00    -0.012 C 
HETATM    9  C11 UNL     1       0.483   2.660  24.832  1.00  0.00    -0.019 C 
HETATM   10  C12 UNL     1       1.466   3.508  25.636  1.00  0.00     0.052 C 
HETATM   11  C13 UNL     1       0.620   1.224  24.947  1.00  0.00     0.166 C 
HETATM   12  O1  UNL     1       0.555   0.724  26.128  1.00  0.00    -0.292 OA
HETATM   13  C14 UNL     1       0.829   0.234  23.873  1.00  0.00     0.137 C 
HETATM   14  C15 UNL     1       2.208  -0.397  24.173  1.00  0.00     0.027 C 
HETATM   15  C16 UNL     1      -0.119  -0.920  23.942  1.00  0.00     0.197 C 
HETATM   16  O2  UNL     1      -0.190  -1.501  25.007  1.00  0.00    -0.285 OA
HETATM   17  S1  UNL     1      -1.041  -1.342  22.501  1.00  0.00    -0.091 SA
HETATM   18  C17 UNL     1      -2.571  -2.193  22.763  1.00  0.00     0.088 C 
HETATM   19  C18 UNL     1      -3.822  -1.406  22.718  1.00  0.00     0.062 C 
ENDROOT
BRANCH   1  20
HETATM   20  C4  UNL     1      -4.046  -0.360  20.408  1.00  0.00     0.052 C 
BRANCH  20  21
HETATM   21  C3  UNL     1      -4.709   0.757  19.697  1.00  0.00     0.005 C 
BRANCH  21  22
HETATM   22  C2  UNL     1      -6.119   0.222  19.347  1.00  0.00    -0.004 C 
HETATM   23  C1  UNL     1      -6.318   0.160  17.872  1.00  0.00     0.005 C 
ENDBRANCH  21  22
ENDBRANCH  20  21
ENDBRANCH   1  20
TORSDOF 3
ENDMDL
MODEL 5
REMARK VINA RESULT: -6.693835335      2.765      6.880
REMARK  3 active torsions:
REMARK  status: ('A' for Active; 'I' for Inactive)
REMARK    1  A    between atoms: C2_2  and  C3_3 
REMARK    2  A    between atoms: C3_3  and  C4_4 
REMARK    3  A    between atoms: C4_4  and  C5_5 
ROOT
HETATM    1  C5  UNL     1      -1.649  -0.527  25.606  1.00  0.00    -0.017 C 
HETATM    2  N1  UNL     1      -2.306  -1.063  24.631  1.00  0.00    -0.396 N 
ATOM      3  H1  UNL     1      -1.980  -1.973  24.305  1.00  0.00     0.159 HD
HETATM    4  C6  UNL     1      -3.430  -0.519  23.970  1.00  0.00     0.120 C 
HETATM    5  C7  UNL     1      -3.615  -1.089  22.599  1.00  0.00     0.028 C 
HETATM    6  C8  UNL     1      -2.430  -0.983  21.695  1.00  0.00     0.006 C 
HETATM    7  C9  UNL     1      -1.877  -2.397  21.542  1.00  0.00     0.014 C 
HETATM    8  C10 UNL     1      -2.810  -0.526  20.324  1.00  0.00    -0.012 C 
HETATM    9  C11 UNL     1      -2.839   0.719  19.902  1.00  0.00    -0.019 C 
HETATM   10  C12 UNL     1      -3.266   0.916  18.450  1.00  0.00     0.052 C 
HETATM   11  C13 UNL     1      -2.516   1.915  20.652  1.00  0.00     0.166 C 
HETATM   12  O1  UNL     1      -3.423   2.821  20.724  1.00  0.00    -0.292 OA
HETATM   13  C14 UNL     1      -1.263   2.243  21.358  1.00  0.00     0.137 C 
HETATM   14  C15 UNL     1      -0.711   3.493  20.634  1.00  0.00     0.027 C 
HETATM   15  C16 UNL     1      -1.482   2.707  22.763  1.00  0.00     0.197 C 
HETATM   16  O2  UNL     1      -2.274   3.616  22.917  1.00  0.00    -0.285 OA
HETATM   17  S1  UNL     1      -0.593   1.916  24.062  1.00  0.00    -0.091 SA
HETATM   18  C17 UNL     1      -1.324   1.976  25.672  1.00  0.00     0.088 C 
HETATM   19  C18 UNL     1      -2.071   0.790  26.143  1.00  0.00     0.062 C 
ENDROOT
BRANCH   1  20
HETATM   20  C4  UNL     1      -0.480  -1.196  26.225  1.00  0.00     0.052 C 
BRANCH  20  21
HETATM   21  C3  UNL     1      -0.381  -1.148  27.701  1.00  0.00     0.005 C 
BRANCH  21  22
HETATM   22  C2  UNL     1       0.788  -0.174  27.988  1.00  0.00    -0.004 C 
HETATM   23  C1  UNL     1       0.390   0.864  28.979  1.00  0.00     0.005 C 
ENDBRANCH  21  22
ENDBRANCH  20  21
ENDBRANCH   1  20
TORSDOF 3
ENDMDL
