MODEL 1
REMARK VINA RESULT: -6.130067173      0.000      0.000
REMARK  4 active torsions:
REMARK  status: ('A' for Active; 'I' for Inactive)
REMARK    1  A    between atoms: S1_2  and  C2_3 
REMARK    2  A    between atoms: C2_3  and  O1_7 
REMARK    3  A    between atoms: O1_7  and  C3_8 
REMARK    4  A    between atoms: C5_11  and  C6_12 
ROOT
HETATM    1  C3  UNL     1     -21.763 -25.101 -14.746  1.00  0.00     0.159 C 
HETATM    2  C4  UNL     1     -22.571 -23.969 -14.353  1.00  0.00     0.125 C 
HETATM    3  N2  UNL     1     -23.227 -23.070 -14.035  1.00  0.00    -0.189 NA
HETATM    4  C5  UNL     1     -21.976 -26.257 -14.161  1.00  0.00     0.067 C 
ENDROOT
BRANCH   1   5
HETATM    5  O1  UNL     1     -20.787 -25.010 -15.702  1.00  0.00    -0.277 OA
BRANCH   5   6
HETATM    6  C2  UNL     1     -21.002 -24.424 -16.928  1.00  0.00     0.181 C 
HETATM    7  N1  UNL     1     -20.660 -23.193 -17.072  1.00  0.00    -0.374 N 
ATOM      8  H12 UNL     1     -20.819 -22.758 -17.982  1.00  0.00     0.158 HD
ATOM      9  H11 UNL     1     -20.243 -22.690 -16.288  1.00  0.00     0.158 HD
BRANCH   6  10
HETATM   10  S1  UNL     1     -21.729 -25.302 -18.296  1.00  0.00    -0.091 SA
HETATM   11  C1  UNL     1     -21.205 -27.025 -18.317  1.00  0.00     0.099 C 
ENDBRANCH   6  10
ENDBRANCH   5   6
ENDBRANCH   1   5
BRANCH   4  12
HETATM   12  C6  UNL     1     -21.167 -27.426 -14.541  1.00  0.00     0.009 A 
HETATM   13  C7  UNL     1     -21.533 -28.620 -15.090  1.00  0.00     0.038 A 
HETATM   14  C8  UNL     1     -20.562 -29.524 -15.331  1.00  0.00     0.018 A 
HETATM   15 BR1  UNL     1     -20.905 -31.270 -16.105  1.00  0.00    -0.051 Br
HETATM   16  C9  UNL     1     -19.285 -29.171 -15.005  1.00  0.00     0.069 A 
HETATM   17  S2  UNL     1     -19.468 -27.599 -14.375  1.00  0.00    -0.101 SA
ENDBRANCH   4  12
TORSDOF 4
ENDMDL
MODEL 2
REMARK VINA RESULT: -5.955982102      1.316      1.747
REMARK  4 active torsions:
REMARK  status: ('A' for Active; 'I' for Inactive)
REMARK    1  A    between atoms: S1_2  and  C2_3 
REMARK    2  A    between atoms: C2_3  and  O1_7 
REMARK    3  A    between atoms: O1_7  and  C3_8 
REMARK    4  A    between atoms: C5_11  and  C6_12 
ROOT
HETATM    1  C3  UNL     1     -21.858 -25.727 -15.130  1.00  0.00     0.159 C 
HETATM    2  C4  UNL     1     -22.375 -24.456 -14.674  1.00  0.00     0.125 C 
HETATM    3  N2  UNL     1     -22.792 -23.444 -14.297  1.00  0.00    -0.189 NA
HETATM    4  C5  UNL     1     -21.559 -26.640 -14.236  1.00  0.00     0.067 C 
ENDROOT
BRANCH   1   5
HETATM    5  O1  UNL     1     -21.670 -26.009 -16.457  1.00  0.00    -0.277 OA
BRANCH   5   6
HETATM    6  C2  UNL     1     -21.346 -25.043 -17.382  1.00  0.00     0.181 C 
HETATM    7  N1  UNL     1     -22.176 -24.831 -18.342  1.00  0.00    -0.374 N 
ATOM      8  H12 UNL     1     -21.935 -24.115 -19.028  1.00  0.00     0.158 HD
ATOM      9  H11 UNL     1     -23.039 -25.373 -18.392  1.00  0.00     0.158 HD
BRANCH   6  10
HETATM   10  S1  UNL     1     -19.840 -24.098 -17.294  1.00  0.00    -0.091 SA
HETATM   11  C1  UNL     1     -20.177 -22.369 -16.920  1.00  0.00     0.099 C 
ENDBRANCH   6  10
ENDBRANCH   5   6
ENDBRANCH   1   5
BRANCH   4  12
HETATM   12  C6  UNL     1     -21.030 -27.942 -14.673  1.00  0.00     0.009 A 
HETATM   13  C7  UNL     1     -21.677 -29.089 -15.031  1.00  0.00     0.038 A 
HETATM   14  C8  UNL     1     -20.922 -30.148 -15.389  1.00  0.00     0.018 A 
HETATM   15 BR1  UNL     1     -21.676 -31.855 -15.923  1.00  0.00    -0.051 Br
HETATM   16  C9  UNL     1     -19.568 -29.988 -15.364  1.00  0.00     0.069 A 
HETATM   17  S2  UNL     1     -19.379 -28.376 -14.847  1.00  0.00    -0.101 SA
ENDBRANCH   4  12
TORSDOF 4
ENDMDL
MODEL 3
REMARK VINA RESULT: -5.937058181      2.172      2.975
REMARK  4 active torsions:
REMARK  status: ('A' for Active; 'I' for Inactive)
REMARK    1  A    between atoms: S1_2  and  C2_3 
REMARK    2  A    between atoms: C2_3  and  O1_7 
REMARK    3  A    between atoms: O1_7  and  C3_8 
REMARK    4  A    between atoms: C5_11  and  C6_12 
ROOT
HETATM    1  C3  UNL     1     -21.547 -26.217 -16.783  1.00  0.00     0.159 C 
HETATM    2  C4  UNL     1     -22.051 -25.336 -17.813  1.00  0.00     0.125 C 
HETATM    3  N2  UNL     1     -22.449 -24.638 -18.646  1.00  0.00    -0.189 NA
HETATM    4  C5  UNL     1     -21.253 -27.455 -17.107  1.00  0.00     0.067 C 
ENDROOT
BRANCH   1   5
HETATM    5  O1  UNL     1     -21.368 -25.807 -15.490  1.00  0.00    -0.277 OA
BRANCH   5   6
HETATM    6  C2  UNL     1     -20.679 -24.661 -15.163  1.00  0.00     0.181 C 
HETATM    7  N1  UNL     1     -19.399 -24.677 -15.285  1.00  0.00    -0.374 N 
ATOM      8  H12 UNL     1     -18.889 -23.827 -15.043  1.00  0.00     0.158 HD
ATOM      9  H11 UNL     1     -18.933 -25.522 -15.616  1.00  0.00     0.158 HD
BRANCH   6  10
HETATM   10  S1  UNL     1     -21.491 -23.187 -14.585  1.00  0.00    -0.091 SA
HETATM   11  C1  UNL     1     -23.161 -23.544 -14.012  1.00  0.00     0.099 C 
ENDBRANCH   6  10
ENDBRANCH   5   6
ENDBRANCH   1   5
BRANCH   4  12
HETATM   12  C6  UNL     1     -20.739 -28.374 -16.078  1.00  0.00     0.009 A 
HETATM   13  C7  UNL     1     -21.327 -29.445 -15.470  1.00  0.00     0.038 A 
HETATM   14  C8  UNL     1     -20.609 -30.111 -14.543  1.00  0.00     0.018 A 
HETATM   15 BR1  UNL     1     -21.290 -31.653 -13.581  1.00  0.00    -0.051 Br
HETATM   16  C9  UNL     1     -19.347 -29.661 -14.287  1.00  0.00     0.069 A 
HETATM   17  S2  UNL     1     -19.193 -28.328 -15.336  1.00  0.00    -0.101 SA
ENDBRANCH   4  12
TORSDOF 4
ENDMDL
MODEL 4
REMARK VINA RESULT: -5.915143349      2.248      3.755
REMARK  4 active torsions:
REMARK  status: ('A' for Active; 'I' for Inactive)
REMARK    1  A    between atoms: S1_2  and  C2_3 
REMARK    2  A    between atoms: C2_3  and  O1_7 
REMARK    3  A    between atoms: O1_7  and  C3_8 
REMARK    4  A    between atoms: C5_11  and  C6_12 
ROOT
HETATM    1  C3  UNL     1     -20.545 -25.426 -17.310  1.00  0.00     0.159 C 
HETATM    2  C4  UNL     1     -20.633 -24.010 -17.031  1.00  0.00     0.125 C 
HETATM    3  N2  UNL     1     -20.710 -22.875 -16.819  1.00  0.00    -0.189 NA
HETATM    4  C5  UNL     1     -21.437 -25.964 -18.109  1.00  0.00     0.067 C 
ENDROOT
BRANCH   1   5
HETATM    5  O1  UNL     1     -19.569 -26.221 -16.773  1.00  0.00    -0.277 OA
BRANCH   5   6
HETATM    6  C2  UNL     1     -19.235 -26.187 -15.438  1.00  0.00     0.181 C 
HETATM    7  N1  UNL     1     -18.756 -25.090 -14.968  1.00  0.00    -0.374 N 
ATOM      8  H12 UNL     1     -18.509 -25.065 -13.978  1.00  0.00     0.158 HD
ATOM      9  H11 UNL     1     -18.638 -24.286 -15.584  1.00  0.00     0.158 HD
BRANCH   6  10
HETATM   10  S1  UNL     1     -19.442 -27.591 -14.363  1.00  0.00    -0.091 SA
HETATM   11  C1  UNL     1     -18.575 -29.035 -15.002  1.00  0.00     0.099 C 
ENDBRANCH   6  10
ENDBRANCH   5   6
ENDBRANCH   1   5
BRANCH   4  12
HETATM   12  C6  UNL     1     -21.372 -27.403 -18.409  1.00  0.00     0.009 A 
HETATM   13  C7  UNL     1     -21.325 -28.483 -17.577  1.00  0.00     0.038 A 
HETATM   14  C8  UNL     1     -21.263 -29.707 -18.140  1.00  0.00     0.018 A 
HETATM   15 BR1  UNL     1     -21.188 -31.348 -17.107  1.00  0.00    -0.051 Br
HETATM   16  C9  UNL     1     -21.254 -29.768 -19.503  1.00  0.00     0.069 A 
HETATM   17  S2  UNL     1     -21.331 -28.130 -19.963  1.00  0.00    -0.101 SA
ENDBRANCH   4  12
TORSDOF 4
ENDMDL
MODEL 5
REMARK VINA RESULT: -5.679820774      1.785      2.224
REMARK  4 active torsions:
REMARK  status: ('A' for Active; 'I' for Inactive)
REMARK    1  A    between atoms: S1_2  and  C2_3 
REMARK    2  A    between atoms: C2_3  and  O1_7 
REMARK    3  A    between atoms: O1_7  and  C3_8 
REMARK    4  A    between atoms: C5_11  and  C6_12 
ROOT
HETATM    1  C3  UNL     1     -21.757 -25.827 -15.042  1.00  0.00     0.159 C 
HETATM    2  C4  UNL     1     -22.361 -24.590 -14.599  1.00  0.00     0.125 C 
HETATM    3  N2  UNL     1     -22.847 -23.605 -14.234  1.00  0.00    -0.189 NA
HETATM    4  C5  UNL     1     -21.376 -26.698 -14.136  1.00  0.00     0.067 C 
ENDROOT
BRANCH   1   5
HETATM    5  O1  UNL     1     -21.570 -26.120 -16.366  1.00  0.00    -0.277 OA
BRANCH   5   6
HETATM    6  C2  UNL     1     -21.282 -25.157 -17.306  1.00  0.00     0.181 C 
HETATM    7  N1  UNL     1     -22.129 -24.974 -18.255  1.00  0.00    -0.374 N 
ATOM      8  H12 UNL     1     -21.916 -24.260 -18.952  1.00  0.00     0.158 HD
ATOM      9  H11 UNL     1     -22.980 -25.537 -18.288  1.00  0.00     0.158 HD
BRANCH   6  10
HETATM   10  S1  UNL     1     -19.798 -24.175 -17.248  1.00  0.00    -0.091 SA
HETATM   11  C1  UNL     1     -20.163 -22.464 -16.820  1.00  0.00     0.099 C 
ENDBRANCH   6  10
ENDBRANCH   5   6
ENDBRANCH   1   5
BRANCH   4  12
HETATM   12  C6  UNL     1     -20.758 -27.965 -14.559  1.00  0.00     0.009 A 
HETATM   13  C7  UNL     1     -19.446 -28.337 -14.619  1.00  0.00     0.038 A 
HETATM   14  C8  UNL     1     -19.167 -29.581 -15.058  1.00  0.00     0.018 A 
HETATM   15 BR1  UNL     1     -17.360 -30.272 -15.208  1.00  0.00    -0.051 Br
HETATM   16  C9  UNL     1     -20.222 -30.371 -15.409  1.00  0.00     0.069 A 
HETATM   17  S2  UNL     1     -21.569 -29.369 -15.120  1.00  0.00    -0.101 SA
ENDBRANCH   4  12
TORSDOF 4
ENDMDL
