MODEL 1
REMARK VINA RESULT: -8.704150260      0.000      0.000
REMARK  1 active torsions:
REMARK  status: ('A' for Active; 'I' for Inactive)
REMARK    1  A    between atoms: N1_8  and  C5_9 
ROOT
HETATM    1  O1  UNL     1     -21.835 -25.171 -18.527  1.00  0.00    -0.267 OA
HETATM    2  C1  UNL     1     -21.610 -26.279 -17.925  1.00  0.00     0.258 A 
HETATM    3  C2  UNL     1     -21.515 -27.377 -18.737  1.00  0.00     0.044 A 
HETATM    4  C3  UNL     1     -21.279 -28.664 -18.311  1.00  0.00     0.084 A 
HETATM    5  S1  UNL     1     -21.106 -28.785 -16.609  1.00  0.00    -0.042 SA
HETATM    6  C4  UNL     1     -21.263 -27.292 -15.809  1.00  0.00     0.150 A 
HETATM    7  S2  UNL     1     -21.138 -27.156 -14.199  1.00  0.00    -0.052 SA
HETATM    8  N1  UNL     1     -21.501 -26.212 -16.611  1.00  0.00    -0.294 N 
HETATM    9  N2  UNL     1     -21.190 -29.766 -19.206  1.00  0.00    -0.384 N 
ATOM     10  H2  UNL     1     -20.874 -30.666 -18.848  1.00  0.00     0.160 HD
HETATM   11  C11 UNL     1     -21.535 -29.653 -20.609  1.00  0.00     0.120 C 
HETATM   12  C12 UNL     1     -21.039 -28.261 -21.023  1.00  0.00     0.024 C 
HETATM   13  C13 UNL     1     -21.680 -27.186 -20.225  1.00  0.00     0.049 C 
ENDROOT
BRANCH   8  14
HETATM   14  C5  UNL     1     -21.636 -24.922 -15.917  1.00  0.00     0.094 C 
HETATM   15  C6  UNL     1     -20.358 -24.158 -15.822  1.00  0.00     0.026 C 
HETATM   16  C7  UNL     1     -20.708 -22.733 -15.448  1.00  0.00     0.002 C 
HETATM   17  C8  UNL     1     -21.595 -22.620 -14.263  1.00  0.00     0.000 C 
HETATM   18  C9  UNL     1     -22.739 -23.601 -14.222  1.00  0.00     0.002 C 
HETATM   19  C10 UNL     1     -22.250 -25.020 -14.564  1.00  0.00     0.026 C 
ENDBRANCH   8  14
TORSDOF 1
ENDMDL
MODEL 2
REMARK VINA RESULT: -8.373675062      3.367      5.508
REMARK  1 active torsions:
REMARK  status: ('A' for Active; 'I' for Inactive)
REMARK    1  A    between atoms: N1_8  and  C5_9 
ROOT
HETATM    1  O1  UNL     1     -20.966 -28.253 -15.263  1.00  0.00    -0.267 OA
HETATM    2  C1  UNL     1     -21.048 -28.755 -16.438  1.00  0.00     0.258 A 
HETATM    3  C2  UNL     1     -21.296 -27.858 -17.441  1.00  0.00     0.044 A 
HETATM    4  C3  UNL     1     -21.424 -28.170 -18.775  1.00  0.00     0.084 A 
HETATM    5  S1  UNL     1     -21.241 -29.846 -19.091  1.00  0.00    -0.042 SA
HETATM    6  C4  UNL     1     -20.941 -30.766 -17.692  1.00  0.00     0.150 A 
HETATM    7  S2  UNL     1     -20.733 -32.372 -17.741  1.00  0.00    -0.052 SA
HETATM    8  N1  UNL     1     -20.885 -30.063 -16.522  1.00  0.00    -0.294 N 
HETATM    9  N2  UNL     1     -21.681 -27.190 -19.773  1.00  0.00    -0.384 N 
ATOM     10  H2  UNL     1     -21.624 -27.460 -20.755  1.00  0.00     0.160 HD
HETATM   11  C11 UNL     1     -22.022 -25.821 -19.443  1.00  0.00     0.120 C 
HETATM   12  C12 UNL     1     -21.162 -25.488 -18.217  1.00  0.00     0.024 C 
HETATM   13  C13 UNL     1     -21.445 -26.400 -17.080  1.00  0.00     0.049 C 
ENDROOT
BRANCH   8  14
HETATM   14  C5  UNL     1     -20.625 -30.860 -15.313  1.00  0.00     0.094 C 
HETATM   15  C6  UNL     1     -21.751 -30.845 -14.334  1.00  0.00     0.026 C 
HETATM   16  C7  UNL     1     -21.517 -31.978 -13.356  1.00  0.00     0.002 C 
HETATM   17  C8  UNL     1     -20.161 -31.985 -12.753  1.00  0.00     0.000 C 
HETATM   18  C9  UNL     1     -19.030 -31.712 -13.711  1.00  0.00     0.002 C 
HETATM   19  C10 UNL     1     -19.360 -30.506 -14.611  1.00  0.00     0.026 C 
ENDBRANCH   8  14
TORSDOF 1
ENDMDL
MODEL 3
REMARK VINA RESULT: -8.353296648      2.233      3.195
REMARK  1 active torsions:
REMARK  status: ('A' for Active; 'I' for Inactive)
REMARK    1  A    between atoms: N1_8  and  C5_9 
ROOT
HETATM    1  O1  UNL     1     -21.501 -27.191 -14.139  1.00  0.00    -0.267 OA
HETATM    2  C1  UNL     1     -21.458 -27.425 -15.398  1.00  0.00     0.258 A 
HETATM    3  C2  UNL     1     -21.290 -28.738 -15.745  1.00  0.00     0.044 A 
HETATM    4  C3  UNL     1     -21.216 -29.219 -17.031  1.00  0.00     0.084 A 
HETATM    5  S1  UNL     1     -21.356 -27.986 -18.216  1.00  0.00    -0.042 SA
HETATM    6  C4  UNL     1     -21.556 -26.434 -17.551  1.00  0.00     0.150 A 
HETATM    7  S2  UNL     1     -21.710 -25.111 -18.474  1.00  0.00    -0.052 SA
HETATM    8  N1  UNL     1     -21.580 -26.372 -16.186  1.00  0.00    -0.294 N 
HETATM    9  N2  UNL     1     -21.041 -30.599 -17.328  1.00  0.00    -0.384 N 
ATOM     10  H2  UNL     1     -21.136 -30.911 -18.294  1.00  0.00     0.160 HD
HETATM   11  C11 UNL     1     -20.733 -31.577 -16.304  1.00  0.00     0.120 C 
HETATM   12  C12 UNL     1     -21.543 -31.131 -15.080  1.00  0.00     0.024 C 
HETATM   13  C13 UNL     1     -21.175 -29.762 -14.642  1.00  0.00     0.049 C 
ENDROOT
BRANCH   8  14
HETATM   14  C5  UNL     1     -21.753 -25.028 -15.613  1.00  0.00     0.094 C 
HETATM   15  C6  UNL     1     -20.475 -24.274 -15.463  1.00  0.00     0.026 C 
HETATM   16  C7  UNL     1     -20.831 -22.819 -15.238  1.00  0.00     0.002 C 
HETATM   17  C8  UNL     1     -21.820 -22.599 -14.154  1.00  0.00     0.000 C 
HETATM   18  C9  UNL     1     -22.981 -23.560 -14.139  1.00  0.00     0.002 C 
HETATM   19  C10 UNL     1     -22.490 -25.009 -14.319  1.00  0.00     0.026 C 
ENDBRANCH   8  14
TORSDOF 1
ENDMDL
MODEL 4
REMARK VINA RESULT: -8.083683600      3.011      6.234
REMARK  1 active torsions:
REMARK  status: ('A' for Active; 'I' for Inactive)
REMARK    1  A    between atoms: N1_8  and  C5_9 
ROOT
HETATM    1  O1  UNL     1     -21.174 -29.634 -18.855  1.00  0.00    -0.267 OA
HETATM    2  C1  UNL     1     -21.245 -29.192 -17.655  1.00  0.00     0.258 A 
HETATM    3  C2  UNL     1     -21.310 -27.831 -17.535  1.00  0.00     0.044 A 
HETATM    4  C3  UNL     1     -21.391 -27.139 -16.349  1.00  0.00     0.084 A 
HETATM    5  S1  UNL     1     -21.405 -28.165 -14.974  1.00  0.00    -0.042 SA
HETATM    6  C4  UNL     1     -21.315 -29.818 -15.368  1.00  0.00     0.150 A 
HETATM    7  S2  UNL     1     -21.313 -30.977 -14.236  1.00  0.00    -0.052 SA
HETATM    8  N1  UNL     1     -21.246 -30.106 -16.702  1.00  0.00    -0.294 N 
HETATM    9  N2  UNL     1     -21.456 -25.719 -16.289  1.00  0.00    -0.384 N 
ATOM     10  H2  UNL     1     -21.658 -25.273 -15.395  1.00  0.00     0.160 HD
HETATM   11  C11 UNL     1     -21.246 -24.886 -17.456  1.00  0.00     0.120 C 
HETATM   12  C12 UNL     1     -21.899 -25.656 -18.610  1.00  0.00     0.024 C 
HETATM   13  C13 UNL     1     -21.292 -26.997 -18.794  1.00  0.00     0.049 C 
ENDROOT
BRANCH   8  14
HETATM   14  C5  UNL     1     -21.169 -31.536 -17.039  1.00  0.00     0.094 C 
HETATM   15  C6  UNL     1     -19.845 -31.949 -17.589  1.00  0.00     0.026 C 
HETATM   16  C7  UNL     1     -19.779 -33.461 -17.527  1.00  0.00     0.002 C 
HETATM   17  C8  UNL     1     -20.950 -34.142 -18.134  1.00  0.00     0.000 C 
HETATM   18  C9  UNL     1     -22.289 -33.536 -17.799  1.00  0.00     0.002 C 
HETATM   19  C10 UNL     1     -22.247 -32.004 -17.953  1.00  0.00     0.026 C 
ENDBRANCH   8  14
TORSDOF 1
ENDMDL
MODEL 5
REMARK VINA RESULT: -8.046876511      3.463      5.976
REMARK  1 active torsions:
REMARK  status: ('A' for Active; 'I' for Inactive)
REMARK    1  A    between atoms: N1_8  and  C5_9 
ROOT
HETATM    1  O1  UNL     1     -20.938 -28.759 -15.666  1.00  0.00    -0.267 OA
HETATM    2  C1  UNL     1     -21.047 -28.936 -16.930  1.00  0.00     0.258 A 
HETATM    3  C2  UNL     1     -21.315 -27.809 -17.657  1.00  0.00     0.044 A 
HETATM    4  C3  UNL     1     -21.473 -27.761 -19.023  1.00  0.00     0.084 A 
HETATM    5  S1  UNL     1     -21.300 -29.296 -19.771  1.00  0.00    -0.042 SA
HETATM    6  C4  UNL     1     -20.971 -30.548 -18.668  1.00  0.00     0.150 A 
HETATM    7  S2  UNL     1     -20.767 -32.085 -19.140  1.00  0.00    -0.052 SA
HETATM    8  N1  UNL     1     -20.888 -30.176 -17.356  1.00  0.00    -0.294 N 
HETATM    9  N2  UNL     1     -21.750 -26.555 -19.724  1.00  0.00    -0.384 N 
ATOM     10  H2  UNL     1     -21.715 -26.559 -20.743  1.00  0.00     0.160 HD
HETATM   11  C11 UNL     1     -22.080 -25.321 -19.039  1.00  0.00     0.120 C 
HETATM   12  C12 UNL     1     -21.194 -25.318 -17.788  1.00  0.00     0.024 C 
HETATM   13  C13 UNL     1     -21.453 -26.496 -16.924  1.00  0.00     0.049 C 
ENDROOT
BRANCH   8  14
HETATM   14  C5  UNL     1     -20.603 -31.261 -16.404  1.00  0.00     0.094 C 
HETATM   15  C6  UNL     1     -21.668 -31.448 -15.376  1.00  0.00     0.026 C 
HETATM   16  C7  UNL     1     -21.441 -32.799 -14.729  1.00  0.00     0.002 C 
HETATM   17  C8  UNL     1     -20.055 -33.010 -14.242  1.00  0.00     0.000 C 
HETATM   18  C9  UNL     1     -18.968 -32.549 -15.179  1.00  0.00     0.002 C 
HETATM   19  C10 UNL     1     -19.282 -31.144 -15.726  1.00  0.00     0.026 C 
ENDBRANCH   8  14
TORSDOF 1
ENDMDL
