MODEL 1
REMARK VINA RESULT: -7.964422983      0.000      0.000
REMARK  15 active torsions:
REMARK  status: ('A' for Active; 'I' for Inactive)
REMARK    1  A    between atoms: O1_2  and  C2_3 
REMARK    2  A    between atoms: C2_3  and  O2_4 
REMARK    3  A    between atoms: C2_3  and  C3_6 
REMARK    4  A    between atoms: C3_6  and  C4_7 
REMARK    5  A    between atoms: C3_6  and  N1_13 
REMARK    6  A    between atoms: C4_7  and  O3_8 
REMARK    7  A    between atoms: C4_7  and  C5_10 
REMARK    8  A    between atoms: C5_10  and  O4_11 
REMARK    9  A    between atoms: C6_18  and  C7_19 
REMARK   10  A    between atoms: C7_19  and  N4_20 
REMARK   11  A    between atoms: C9_28  and  C10_29 
REMARK   12  A    between atoms: C11_30  and  O5_31 
REMARK   13  A    between atoms: C12_35  and  N9_36 
REMARK   14  A    between atoms: C13_41  and  N11_42 
REMARK   15  A    between atoms: C14_45  and  O6_46 
ROOT
HETATM    1  N4  UNL     1       2.790   6.150   9.966  1.00  0.00    -0.221 N 
HETATM    2  N5  UNL     1       3.549   6.662  10.925  1.00  0.00    -0.222 N 
ATOM      3  H5  UNL     1       3.978   7.577  10.789  1.00  0.00     0.209 HD
HETATM    4  N6  UNL     1       3.758   6.007  12.054  1.00  0.00    -0.116 N 
ATOM      5  H6  UNL     1       4.348   6.442  12.763  1.00  0.00     0.207 HD
HETATM    6  C8  UNL     1       3.230   4.791  12.317  1.00  0.00     0.711 A 
HETATM    7  N7  UNL     1       3.300   3.949  13.369  1.00  0.00    -0.184 N 
ATOM      8  H7  UNL     1       3.819   4.108  14.233  1.00  0.00     0.184 HD
HETATM    9  C9  UNL     1       2.564   2.859  13.077  1.00  0.00     0.119 A 
HETATM   10  C14 UNL     1       2.050   3.073  11.822  1.00  0.00     0.197 A 
HETATM   11  N12 UNL     1       2.452   4.257  11.341  1.00  0.00    -0.069 N 
HETATM   12  C15 UNL     1       2.258   4.949  10.205  1.00  0.00     0.365 A 
HETATM   13  O7  UNL     1       1.533   4.445   9.302  1.00  0.00    -0.244 OA
ENDROOT
BRANCH   1  14
HETATM   14  C7  UNL     1       2.575   6.879   8.749  1.00  0.00     0.217 C 
BRANCH  14  15
HETATM   15  C6  UNL     1       2.989   8.286   8.881  1.00  0.00     0.090 A 
HETATM   16  N3  UNL     1       2.303   9.367   9.256  1.00  0.00    -0.285 N 
HETATM   17  N2  UNL     1       3.054  10.434   9.239  1.00  0.00    -0.234 N 
ATOM     18  H3  UNL     1       1.318   9.361   9.521  1.00  0.00     0.188 HD
HETATM   19  N1  UNL     1       4.305  10.092   8.842  1.00  0.00    -0.227 N 
ATOM     20  H2  UNL     1       2.750  11.375   9.486  1.00  0.00     0.209 HD
HETATM   21  C16 UNL     1       4.275   8.771   8.619  1.00  0.00     0.165 A 
HETATM   22  N13 UNL     1       5.321   7.932   8.187  1.00  0.00    -0.078 NA
BRANCH  19  23
HETATM   23  C3  UNL     1       5.408  11.002   8.705  1.00  0.00     0.100 C 
BRANCH  23  24
HETATM   24  C2  UNL     1       5.939  11.218   7.337  1.00  0.00     0.308 C 
BRANCH  24  25
HETATM   25  O1  UNL     1       7.277  10.974   7.248  1.00  0.00    -0.361 OA
HETATM   26  C1  UNL     1       7.534  10.090   6.211  1.00  0.00     0.205 C 
ENDBRANCH  24  25
BRANCH  24  27
HETATM   27  O2  UNL     1       5.164  10.648   6.310  1.00  0.00    -0.366 OA
ATOM     28  H2  UNL     1       4.330  10.290   6.591  1.00  0.00     0.213 HD
ENDBRANCH  24  27
ENDBRANCH  23  24
BRANCH  23  29
HETATM   29  C4  UNL     1       5.251  12.283   9.505  1.00  0.00     0.194 C 
BRANCH  29  30
HETATM   30  O3  UNL     1       4.796  12.046  10.785  1.00  0.00    -0.387 OA
ATOM     31  H3  UNL     1       3.880  11.795  10.800  1.00  0.00     0.210 HD
ENDBRANCH  29  30
BRANCH  29  32
HETATM   32  C5  UNL     1       4.347  13.235   8.744  1.00  0.00     0.202 C 
BRANCH  32  33
HETATM   33  O4  UNL     1       3.233  13.501   9.503  1.00  0.00    -0.398 OA
ATOM     34  H4  UNL     1       2.499  13.680   8.927  1.00  0.00     0.209 HD
ENDBRANCH  32  33
ENDBRANCH  29  32
ENDBRANCH  23  29
ENDBRANCH  19  23
ENDBRANCH  14  15
ENDBRANCH   1  14
BRANCH  10  35
HETATM   35  O6  UNL     1       1.233   2.186  11.150  1.00  0.00    -0.344 OA
ATOM     36  H6  UNL     1       1.436   1.800  10.306  1.00  0.00     0.219 HD
ENDBRANCH  10  35
BRANCH   9  37
HETATM   37  C10 UNL     1       2.328   1.683  13.884  1.00  0.00     0.091 A 
HETATM   38  C11 UNL     1       3.286   0.719  14.091  1.00  0.00     0.171 A 
HETATM   39  N8  UNL     1       3.010  -0.375  14.863  1.00  0.00    -0.170 N 
HETATM   40  C12 UNL     1       1.805  -0.534  15.433  1.00  0.00     0.679 A 
ATOM     41  H8  UNL     1       3.732  -1.082  15.008  1.00  0.00     0.186 HD
HETATM   42  N10 UNL     1       0.874   0.401  15.231  1.00  0.00    -0.176 N 
HETATM   43  C13 UNL     1       1.105   1.493  14.479  1.00  0.00     0.131 A 
ATOM     44  H10 UNL     1      -0.044   0.285  15.662  1.00  0.00     0.186 HD
BRANCH  38  45
HETATM   45  O5  UNL     1       4.528   0.888  13.501  1.00  0.00    -0.345 OA
ATOM     46  H5  UNL     1       4.650   0.582  12.610  1.00  0.00     0.219 HD
ENDBRANCH  38  45
BRANCH  40  47
HETATM   47  N9  UNL     1       1.578  -1.592  16.162  1.00  0.00    -0.234 N 
ATOM     48  H92 UNL     1       2.322  -2.069  16.671  1.00  0.00     0.174 HD
ATOM     49  H91 UNL     1       0.628  -1.957  16.230  1.00  0.00     0.174 HD
ENDBRANCH  40  47
BRANCH  43  50
HETATM   50  N11 UNL     1       0.183   2.390  14.296  1.00  0.00    -0.384 N 
ATOM     51 2H11 UNL     1       0.108   2.896  13.414  1.00  0.00     0.157 HD
ATOM     52 1H11 UNL     1      -0.466   2.580  15.059  1.00  0.00     0.157 HD
ENDBRANCH  43  50
ENDBRANCH   9  37
TORSDOF 15
ENDMDL
MODEL 2
REMARK VINA RESULT: -7.866849025      0.822      1.366
REMARK  15 active torsions:
REMARK  status: ('A' for Active; 'I' for Inactive)
REMARK    1  A    between atoms: O1_2  and  C2_3 
REMARK    2  A    between atoms: C2_3  and  O2_4 
REMARK    3  A    between atoms: C2_3  and  C3_6 
REMARK    4  A    between atoms: C3_6  and  C4_7 
REMARK    5  A    between atoms: C3_6  and  N1_13 
REMARK    6  A    between atoms: C4_7  and  O3_8 
REMARK    7  A    between atoms: C4_7  and  C5_10 
REMARK    8  A    between atoms: C5_10  and  O4_11 
REMARK    9  A    between atoms: C6_18  and  C7_19 
REMARK   10  A    between atoms: C7_19  and  N4_20 
REMARK   11  A    between atoms: C9_28  and  C10_29 
REMARK   12  A    between atoms: C11_30  and  O5_31 
REMARK   13  A    between atoms: C12_35  and  N9_36 
REMARK   14  A    between atoms: C13_41  and  N11_42 
REMARK   15  A    between atoms: C14_45  and  O6_46 
ROOT
HETATM    1  N4  UNL     1       2.937   6.101   9.980  1.00  0.00    -0.221 N 
HETATM    2  N5  UNL     1       3.568   6.668  10.999  1.00  0.00    -0.222 N 
ATOM      3  H5  UNL     1       3.972   7.597  10.884  1.00  0.00     0.209 HD
HETATM    4  N6  UNL     1       3.683   6.049  12.162  1.00  0.00    -0.116 N 
ATOM      5  H6  UNL     1       4.177   6.525  12.916  1.00  0.00     0.207 HD
HETATM    6  C8  UNL     1       3.180   4.817  12.402  1.00  0.00     0.711 A 
HETATM    7  N7  UNL     1       3.173   4.003  13.478  1.00  0.00    -0.184 N 
ATOM      8  H7  UNL     1       3.591   4.205  14.386  1.00  0.00     0.184 HD
HETATM    9  C9  UNL     1       2.516   2.877  13.141  1.00  0.00     0.119 A 
HETATM   10  C14 UNL     1       2.130   3.038  11.834  1.00  0.00     0.197 A 
HETATM   11  N12 UNL     1       2.532   4.228  11.365  1.00  0.00    -0.069 N 
HETATM   12  C15 UNL     1       2.431   4.884  10.196  1.00  0.00     0.365 A 
HETATM   13  O7  UNL     1       1.827   4.328   9.236  1.00  0.00    -0.244 OA
ENDROOT
BRANCH   1  14
HETATM   14  C7  UNL     1       2.822   6.791   8.728  1.00  0.00     0.217 C 
BRANCH  14  15
HETATM   15  C6  UNL     1       3.162   8.218   8.864  1.00  0.00     0.090 A 
HETATM   16  N3  UNL     1       2.424   9.259   9.253  1.00  0.00    -0.285 N 
HETATM   17  N2  UNL     1       3.117  10.364   9.234  1.00  0.00    -0.234 N 
ATOM     18  H3  UNL     1       1.443   9.199   9.530  1.00  0.00     0.188 HD
HETATM   19  N1  UNL     1       4.378  10.092   8.821  1.00  0.00    -0.227 N 
ATOM     20  H2  UNL     1       2.765  11.287   9.491  1.00  0.00     0.209 HD
HETATM   21  C16 UNL     1       4.417   8.773   8.590  1.00  0.00     0.165 A 
HETATM   22  N13 UNL     1       5.501   7.993   8.141  1.00  0.00    -0.078 NA
BRANCH  19  23
HETATM   23  C3  UNL     1       5.430  11.060   8.677  1.00  0.00     0.100 C 
BRANCH  23  24
HETATM   24  C2  UNL     1       5.898  11.349   7.299  1.00  0.00     0.308 C 
BRANCH  24  25
HETATM   25  O1  UNL     1       7.235  11.605   7.241  1.00  0.00    -0.361 OA
HETATM   26  C1  UNL     1       7.934  10.438   6.971  1.00  0.00     0.205 C 
ENDBRANCH  24  25
BRANCH  24  27
HETATM   27  O2  UNL     1       5.423  10.458   6.319  1.00  0.00    -0.366 OA
ATOM     28  H2  UNL     1       4.714   9.893   6.603  1.00  0.00     0.213 HD
ENDBRANCH  24  27
ENDBRANCH  23  24
BRANCH  23  29
HETATM   29  C4  UNL     1       5.241  12.304   9.527  1.00  0.00     0.194 C 
BRANCH  29  30
HETATM   30  O3  UNL     1       4.770  12.006  10.789  1.00  0.00    -0.387 OA
ATOM     31  H3  UNL     1       4.999  12.674  11.424  1.00  0.00     0.210 HD
ENDBRANCH  29  30
BRANCH  29  32
HETATM   32  C5  UNL     1       4.334  13.274   8.793  1.00  0.00     0.202 C 
BRANCH  32  33
HETATM   33  O4  UNL     1       3.208  13.497   9.548  1.00  0.00    -0.398 OA
ATOM     34  H4  UNL     1       3.467  13.821  10.404  1.00  0.00     0.209 HD
ENDBRANCH  32  33
ENDBRANCH  29  32
ENDBRANCH  23  29
ENDBRANCH  19  23
ENDBRANCH  14  15
ENDBRANCH   1  14
BRANCH  10  35
HETATM   35  O6  UNL     1       1.425   2.102  11.104  1.00  0.00    -0.344 OA
ATOM     36  H6  UNL     1       1.821   1.464  10.522  1.00  0.00     0.219 HD
ENDBRANCH  10  35
BRANCH   9  37
HETATM   37  C10 UNL     1       2.244   1.710  13.950  1.00  0.00     0.091 A 
HETATM   38  C11 UNL     1       1.039   1.506  14.578  1.00  0.00     0.171 A 
HETATM   39  N8  UNL     1       0.834   0.384  15.332  1.00  0.00    -0.170 N 
HETATM   40  C12 UNL     1       1.799  -0.539  15.477  1.00  0.00     0.679 A 
ATOM     41  H8  UNL     1      -0.066   0.246  15.793  1.00  0.00     0.186 HD
HETATM   42  N10 UNL     1       2.969  -0.341  14.867  1.00  0.00    -0.176 N 
HETATM   43  C13 UNL     1       3.211   0.750  14.116  1.00  0.00     0.131 A 
ATOM     44  H10 UNL     1       3.706  -1.039  14.974  1.00  0.00     0.186 HD
BRANCH  38  45
HETATM   45  O5  UNL     1       0.047   2.460  14.426  1.00  0.00    -0.345 OA
ATOM     46  H5  UNL     1      -0.721   2.406  14.983  1.00  0.00     0.219 HD
ENDBRANCH  38  45
BRANCH  40  47
HETATM   47  N9  UNL     1       1.566  -1.597  16.205  1.00  0.00    -0.234 N 
ATOM     48  H92 UNL     1       1.174  -1.533  17.144  1.00  0.00     0.174 HD
ATOM     49  H91 UNL     1       1.781  -2.519  15.827  1.00  0.00     0.174 HD
ENDBRANCH  40  47
BRANCH  43  50
HETATM   50  N11 UNL     1       4.359   0.921  13.532  1.00  0.00    -0.384 N 
ATOM     51 2H11 UNL     1       5.123   0.259  13.667  1.00  0.00     0.157 HD
ATOM     52 1H11 UNL     1       4.482   1.738  12.933  1.00  0.00     0.157 HD
ENDBRANCH  43  50
ENDBRANCH   9  37
TORSDOF 15
ENDMDL
MODEL 3
REMARK VINA RESULT: -7.778787733      2.236      3.352
REMARK  15 active torsions:
REMARK  status: ('A' for Active; 'I' for Inactive)
REMARK    1  A    between atoms: O1_2  and  C2_3 
REMARK    2  A    between atoms: C2_3  and  O2_4 
REMARK    3  A    between atoms: C2_3  and  C3_6 
REMARK    4  A    between atoms: C3_6  and  C4_7 
REMARK    5  A    between atoms: C3_6  and  N1_13 
REMARK    6  A    between atoms: C4_7  and  O3_8 
REMARK    7  A    between atoms: C4_7  and  C5_10 
REMARK    8  A    between atoms: C5_10  and  O4_11 
REMARK    9  A    between atoms: C6_18  and  C7_19 
REMARK   10  A    between atoms: C7_19  and  N4_20 
REMARK   11  A    between atoms: C9_28  and  C10_29 
REMARK   12  A    between atoms: C11_30  and  O5_31 
REMARK   13  A    between atoms: C12_35  and  N9_36 
REMARK   14  A    between atoms: C13_41  and  N11_42 
REMARK   15  A    between atoms: C14_45  and  O6_46 
ROOT
HETATM    1  N4  UNL     1       1.775   6.447   9.138  1.00  0.00    -0.221 N 
HETATM    2  N5  UNL     1       1.377   5.498   8.303  1.00  0.00    -0.222 N 
ATOM      3  H5  UNL     1       1.125   5.746   7.346  1.00  0.00     0.209 HD
HETATM    4  N6  UNL     1       1.301   4.235   8.688  1.00  0.00    -0.116 N 
ATOM      5  H6  UNL     1       0.991   3.540   8.010  1.00  0.00     0.207 HD
HETATM    6  C8  UNL     1       1.614   3.819   9.936  1.00  0.00     0.711 A 
HETATM    7  N7  UNL     1       1.615   2.616  10.547  1.00  0.00    -0.184 N 
ATOM      8  H7  UNL     1       1.351   1.727  10.123  1.00  0.00     0.184 HD
HETATM    9  C9  UNL     1       2.026   2.798  11.817  1.00  0.00     0.119 A 
HETATM   10  C14 UNL     1       2.272   4.142  11.949  1.00  0.00     0.197 A 
HETATM   11  N12 UNL     1       2.023   4.784  10.799  1.00  0.00    -0.069 N 
HETATM   12  C15 UNL     1       2.090   6.058  10.376  1.00  0.00     0.365 A 
HETATM   13  O7  UNL     1       2.471   6.949  11.186  1.00  0.00    -0.244 OA
ENDROOT
BRANCH   1  14
HETATM   14  C7  UNL     1       1.851   7.811   8.698  1.00  0.00     0.217 C 
BRANCH  14  15
HETATM   15  C6  UNL     1       3.244   8.225   8.460  1.00  0.00     0.090 A 
HETATM   16  N3  UNL     1       4.228   8.515   9.314  1.00  0.00    -0.285 N 
HETATM   17  N2  UNL     1       5.323   8.839   8.683  1.00  0.00    -0.234 N 
ATOM     18  H3  UNL     1       4.136   8.486  10.330  1.00  0.00     0.188 HD
HETATM   19  N1  UNL     1       5.103   8.775   7.347  1.00  0.00    -0.227 N 
ATOM     20  H2  UNL     1       6.205   9.099   9.125  1.00  0.00     0.209 HD
HETATM   21  C16 UNL     1       3.826   8.398   7.199  1.00  0.00     0.165 A 
HETATM   22  N13 UNL     1       3.106   8.189   6.006  1.00  0.00    -0.078 NA
BRANCH  19  23
HETATM   23  C3  UNL     1       6.078   9.062   6.332  1.00  0.00     0.100 C 
BRANCH  23  24
HETATM   24  C2  UNL     1       6.518  10.473   6.198  1.00  0.00     0.308 C 
BRANCH  24  25
HETATM   25  O1  UNL     1       5.599  11.252   5.561  1.00  0.00    -0.361 OA
HETATM   26  C1  UNL     1       5.219  10.662   4.365  1.00  0.00     0.205 C 
ENDBRANCH  24  25
BRANCH  24  27
HETATM   27  O2  UNL     1       7.056  11.033   7.371  1.00  0.00    -0.366 OA
ATOM     28  H2  UNL     1       7.853  10.619   7.682  1.00  0.00     0.213 HD
ENDBRANCH  24  27
ENDBRANCH  23  24
BRANCH  23  29
HETATM   29  C4  UNL     1       7.220   8.063   6.276  1.00  0.00     0.194 C 
BRANCH  29  30
HETATM   30  O3  UNL     1       7.453   7.470   7.500  1.00  0.00    -0.387 OA
ATOM     31  H3  UNL     1       8.020   6.711   7.429  1.00  0.00     0.210 HD
ENDBRANCH  29  30
BRANCH  29  32
HETATM   32  C5  UNL     1       8.456   8.751   5.729  1.00  0.00     0.202 C 
BRANCH  32  33
HETATM   33  O4  UNL     1       9.399   8.841   6.725  1.00  0.00    -0.398 OA
ATOM     34  H4  UNL     1       8.963   9.016   7.551  1.00  0.00     0.209 HD
ENDBRANCH  32  33
ENDBRANCH  29  32
ENDBRANCH  23  29
ENDBRANCH  19  23
ENDBRANCH  14  15
ENDBRANCH   1  14
BRANCH  10  35
HETATM   35  O6  UNL     1       2.714   4.747  13.108  1.00  0.00    -0.344 OA
ATOM     36  H6  UNL     1       3.351   5.451  13.139  1.00  0.00     0.219 HD
ENDBRANCH  10  35
BRANCH   9  37
HETATM   37  C10 UNL     1       2.193   1.815  12.864  1.00  0.00     0.091 A 
HETATM   38  C11 UNL     1       1.131   1.212  13.494  1.00  0.00     0.171 A 
HETATM   39  N8  UNL     1       1.345   0.288  14.479  1.00  0.00    -0.170 N 
HETATM   40  C12 UNL     1       2.590  -0.049  14.853  1.00  0.00     0.679 A 
ATOM     41  H8  UNL     1       0.546  -0.152  14.938  1.00  0.00     0.186 HD
HETATM   42  N10 UNL     1       3.622   0.537  14.242  1.00  0.00    -0.176 N 
HETATM   43  C13 UNL     1       3.454   1.450  13.268  1.00  0.00     0.131 A 
ATOM     44  H10 UNL     1       4.570   0.284  14.522  1.00  0.00     0.186 HD
BRANCH  38  45
HETATM   45  O5  UNL     1      -0.151   1.563  13.105  1.00  0.00    -0.345 OA
ATOM     46  H5  UNL     1      -0.868   1.393  13.706  1.00  0.00     0.219 HD
ENDBRANCH  38  45
BRANCH  40  47
HETATM   47  N9  UNL     1       2.755  -0.934  15.797  1.00  0.00    -0.234 N 
ATOM     48  H92 UNL     1       2.359  -0.813  16.729  1.00  0.00     0.174 HD
ATOM     49  H91 UNL     1       3.296  -1.777  15.602  1.00  0.00     0.174 HD
ENDBRANCH  40  47
BRANCH  43  50
HETATM   50  N11 UNL     1       4.474   2.008  12.687  1.00  0.00    -0.384 N 
ATOM     51 2H11 UNL     1       4.535   2.064  11.671  1.00  0.00     0.157 HD
ATOM     52 1H11 UNL     1       5.216   2.390  13.273  1.00  0.00     0.157 HD
ENDBRANCH  43  50
ENDBRANCH   9  37
TORSDOF 15
ENDMDL
MODEL 4
REMARK VINA RESULT: -7.771497465      2.025      3.014
REMARK  15 active torsions:
REMARK  status: ('A' for Active; 'I' for Inactive)
REMARK    1  A    between atoms: O1_2  and  C2_3 
REMARK    2  A    between atoms: C2_3  and  O2_4 
REMARK    3  A    between atoms: C2_3  and  C3_6 
REMARK    4  A    between atoms: C3_6  and  C4_7 
REMARK    5  A    between atoms: C3_6  and  N1_13 
REMARK    6  A    between atoms: C4_7  and  O3_8 
REMARK    7  A    between atoms: C4_7  and  C5_10 
REMARK    8  A    between atoms: C5_10  and  O4_11 
REMARK    9  A    between atoms: C6_18  and  C7_19 
REMARK   10  A    between atoms: C7_19  and  N4_20 
REMARK   11  A    between atoms: C9_28  and  C10_29 
REMARK   12  A    between atoms: C11_30  and  O5_31 
REMARK   13  A    between atoms: C12_35  and  N9_36 
REMARK   14  A    between atoms: C13_41  and  N11_42 
REMARK   15  A    between atoms: C14_45  and  O6_46 
ROOT
HETATM    1  N4  UNL     1       1.706   6.175   9.353  1.00  0.00    -0.221 N 
HETATM    2  N5  UNL     1       1.388   5.176   8.541  1.00  0.00    -0.222 N 
ATOM      3  H5  UNL     1       1.189   5.371   7.560  1.00  0.00     0.209 HD
HETATM    4  N6  UNL     1       1.324   3.931   8.982  1.00  0.00    -0.116 N 
ATOM      5  H6  UNL     1       1.075   3.196   8.320  1.00  0.00     0.207 HD
HETATM    6  C8  UNL     1       1.570   3.583  10.265  1.00  0.00     0.711 A 
HETATM    7  N7  UNL     1       1.567   2.410  10.932  1.00  0.00    -0.184 N 
ATOM      8  H7  UNL     1       1.355   1.495  10.536  1.00  0.00     0.184 HD
HETATM    9  C9  UNL     1       1.893   2.663  12.214  1.00  0.00     0.119 A 
HETATM   10  C14 UNL     1       2.093   4.018  12.296  1.00  0.00     0.197 A 
HETATM   11  N12 UNL     1       1.898   4.598  11.104  1.00  0.00    -0.069 N 
HETATM   12  C15 UNL     1       1.955   5.853  10.625  1.00  0.00     0.365 A 
HETATM   13  O7  UNL     1       2.259   6.792  11.412  1.00  0.00    -0.244 OA
ENDROOT
BRANCH   1  14
HETATM   14  C7  UNL     1       1.772   7.519   8.853  1.00  0.00     0.217 C 
BRANCH  14  15
HETATM   15  C6  UNL     1       3.163   7.944   8.625  1.00  0.00     0.090 A 
HETATM   16  N3  UNL     1       4.176   8.115   9.477  1.00  0.00    -0.285 N 
HETATM   17  N2  UNL     1       5.256   8.503   8.857  1.00  0.00    -0.234 N 
ATOM     18  H3  UNL     1       4.113   7.962  10.484  1.00  0.00     0.188 HD
HETATM   19  N1  UNL     1       4.996   8.606   7.531  1.00  0.00    -0.227 N 
ATOM     20  H2  UNL     1       6.154   8.697   9.299  1.00  0.00     0.209 HD
HETATM   21  C16 UNL     1       3.709   8.264   7.377  1.00  0.00     0.165 A 
HETATM   22  N13 UNL     1       2.952   8.212   6.190  1.00  0.00    -0.078 NA
BRANCH  19  23
HETATM   23  C3  UNL     1       5.944   9.006   6.529  1.00  0.00     0.100 C 
BRANCH  23  24
HETATM   24  C2  UNL     1       6.340  10.436   6.505  1.00  0.00     0.308 C 
BRANCH  24  25
HETATM   25  O1  UNL     1       5.524  11.193   5.719  1.00  0.00    -0.361 OA
HETATM   26  C1  UNL     1       5.260  10.534   4.528  1.00  0.00     0.205 C 
ENDBRANCH  24  25
BRANCH  24  27
HETATM   27  O2  UNL     1       6.622  10.987   7.768  1.00  0.00    -0.366 OA
ATOM     28  H2  UNL     1       7.269  11.682   7.765  1.00  0.00     0.213 HD
ENDBRANCH  24  27
ENDBRANCH  23  24
BRANCH  23  29
HETATM   29  C4  UNL     1       7.115   8.050   6.375  1.00  0.00     0.194 C 
BRANCH  29  30
HETATM   30  O3  UNL     1       7.416   7.402   7.555  1.00  0.00    -0.387 OA
ATOM     31  H3  UNL     1       7.431   7.996   8.296  1.00  0.00     0.210 HD
ENDBRANCH  29  30
BRANCH  29  32
HETATM   32  C5  UNL     1       8.305   8.808   5.818  1.00  0.00     0.202 C 
BRANCH  32  33
HETATM   33  O4  UNL     1       9.346   8.731   6.712  1.00  0.00    -0.398 OA
ATOM     34  H4  UNL     1       9.782   9.574   6.756  1.00  0.00     0.209 HD
ENDBRANCH  32  33
ENDBRANCH  29  32
ENDBRANCH  23  29
ENDBRANCH  19  23
ENDBRANCH  14  15
ENDBRANCH   1  14
BRANCH  10  35
HETATM   35  O6  UNL     1       2.445   4.689  13.450  1.00  0.00    -0.344 OA
ATOM     36  H6  UNL     1       3.334   4.930  13.683  1.00  0.00     0.219 HD
ENDBRANCH  10  35
BRANCH   9  37
HETATM   37  C10 UNL     1       2.022   1.735  13.316  1.00  0.00     0.091 A 
HETATM   38  C11 UNL     1       3.211   1.125  13.638  1.00  0.00     0.171 A 
HETATM   39  N8  UNL     1       3.279   0.255  14.690  1.00  0.00    -0.170 N 
HETATM   40  C12 UNL     1       2.193  -0.022  15.430  1.00  0.00     0.679 A 
ATOM     41  H8  UNL     1       4.169  -0.190  14.918  1.00  0.00     0.186 HD
HETATM   42  N10 UNL     1       1.038   0.569  15.117  1.00  0.00    -0.176 N 
HETATM   43  C13 UNL     1       0.930   1.432  14.089  1.00  0.00     0.131 A 
ATOM     44  H10 UNL     1       0.210   0.361  15.676  1.00  0.00     0.186 HD
BRANCH  38  45
HETATM   45  O5  UNL     1       4.329   1.415  12.872  1.00  0.00    -0.345 OA
ATOM     46  H5  UNL     1       5.019   0.764  12.817  1.00  0.00     0.219 HD
ENDBRANCH  38  45
BRANCH  40  47
HETATM   47  N9  UNL     1       2.296  -0.858  16.427  1.00  0.00    -0.234 N 
ATOM     48  H92 UNL     1       1.816  -0.707  17.313  1.00  0.00     0.174 HD
ATOM     49  H91 UNL     1       2.875  -1.691  16.320  1.00  0.00     0.174 HD
ENDBRANCH  40  47
BRANCH  43  50
HETATM   50  N11 UNL     1      -0.206   1.996  13.803  1.00  0.00    -0.384 N 
ATOM     51 2H11 UNL     1      -0.351   2.993  13.957  1.00  0.00     0.157 HD
ATOM     52 1H11 UNL     1      -0.953   1.416  13.421  1.00  0.00     0.157 HD
ENDBRANCH  43  50
ENDBRANCH   9  37
TORSDOF 15
ENDMDL
MODEL 5
REMARK VINA RESULT: -7.700919920      1.992      3.381
REMARK  15 active torsions:
REMARK  status: ('A' for Active; 'I' for Inactive)
REMARK    1  A    between atoms: O1_2  and  C2_3 
REMARK    2  A    between atoms: C2_3  and  O2_4 
REMARK    3  A    between atoms: C2_3  and  C3_6 
REMARK    4  A    between atoms: C3_6  and  C4_7 
REMARK    5  A    between atoms: C3_6  and  N1_13 
REMARK    6  A    between atoms: C4_7  and  O3_8 
REMARK    7  A    between atoms: C4_7  and  C5_10 
REMARK    8  A    between atoms: C5_10  and  O4_11 
REMARK    9  A    between atoms: C6_18  and  C7_19 
REMARK   10  A    between atoms: C7_19  and  N4_20 
REMARK   11  A    between atoms: C9_28  and  C10_29 
REMARK   12  A    between atoms: C11_30  and  O5_31 
REMARK   13  A    between atoms: C12_35  and  N9_36 
REMARK   14  A    between atoms: C13_41  and  N11_42 
REMARK   15  A    between atoms: C14_45  and  O6_46 
ROOT
HETATM    1  N4  UNL     1       1.881   6.374   9.146  1.00  0.00    -0.221 N 
HETATM    2  N5  UNL     1       1.522   5.413   8.306  1.00  0.00    -0.222 N 
ATOM      3  H5  UNL     1       1.309   5.648   7.336  1.00  0.00     0.209 HD
HETATM    4  N6  UNL     1       1.433   4.155   8.703  1.00  0.00    -0.116 N 
ATOM      5  H6  UNL     1       1.154   3.451   8.021  1.00  0.00     0.207 HD
HETATM    6  C8  UNL     1       1.695   3.754   9.967  1.00  0.00     0.711 A 
HETATM    7  N7  UNL     1       1.674   2.559  10.593  1.00  0.00    -0.184 N 
ATOM      8  H7  UNL     1       1.431   1.664  10.169  1.00  0.00     0.184 HD
HETATM    9  C9  UNL     1       2.030   2.757  11.876  1.00  0.00     0.119 A 
HETATM   10  C14 UNL     1       2.267   4.103  12.002  1.00  0.00     0.197 A 
HETATM   11  N12 UNL     1       2.064   4.731  10.836  1.00  0.00    -0.069 N 
HETATM   12  C15 UNL     1       2.144   6.000  10.400  1.00  0.00     0.365 A 
HETATM   13  O7  UNL     1       2.488   6.902  11.214  1.00  0.00    -0.244 OA
ENDROOT
BRANCH   1  14
HETATM   14  C7  UNL     1       1.971   7.732   8.693  1.00  0.00     0.217 C 
BRANCH  14  15
HETATM   15  C6  UNL     1       3.371   8.147   8.504  1.00  0.00     0.090 A 
HETATM   16  N3  UNL     1       4.388   8.210   9.365  1.00  0.00    -0.285 N 
HETATM   17  N2  UNL     1       5.476   8.634   8.784  1.00  0.00    -0.234 N 
ATOM     18  H3  UNL     1       4.323   7.959  10.352  1.00  0.00     0.188 HD
HETATM   19  N1  UNL     1       5.217   8.875   7.475  1.00  0.00    -0.227 N 
ATOM     20  H2  UNL     1       6.379   8.763   9.241  1.00  0.00     0.209 HD
HETATM   21  C16 UNL     1       3.923   8.579   7.292  1.00  0.00     0.165 A 
HETATM   22  N13 UNL     1       3.164   8.662   6.109  1.00  0.00    -0.078 NA
BRANCH  19  23
HETATM   23  C3  UNL     1       6.174   9.352   6.515  1.00  0.00     0.100 C 
BRANCH  23  24
HETATM   24  C2  UNL     1       6.501  10.799   6.549  1.00  0.00     0.308 C 
BRANCH  24  25
HETATM   25  O1  UNL     1       6.743  11.253   7.812  1.00  0.00    -0.361 OA
HETATM   26  C1  UNL     1       6.036  12.423   8.043  1.00  0.00     0.205 C 
ENDBRANCH  24  25
BRANCH  24  27
HETATM   27  O2  UNL     1       7.437  11.211   5.583  1.00  0.00    -0.366 OA
ATOM     28  H2  UNL     1       7.599  10.582   4.890  1.00  0.00     0.213 HD
ENDBRANCH  24  27
ENDBRANCH  23  24
BRANCH  23  29
HETATM   29  C4  UNL     1       7.392   8.458   6.366  1.00  0.00     0.194 C 
BRANCH  29  30
HETATM   30  O3  UNL     1       8.533   9.041   6.878  1.00  0.00    -0.387 OA
ATOM     31  H3  UNL     1       8.432   9.285   7.790  1.00  0.00     0.210 HD
ENDBRANCH  29  30
BRANCH  29  32
HETATM   32  C5  UNL     1       7.551   8.076   4.906  1.00  0.00     0.202 C 
BRANCH  32  33
HETATM   33  O4  UNL     1       8.720   8.614   4.425  1.00  0.00    -0.398 OA
ATOM     34  H4  UNL     1       8.960   9.364   4.957  1.00  0.00     0.209 HD
ENDBRANCH  32  33
ENDBRANCH  29  32
ENDBRANCH  23  29
ENDBRANCH  19  23
ENDBRANCH  14  15
ENDBRANCH   1  14
BRANCH  10  35
HETATM   35  O6  UNL     1       2.658   4.724  13.172  1.00  0.00    -0.344 OA
ATOM     36  H6  UNL     1       2.149   4.731  13.974  1.00  0.00     0.219 HD
ENDBRANCH  10  35
BRANCH   9  37
HETATM   37  C10 UNL     1       2.157   1.788  12.941  1.00  0.00     0.091 A 
HETATM   38  C11 UNL     1       1.070   1.235  13.576  1.00  0.00     0.171 A 
HETATM   39  N8  UNL     1       1.246   0.321  14.578  1.00  0.00    -0.170 N 
HETATM   40  C12 UNL     1       2.476  -0.055  14.964  1.00  0.00     0.679 A 
ATOM     41  H8  UNL     1       0.430  -0.081  15.040  1.00  0.00     0.186 HD
HETATM   42  N10 UNL     1       3.532   0.482  14.348  1.00  0.00    -0.176 N 
HETATM   43  C13 UNL     1       3.401   1.384  13.357  1.00  0.00     0.131 A 
ATOM     44  H10 UNL     1       4.468   0.200  14.638  1.00  0.00     0.186 HD
BRANCH  38  45
HETATM   45  O5  UNL     1      -0.196   1.626  13.174  1.00  0.00    -0.345 OA
ATOM     46  H5  UNL     1      -0.861   0.956  13.062  1.00  0.00     0.219 HD
ENDBRANCH  38  45
BRANCH  40  47
HETATM   47  N9  UNL     1       2.604  -0.929  15.925  1.00  0.00    -0.234 N 
ATOM     48  H92 UNL     1       2.152  -1.842  15.890  1.00  0.00     0.174 HD
ATOM     49  H91 UNL     1       3.174  -0.695  16.738  1.00  0.00     0.174 HD
ENDBRANCH  40  47
BRANCH  43  50
HETATM   50  N11 UNL     1       4.444   1.894  12.772  1.00  0.00    -0.384 N 
ATOM     51 2H11 UNL     1       4.362   2.373  11.876  1.00  0.00     0.157 HD
ATOM     52 1H11 UNL     1       5.350   1.802  13.231  1.00  0.00     0.157 HD
ENDBRANCH  43  50
ENDBRANCH   9  37
TORSDOF 15
ENDMDL
