MODEL 1
REMARK VINA RESULT: -7.172603488      0.000      0.000
REMARK  17 active torsions:
REMARK  status: ('A' for Active; 'I' for Inactive)
REMARK    1  A    between atoms: O1_2  and  C2_3 
REMARK    2  A    between atoms: C2_3  and  C3_5 
REMARK    3  A    between atoms: C3_5  and  C4_6 
REMARK    4  A    between atoms: C3_5  and  N1_11 
REMARK    5  A    between atoms: C4_6  and  O3_7 
REMARK    6  A    between atoms: C4_6  and  O4_9 
REMARK    7  A    between atoms: N1_11  and  C5_12 
REMARK    8  A    between atoms: N1_11  and  S1_29 
REMARK    9  A    between atoms: C6_14  and  C7_15 
REMARK   10  A    between atoms: C7_15  and  O6_17 
REMARK   11  A    between atoms: C9_19  and  O7_20 
REMARK   12  A    between atoms: C11_24  and  N2_25 
REMARK   13  A    between atoms: N2_25  and  O9_27 
REMARK   14  A    between atoms: S1_29  and  C12_31 
REMARK   15  A    between atoms: C13_34  and  N4_35 
REMARK   16  A    between atoms: C14_40  and  N6_41 
REMARK   17  A    between atoms: N7_44  and  N8_45 
ROOT
HETATM    1  N1  UNL     1       2.062   4.098  12.247  1.00  0.00    -0.224 N 
ENDROOT
BRANCH   1   2
HETATM    2  C3  UNL     1       3.106   5.031  12.053  1.00  0.00     0.157 C 
BRANCH   2   3
HETATM    3  C2  UNL     1       4.030   5.181  13.236  1.00  0.00     0.311 C 
HETATM    4  O2  UNL     1       3.581   5.058  14.379  1.00  0.00    -0.258 OA
BRANCH   3   5
HETATM    5  O1  UNL     1       5.362   5.454  13.044  1.00  0.00    -0.322 OA
HETATM    6  C1  UNL     1       6.445   4.751  13.598  1.00  0.00     0.213 C 
ENDBRANCH   3   5
ENDBRANCH   2   3
BRANCH   2   7
HETATM    7  C4  UNL     1       2.786   6.341  11.407  1.00  0.00     0.312 C 
BRANCH   7   8
HETATM    8  O3  UNL     1       3.914   6.852  10.826  1.00  0.00    -0.366 OA
ATOM      9  H3  UNL     1       3.688   7.259   9.998  1.00  0.00     0.213 HD
ENDBRANCH   7   8
BRANCH   7  10
HETATM   10  O4  UNL     1       2.368   7.226  12.424  1.00  0.00    -0.366 OA
ATOM     11  H4  UNL     1       1.912   7.948  12.007  1.00  0.00     0.213 HD
ENDBRANCH   7  10
ENDBRANCH   2   7
ENDBRANCH   1   2
BRANCH   1  12
HETATM   12  C5  UNL     1       0.708   4.533  12.231  1.00  0.00     0.196 A 
HETATM   13  O5  UNL     1      -0.000   4.420  11.100  1.00  0.00    -0.289 OA
HETATM   14  C6  UNL     1      -1.226   4.774  10.939  1.00  0.00     0.121 A 
HETATM   15  C9  UNL     1      -1.896   5.326  12.032  1.00  0.00     0.151 A 
HETATM   16  C10 UNL     1      -1.214   5.467  13.225  1.00  0.00     0.240 A 
HETATM   17  O8  UNL     1      -1.803   5.964  14.218  1.00  0.00    -0.283 OA
HETATM   18  C11 UNL     1       0.113   5.068  13.344  1.00  0.00     0.159 A 
BRANCH  14  19
HETATM   19  C7  UNL     1      -1.942   4.605   9.629  1.00  0.00     0.174 C 
HETATM   20  C8  UNL     1      -1.884   5.887   8.811  1.00  0.00     0.046 C 
BRANCH  19  21
HETATM   21  O6  UNL     1      -1.382   3.567   8.887  1.00  0.00    -0.389 OA
ATOM     22  H6  UNL     1      -1.657   3.613   7.979  1.00  0.00     0.210 HD
ENDBRANCH  19  21
ENDBRANCH  14  19
BRANCH  15  23
HETATM   23  O7  UNL     1      -3.202   5.698  11.843  1.00  0.00    -0.355 OA
ATOM     24  H7  UNL     1      -3.703   5.929  12.616  1.00  0.00     0.218 HD
ENDBRANCH  15  23
BRANCH  18  25
HETATM   25  N2  UNL     1       0.774   5.238  14.609  1.00  0.00    -0.261 N 
ATOM     26  H2  UNL     1       0.838   4.446  15.250  1.00  0.00     0.194 HD
BRANCH  25  27
HETATM   27  O9  UNL     1       1.269   6.334  14.938  1.00  0.00    -0.289 OA
ATOM     28  H9  UNL     1       1.519   6.512  15.838  1.00  0.00     0.244 HD
ENDBRANCH  25  27
ENDBRANCH  18  25
ENDBRANCH   1  12
BRANCH   1  29
HETATM   29  S1  UNL     1       2.484   2.193  12.363  1.00  0.00     0.198 S 
HETATM   30  O10 UNL     1       3.986   1.795  12.304  1.00  0.00    -0.226 OA
BRANCH  29  31
HETATM   31  C12 UNL     1       1.233   1.290  13.513  1.00  0.00     0.249 A 
HETATM   32  N3  UNL     1       1.640   0.899  14.759  1.00  0.00    -0.164 N 
HETATM   33  C13 UNL     1       0.873   0.259  15.620  1.00  0.00     0.692 A 
ATOM     34  H3  UNL     1       2.595   1.116  15.040  1.00  0.00     0.186 HD
HETATM   35  N5  UNL     1      -0.388  -0.028  15.254  1.00  0.00    -0.021 N 
HETATM   36  C14 UNL     1      -0.854   0.326  14.049  1.00  0.00     0.713 A 
ATOM     37  H5  UNL     1      -0.999  -0.524  15.903  1.00  0.00     0.203 HD
HETATM   38  N7  UNL     1      -0.036   0.976  13.208  1.00  0.00    -0.065 N 
BRANCH  33  39
HETATM   39  N4  UNL     1       1.261  -0.113  16.804  1.00  0.00    -0.234 N 
ATOM     40  H42 UNL     1       1.658   0.597  17.419  1.00  0.00     0.174 HD
ATOM     41  H41 UNL     1       1.192  -1.069  17.153  1.00  0.00     0.174 HD
ENDBRANCH  33  39
BRANCH  36  42
HETATM   42  N6  UNL     1      -2.068   0.030  13.719  1.00  0.00    -0.232 N 
ATOM     43  H62 UNL     1      -2.808  -0.047  14.417  1.00  0.00     0.174 HD
ATOM     44  H61 UNL     1      -2.303  -0.125  12.739  1.00  0.00     0.174 HD
ENDBRANCH  36  42
BRANCH  38  45
HETATM   45  N8  UNL     1      -0.509   1.355  11.940  1.00  0.00    -0.322 N 
ATOM     46  H82 UNL     1       0.092   1.902  11.324  1.00  0.00     0.178 HD
ATOM     47  H81 UNL     1      -1.453   1.063  11.685  1.00  0.00     0.178 HD
ENDBRANCH  38  45
ENDBRANCH  29  31
ENDBRANCH   1  29
TORSDOF 17
ENDMDL
MODEL 2
REMARK VINA RESULT: -7.047460916      2.527      5.544
REMARK  17 active torsions:
REMARK  status: ('A' for Active; 'I' for Inactive)
REMARK    1  A    between atoms: O1_2  and  C2_3 
REMARK    2  A    between atoms: C2_3  and  C3_5 
REMARK    3  A    between atoms: C3_5  and  C4_6 
REMARK    4  A    between atoms: C3_5  and  N1_11 
REMARK    5  A    between atoms: C4_6  and  O3_7 
REMARK    6  A    between atoms: C4_6  and  O4_9 
REMARK    7  A    between atoms: N1_11  and  C5_12 
REMARK    8  A    between atoms: N1_11  and  S1_29 
REMARK    9  A    between atoms: C6_14  and  C7_15 
REMARK   10  A    between atoms: C7_15  and  O6_17 
REMARK   11  A    between atoms: C9_19  and  O7_20 
REMARK   12  A    between atoms: C11_24  and  N2_25 
REMARK   13  A    between atoms: N2_25  and  O9_27 
REMARK   14  A    between atoms: S1_29  and  C12_31 
REMARK   15  A    between atoms: C13_34  and  N4_35 
REMARK   16  A    between atoms: C14_40  and  N6_41 
REMARK   17  A    between atoms: N7_44  and  N8_45 
ROOT
HETATM    1  N1  UNL     1       1.375   3.515  12.691  1.00  0.00    -0.224 N 
ENDROOT
BRANCH   1   2
HETATM    2  C3  UNL     1       1.666   4.819  13.154  1.00  0.00     0.157 C 
BRANCH   2   3
HETATM    3  C2  UNL     1       2.324   5.708  12.128  1.00  0.00     0.311 C 
HETATM    4  O2  UNL     1       2.131   6.926  12.165  1.00  0.00    -0.258 OA
BRANCH   3   5
HETATM    5  O1  UNL     1       3.132   5.166  11.158  1.00  0.00    -0.322 OA
HETATM    6  C1  UNL     1       2.958   5.278   9.770  1.00  0.00     0.213 C 
ENDBRANCH   3   5
ENDBRANCH   2   3
BRANCH   2   7
HETATM    7  C4  UNL     1       2.263   4.979  14.515  1.00  0.00     0.312 C 
BRANCH   7   8
HETATM    8  O3  UNL     1       1.708   6.067  15.133  1.00  0.00    -0.366 OA
ATOM      9  H3  UNL     1       2.376   6.524  15.631  1.00  0.00     0.213 HD
ENDBRANCH   7   8
BRANCH   7  10
HETATM   10  O4  UNL     1       3.644   5.217  14.350  1.00  0.00    -0.366 OA
ATOM     11  H4  UNL     1       3.892   5.903  14.959  1.00  0.00     0.213 HD
ENDBRANCH   7  10
ENDBRANCH   2   7
ENDBRANCH   1   2
BRANCH   1  12
HETATM   12  C5  UNL     1       1.942   2.386  13.344  1.00  0.00     0.196 A 
HETATM   13  O5  UNL     1       1.199   1.696  14.218  1.00  0.00    -0.289 OA
HETATM   14  C6  UNL     1       1.579   0.662  14.881  1.00  0.00     0.121 A 
HETATM   15  C9  UNL     1       2.882   0.201  14.684  1.00  0.00     0.151 A 
HETATM   16  C10 UNL     1       3.694   0.876  13.794  1.00  0.00     0.240 A 
HETATM   17  O8  UNL     1       4.871   0.474  13.606  1.00  0.00    -0.283 OA
HETATM   18  C11 UNL     1       3.232   1.990  13.102  1.00  0.00     0.159 A 
BRANCH  14  19
HETATM   19  C7  UNL     1       0.669  -0.051  15.842  1.00  0.00     0.174 C 
HETATM   20  C8  UNL     1       0.277  -1.419  15.303  1.00  0.00     0.046 C 
BRANCH  19  21
HETATM   21  O6  UNL     1       1.283  -0.209  17.082  1.00  0.00    -0.389 OA
ATOM     22  H6  UNL     1       1.091  -1.065  17.448  1.00  0.00     0.210 HD
ENDBRANCH  19  21
ENDBRANCH  14  19
BRANCH  15  23
HETATM   23  O7  UNL     1       3.270  -0.901  15.399  1.00  0.00    -0.355 OA
ATOM     24  H7  UNL     1       4.090  -0.842  15.875  1.00  0.00     0.218 HD
ENDBRANCH  15  23
BRANCH  18  25
HETATM   25  N2  UNL     1       4.121   2.652  12.187  1.00  0.00    -0.261 N 
ATOM     26  H2  UNL     1       3.974   2.548  11.183  1.00  0.00     0.194 HD
BRANCH  25  27
HETATM   27  O9  UNL     1       5.068   3.353  12.597  1.00  0.00    -0.289 OA
ATOM     28  H9  UNL     1       5.935   2.985  12.723  1.00  0.00     0.244 HD
ENDBRANCH  25  27
ENDBRANCH  18  25
ENDBRANCH   1  12
BRANCH   1  29
HETATM   29  S1  UNL     1       0.059   3.273  11.266  1.00  0.00     0.198 S 
HETATM   30  O10 UNL     1       0.544   2.573   9.966  1.00  0.00    -0.226 OA
BRANCH  29  31
HETATM   31  C12 UNL     1      -1.689   2.959  12.005  1.00  0.00     0.249 A 
HETATM   32  N3  UNL     1      -2.620   3.961  11.957  1.00  0.00    -0.164 N 
HETATM   33  C13 UNL     1      -3.839   3.861  12.447  1.00  0.00     0.692 A 
ATOM     34  H3  UNL     1      -2.353   4.840  11.514  1.00  0.00     0.186 HD
HETATM   35  N5  UNL     1      -4.195   2.704  13.031  1.00  0.00    -0.021 N 
HETATM   36  C14 UNL     1      -3.336   1.680  13.112  1.00  0.00     0.713 A 
ATOM     37  H5  UNL     1      -5.134   2.604  13.419  1.00  0.00     0.203 HD
HETATM   38  N7  UNL     1      -2.106   1.829  12.598  1.00  0.00    -0.065 N 
BRANCH  33  39
HETATM   39  N4  UNL     1      -4.722   4.814  12.402  1.00  0.00    -0.234 N 
ATOM     40  H42 UNL     1      -4.509   5.685  12.888  1.00  0.00     0.174 HD
ATOM     41  H41 UNL     1      -5.613   4.744  11.910  1.00  0.00     0.174 HD
ENDBRANCH  33  39
BRANCH  36  42
HETATM   42  N6  UNL     1      -3.701   0.581  13.686  1.00  0.00    -0.232 N 
ATOM     43  H62 UNL     1      -4.513   0.544  14.302  1.00  0.00     0.174 HD
ATOM     44  H61 UNL     1      -3.175  -0.277  13.518  1.00  0.00     0.174 HD
ENDBRANCH  36  42
BRANCH  38  45
HETATM   45  N8  UNL     1      -1.192   0.764  12.674  1.00  0.00    -0.322 N 
ATOM     46  H82 UNL     1      -1.316  -0.047  12.068  1.00  0.00     0.178 HD
ATOM     47  H81 UNL     1      -0.428   0.848  13.346  1.00  0.00     0.178 HD
ENDBRANCH  38  45
ENDBRANCH  29  31
ENDBRANCH   1  29
TORSDOF 17
ENDMDL
MODEL 3
REMARK VINA RESULT: -6.966477825      1.990      2.905
REMARK  17 active torsions:
REMARK  status: ('A' for Active; 'I' for Inactive)
REMARK    1  A    between atoms: O1_2  and  C2_3 
REMARK    2  A    between atoms: C2_3  and  C3_5 
REMARK    3  A    between atoms: C3_5  and  C4_6 
REMARK    4  A    between atoms: C3_5  and  N1_11 
REMARK    5  A    between atoms: C4_6  and  O3_7 
REMARK    6  A    between atoms: C4_6  and  O4_9 
REMARK    7  A    between atoms: N1_11  and  C5_12 
REMARK    8  A    between atoms: N1_11  and  S1_29 
REMARK    9  A    between atoms: C6_14  and  C7_15 
REMARK   10  A    between atoms: C7_15  and  O6_17 
REMARK   11  A    between atoms: C9_19  and  O7_20 
REMARK   12  A    between atoms: C11_24  and  N2_25 
REMARK   13  A    between atoms: N2_25  and  O9_27 
REMARK   14  A    between atoms: S1_29  and  C12_31 
REMARK   15  A    between atoms: C13_34  and  N4_35 
REMARK   16  A    between atoms: C14_40  and  N6_41 
REMARK   17  A    between atoms: N7_44  and  N8_45 
ROOT
HETATM    1  N1  UNL     1       1.204   4.460  12.189  1.00  0.00    -0.224 N 
ENDROOT
BRANCH   1   2
HETATM    2  C3  UNL     1       1.745   4.857  10.945  1.00  0.00     0.157 C 
BRANCH   2   3
HETATM    3  C2  UNL     1       2.583   6.109  11.006  1.00  0.00     0.311 C 
HETATM    4  O2  UNL     1       2.358   6.950  11.880  1.00  0.00    -0.258 OA
BRANCH   3   5
HETATM    5  O1  UNL     1       3.590   6.314  10.094  1.00  0.00    -0.322 OA
HETATM    6  C1  UNL     1       3.741   7.429   9.256  1.00  0.00     0.213 C 
ENDBRANCH   3   5
ENDBRANCH   2   3
BRANCH   2   7
HETATM    7  C4  UNL     1       0.866   4.814   9.736  1.00  0.00     0.312 C 
BRANCH   7   8
HETATM    8  O3  UNL     1       1.569   4.303   8.678  1.00  0.00    -0.366 OA
ATOM      9  H3  UNL     1       2.167   3.633   8.989  1.00  0.00     0.213 HD
ENDBRANCH   7   8
BRANCH   7  10
HETATM   10  O4  UNL     1       0.501   6.142   9.427  1.00  0.00    -0.366 OA
ATOM     11  H4  UNL     1      -0.361   6.118   9.029  1.00  0.00     0.213 HD
ENDBRANCH   7  10
ENDBRANCH   2   7
ENDBRANCH   1   2
BRANCH   1  12
HETATM   12  C5  UNL     1      -0.196   4.561  12.421  1.00  0.00     0.196 A 
HETATM   13  O5  UNL     1      -1.010   3.620  11.926  1.00  0.00    -0.289 OA
HETATM   14  C6  UNL     1      -2.289   3.586  12.053  1.00  0.00     0.121 A 
HETATM   15  C9  UNL     1      -2.902   4.614  12.771  1.00  0.00     0.151 A 
HETATM   16  C10 UNL     1      -2.111   5.613  13.303  1.00  0.00     0.240 A 
HETATM   17  O8  UNL     1      -2.649   6.546  13.951  1.00  0.00    -0.283 OA
HETATM   18  C11 UNL     1      -0.731   5.601  13.135  1.00  0.00     0.159 A 
BRANCH  14  19
HETATM   19  C7  UNL     1      -3.122   2.483  11.462  1.00  0.00     0.174 C 
HETATM   20  C8  UNL     1      -3.261   2.656   9.957  1.00  0.00     0.046 C 
BRANCH  19  21
HETATM   21  O6  UNL     1      -2.556   1.238  11.727  1.00  0.00    -0.389 OA
ATOM     22  H6  UNL     1      -3.126   0.538  11.432  1.00  0.00     0.210 HD
ENDBRANCH  19  21
ENDBRANCH  14  19
BRANCH  15  23
HETATM   23  O7  UNL     1      -4.266   4.561  12.896  1.00  0.00    -0.355 OA
ATOM     24  H7  UNL     1      -4.629   4.728  13.758  1.00  0.00     0.218 HD
ENDBRANCH  15  23
BRANCH  18  25
HETATM   25  N2  UNL     1       0.043   6.666  13.712  1.00  0.00    -0.261 N 
ATOM     26  H2  UNL     1       0.803   6.441  14.355  1.00  0.00     0.194 HD
BRANCH  25  27
HETATM   27  O9  UNL     1      -0.196   7.860  13.442  1.00  0.00    -0.289 OA
ATOM     28  H9  UNL     1       0.140   8.565  13.983  1.00  0.00     0.244 HD
ENDBRANCH  25  27
ENDBRANCH  18  25
ENDBRANCH   1  12
BRANCH   1  29
HETATM   29  S1  UNL     1       2.364   3.613  13.515  1.00  0.00     0.198 S 
HETATM   30  O10 UNL     1       3.011   4.538  14.584  1.00  0.00    -0.226 OA
BRANCH  29  31
HETATM   31  C12 UNL     1       1.731   1.847  13.941  1.00  0.00     0.249 A 
HETATM   32  N3  UNL     1       0.383   1.612  13.963  1.00  0.00    -0.164 N 
HETATM   33  C13 UNL     1      -0.159   0.447  14.259  1.00  0.00     0.692 A 
ATOM     34  H3  UNL     1      -0.240   2.386  13.735  1.00  0.00     0.186 HD
HETATM   35  N5  UNL     1       0.659  -0.576  14.558  1.00  0.00    -0.021 N 
HETATM   36  C14 UNL     1       1.990  -0.418  14.554  1.00  0.00     0.713 A 
ATOM     37  H5  UNL     1       0.262  -1.486  14.791  1.00  0.00     0.203 HD
HETATM   38  N7  UNL     1       2.495   0.785  14.247  1.00  0.00    -0.065 N 
BRANCH  33  39
HETATM   39  N4  UNL     1      -1.440   0.226  14.280  1.00  0.00    -0.234 N 
ATOM     40  H42 UNL     1      -1.932   0.359  15.163  1.00  0.00     0.174 HD
ATOM     41  H41 UNL     1      -1.981  -0.073  13.468  1.00  0.00     0.174 HD
ENDBRANCH  33  39
BRANCH  36  42
HETATM   42  N6  UNL     1       2.754  -1.417  14.854  1.00  0.00    -0.232 N 
ATOM     43  H62 UNL     1       3.072  -2.078  14.146  1.00  0.00     0.174 HD
ATOM     44  H61 UNL     1       3.058  -1.549  15.819  1.00  0.00     0.174 HD
ENDBRANCH  36  42
BRANCH  38  45
HETATM   45  N8  UNL     1       3.888   0.968  14.238  1.00  0.00    -0.322 N 
ATOM     46  H82 UNL     1       4.302   1.636  13.587  1.00  0.00     0.178 HD
ATOM     47  H81 UNL     1       4.438   0.414  14.895  1.00  0.00     0.178 HD
ENDBRANCH  38  45
ENDBRANCH  29  31
ENDBRANCH   1  29
TORSDOF 17
ENDMDL
MODEL 4
REMARK VINA RESULT: -6.966403570      2.554      5.379
REMARK  17 active torsions:
REMARK  status: ('A' for Active; 'I' for Inactive)
REMARK    1  A    between atoms: O1_2  and  C2_3 
REMARK    2  A    between atoms: C2_3  and  C3_5 
REMARK    3  A    between atoms: C3_5  and  C4_6 
REMARK    4  A    between atoms: C3_5  and  N1_11 
REMARK    5  A    between atoms: C4_6  and  O3_7 
REMARK    6  A    between atoms: C4_6  and  O4_9 
REMARK    7  A    between atoms: N1_11  and  C5_12 
REMARK    8  A    between atoms: N1_11  and  S1_29 
REMARK    9  A    between atoms: C6_14  and  C7_15 
REMARK   10  A    between atoms: C7_15  and  O6_17 
REMARK   11  A    between atoms: C9_19  and  O7_20 
REMARK   12  A    between atoms: C11_24  and  N2_25 
REMARK   13  A    between atoms: N2_25  and  O9_27 
REMARK   14  A    between atoms: S1_29  and  C12_31 
REMARK   15  A    between atoms: C13_34  and  N4_35 
REMARK   16  A    between atoms: C14_40  and  N6_41 
REMARK   17  A    between atoms: N7_44  and  N8_45 
ROOT
HETATM    1  N1  UNL     1       1.308   3.518  12.607  1.00  0.00    -0.224 N 
ENDROOT
BRANCH   1   2
HETATM    2  C3  UNL     1       1.588   4.816  13.090  1.00  0.00     0.157 C 
BRANCH   2   3
HETATM    3  C2  UNL     1       2.264   5.718  12.088  1.00  0.00     0.311 C 
HETATM    4  O2  UNL     1       2.069   6.936  12.136  1.00  0.00    -0.258 OA
BRANCH   3   5
HETATM    5  O1  UNL     1       3.091   5.189  11.128  1.00  0.00    -0.322 OA
HETATM    6  C1  UNL     1       3.000   5.396   9.742  1.00  0.00     0.213 C 
ENDBRANCH   3   5
ENDBRANCH   2   3
BRANCH   2   7
HETATM    7  C4  UNL     1       2.157   4.961  14.465  1.00  0.00     0.312 C 
BRANCH   7   8
HETATM    8  O3  UNL     1       1.601   6.052  15.077  1.00  0.00    -0.366 OA
ATOM      9  H3  UNL     1       2.290   6.635  15.373  1.00  0.00     0.213 HD
ENDBRANCH   7   8
BRANCH   7  10
HETATM   10  O4  UNL     1       3.544   5.185  14.331  1.00  0.00    -0.366 OA
ATOM     11  H4  UNL     1       3.847   5.598  15.131  1.00  0.00     0.213 HD
ENDBRANCH   7  10
ENDBRANCH   2   7
ENDBRANCH   1   2
BRANCH   1  12
HETATM   12  C5  UNL     1       1.859   2.381  13.261  1.00  0.00     0.196 A 
HETATM   13  O5  UNL     1       1.090   1.673  14.097  1.00  0.00    -0.289 OA
HETATM   14  C6  UNL     1       1.454   0.630  14.756  1.00  0.00     0.121 A 
HETATM   15  C9  UNL     1       2.766   0.181  14.597  1.00  0.00     0.151 A 
HETATM   16  C10 UNL     1       3.605   0.875  13.747  1.00  0.00     0.240 A 
HETATM   17  O8  UNL     1       4.790   0.483  13.594  1.00  0.00    -0.283 OA
HETATM   18  C11 UNL     1       3.159   1.997  13.058  1.00  0.00     0.159 A 
BRANCH  14  19
HETATM   19  C7  UNL     1       0.517  -0.103  15.673  1.00  0.00     0.174 C 
HETATM   20  C8  UNL     1       0.154  -1.466  15.101  1.00  0.00     0.046 C 
BRANCH  19  21
HETATM   21  O6  UNL     1       1.087  -0.276  16.932  1.00  0.00    -0.389 OA
ATOM     22  H6  UNL     1       2.021  -0.436  16.862  1.00  0.00     0.210 HD
ENDBRANCH  19  21
ENDBRANCH  14  19
BRANCH  15  23
HETATM   23  O7  UNL     1       3.137  -0.930  15.308  1.00  0.00    -0.355 OA
ATOM     24  H7  UNL     1       3.983  -1.311  15.106  1.00  0.00     0.218 HD
ENDBRANCH  15  23
BRANCH  18  25
HETATM   25  N2  UNL     1       4.075   2.680  12.185  1.00  0.00    -0.261 N 
ATOM     26  H2  UNL     1       3.961   2.594  11.175  1.00  0.00     0.194 HD
BRANCH  25  27
HETATM   27  O9  UNL     1       5.006   3.374  12.639  1.00  0.00    -0.289 OA
ATOM     28  H9  UNL     1       5.381   4.087  12.135  1.00  0.00     0.244 HD
ENDBRANCH  25  27
ENDBRANCH  18  25
ENDBRANCH   1  12
BRANCH   1  29
HETATM   29  S1  UNL     1       0.027   3.291  11.148  1.00  0.00     0.198 S 
HETATM   30  O10 UNL     1       0.587   2.803   9.782  1.00  0.00    -0.226 OA
BRANCH  29  31
HETATM   31  C12 UNL     1      -1.673   2.698  11.825  1.00  0.00     0.249 A 
HETATM   32  N3  UNL     1      -1.724   1.568  12.595  1.00  0.00    -0.164 N 
HETATM   33  C13 UNL     1      -2.835   1.063  13.094  1.00  0.00     0.692 A 
ATOM     34  H3  UNL     1      -0.848   1.087  12.795  1.00  0.00     0.186 HD
HETATM   35  N5  UNL     1      -3.992   1.696  12.833  1.00  0.00    -0.021 N 
HETATM   36  C14 UNL     1      -4.017   2.808  12.088  1.00  0.00     0.713 A 
ATOM     37  H5  UNL     1      -4.864   1.322  13.208  1.00  0.00     0.203 HD
HETATM   38  N7  UNL     1      -2.861   3.284  11.602  1.00  0.00    -0.065 N 
BRANCH  33  39
HETATM   39  N4  UNL     1      -2.882  -0.011  13.825  1.00  0.00    -0.234 N 
ATOM     40  H42 UNL     1      -2.004  -0.366  14.204  1.00  0.00     0.174 HD
ATOM     41  H41 UNL     1      -3.740  -0.518  14.040  1.00  0.00     0.174 HD
ENDBRANCH  33  39
BRANCH  36  42
HETATM   42  N6  UNL     1      -5.145   3.392  11.846  1.00  0.00    -0.232 N 
ATOM     43  H62 UNL     1      -5.803   3.019  11.161  1.00  0.00     0.174 HD
ATOM     44  H61 UNL     1      -5.394   4.241  12.352  1.00  0.00     0.174 HD
ENDBRANCH  36  42
BRANCH  38  45
HETATM   45  N8  UNL     1      -2.869   4.450  10.819  1.00  0.00    -0.322 N 
ATOM     46  H82 UNL     1      -1.984   4.876  10.544  1.00  0.00     0.178 HD
ATOM     47  H81 UNL     1      -3.778   4.830  10.552  1.00  0.00     0.178 HD
ENDBRANCH  38  45
ENDBRANCH  29  31
ENDBRANCH   1  29
TORSDOF 17
ENDMDL
MODEL 5
REMARK VINA RESULT: -6.753232640      3.246      6.047
REMARK  17 active torsions:
REMARK  status: ('A' for Active; 'I' for Inactive)
REMARK    1  A    between atoms: O1_2  and  C2_3 
REMARK    2  A    between atoms: C2_3  and  C3_5 
REMARK    3  A    between atoms: C3_5  and  C4_6 
REMARK    4  A    between atoms: C3_5  and  N1_11 
REMARK    5  A    between atoms: C4_6  and  O3_7 
REMARK    6  A    between atoms: C4_6  and  O4_9 
REMARK    7  A    between atoms: N1_11  and  C5_12 
REMARK    8  A    between atoms: N1_11  and  S1_29 
REMARK    9  A    between atoms: C6_14  and  C7_15 
REMARK   10  A    between atoms: C7_15  and  O6_17 
REMARK   11  A    between atoms: C9_19  and  O7_20 
REMARK   12  A    between atoms: C11_24  and  N2_25 
REMARK   13  A    between atoms: N2_25  and  O9_27 
REMARK   14  A    between atoms: S1_29  and  C12_31 
REMARK   15  A    between atoms: C13_34  and  N4_35 
REMARK   16  A    between atoms: C14_40  and  N6_41 
REMARK   17  A    between atoms: N7_44  and  N8_45 
ROOT
HETATM    1  N1  UNL     1       1.926   4.252  11.421  1.00  0.00    -0.224 N 
ENDROOT
BRANCH   1   2
HETATM    2  C3  UNL     1       2.334   5.318  12.255  1.00  0.00     0.157 C 
BRANCH   2   3
HETATM    3  C2  UNL     1       3.818   5.368  12.514  1.00  0.00     0.311 C 
HETATM    4  O2  UNL     1       4.508   6.218  11.944  1.00  0.00    -0.258 OA
BRANCH   3   5
HETATM    5  O1  UNL     1       4.400   4.475  13.380  1.00  0.00    -0.322 OA
HETATM    6  C1  UNL     1       5.738   4.478  13.806  1.00  0.00     0.213 C 
ENDBRANCH   3   5
ENDBRANCH   2   3
BRANCH   2   7
HETATM    7  C4  UNL     1       1.529   5.618  13.479  1.00  0.00     0.312 C 
BRANCH   7   8
HETATM    8  O3  UNL     1       0.585   6.565  13.184  1.00  0.00    -0.366 OA
ATOM      9  H3  UNL     1       0.505   7.170  13.912  1.00  0.00     0.213 HD
ENDBRANCH   7   8
BRANCH   7  10
HETATM   10  O4  UNL     1       2.407   6.151  14.446  1.00  0.00    -0.366 OA
ATOM     11  H4  UNL     1       1.877   6.500  15.154  1.00  0.00     0.213 HD
ENDBRANCH   7  10
ENDBRANCH   2   7
ENDBRANCH   1   2
BRANCH   1  12
HETATM   12  C5  UNL     1       1.278   3.117  11.983  1.00  0.00     0.196 A 
HETATM   13  O5  UNL     1      -0.054   3.123  12.111  1.00  0.00    -0.289 OA
HETATM   14  C6  UNL     1      -0.769   2.173  12.603  1.00  0.00     0.121 A 
HETATM   15  C9  UNL     1      -0.113   1.024  13.046  1.00  0.00     0.151 A 
HETATM   16  C10 UNL     1       1.262   0.963  12.938  1.00  0.00     0.240 A 
HETATM   17  O8  UNL     1       1.868  -0.065  13.334  1.00  0.00    -0.283 OA
HETATM   18  C11 UNL     1       1.987   2.020  12.399  1.00  0.00     0.159 A 
BRANCH  14  19
HETATM   19  C7  UNL     1      -2.265   2.269  12.704  1.00  0.00     0.174 C 
HETATM   20  C8  UNL     1      -2.740   3.680  12.392  1.00  0.00     0.046 C 
BRANCH  19  21
HETATM   21  O6  UNL     1      -2.881   1.378  11.829  1.00  0.00    -0.389 OA
ATOM     22  H6  UNL     1      -3.731   1.702  11.558  1.00  0.00     0.210 HD
ENDBRANCH  19  21
ENDBRANCH  14  19
BRANCH  15  23
HETATM   23  O7  UNL     1      -0.890   0.022  13.567  1.00  0.00    -0.355 OA
ATOM     24  H7  UNL     1      -0.441  -0.693  14.001  1.00  0.00     0.218 HD
ENDBRANCH  15  23
BRANCH  18  25
HETATM   25  N2  UNL     1       3.417   1.902  12.310  1.00  0.00    -0.261 N 
ATOM     26  H2  UNL     1       3.887   2.158  11.441  1.00  0.00     0.194 HD
BRANCH  25  27
HETATM   27  O9  UNL     1       4.094   1.494  13.275  1.00  0.00    -0.289 OA
ATOM     28  H9  UNL     1       4.837   0.916  13.146  1.00  0.00     0.244 HD
ENDBRANCH  25  27
ENDBRANCH  18  25
ENDBRANCH   1  12
BRANCH   1  29
HETATM   29  S1  UNL     1       2.101   4.428   9.482  1.00  0.00     0.198 S 
HETATM   30  O10 UNL     1       1.309   3.419   8.604  1.00  0.00    -0.226 OA
BRANCH  29  31
HETATM   31  C12 UNL     1       2.304   6.276   8.984  1.00  0.00     0.249 A 
HETATM   32  N3  UNL     1       3.501   6.897   9.211  1.00  0.00    -0.164 N 
HETATM   33  C13 UNL     1       3.744   8.161   8.927  1.00  0.00     0.692 A 
ATOM     34  H3  UNL     1       4.253   6.348   9.626  1.00  0.00     0.186 HD
HETATM   35  N5  UNL     1       2.755   8.889   8.379  1.00  0.00    -0.021 N 
HETATM   36  C14 UNL     1       1.558   8.345   8.127  1.00  0.00     0.713 A 
ATOM     37  H5  UNL     1       2.920   9.869   8.152  1.00  0.00     0.203 HD
HETATM   38  N7  UNL     1       1.359   7.055   8.434  1.00  0.00    -0.065 N 
BRANCH  33  39
HETATM   39  N4  UNL     1       4.882   8.751   9.144  1.00  0.00    -0.234 N 
ATOM     40  H42 UNL     1       5.693   8.426   8.618  1.00  0.00     0.174 HD
ATOM     41  H41 UNL     1       5.012   9.515   9.807  1.00  0.00     0.174 HD
ENDBRANCH  33  39
BRANCH  36  42
HETATM   42  N6  UNL     1       0.622   9.069   7.607  1.00  0.00    -0.232 N 
ATOM     43  H62 UNL     1       0.660  10.089   7.628  1.00  0.00     0.174 HD
ATOM     44  H61 UNL     1      -0.175   8.620   7.155  1.00  0.00     0.174 HD
ENDBRANCH  36  42
BRANCH  38  45
HETATM   45  N8  UNL     1       0.108   6.468   8.176  1.00  0.00    -0.322 N 
ATOM     46  H82 UNL     1       0.013   5.810   7.403  1.00  0.00     0.178 HD
ATOM     47  H81 UNL     1      -0.668   6.731   8.784  1.00  0.00     0.178 HD
ENDBRANCH  38  45
ENDBRANCH  29  31
ENDBRANCH   1  29
TORSDOF 17
ENDMDL
