MODEL 1
REMARK VINA RESULT: -9.091816731      0.000      0.000
REMARK  10 active torsions:
REMARK  status: ('A' for Active; 'I' for Inactive)
REMARK    1  A    between atoms: C1_2  and  C2_4 
REMARK    2  A    between atoms: C2_4  and  C3_5 
REMARK    3  A    between atoms: C2_4  and  C8_25 
REMARK       I    between atoms: C3_5  and  N2_7 
REMARK    4  A    between atoms: N2_7  and  N3_9 
REMARK    5  A    between atoms: N3_9  and  N4_11 
REMARK       I    between atoms: N4_11  and  C4_13 
REMARK       I    between atoms: C4_13  and  N5_15 
REMARK    6  A    between atoms: C6_19  and  O4_20 
REMARK    7  A    between atoms: C7_22  and  O5_23 
REMARK    8  A    between atoms: C9_28  and  N8_29 
REMARK    9  A    between atoms: N8_29  and  C10_31 
REMARK   10  A    between atoms: C13_40  and  N12_41 
REMARK       I    between atoms: N12_41  and  C14_43 
REMARK       I    between atoms: C14_43  and  N13_44 
REMARK       I    between atoms: C14_43  and  N14_48 
ROOT
HETATM    1  C8  UNL     1     -29.594 -11.821  -5.887  1.00  0.00     0.135 A 
HETATM    2  N7  UNL     1     -30.531 -12.792  -5.692  1.00  0.00    -0.178 N 
ATOM      3  H7  UNL     1     -30.232 -13.741  -5.470  1.00  0.00     0.185 HD
HETATM    4  C9  UNL     1     -31.838 -12.520  -5.790  1.00  0.00     0.700 A 
HETATM    5  N11 UNL     1     -32.233 -11.276  -6.078  1.00  0.00    -0.022 N 
ATOM      6  H11 UNL     1     -33.231 -11.078  -6.149  1.00  0.00     0.203 HD
HETATM    7  C13 UNL     1     -31.344 -10.263  -6.281  1.00  0.00     0.697 A 
HETATM    8  N15 UNL     1     -30.045 -10.590  -6.175  1.00  0.00    -0.178 N 
ATOM      9  H15 UNL     1     -29.356  -9.853  -6.322  1.00  0.00     0.185 HD
ENDROOT
BRANCH   1  10
HETATM   10  C2  UNL     1     -28.184 -12.192  -5.788  1.00  0.00     0.237 C 
BRANCH  10  11
HETATM   11  C1  UNL     1     -27.827 -12.479  -4.384  1.00  0.00     0.251 C 
HETATM   12  N1  UNL     1     -28.571 -11.903  -3.330  1.00  0.00    -0.061 NA
HETATM   13  O1  UNL     1     -26.868 -13.235  -4.120  1.00  0.00    -0.275 OA
ENDBRANCH  10  11
BRANCH  10  14
HETATM   14  C3  UNL     1     -27.223 -11.311  -6.450  1.00  0.00     0.258 C 
HETATM   15  O2  UNL     1     -27.056 -11.307  -7.664  1.00  0.00    -0.270 OA
HETATM   16  N2  UNL     1     -26.433 -10.406  -5.638  1.00  0.00    -0.240 N 
ATOM     17  H2  UNL     1     -26.589 -10.401  -4.631  1.00  0.00     0.192 HD
BRANCH  16  18
HETATM   18  N3  UNL     1     -25.509  -9.576  -6.141  1.00  0.00    -0.149 N 
HETATM   19  S1  UNL     1     -25.934  -7.866  -6.111  1.00  0.00     0.089 SA
BRANCH  18  20
HETATM   20  N4  UNL     1     -24.204  -9.808  -5.845  1.00  0.00    -0.222 N 
HETATM   21  C4  UNL     1     -23.562 -11.052  -5.771  1.00  0.00     0.350 C 
HETATM   22  O3  UNL     1     -24.081 -12.185  -5.973  1.00  0.00    -0.244 OA
HETATM   23  N5  UNL     1     -22.150 -11.052  -5.423  1.00  0.00    -0.235 N 
HETATM   24  C5  UNL     1     -21.347 -10.020  -5.175  1.00  0.00     0.197 A 
HETATM   25  C7  UNL     1     -21.406 -12.154  -5.255  1.00  0.00     0.204 A 
HETATM   26  N6  UNL     1     -20.100 -10.453  -4.852  1.00  0.00    -0.329 N 
HETATM   27  C6  UNL     1     -20.119 -11.796  -4.898  1.00  0.00     0.194 A 
ATOM     28  H6  UNL     1     -19.299  -9.868  -4.617  1.00  0.00     0.168 HD
ATOM     29  H4  UNL     1     -23.628  -8.987  -5.655  1.00  0.00     0.194 HD
BRANCH  27  30
HETATM   30  O4  UNL     1     -19.054 -12.683  -4.635  1.00  0.00    -0.343 OA
ATOM     31  H4  UNL     1     -18.619 -13.266  -5.247  1.00  0.00     0.219 HD
ENDBRANCH  27  30
BRANCH  25  32
HETATM   32  O5  UNL     1     -21.828 -13.484  -5.410  1.00  0.00    -0.342 OA
ATOM     33  H5  UNL     1     -22.593 -13.887  -5.017  1.00  0.00     0.219 HD
ENDBRANCH  25  32
ENDBRANCH  18  20
ENDBRANCH  16  18
ENDBRANCH  10  14
ENDBRANCH   1  10
BRANCH   4  34
HETATM   34  N8  UNL     1     -32.780 -13.556  -5.595  1.00  0.00    -0.161 N 
ATOM     35  H8  UNL     1     -33.323 -13.892  -6.391  1.00  0.00     0.187 HD
BRANCH  34  36
HETATM   36  C10 UNL     1     -32.992 -14.152  -4.290  1.00  0.00     0.190 A 
HETATM   37  N9  UNL     1     -32.781 -13.585  -3.158  1.00  0.00    -0.360 N 
HETATM   38  C11 UNL     1     -33.077 -14.413  -2.023  1.00  0.00     0.142 A 
ATOM     39  H9  UNL     1     -32.433 -12.629  -3.072  1.00  0.00     0.162 HD
HETATM   40  C12 UNL     1     -33.498 -15.730  -2.607  1.00  0.00     0.142 A 
HETATM   41  N10 UNL     1     -33.470 -15.461  -4.049  1.00  0.00    -0.360 N 
ATOM     42  H10 UNL     1     -33.754 -16.122  -4.773  1.00  0.00     0.162 HD
ENDBRANCH  34  36
ENDBRANCH   4  34
BRANCH   7  43
HETATM   43  N12 UNL     1     -31.710  -9.058  -6.568  1.00  0.00    -0.173 N 
HETATM   44  C14 UNL     1     -32.604  -8.300  -5.731  1.00  0.00     0.494 C 
HETATM   45  N13 UNL     1     -33.986  -8.702  -5.954  1.00  0.00    -0.032 N 
HETATM   46  N14 UNL     1     -32.318  -8.335  -4.334  1.00  0.00    -0.032 N 
ATOM     47 3H13 UNL     1     -34.245  -8.637  -6.938  1.00  0.00     0.278 HD
ATOM     48 2H13 UNL     1     -34.112  -9.707  -5.828  1.00  0.00     0.278 HD
ATOM     49 1H13 UNL     1     -34.619  -8.165  -5.361  1.00  0.00     0.278 HD
ATOM     50 3H14 UNL     1     -32.274  -9.301  -4.011  1.00  0.00     0.278 HD
ATOM     51 2H14 UNL     1     -31.354  -8.045  -4.168  1.00  0.00     0.278 HD
ATOM     52 1H14 UNL     1     -32.951  -7.797  -3.741  1.00  0.00     0.278 HD
ATOM     53  H12 UNL     1     -31.353  -8.627  -7.420  1.00  0.00     0.181 HD
ENDBRANCH   7  43
TORSDOF 10
ENDMDL
MODEL 2
REMARK VINA RESULT: -8.853903237      2.686      4.815
REMARK  10 active torsions:
REMARK  status: ('A' for Active; 'I' for Inactive)
REMARK    1  A    between atoms: C1_2  and  C2_4 
REMARK    2  A    between atoms: C2_4  and  C3_5 
REMARK    3  A    between atoms: C2_4  and  C8_25 
REMARK       I    between atoms: C3_5  and  N2_7 
REMARK    4  A    between atoms: N2_7  and  N3_9 
REMARK    5  A    between atoms: N3_9  and  N4_11 
REMARK       I    between atoms: N4_11  and  C4_13 
REMARK       I    between atoms: C4_13  and  N5_15 
REMARK    6  A    between atoms: C6_19  and  O4_20 
REMARK    7  A    between atoms: C7_22  and  O5_23 
REMARK    8  A    between atoms: C9_28  and  N8_29 
REMARK    9  A    between atoms: N8_29  and  C10_31 
REMARK   10  A    between atoms: C13_40  and  N12_41 
REMARK       I    between atoms: N12_41  and  C14_43 
REMARK       I    between atoms: C14_43  and  N13_44 
REMARK       I    between atoms: C14_43  and  N14_48 
ROOT
HETATM    1  C8  UNL     1     -28.405 -11.143  -5.517  1.00  0.00     0.135 A 
HETATM    2  N7  UNL     1     -27.227 -11.727  -5.877  1.00  0.00    -0.178 N 
ATOM      3  H7  UNL     1     -26.441 -11.140  -6.155  1.00  0.00     0.185 HD
HETATM    4  C9  UNL     1     -27.085 -13.058  -5.870  1.00  0.00     0.700 A 
HETATM    5  N11 UNL     1     -28.113 -13.828  -5.503  1.00  0.00    -0.022 N 
ATOM      6  H11 UNL     1     -27.995 -14.841  -5.500  1.00  0.00     0.203 HD
HETATM    7  C13 UNL     1     -29.315 -13.303  -5.131  1.00  0.00     0.697 A 
HETATM    8  N15 UNL     1     -29.405 -11.964  -5.157  1.00  0.00    -0.178 N 
ATOM      9  H15 UNL     1     -30.293 -11.541  -4.886  1.00  0.00     0.185 HD
ENDROOT
BRANCH   1  10
HETATM   10  C2  UNL     1     -28.499  -9.685  -5.569  1.00  0.00     0.237 C 
BRANCH  10  11
HETATM   11  C1  UNL     1     -29.254  -9.263  -6.766  1.00  0.00     0.251 C 
HETATM   12  N1  UNL     1     -29.060  -9.926  -7.998  1.00  0.00    -0.061 NA
HETATM   13  O1  UNL     1     -30.070  -8.321  -6.694  1.00  0.00    -0.275 OA
ENDBRANCH  10  11
BRANCH  10  14
HETATM   14  C3  UNL     1     -27.254  -8.938  -5.389  1.00  0.00     0.258 C 
HETATM   15  O2  UNL     1     -26.795  -8.675  -4.284  1.00  0.00    -0.270 OA
HETATM   16  N2  UNL     1     -26.536  -8.488  -6.564  1.00  0.00    -0.240 N 
ATOM     17  H2  UNL     1     -26.914  -8.726  -7.481  1.00  0.00     0.192 HD
BRANCH  16  18
HETATM   18  N3  UNL     1     -25.401  -7.777  -6.511  1.00  0.00    -0.149 N 
HETATM   19  S1  UNL     1     -25.579  -6.112  -5.963  1.00  0.00     0.089 SA
BRANCH  18  20
HETATM   20  N4  UNL     1     -24.283  -8.382  -6.031  1.00  0.00    -0.222 N 
HETATM   21  C4  UNL     1     -23.948  -9.739  -6.127  1.00  0.00     0.350 C 
HETATM   22  O3  UNL     1     -24.626 -10.649  -6.684  1.00  0.00    -0.244 OA
HETATM   23  N5  UNL     1     -22.694 -10.160  -5.523  1.00  0.00    -0.235 N 
HETATM   24  C5  UNL     1     -21.781  -9.427  -4.892  1.00  0.00     0.197 A 
HETATM   25  C7  UNL     1     -22.257 -11.426  -5.477  1.00  0.00     0.204 A 
HETATM   26  N6  UNL     1     -20.766 -10.213  -4.444  1.00  0.00    -0.329 N 
HETATM   27  C6  UNL     1     -21.049 -11.475  -4.804  1.00  0.00     0.194 A 
ATOM     28  H6  UNL     1     -19.942  -9.902  -3.929  1.00  0.00     0.168 HD
ATOM     29  H4  UNL     1     -23.615  -7.781  -5.548  1.00  0.00     0.194 HD
BRANCH  27  30
HETATM   30  O4  UNL     1     -20.286 -12.636  -4.556  1.00  0.00    -0.343 OA
ATOM     31  H4  UNL     1     -20.594 -13.532  -4.496  1.00  0.00     0.219 HD
ENDBRANCH  27  30
BRANCH  25  32
HETATM   32  O5  UNL     1     -22.893 -12.554  -6.016  1.00  0.00    -0.342 OA
ATOM     33  H5  UNL     1     -22.602 -13.456  -5.952  1.00  0.00     0.219 HD
ENDBRANCH  25  32
ENDBRANCH  18  20
ENDBRANCH  16  18
ENDBRANCH  10  14
ENDBRANCH   1  10
BRANCH   4  34
HETATM   34  N8  UNL     1     -25.853 -13.627  -6.263  1.00  0.00    -0.161 N 
ATOM     35  H8  UNL     1     -25.354 -13.234  -7.062  1.00  0.00     0.187 HD
BRANCH  34  36
HETATM   36  C10 UNL     1     -25.280 -14.757  -5.556  1.00  0.00     0.190 A 
HETATM   37  N9  UNL     1     -24.637 -14.704  -4.446  1.00  0.00    -0.360 N 
HETATM   38  C11 UNL     1     -24.179 -15.981  -3.974  1.00  0.00     0.142 A 
ATOM     39  H9  UNL     1     -24.466 -13.833  -3.944  1.00  0.00     0.162 HD
HETATM   40  C12 UNL     1     -24.598 -16.956  -5.035  1.00  0.00     0.142 A 
HETATM   41  N10 UNL     1     -25.337 -16.106  -5.975  1.00  0.00    -0.360 N 
ATOM     42  H10 UNL     1     -25.823 -16.440  -6.808  1.00  0.00     0.162 HD
ENDBRANCH  34  36
ENDBRANCH   4  34
BRANCH   7  43
HETATM   43  N12 UNL     1     -30.319 -14.036  -4.781  1.00  0.00    -0.173 N 
HETATM   44  C14 UNL     1     -31.087 -14.805  -5.727  1.00  0.00     0.494 C 
HETATM   45  N13 UNL     1     -32.038 -13.955  -6.431  1.00  0.00    -0.032 N 
HETATM   46  N14 UNL     1     -30.326 -15.552  -6.674  1.00  0.00    -0.032 N 
ATOM     47 3H13 UNL     1     -32.639 -13.444  -5.784  1.00  0.00     0.278 HD
ATOM     48 2H13 UNL     1     -31.578 -13.160  -6.874  1.00  0.00     0.278 HD
ATOM     49 1H13 UNL     1     -32.581 -14.500  -7.101  1.00  0.00     0.278 HD
ATOM     50 3H14 UNL     1     -29.680 -14.936  -7.167  1.00  0.00     0.278 HD
ATOM     51 2H14 UNL     1     -29.663 -16.157  -6.189  1.00  0.00     0.278 HD
ATOM     52 1H14 UNL     1     -30.870 -16.096  -7.344  1.00  0.00     0.278 HD
ATOM     53  H12 UNL     1     -30.579 -14.073  -3.795  1.00  0.00     0.181 HD
ENDBRANCH   7  43
TORSDOF 10
ENDMDL
MODEL 3
REMARK VINA RESULT: -8.783228921      2.804      4.658
REMARK  10 active torsions:
REMARK  status: ('A' for Active; 'I' for Inactive)
REMARK    1  A    between atoms: C1_2  and  C2_4 
REMARK    2  A    between atoms: C2_4  and  C3_5 
REMARK    3  A    between atoms: C2_4  and  C8_25 
REMARK       I    between atoms: C3_5  and  N2_7 
REMARK    4  A    between atoms: N2_7  and  N3_9 
REMARK    5  A    between atoms: N3_9  and  N4_11 
REMARK       I    between atoms: N4_11  and  C4_13 
REMARK       I    between atoms: C4_13  and  N5_15 
REMARK    6  A    between atoms: C6_19  and  O4_20 
REMARK    7  A    between atoms: C7_22  and  O5_23 
REMARK    8  A    between atoms: C9_28  and  N8_29 
REMARK    9  A    between atoms: N8_29  and  C10_31 
REMARK   10  A    between atoms: C13_40  and  N12_41 
REMARK       I    between atoms: N12_41  and  C14_43 
REMARK       I    between atoms: C14_43  and  N13_44 
REMARK       I    between atoms: C14_43  and  N14_48 
ROOT
HETATM    1  C8  UNL     1     -28.047 -11.545  -6.098  1.00  0.00     0.135 A 
HETATM    2  N7  UNL     1     -29.179 -11.014  -6.641  1.00  0.00    -0.178 N 
ATOM      3  H7  UNL     1     -30.014 -11.593  -6.726  1.00  0.00     0.185 HD
HETATM    4  C9  UNL     1     -29.212  -9.744  -7.064  1.00  0.00     0.700 A 
HETATM    5  N11 UNL     1     -28.120  -8.983  -6.950  1.00  0.00    -0.022 N 
ATOM      6  H11 UNL     1     -28.156  -8.017  -7.275  1.00  0.00     0.203 HD
HETATM    7  C13 UNL     1     -26.959  -9.457  -6.414  1.00  0.00     0.697 A 
HETATM    8  N15 UNL     1     -26.979 -10.736  -6.008  1.00  0.00    -0.178 N 
ATOM      9  H15 UNL     1     -26.125 -11.120  -5.603  1.00  0.00     0.185 HD
ENDROOT
BRANCH   1  10
HETATM   10  C2  UNL     1     -28.073 -12.945  -5.677  1.00  0.00     0.237 C 
BRANCH  10  11
HETATM   11  C1  UNL     1     -29.399 -13.288  -5.124  1.00  0.00     0.251 C 
HETATM   12  N1  UNL     1     -29.970 -14.554  -5.383  1.00  0.00    -0.061 NA
HETATM   13  O1  UNL     1     -30.021 -12.462  -4.424  1.00  0.00    -0.275 OA
ENDBRANCH  10  11
BRANCH  10  14
HETATM   14  C3  UNL     1     -26.969 -13.400  -4.832  1.00  0.00     0.258 C 
HETATM   15  O2  UNL     1     -27.025 -13.389  -3.609  1.00  0.00    -0.270 OA
HETATM   16  N2  UNL     1     -25.759 -13.882  -5.468  1.00  0.00    -0.240 N 
ATOM     17  H2  UNL     1     -25.725 -13.906  -6.487  1.00  0.00     0.192 HD
BRANCH  16  18
HETATM   18  N3  UNL     1     -24.682 -14.299  -4.788  1.00  0.00    -0.149 N 
HETATM   19  S1  UNL     1     -24.324 -16.019  -4.920  1.00  0.00     0.089 SA
BRANCH  18  20
HETATM   20  N4  UNL     1     -23.570 -13.518  -4.801  1.00  0.00    -0.222 N 
HETATM   21  C4  UNL     1     -23.519 -12.119  -4.858  1.00  0.00     0.350 C 
HETATM   22  O3  UNL     1     -24.502 -11.326  -4.903  1.00  0.00    -0.244 OA
HETATM   23  N5  UNL     1     -22.203 -11.500  -4.872  1.00  0.00    -0.235 N 
HETATM   24  C5  UNL     1     -21.005 -12.077  -4.818  1.00  0.00     0.197 A 
HETATM   25  C7  UNL     1     -21.980 -10.183  -4.982  1.00  0.00     0.204 A 
HETATM   26  N6  UNL     1     -20.022 -11.142  -4.892  1.00  0.00    -0.329 N 
HETATM   27  C6  UNL     1     -20.619  -9.942  -4.995  1.00  0.00     0.194 A 
ATOM     28  H6  UNL     1     -19.018 -11.317  -4.873  1.00  0.00     0.168 HD
ATOM     29  H4  UNL     1     -22.674 -14.004  -4.765  1.00  0.00     0.194 HD
BRANCH  27  30
HETATM   30  O4  UNL     1     -20.001  -8.678  -5.100  1.00  0.00    -0.343 OA
ATOM     31  H4  UNL     1     -20.418  -7.824  -5.073  1.00  0.00     0.219 HD
ENDBRANCH  27  30
BRANCH  25  32
HETATM   32  O5  UNL     1     -22.950  -9.172  -5.071  1.00  0.00    -0.342 OA
ATOM     33  H5  UNL     1     -22.829  -8.299  -5.423  1.00  0.00     0.219 HD
ENDBRANCH  25  32
ENDBRANCH  18  20
ENDBRANCH  16  18
ENDBRANCH  10  14
ENDBRANCH   1  10
BRANCH   4  34
HETATM   34  N8  UNL     1     -30.400  -9.233  -7.634  1.00  0.00    -0.161 N 
ATOM     35  H8  UNL     1     -30.443  -9.079  -8.642  1.00  0.00     0.187 HD
BRANCH  34  36
HETATM   36  C10 UNL     1     -31.560  -8.923  -6.820  1.00  0.00     0.190 A 
HETATM   37  N9  UNL     1     -32.424  -9.768  -6.387  1.00  0.00    -0.360 N 
HETATM   38  C11 UNL     1     -33.474  -9.181  -5.601  1.00  0.00     0.142 A 
ATOM     39  H9  UNL     1     -32.371 -10.767  -6.584  1.00  0.00     0.162 HD
HETATM   40  C12 UNL     1     -33.189  -7.707  -5.619  1.00  0.00     0.142 A 
HETATM   41  N10 UNL     1     -31.928  -7.636  -6.366  1.00  0.00    -0.360 N 
ATOM     42  H10 UNL     1     -31.395  -6.782  -6.533  1.00  0.00     0.162 HD
ENDBRANCH  34  36
ENDBRANCH   4  34
BRANCH   7  43
HETATM   43  N12 UNL     1     -25.895  -8.734  -6.305  1.00  0.00    -0.173 N 
HETATM   44  C14 UNL     1     -25.890  -7.455  -5.643  1.00  0.00     0.494 C 
HETATM   45  N13 UNL     1     -26.422  -6.419  -6.518  1.00  0.00    -0.032 N 
HETATM   46  N14 UNL     1     -26.565  -7.409  -4.387  1.00  0.00    -0.032 N 
ATOM     47 3H13 UNL     1     -25.925  -6.385  -7.408  1.00  0.00     0.278 HD
ATOM     48 2H13 UNL     1     -27.349  -6.660  -6.869  1.00  0.00     0.278 HD
ATOM     49 1H13 UNL     1     -26.418  -5.513  -6.049  1.00  0.00     0.278 HD
ATOM     50 3H14 UNL     1     -27.522  -7.743  -4.493  1.00  0.00     0.278 HD
ATOM     51 2H14 UNL     1     -26.191  -8.125  -3.764  1.00  0.00     0.278 HD
ATOM     52 1H14 UNL     1     -26.561  -6.502  -3.918  1.00  0.00     0.278 HD
ATOM     53  H12 UNL     1     -25.023  -9.084  -6.702  1.00  0.00     0.181 HD
ENDBRANCH   7  43
TORSDOF 10
ENDMDL
MODEL 4
REMARK VINA RESULT: -8.698612103      3.216      8.938
REMARK  10 active torsions:
REMARK  status: ('A' for Active; 'I' for Inactive)
REMARK    1  A    between atoms: C1_2  and  C2_4 
REMARK    2  A    between atoms: C2_4  and  C3_5 
REMARK    3  A    between atoms: C2_4  and  C8_25 
REMARK       I    between atoms: C3_5  and  N2_7 
REMARK    4  A    between atoms: N2_7  and  N3_9 
REMARK    5  A    between atoms: N3_9  and  N4_11 
REMARK       I    between atoms: N4_11  and  C4_13 
REMARK       I    between atoms: C4_13  and  N5_15 
REMARK    6  A    between atoms: C6_19  and  O4_20 
REMARK    7  A    between atoms: C7_22  and  O5_23 
REMARK    8  A    between atoms: C9_28  and  N8_29 
REMARK    9  A    between atoms: N8_29  and  C10_31 
REMARK   10  A    between atoms: C13_40  and  N12_41 
REMARK       I    between atoms: N12_41  and  C14_43 
REMARK       I    between atoms: C14_43  and  N13_44 
REMARK       I    between atoms: C14_43  and  N14_48 
ROOT
HETATM    1  C8  UNL     1     -27.236 -11.446  -4.960  1.00  0.00     0.135 A 
HETATM    2  N7  UNL     1     -25.950 -11.545  -4.520  1.00  0.00    -0.178 N 
ATOM      3  H7  UNL     1     -25.612 -12.435  -4.153  1.00  0.00     0.185 HD
HETATM    4  C9  UNL     1     -25.122 -10.494  -4.563  1.00  0.00     0.700 A 
HETATM    5  N11 UNL     1     -25.561  -9.329  -5.047  1.00  0.00    -0.022 N 
ATOM      6  H11 UNL     1     -24.922  -8.534  -5.076  1.00  0.00     0.203 HD
HETATM    7  C13 UNL     1     -26.835  -9.168  -5.503  1.00  0.00     0.697 A 
HETATM    8  N15 UNL     1     -27.625 -10.252  -5.436  1.00  0.00    -0.178 N 
ATOM      9  H15 UNL     1     -28.585 -10.163  -5.769  1.00  0.00     0.185 HD
ENDROOT
BRANCH   1  10
HETATM   10  C2  UNL     1     -28.093 -12.626  -4.864  1.00  0.00     0.237 C 
BRANCH  10  11
HETATM   11  C1  UNL     1     -27.790 -13.568  -5.960  1.00  0.00     0.251 C 
HETATM   12  N1  UNL     1     -28.348 -14.866  -5.955  1.00  0.00    -0.061 NA
HETATM   13  O1  UNL     1     -27.042 -13.222  -6.898  1.00  0.00    -0.275 OA
ENDBRANCH  10  11
BRANCH  10  14
HETATM   14  C3  UNL     1     -29.526 -12.388  -4.697  1.00  0.00     0.258 C 
HETATM   15  O2  UNL     1     -30.002 -11.904  -3.678  1.00  0.00    -0.270 OA
HETATM   16  N2  UNL     1     -30.421 -12.742  -5.781  1.00  0.00    -0.240 N 
ATOM     17  H2  UNL     1     -30.017 -13.128  -6.634  1.00  0.00     0.192 HD
BRANCH  16  18
HETATM   18  N3  UNL     1     -31.751 -12.588  -5.722  1.00  0.00    -0.149 N 
HETATM   19  S1  UNL     1     -32.612 -13.811  -4.792  1.00  0.00     0.089 SA
BRANCH  18  20
HETATM   20  N4  UNL     1     -32.248 -11.335  -5.549  1.00  0.00    -0.222 N 
HETATM   21  C4  UNL     1     -31.662 -10.129  -5.955  1.00  0.00     0.350 C 
HETATM   22  O3  UNL     1     -30.564  -9.987  -6.563  1.00  0.00    -0.244 OA
HETATM   23  N5  UNL     1     -32.381  -8.903  -5.647  1.00  0.00    -0.235 N 
HETATM   24  C5  UNL     1     -33.553  -8.749  -5.038  1.00  0.00     0.197 A 
HETATM   25  C7  UNL     1     -31.932  -7.668  -5.914  1.00  0.00     0.204 A 
HETATM   26  N6  UNL     1     -33.857  -7.430  -4.914  1.00  0.00    -0.329 N 
HETATM   27  C6  UNL     1     -32.846  -6.734  -5.462  1.00  0.00     0.194 A 
ATOM     28  H6  UNL     1     -34.696  -7.040  -4.486  1.00  0.00     0.168 HD
ATOM     29  H4  UNL     1     -33.147 -11.266  -5.071  1.00  0.00     0.194 HD
BRANCH  27  30
HETATM   30  O4  UNL     1     -32.719  -5.333  -5.564  1.00  0.00    -0.343 OA
ATOM     31  H4  UNL     1     -33.379  -4.708  -5.842  1.00  0.00     0.219 HD
ENDBRANCH  27  30
BRANCH  25  32
HETATM   32  O5  UNL     1     -30.729  -7.332  -6.553  1.00  0.00    -0.342 OA
ATOM     33  H5  UNL     1     -29.914  -7.080  -6.135  1.00  0.00     0.219 HD
ENDBRANCH  25  32
ENDBRANCH  18  20
ENDBRANCH  16  18
ENDBRANCH  10  14
ENDBRANCH   1  10
BRANCH   4  34
HETATM   34  N8  UNL     1     -23.799 -10.632  -4.085  1.00  0.00    -0.161 N 
ATOM     35  H8  UNL     1     -23.625 -11.204  -3.258  1.00  0.00     0.187 HD
BRANCH  34  36
HETATM   36  C10 UNL     1     -22.683  -9.980  -4.742  1.00  0.00     0.190 A 
HETATM   37  N9  UNL     1     -21.692  -9.409  -4.158  1.00  0.00    -0.360 N 
HETATM   38  C11 UNL     1     -20.728  -8.842  -5.059  1.00  0.00     0.142 A 
ATOM     39  H9  UNL     1     -21.598  -9.362  -3.143  1.00  0.00     0.162 HD
HETATM   40  C12 UNL     1     -21.289  -9.092  -6.429  1.00  0.00     0.142 A 
HETATM   41  N10 UNL     1     -22.501  -9.867  -6.140  1.00  0.00    -0.360 N 
ATOM     42  H10 UNL     1     -23.121 -10.266  -6.845  1.00  0.00     0.162 HD
ENDBRANCH  34  36
ENDBRANCH   4  34
BRANCH   7  43
HETATM   43  N12 UNL     1     -27.275  -8.046  -5.967  1.00  0.00    -0.173 N 
HETATM   44  C14 UNL     1     -26.401  -6.956  -6.319  1.00  0.00     0.494 C 
HETATM   45  N13 UNL     1     -25.984  -6.225  -5.131  1.00  0.00    -0.032 N 
HETATM   46  N14 UNL     1     -25.252  -7.311  -7.086  1.00  0.00    -0.032 N 
ATOM     47 3H13 UNL     1     -26.783  -5.906  -4.583  1.00  0.00     0.278 HD
ATOM     48 2H13 UNL     1     -25.559  -6.841  -4.437  1.00  0.00     0.278 HD
ATOM     49 1H13 UNL     1     -25.364  -5.453  -5.380  1.00  0.00     0.278 HD
ATOM     50 3H14 UNL     1     -24.724  -8.041  -6.608  1.00  0.00     0.278 HD
ATOM     51 2H14 UNL     1     -25.537  -7.816  -7.926  1.00  0.00     0.278 HD
ATOM     52 1H14 UNL     1     -24.633  -6.539  -7.336  1.00  0.00     0.278 HD
ATOM     53  H12 UNL     1     -28.280  -7.926  -6.089  1.00  0.00     0.181 HD
ENDBRANCH   7  43
TORSDOF 10
ENDMDL
MODEL 5
REMARK VINA RESULT: -8.662546907      0.864      3.805
REMARK  10 active torsions:
REMARK  status: ('A' for Active; 'I' for Inactive)
REMARK    1  A    between atoms: C1_2  and  C2_4 
REMARK    2  A    between atoms: C2_4  and  C3_5 
REMARK    3  A    between atoms: C2_4  and  C8_25 
REMARK       I    between atoms: C3_5  and  N2_7 
REMARK    4  A    between atoms: N2_7  and  N3_9 
REMARK    5  A    between atoms: N3_9  and  N4_11 
REMARK       I    between atoms: N4_11  and  C4_13 
REMARK       I    between atoms: C4_13  and  N5_15 
REMARK    6  A    between atoms: C6_19  and  O4_20 
REMARK    7  A    between atoms: C7_22  and  O5_23 
REMARK    8  A    between atoms: C9_28  and  N8_29 
REMARK    9  A    between atoms: N8_29  and  C10_31 
REMARK   10  A    between atoms: C13_40  and  N12_41 
REMARK       I    between atoms: N12_41  and  C14_43 
REMARK       I    between atoms: C14_43  and  N13_44 
REMARK       I    between atoms: C14_43  and  N14_48 
ROOT
HETATM    1  C8  UNL     1     -29.696 -11.899  -5.691  1.00  0.00     0.135 A 
HETATM    2  N7  UNL     1     -30.086 -10.751  -6.313  1.00  0.00    -0.178 N 
ATOM      3  H7  UNL     1     -29.395 -10.194  -6.816  1.00  0.00     0.185 HD
HETATM    4  C9  UNL     1     -31.360 -10.343  -6.276  1.00  0.00     0.700 A 
HETATM    5  N11 UNL     1     -32.267 -11.073  -5.621  1.00  0.00    -0.022 N 
ATOM      6  H11 UNL     1     -33.236 -10.754  -5.598  1.00  0.00     0.203 HD
HETATM    7  C13 UNL     1     -31.939 -12.231  -4.980  1.00  0.00     0.697 A 
HETATM    8  N15 UNL     1     -30.648 -12.594  -5.047  1.00  0.00    -0.178 N 
ATOM      9  H15 UNL     1     -30.371 -13.455  -4.576  1.00  0.00     0.185 HD
ENDROOT
BRANCH   1  10
HETATM   10  C2  UNL     1     -28.285 -12.274  -5.752  1.00  0.00     0.237 C 
BRANCH  10  11
HETATM   11  C1  UNL     1     -27.802 -12.668  -4.413  1.00  0.00     0.251 C 
HETATM   12  N1  UNL     1     -28.418 -12.146  -3.254  1.00  0.00    -0.061 NA
HETATM   13  O1  UNL     1     -26.848 -13.466  -4.298  1.00  0.00    -0.275 OA
ENDBRANCH  10  11
BRANCH  10  14
HETATM   14  C3  UNL     1     -27.384 -11.343  -6.431  1.00  0.00     0.258 C 
HETATM   15  O2  UNL     1     -27.274 -11.299  -7.650  1.00  0.00    -0.270 OA
HETATM   16  N2  UNL     1     -26.586 -10.437  -5.629  1.00  0.00    -0.240 N 
ATOM     17  H2  UNL     1     -26.696 -10.465  -4.615  1.00  0.00     0.192 HD
BRANCH  16  18
HETATM   18  N3  UNL     1     -25.714  -9.562  -6.148  1.00  0.00    -0.149 N 
HETATM   19  S1  UNL     1     -26.231  -7.878  -6.129  1.00  0.00     0.089 SA
BRANCH  18  20
HETATM   20  N4  UNL     1     -24.395  -9.720  -5.862  1.00  0.00    -0.222 N 
HETATM   21  C4  UNL     1     -23.682 -10.925  -5.795  1.00  0.00     0.350 C 
HETATM   22  O3  UNL     1     -24.138 -12.086  -5.995  1.00  0.00    -0.244 OA
HETATM   23  N5  UNL     1     -22.270 -10.846  -5.458  1.00  0.00    -0.235 N 
HETATM   24  C5  UNL     1     -21.526  -9.770  -5.214  1.00  0.00     0.197 A 
HETATM   25  C7  UNL     1     -21.464 -11.904  -5.297  1.00  0.00     0.204 A 
HETATM   26  N6  UNL     1     -20.254 -10.132  -4.901  1.00  0.00    -0.329 N 
HETATM   27  C6  UNL     1     -20.197 -11.473  -4.949  1.00  0.00     0.194 A 
ATOM     28  H6  UNL     1     -19.485  -9.502  -4.671  1.00  0.00     0.168 HD
ATOM     29  H4  UNL     1     -23.866  -8.868  -5.675  1.00  0.00     0.194 HD
BRANCH  27  30
HETATM   30  O4  UNL     1     -19.081 -12.299  -4.696  1.00  0.00    -0.343 OA
ATOM     31  H4  UNL     1     -18.538 -12.320  -3.917  1.00  0.00     0.219 HD
ENDBRANCH  27  30
BRANCH  25  32
HETATM   32  O5  UNL     1     -21.811 -13.255  -5.451  1.00  0.00    -0.342 OA
ATOM     33  H5  UNL     1     -21.568 -13.973  -4.878  1.00  0.00     0.219 HD
ENDBRANCH  25  32
ENDBRANCH  18  20
ENDBRANCH  16  18
ENDBRANCH  10  14
ENDBRANCH   1  10
BRANCH   4  34
HETATM   34  N8  UNL     1     -31.723  -9.139  -6.922  1.00  0.00    -0.161 N 
ATOM     35  H8  UNL     1     -31.536  -9.033  -7.920  1.00  0.00     0.187 HD
BRANCH  34  36
HETATM   36  C10 UNL     1     -32.356  -8.052  -6.200  1.00  0.00     0.190 A 
HETATM   37  N9  UNL     1     -31.942  -6.837  -6.152  1.00  0.00    -0.360 N 
HETATM   38  C11 UNL     1     -32.766  -5.968  -5.359  1.00  0.00     0.142 A 
ATOM     39  H9  UNL     1     -31.101  -6.518  -6.635  1.00  0.00     0.162 HD
HETATM   40  C12 UNL     1     -33.839  -6.858  -4.804  1.00  0.00     0.142 A 
HETATM   41  N10 UNL     1     -33.538  -8.150  -5.430  1.00  0.00    -0.360 N 
ATOM     42  H10 UNL     1     -34.099  -8.996  -5.326  1.00  0.00     0.162 HD
ENDBRANCH  34  36
ENDBRANCH   4  34
BRANCH   7  43
HETATM   43  N12 UNL     1     -32.803 -12.943  -4.337  1.00  0.00    -0.173 N 
HETATM   44  C14 UNL     1     -32.438 -14.119  -3.590  1.00  0.00     0.494 C 
HETATM   45  N13 UNL     1     -32.259 -15.259  -4.479  1.00  0.00    -0.032 N 
HETATM   46  N14 UNL     1     -31.291 -13.985  -2.753  1.00  0.00    -0.032 N 
ATOM     47 3H13 UNL     1     -33.084 -15.420  -5.057  1.00  0.00     0.278 HD
ATOM     48 2H13 UNL     1     -31.589 -15.059  -5.221  1.00  0.00     0.278 HD
ATOM     49 1H13 UNL     1     -32.000 -16.093  -3.950  1.00  0.00     0.278 HD
ATOM     50 3H14 UNL     1     -30.495 -13.658  -3.300  1.00  0.00     0.278 HD
ATOM     51 2H14 UNL     1     -31.413 -13.194  -2.120  1.00  0.00     0.278 HD
ATOM     52 1H14 UNL     1     -31.033 -14.818  -2.224  1.00  0.00     0.278 HD
ATOM     53  H12 UNL     1     -33.783 -12.661  -4.358  1.00  0.00     0.181 HD
ENDBRANCH   7  43
TORSDOF 10
ENDMDL
