MODEL 1
REMARK VINA RESULT: -7.505412391      0.000      0.000
REMARK  13 active torsions:
REMARK  status: ('A' for Active; 'I' for Inactive)
REMARK    1  A    between atoms: C2_2  and  O1_3 
REMARK    2  A    between atoms: C6_10  and  C7_11 
REMARK    3  A    between atoms: C8_14  and  S1_15 
REMARK    4  A    between atoms: S1_15  and  C9_16 
REMARK    5  A    between atoms: C10_20  and  O5_21 
REMARK    6  A    between atoms: O5_21  and  C11_22 
REMARK    7  A    between atoms: C11_22  and  C12_26 
REMARK    8  A    between atoms: C12_26  and  C13_27 
REMARK    9  A    between atoms: C13_27  and  N6_28 
REMARK   10  A    between atoms: C17_32  and  C18_33 
REMARK   11  A    between atoms: C18_33  and  C19_34 
REMARK   12  A    between atoms: C19_34  and  O6_35 
REMARK   13  A    between atoms: C20_37  and  N7_38 
ROOT
HETATM    1  C9  UNL     1       2.590 -12.076  -4.516  1.00  0.00     0.209 C 
HETATM    2  N2  UNL     1       2.843 -10.769  -4.018  1.00  0.00    -0.110 NA
HETATM    3  N3  UNL     1       4.150 -10.659  -3.634  1.00  0.00    -0.036 NA
HETATM    4  N4  UNL     1       4.804 -11.843  -3.891  1.00  0.00    -0.095 NA
HETATM    5  C10 UNL     1       3.968 -12.636  -4.758  1.00  0.00     0.271 C 
ENDROOT
BRANCH   1   6
HETATM    6  S1  UNL     1       1.524 -12.165  -5.932  1.00  0.00    -0.102 SA
BRANCH   6   7
HETATM    7  C8  UNL     1       0.313 -10.876  -5.932  1.00  0.00     0.046 C 
HETATM    8  C6  UNL     1       0.695  -9.684  -6.528  1.00  0.00     0.125 C 
HETATM    9  N1  UNL     1      -0.287  -8.703  -6.494  1.00  0.00    -0.339 N 
HETATM   10  C2  UNL     1      -1.042  -8.605  -5.260  1.00  0.00     0.159 C 
HETATM   11  C5  UNL     1      -0.766  -7.984  -7.617  1.00  0.00     0.152 C 
HETATM   12  C1  UNL     1      -1.810  -7.383  -5.023  1.00  0.00     0.074 C 
HETATM   13  C3  UNL     1      -1.976  -9.838  -5.618  1.00  0.00     0.212 C 
HETATM   14  O2  UNL     1      -2.270  -9.793  -6.952  1.00  0.00    -0.377 OA
HETATM   15  C20 UNL     1      -1.050 -11.016  -5.383  1.00  0.00     0.259 C 
HETATM   16  C4  UNL     1      -2.236  -8.617  -7.654  1.00  0.00     0.188 C 
BRANCH   8  17
HETATM   17  C7  UNL     1       1.954  -9.502  -7.206  1.00  0.00     0.228 C 
HETATM   18  O3  UNL     1       2.887  -8.874  -6.642  1.00  0.00    -0.643 OA
HETATM   19  O4  UNL     1       2.209  -9.990  -8.478  1.00  0.00    -0.643 OA
ENDBRANCH   8  17
BRANCH  10  20
HETATM   20  O1  UNL     1      -0.258  -8.962  -4.188  1.00  0.00    -0.368 OA
ATOM     21  H1  UNL     1      -0.762  -9.289  -3.452  1.00  0.00     0.212 HD
ENDBRANCH  10  20
BRANCH  15  22
HETATM   22  N7  UNL     1      -1.746 -12.186  -5.926  1.00  0.00    -0.068 N 
ATOM     23  H73 UNL     1      -2.720 -12.255  -5.630  1.00  0.00     0.275 HD
ATOM     24  H72 UNL     1      -1.927 -12.124  -6.928  1.00  0.00     0.275 HD
ATOM     25  H71 UNL     1      -1.181 -12.992  -5.662  1.00  0.00     0.275 HD
ENDBRANCH  15  22
ENDBRANCH   6   7
ENDBRANCH   1   6
BRANCH   5  26
HETATM   26  O5  UNL     1       4.408 -12.766  -6.040  1.00  0.00    -0.314 OA
BRANCH  26  27
HETATM   27  C11 UNL     1       5.361 -12.083  -6.745  1.00  0.00     0.115 C 
HETATM   28  N5  UNL     1       4.935 -11.274  -7.652  1.00  0.00    -0.383 N 
ATOM     29  H52 UNL     1       3.932 -11.175  -7.810  1.00  0.00     0.157 HD
ATOM     30  H51 UNL     1       5.645 -10.765  -8.178  1.00  0.00     0.157 HD
BRANCH  27  31
HETATM   31  C12 UNL     1       6.823 -12.229  -6.516  1.00  0.00     0.114 C 
BRANCH  31  32
HETATM   32  C13 UNL     1       7.577 -11.013  -7.012  1.00  0.00     0.281 C 
BRANCH  32  33
HETATM   33  N6  UNL     1       7.956 -10.112  -5.934  1.00  0.00     0.093 N 
HETATM   34  C14 UNL     1       9.345 -10.177  -5.640  1.00  0.00     0.273 C 
HETATM   35  C15 UNL     1       9.942  -8.794  -5.656  1.00  0.00     0.032 C 
HETATM   36  C16 UNL     1       8.780  -7.881  -5.862  1.00  0.00     0.037 C 
HETATM   37  C17 UNL     1       7.685  -8.775  -6.343  1.00  0.00     0.225 C 
BRANCH  37  38
HETATM   38  C18 UNL     1       6.320  -8.286  -5.904  1.00  0.00     0.062 C 
BRANCH  38  39
HETATM   39  C19 UNL     1       6.065  -6.856  -6.265  1.00  0.00     0.166 C 
BRANCH  39  40
HETATM   40  O6  UNL     1       4.732  -6.671  -6.562  1.00  0.00    -0.401 OA
ATOM     41  H6  UNL     1       4.517  -5.745  -6.547  1.00  0.00     0.209 HD
ENDBRANCH  39  40
ENDBRANCH  38  39
ENDBRANCH  37  38
ENDBRANCH  32  33
ENDBRANCH  31  32
ENDBRANCH  27  31
ENDBRANCH  26  27
ENDBRANCH   5  26
TORSDOF 13
ENDMDL
MODEL 2
REMARK VINA RESULT: -7.489067036      1.260      1.744
REMARK  13 active torsions:
REMARK  status: ('A' for Active; 'I' for Inactive)
REMARK    1  A    between atoms: C2_2  and  O1_3 
REMARK    2  A    between atoms: C6_10  and  C7_11 
REMARK    3  A    between atoms: C8_14  and  S1_15 
REMARK    4  A    between atoms: S1_15  and  C9_16 
REMARK    5  A    between atoms: C10_20  and  O5_21 
REMARK    6  A    between atoms: O5_21  and  C11_22 
REMARK    7  A    between atoms: C11_22  and  C12_26 
REMARK    8  A    between atoms: C12_26  and  C13_27 
REMARK    9  A    between atoms: C13_27  and  N6_28 
REMARK   10  A    between atoms: C17_32  and  C18_33 
REMARK   11  A    between atoms: C18_33  and  C19_34 
REMARK   12  A    between atoms: C19_34  and  O6_35 
REMARK   13  A    between atoms: C20_37  and  N7_38 
ROOT
HETATM    1  C9  UNL     1       2.864 -11.889  -4.644  1.00  0.00     0.209 C 
HETATM    2  N2  UNL     1       3.147 -10.569  -4.199  1.00  0.00    -0.110 NA
HETATM    3  N3  UNL     1       4.460 -10.469  -3.834  1.00  0.00    -0.036 NA
HETATM    4  N4  UNL     1       5.089 -11.674  -4.052  1.00  0.00    -0.095 NA
HETATM    5  C10 UNL     1       4.228 -12.484  -4.880  1.00  0.00     0.271 C 
ENDROOT
BRANCH   1   6
HETATM    6  S1  UNL     1       1.780 -12.012  -6.044  1.00  0.00    -0.102 SA
BRANCH   6   7
HETATM    7  C8  UNL     1       0.470 -10.826  -5.975  1.00  0.00     0.046 C 
HETATM    8  C6  UNL     1       0.722  -9.606  -6.586  1.00  0.00     0.125 C 
HETATM    9  N1  UNL     1      -0.333  -8.709  -6.496  1.00  0.00    -0.339 N 
HETATM   10  C2  UNL     1      -1.026  -8.672  -5.222  1.00  0.00     0.159 C 
HETATM   11  C5  UNL     1      -0.928  -8.032  -7.589  1.00  0.00     0.152 C 
HETATM   12  C1  UNL     1      -1.877  -7.516  -4.940  1.00  0.00     0.074 C 
HETATM   13  C3  UNL     1      -1.875  -9.977  -5.535  1.00  0.00     0.212 C 
HETATM   14  O2  UNL     1      -2.243  -9.957  -6.851  1.00  0.00    -0.377 OA
HETATM   15  C20 UNL     1      -0.845 -11.075  -5.354  1.00  0.00     0.259 C 
HETATM   16  C4  UNL     1      -2.342  -8.782  -7.549  1.00  0.00     0.188 C 
BRANCH   8  17
HETATM   17  C7  UNL     1       1.924  -9.324  -7.329  1.00  0.00     0.228 C 
HETATM   18  O3  UNL     1       2.890  -8.746  -6.767  1.00  0.00    -0.643 OA
HETATM   19  O4  UNL     1       2.087  -9.657  -8.664  1.00  0.00    -0.643 OA
ENDBRANCH   8  17
BRANCH  10  20
HETATM   20  O1  UNL     1      -0.159  -8.963  -4.195  1.00  0.00    -0.368 OA
ATOM     21  H1  UNL     1      -0.422  -9.725  -3.692  1.00  0.00     0.212 HD
ENDBRANCH  10  20
BRANCH  15  22
HETATM   22  N7  UNL     1      -1.472 -12.298  -5.863  1.00  0.00    -0.068 N 
ATOM     23  H73 UNL     1      -2.151 -12.707  -5.220  1.00  0.00     0.275 HD
ATOM     24  H72 UNL     1      -2.118 -12.134  -6.636  1.00  0.00     0.275 HD
ATOM     25  H71 UNL     1      -0.704 -12.926  -6.099  1.00  0.00     0.275 HD
ENDBRANCH  15  22
ENDBRANCH   6   7
ENDBRANCH   1   6
BRANCH   5  26
HETATM   26  O5  UNL     1       4.651 -12.671  -6.160  1.00  0.00    -0.314 OA
BRANCH  26  27
HETATM   27  C11 UNL     1       5.389 -11.878  -6.996  1.00  0.00     0.115 C 
HETATM   28  N5  UNL     1       4.732 -11.200  -7.873  1.00  0.00    -0.383 N 
ATOM     29  H52 UNL     1       3.716 -11.277  -7.912  1.00  0.00     0.157 HD
ATOM     30  H51 UNL     1       5.282 -10.609  -8.496  1.00  0.00     0.157 HD
BRANCH  27  31
HETATM   31  C12 UNL     1       6.871 -11.767  -6.938  1.00  0.00     0.114 C 
BRANCH  31  32
HETATM   32  C13 UNL     1       7.299 -10.362  -6.576  1.00  0.00     0.281 C 
BRANCH  32  33
HETATM   33  N6  UNL     1       8.199 -10.328  -5.432  1.00  0.00     0.093 N 
HETATM   34  C14 UNL     1       8.533 -11.631  -4.970  1.00  0.00     0.273 C 
HETATM   35  C15 UNL     1      10.028 -11.776  -4.870  1.00  0.00     0.032 C 
HETATM   36  C16 UNL     1      10.564 -10.420  -5.190  1.00  0.00     0.037 C 
HETATM   37  C17 UNL     1       9.418  -9.709  -5.830  1.00  0.00     0.225 C 
BRANCH  37  38
HETATM   38  C18 UNL     1       9.446  -8.221  -5.548  1.00  0.00     0.062 C 
BRANCH  38  39
HETATM   39  C19 UNL     1      10.690  -7.780  -4.842  1.00  0.00     0.166 C 
BRANCH  39  40
HETATM   40  O6  UNL     1      10.701  -6.409  -4.708  1.00  0.00    -0.401 OA
ATOM     41  H6  UNL     1      11.560  -6.065  -4.924  1.00  0.00     0.209 HD
ENDBRANCH  39  40
ENDBRANCH  38  39
ENDBRANCH  37  38
ENDBRANCH  32  33
ENDBRANCH  31  32
ENDBRANCH  27  31
ENDBRANCH  26  27
ENDBRANCH   5  26
TORSDOF 13
ENDMDL
MODEL 3
REMARK VINA RESULT: -7.380891645      1.453      1.808
REMARK  13 active torsions:
REMARK  status: ('A' for Active; 'I' for Inactive)
REMARK    1  A    between atoms: C2_2  and  O1_3 
REMARK    2  A    between atoms: C6_10  and  C7_11 
REMARK    3  A    between atoms: C8_14  and  S1_15 
REMARK    4  A    between atoms: S1_15  and  C9_16 
REMARK    5  A    between atoms: C10_20  and  O5_21 
REMARK    6  A    between atoms: O5_21  and  C11_22 
REMARK    7  A    between atoms: C11_22  and  C12_26 
REMARK    8  A    between atoms: C12_26  and  C13_27 
REMARK    9  A    between atoms: C13_27  and  N6_28 
REMARK   10  A    between atoms: C17_32  and  C18_33 
REMARK   11  A    between atoms: C18_33  and  C19_34 
REMARK   12  A    between atoms: C19_34  and  O6_35 
REMARK   13  A    between atoms: C20_37  and  N7_38 
ROOT
HETATM    1  C9  UNL     1       2.090 -13.243  -4.882  1.00  0.00     0.209 C 
HETATM    2  N2  UNL     1       0.856 -13.617  -4.282  1.00  0.00    -0.110 NA
HETATM    3  N3  UNL     1       0.991 -13.659  -2.923  1.00  0.00    -0.036 NA
HETATM    4  N4  UNL     1       2.271 -13.288  -2.577  1.00  0.00    -0.095 NA
HETATM    5  C10 UNL     1       2.888 -12.684  -3.732  1.00  0.00     0.271 C 
ENDROOT
BRANCH   1   6
HETATM    6  S1  UNL     1       1.967 -12.140  -6.267  1.00  0.00    -0.102 SA
BRANCH   6   7
HETATM    7  C8  UNL     1       0.641 -10.985  -6.079  1.00  0.00     0.046 C 
HETATM    8  C6  UNL     1       0.860  -9.718  -6.600  1.00  0.00     0.125 C 
HETATM    9  N1  UNL     1      -0.207  -8.848  -6.419  1.00  0.00    -0.339 N 
HETATM   10  C2  UNL     1      -0.872  -8.921  -5.132  1.00  0.00     0.159 C 
HETATM   11  C5  UNL     1      -0.835  -8.100  -7.444  1.00  0.00     0.152 C 
HETATM   12  C1  UNL     1      -1.734  -7.805  -4.744  1.00  0.00     0.074 C 
HETATM   13  C3  UNL     1      -1.707 -10.212  -5.527  1.00  0.00     0.212 C 
HETATM   14  O2  UNL     1      -2.104 -10.097  -6.830  1.00  0.00    -0.377 OA
HETATM   15  C20 UNL     1      -0.657 -11.304  -5.453  1.00  0.00     0.259 C 
HETATM   16  C4  UNL     1      -2.236  -8.874  -7.433  1.00  0.00     0.188 C 
BRANCH   8  17
HETATM   17  C7  UNL     1       2.041  -9.359  -7.343  1.00  0.00     0.228 C 
HETATM   18  O3  UNL     1       3.000  -8.787  -6.764  1.00  0.00    -0.643 OA
HETATM   19  O4  UNL     1       2.191  -9.610  -8.698  1.00  0.00    -0.643 OA
ENDBRANCH   8  17
BRANCH  10  20
HETATM   20  O1  UNL     1       0.022  -9.275  -4.149  1.00  0.00    -0.368 OA
ATOM     21  H1  UNL     1      -0.177 -10.115  -3.752  1.00  0.00     0.212 HD
ENDBRANCH  10  20
BRANCH  15  22
HETATM   22  N7  UNL     1      -1.276 -12.494  -6.042  1.00  0.00    -0.068 N 
ATOM     23  H73 UNL     1      -0.802 -13.364  -5.796  1.00  0.00     0.275 HD
ATOM     24  H72 UNL     1      -2.181 -12.728  -5.633  1.00  0.00     0.275 HD
ATOM     25  H71 UNL     1      -1.314 -12.320  -7.046  1.00  0.00     0.275 HD
ENDBRANCH  15  22
ENDBRANCH   6   7
ENDBRANCH   1   6
BRANCH   5  26
HETATM   26  O5  UNL     1       3.082 -11.339  -3.659  1.00  0.00    -0.314 OA
BRANCH  26  27
HETATM   27  C11 UNL     1       4.164 -10.560  -3.966  1.00  0.00     0.115 C 
HETATM   28  N5  UNL     1       3.976  -9.285  -3.956  1.00  0.00    -0.383 N 
ATOM     29  H52 UNL     1       3.054  -8.913  -3.729  1.00  0.00     0.157 HD
ATOM     30  H51 UNL     1       4.783  -8.705  -4.185  1.00  0.00     0.157 HD
BRANCH  27  31
HETATM   31  C12 UNL     1       5.508 -11.104  -4.298  1.00  0.00     0.114 C 
BRANCH  31  32
HETATM   32  C13 UNL     1       6.168 -10.296  -5.395  1.00  0.00     0.281 C 
BRANCH  32  33
HETATM   33  N6  UNL     1       7.383  -9.632  -4.947  1.00  0.00     0.093 N 
HETATM   34  C14 UNL     1       8.418 -10.555  -4.632  1.00  0.00     0.273 C 
HETATM   35  C15 UNL     1       9.681 -10.185  -5.363  1.00  0.00     0.032 C 
HETATM   36  C16 UNL     1       9.362  -8.897  -6.045  1.00  0.00     0.037 C 
HETATM   37  C17 UNL     1       7.871  -8.815  -6.007  1.00  0.00     0.225 C 
BRANCH  37  38
HETATM   38  C18 UNL     1       7.385  -7.382  -5.922  1.00  0.00     0.062 C 
BRANCH  38  39
HETATM   39  C19 UNL     1       6.072  -7.167  -6.608  1.00  0.00     0.166 C 
BRANCH  39  40
HETATM   40  O6  UNL     1       5.076  -6.966  -5.677  1.00  0.00    -0.401 OA
ATOM     41  H6  UNL     1       4.269  -6.711  -6.109  1.00  0.00     0.209 HD
ENDBRANCH  39  40
ENDBRANCH  38  39
ENDBRANCH  37  38
ENDBRANCH  32  33
ENDBRANCH  31  32
ENDBRANCH  27  31
ENDBRANCH  26  27
ENDBRANCH   5  26
TORSDOF 13
ENDMDL
MODEL 4
REMARK VINA RESULT: -7.108760812      4.100      6.631
REMARK  13 active torsions:
REMARK  status: ('A' for Active; 'I' for Inactive)
REMARK    1  A    between atoms: C2_2  and  O1_3 
REMARK    2  A    between atoms: C6_10  and  C7_11 
REMARK    3  A    between atoms: C8_14  and  S1_15 
REMARK    4  A    between atoms: S1_15  and  C9_16 
REMARK    5  A    between atoms: C10_20  and  O5_21 
REMARK    6  A    between atoms: O5_21  and  C11_22 
REMARK    7  A    between atoms: C11_22  and  C12_26 
REMARK    8  A    between atoms: C12_26  and  C13_27 
REMARK    9  A    between atoms: C13_27  and  N6_28 
REMARK   10  A    between atoms: C17_32  and  C18_33 
REMARK   11  A    between atoms: C18_33  and  C19_34 
REMARK   12  A    between atoms: C19_34  and  O6_35 
REMARK   13  A    between atoms: C20_37  and  N7_38 
ROOT
HETATM    1  C9  UNL     1       7.646  -9.376  -5.476  1.00  0.00     0.209 C 
HETATM    2  N2  UNL     1       8.384  -8.300  -6.042  1.00  0.00    -0.110 NA
HETATM    3  N3  UNL     1       9.642  -8.266  -5.511  1.00  0.00    -0.036 NA
HETATM    4  N4  UNL     1       9.796  -9.311  -4.628  1.00  0.00    -0.095 NA
HETATM    5  C10 UNL     1       8.705 -10.233  -4.832  1.00  0.00     0.271 C 
ENDROOT
BRANCH   1   6
HETATM    6  S1  UNL     1       6.598 -10.263  -6.601  1.00  0.00    -0.102 SA
BRANCH   6   7
HETATM    7  C8  UNL     1       5.356 -11.195  -5.754  1.00  0.00     0.046 C 
HETATM    8  C6  UNL     1       4.058 -10.716  -5.862  1.00  0.00     0.125 C 
HETATM    9  N1  UNL     1       3.124 -11.477  -5.173  1.00  0.00    -0.339 N 
HETATM   10  C2  UNL     1       3.536 -11.959  -3.869  1.00  0.00     0.159 C 
HETATM   11  C5  UNL     1       1.936 -12.013  -5.728  1.00  0.00     0.152 C 
HETATM   12  C1  UNL     1       2.497 -12.431  -2.955  1.00  0.00     0.074 C 
HETATM   13  C3  UNL     1       4.390 -13.154  -4.474  1.00  0.00     0.212 C 
HETATM   14  O2  UNL     1       3.718 -13.677  -5.543  1.00  0.00    -0.377 OA
HETATM   15  C20 UNL     1       5.617 -12.435  -4.998  1.00  0.00     0.259 C 
HETATM   16  C4  UNL     1       2.359 -13.556  -5.664  1.00  0.00     0.188 C 
BRANCH   8  17
HETATM   17  C7  UNL     1       3.693  -9.592  -6.687  1.00  0.00     0.228 C 
HETATM   18  O3  UNL     1       3.702  -8.430  -6.207  1.00  0.00    -0.643 OA
HETATM   19  O4  UNL     1       3.320  -9.715  -8.016  1.00  0.00    -0.643 OA
ENDBRANCH   8  17
BRANCH  10  20
HETATM   20  O1  UNL     1       4.405 -11.070  -3.282  1.00  0.00    -0.368 OA
ATOM     21  H1  UNL     1       5.196 -10.932  -3.791  1.00  0.00     0.212 HD
ENDBRANCH  10  20
BRANCH  15  22
HETATM   22  N7  UNL     1       6.349 -13.423  -5.794  1.00  0.00    -0.068 N 
ATOM     23  H73 UNL     1       5.757 -13.949  -6.437  1.00  0.00     0.275 HD
ATOM     24  H72 UNL     1       6.957 -13.007  -6.501  1.00  0.00     0.275 HD
ATOM     25  H71 UNL     1       6.845 -14.009  -5.123  1.00  0.00     0.275 HD
ENDBRANCH  15  22
ENDBRANCH   6   7
ENDBRANCH   1   6
BRANCH   5  26
HETATM   26  O5  UNL     1       9.039 -11.416  -5.417  1.00  0.00    -0.314 OA
BRANCH  26  27
HETATM   27  C11 UNL     1       9.999 -12.341  -5.109  1.00  0.00     0.115 C 
HETATM   28  N5  UNL     1      11.139 -11.881  -4.725  1.00  0.00    -0.383 N 
ATOM     29  H52 UNL     1      11.283 -10.872  -4.668  1.00  0.00     0.157 HD
ATOM     30  H51 UNL     1      11.854 -12.570  -4.495  1.00  0.00     0.157 HD
BRANCH  27  31
HETATM   31  C12 UNL     1       9.789 -13.811  -5.193  1.00  0.00     0.114 C 
BRANCH  31  32
HETATM   32  C13 UNL     1       9.180 -14.349  -3.916  1.00  0.00     0.281 C 
BRANCH  32  33
HETATM   33  N6  UNL     1       9.681 -15.672  -3.571  1.00  0.00     0.093 N 
HETATM   34  C14 UNL     1      10.952 -15.936  -4.151  1.00  0.00     0.273 C 
HETATM   35  C15 UNL     1      11.919 -16.393  -3.092  1.00  0.00     0.032 C 
HETATM   36  C16 UNL     1      11.098 -16.503  -1.850  1.00  0.00     0.037 C 
HETATM   37  C17 UNL     1       9.853 -15.739  -2.159  1.00  0.00     0.225 C 
BRANCH  37  38
HETATM   38  C18 UNL     1       8.646 -16.310  -1.442  1.00  0.00     0.062 C 
BRANCH  38  39
HETATM   39  C19 UNL     1       8.890 -16.556   0.014  1.00  0.00     0.166 C 
BRANCH  39  40
HETATM   40  O6  UNL     1       8.524 -15.451   0.751  1.00  0.00    -0.401 OA
ATOM     41  H6  UNL     1       9.159 -15.290   1.440  1.00  0.00     0.209 HD
ENDBRANCH  39  40
ENDBRANCH  38  39
ENDBRANCH  37  38
ENDBRANCH  32  33
ENDBRANCH  31  32
ENDBRANCH  27  31
ENDBRANCH  26  27
ENDBRANCH   5  26
TORSDOF 13
ENDMDL
MODEL 5
REMARK VINA RESULT: -6.985114122      1.563      2.495
REMARK  13 active torsions:
REMARK  status: ('A' for Active; 'I' for Inactive)
REMARK    1  A    between atoms: C2_2  and  O1_3 
REMARK    2  A    between atoms: C6_10  and  C7_11 
REMARK    3  A    between atoms: C8_14  and  S1_15 
REMARK    4  A    between atoms: S1_15  and  C9_16 
REMARK    5  A    between atoms: C10_20  and  O5_21 
REMARK    6  A    between atoms: O5_21  and  C11_22 
REMARK    7  A    between atoms: C11_22  and  C12_26 
REMARK    8  A    between atoms: C12_26  and  C13_27 
REMARK    9  A    between atoms: C13_27  and  N6_28 
REMARK   10  A    between atoms: C17_32  and  C18_33 
REMARK   11  A    between atoms: C18_33  and  C19_34 
REMARK   12  A    between atoms: C19_34  and  O6_35 
REMARK   13  A    between atoms: C20_37  and  N7_38 
ROOT
HETATM    1  C9  UNL     1       2.462 -13.141  -5.022  1.00  0.00     0.209 C 
HETATM    2  N2  UNL     1       1.328 -13.802  -4.475  1.00  0.00    -0.110 NA
HETATM    3  N3  UNL     1       1.395 -13.793  -3.111  1.00  0.00    -0.036 NA
HETATM    4  N4  UNL     1       2.523 -13.113  -2.711  1.00  0.00    -0.095 NA
HETATM    5  C10 UNL     1       3.034 -12.389  -3.849  1.00  0.00     0.271 C 
ENDROOT
BRANCH   1   6
HETATM    6  S1  UNL     1       2.147 -12.119  -6.439  1.00  0.00    -0.102 SA
BRANCH   6   7
HETATM    7  C8  UNL     1       0.792 -11.014  -6.171  1.00  0.00     0.046 C 
HETATM    8  C6  UNL     1       0.945  -9.731  -6.673  1.00  0.00     0.125 C 
HETATM    9  N1  UNL     1      -0.141  -8.902  -6.428  1.00  0.00    -0.339 N 
HETATM   10  C2  UNL     1      -0.748  -9.023  -5.117  1.00  0.00     0.159 C 
HETATM   11  C5  UNL     1      -0.838  -8.156  -7.410  1.00  0.00     0.152 C 
HETATM   12  C1  UNL     1      -1.629  -7.945  -4.669  1.00  0.00     0.074 C 
HETATM   13  C3  UNL     1      -1.555 -10.335  -5.503  1.00  0.00     0.212 C 
HETATM   14  O2  UNL     1      -2.012 -10.207  -6.785  1.00  0.00    -0.377 OA
HETATM   15  C20 UNL     1      -0.467 -11.390  -5.496  1.00  0.00     0.259 C 
HETATM   16  C4  UNL     1      -2.210  -8.978  -7.356  1.00  0.00     0.188 C 
BRANCH   8  17
HETATM   17  C7  UNL     1       2.081  -9.316  -7.458  1.00  0.00     0.228 C 
HETATM   18  O3  UNL     1       3.012  -8.663  -6.921  1.00  0.00    -0.643 OA
HETATM   19  O4  UNL     1       2.214  -9.599  -8.808  1.00  0.00    -0.643 OA
ENDBRANCH   8  17
BRANCH  10  20
HETATM   20  O1  UNL     1       0.199  -9.365  -4.180  1.00  0.00    -0.368 OA
ATOM     21  H1  UNL     1       1.036  -9.598  -4.566  1.00  0.00     0.212 HD
ENDBRANCH  10  20
BRANCH  15  22
HETATM   22  N7  UNL     1      -1.070 -12.589  -6.084  1.00  0.00    -0.068 N 
ATOM     23  H73 UNL     1      -0.439 -13.391  -6.112  1.00  0.00     0.275 HD
ATOM     24  H72 UNL     1      -1.785 -13.017  -5.495  1.00  0.00     0.275 HD
ATOM     25  H71 UNL     1      -1.412 -12.307  -7.002  1.00  0.00     0.275 HD
ENDBRANCH  15  22
ENDBRANCH   6   7
ENDBRANCH   1   6
BRANCH   5  26
HETATM   26  O5  UNL     1       2.885 -11.037  -3.799  1.00  0.00    -0.314 OA
BRANCH  26  27
HETATM   27  C11 UNL     1       3.750 -10.017  -4.092  1.00  0.00     0.115 C 
HETATM   28  N5  UNL     1       3.390  -8.835  -3.728  1.00  0.00    -0.383 N 
ATOM     29  H52 UNL     1       2.498  -8.704  -3.249  1.00  0.00     0.157 HD
ATOM     30  H51 UNL     1       4.034  -8.076  -3.946  1.00  0.00     0.157 HD
BRANCH  27  31
HETATM   31  C12 UNL     1       5.049 -10.209  -4.790  1.00  0.00     0.114 C 
BRANCH  31  32
HETATM   32  C13 UNL     1       5.859  -8.930  -4.796  1.00  0.00     0.281 C 
BRANCH  32  33
HETATM   33  N6  UNL     1       6.831  -8.888  -5.879  1.00  0.00     0.093 N 
HETATM   34  C14 UNL     1       7.081  -7.562  -6.328  1.00  0.00     0.273 C 
HETATM   35  C15 UNL     1       8.562  -7.289  -6.332  1.00  0.00     0.032 C 
HETATM   36  C16 UNL     1       9.190  -8.593  -5.968  1.00  0.00     0.037 C 
HETATM   37  C17 UNL     1       8.070  -9.399  -5.398  1.00  0.00     0.225 C 
BRANCH  37  38
HETATM   38  C18 UNL     1       8.244 -10.880  -5.666  1.00  0.00     0.062 C 
BRANCH  38  39
HETATM   39  C19 UNL     1       7.671 -11.309  -6.981  1.00  0.00     0.166 C 
BRANCH  39  40
HETATM   40  O6  UNL     1       7.085 -12.550  -6.863  1.00  0.00    -0.401 OA
ATOM     41  H6  UNL     1       7.704 -13.230  -7.102  1.00  0.00     0.209 HD
ENDBRANCH  39  40
ENDBRANCH  38  39
ENDBRANCH  37  38
ENDBRANCH  32  33
ENDBRANCH  31  32
ENDBRANCH  27  31
ENDBRANCH  26  27
ENDBRANCH   5  26
TORSDOF 13
ENDMDL
