MODEL 1
REMARK VINA RESULT: -7.405252598      0.000      0.000
REMARK  6 active torsions:
REMARK  status: ('A' for Active; 'I' for Inactive)
REMARK    1  A    between atoms: N1_2  and  C2_3 
REMARK    2  A    between atoms: C2_3  and  C3_4 
REMARK    3  A    between atoms: C3_4  and  N2_5 
REMARK       I    between atoms: N2_5  and  C4_7 
REMARK    4  A    between atoms: C4_7  and  C5_9 
REMARK    5  A    between atoms: C5_9  and  C6_11 
REMARK    6  A    between atoms: N3_14  and  C9_15 
ROOT
HETATM    1  C6  UNL     1      22.433  36.271  40.768  1.00  0.00     0.158 C 
HETATM    2  C7  UNL     1      22.368  34.794  41.009  1.00  0.00     0.054 C 
HETATM    3  C8  UNL     1      21.723  34.440  42.340  1.00  0.00     0.131 C 
HETATM    4  N3  UNL     1      20.381  35.032  42.424  1.00  0.00    -0.318 N 
HETATM    5  C18 UNL     1      20.255  36.345  41.905  1.00  0.00     0.363 C 
HETATM    6  O2  UNL     1      19.305  37.087  42.244  1.00  0.00    -0.238 OA
HETATM    7  O3  UNL     1      21.178  36.868  40.998  1.00  0.00    -0.297 OA
ENDROOT
BRANCH   1   8
HETATM    8  C5  UNL     1      23.452  36.972  41.633  1.00  0.00     0.179 C 
HETATM    9 BR1  UNL     1      23.346  38.869  41.188  1.00  0.00    -0.078 Br
BRANCH   8  10
HETATM   10  C4  UNL     1      24.817  36.471  41.426  1.00  0.00     0.234 C 
HETATM   11  N2  UNL     1      25.571  35.797  42.413  1.00  0.00    -0.358 N 
ATOM     12  H2  UNL     1      25.143  35.649  43.327  1.00  0.00     0.162 HD
HETATM   13  O1  UNL     1      25.362  36.643  40.306  1.00  0.00    -0.272 OA
BRANCH  11  14
HETATM   14  C3  UNL     1      26.908  35.308  42.205  1.00  0.00     0.150 C 
BRANCH  14  15
HETATM   15  C2  UNL     1      26.911  33.852  41.892  1.00  0.00     0.256 C 
BRANCH  15  16
HETATM   16  N1  UNL     1      27.888  33.429  40.958  1.00  0.00    -0.069 N 
HETATM   17  C1  UNL     1      29.147  33.219  41.659  1.00  0.00     0.272 C 
HETATM   18  C19 UNL     1      27.575  32.189  40.281  1.00  0.00     0.237 C 
HETATM   19  C20 UNL     1      28.707  32.156  39.243  1.00  0.00     0.029 C 
HETATM   20  C21 UNL     1      28.602  33.564  38.696  1.00  0.00     0.029 C 
HETATM   21  C22 UNL     1      28.153  34.370  39.893  1.00  0.00     0.237 C 
ENDBRANCH  15  16
ENDBRANCH  14  15
ENDBRANCH  11  14
ENDBRANCH   8  10
ENDBRANCH   1   8
BRANCH   4  22
HETATM   22  C9  UNL     1      19.256  34.377  42.977  1.00  0.00     0.042 C 
HETATM   23  C10 UNL     1      19.406  32.847  42.960  1.00  0.00     0.036 C 
HETATM   24  C11 UNL     1      18.412  32.484  44.054  1.00  0.00    -0.011 C 
HETATM   25  C12 UNL     1      17.017  32.873  43.649  1.00  0.00     0.009 C 
HETATM   26  C16 UNL     1      18.946  33.394  45.172  1.00  0.00     0.012 C 
HETATM   27  C13 UNL     1      16.922  34.327  43.262  1.00  0.00    -0.011 C 
HETATM   28  C14 UNL     1      17.448  35.131  44.424  1.00  0.00     0.012 C 
HETATM   29  C17 UNL     1      17.961  34.632  42.193  1.00  0.00     0.036 C 
HETATM   30  C15 UNL     1      18.926  34.729  44.405  1.00  0.00     0.015 C 
ENDBRANCH   4  22
TORSDOF 6
ENDMDL
MODEL 2
REMARK VINA RESULT: -7.336298599      3.158      4.605
REMARK  6 active torsions:
REMARK  status: ('A' for Active; 'I' for Inactive)
REMARK    1  A    between atoms: N1_2  and  C2_3 
REMARK    2  A    between atoms: C2_3  and  C3_4 
REMARK    3  A    between atoms: C3_4  and  N2_5 
REMARK       I    between atoms: N2_5  and  C4_7 
REMARK    4  A    between atoms: C4_7  and  C5_9 
REMARK    5  A    between atoms: C5_9  and  C6_11 
REMARK    6  A    between atoms: N3_14  and  C9_15 
ROOT
HETATM    1  C6  UNL     1      23.564  32.522  44.057  1.00  0.00     0.158 C 
HETATM    2  C7  UNL     1      23.113  33.874  44.518  1.00  0.00     0.054 C 
HETATM    3  C8  UNL     1      21.969  34.431  43.685  1.00  0.00     0.131 C 
HETATM    4  N3  UNL     1      20.842  33.490  43.680  1.00  0.00    -0.318 N 
HETATM    5  C18 UNL     1      21.187  32.119  43.577  1.00  0.00     0.363 C 
HETATM    6  O2  UNL     1      20.354  31.268  43.190  1.00  0.00    -0.238 OA
HETATM    7  O3  UNL     1      22.463  31.656  43.901  1.00  0.00    -0.297 OA
ENDROOT
BRANCH   1   8
HETATM    8  C5  UNL     1      24.319  32.560  42.750  1.00  0.00     0.179 C 
HETATM    9 BR1  UNL     1      25.380  30.924  42.676  1.00  0.00    -0.078 Br
BRANCH   8  10
HETATM   10  C4  UNL     1      25.184  33.739  42.626  1.00  0.00     0.234 C 
HETATM   11  N2  UNL     1      26.278  34.013  43.480  1.00  0.00    -0.358 N 
ATOM     12  H2  UNL     1      26.479  33.351  44.229  1.00  0.00     0.162 HD
HETATM   13  O1  UNL     1      24.953  34.568  41.709  1.00  0.00    -0.272 OA
BRANCH  11  14
HETATM   14  C3  UNL     1      27.123  35.170  43.354  1.00  0.00     0.150 C 
BRANCH  14  15
HETATM   15  C2  UNL     1      26.915  36.121  44.481  1.00  0.00     0.256 C 
BRANCH  15  16
HETATM   16  N1  UNL     1      26.001  37.173  44.233  1.00  0.00    -0.069 N 
HETATM   17  C1  UNL     1      26.465  38.369  44.924  1.00  0.00     0.272 C 
HETATM   18  C19 UNL     1      25.855  37.528  42.837  1.00  0.00     0.237 C 
HETATM   19  C20 UNL     1      24.684  38.517  42.932  1.00  0.00     0.029 C 
HETATM   20  C21 UNL     1      23.730  37.713  43.790  1.00  0.00     0.029 C 
HETATM   21  C22 UNL     1      24.652  36.922  44.689  1.00  0.00     0.237 C 
ENDBRANCH  15  16
ENDBRANCH  14  15
ENDBRANCH  11  14
ENDBRANCH   8  10
ENDBRANCH   1   8
BRANCH   4  22
HETATM   22  C9  UNL     1      19.483  33.874  43.769  1.00  0.00     0.042 C 
HETATM   23  C10 UNL     1      19.314  35.399  43.856  1.00  0.00     0.036 C 
HETATM   24  C11 UNL     1      17.873  35.521  43.379  1.00  0.00    -0.011 C 
HETATM   25  C12 UNL     1      16.941  34.839  44.342  1.00  0.00     0.009 C 
HETATM   26  C16 UNL     1      17.991  34.737  42.063  1.00  0.00     0.012 C 
HETATM   27  C13 UNL     1      17.332  33.405  44.594  1.00  0.00    -0.011 C 
HETATM   28  C14 UNL     1      17.401  32.723  43.251  1.00  0.00     0.012 C 
HETATM   29  C17 UNL     1      18.787  33.349  45.033  1.00  0.00     0.036 C 
HETATM   30  C15 UNL     1      18.601  33.440  42.626  1.00  0.00     0.015 C 
ENDBRANCH   4  22
TORSDOF 6
ENDMDL
MODEL 3
REMARK VINA RESULT: -7.286918972      3.924      9.573
REMARK  6 active torsions:
REMARK  status: ('A' for Active; 'I' for Inactive)
REMARK    1  A    between atoms: N1_2  and  C2_3 
REMARK    2  A    between atoms: C2_3  and  C3_4 
REMARK    3  A    between atoms: C3_4  and  N2_5 
REMARK       I    between atoms: N2_5  and  C4_7 
REMARK    4  A    between atoms: C4_7  and  C5_9 
REMARK    5  A    between atoms: C5_9  and  C6_11 
REMARK    6  A    between atoms: N3_14  and  C9_15 
ROOT
HETATM    1  C6  UNL     1      20.302  36.944  41.105  1.00  0.00     0.158 C 
HETATM    2  C7  UNL     1      21.197  38.145  41.121  1.00  0.00     0.054 C 
HETATM    3  C8  UNL     1      22.478  37.918  41.910  1.00  0.00     0.131 C 
HETATM    4  N3  UNL     1      23.196  36.750  41.382  1.00  0.00    -0.318 N 
HETATM    5  C18 UNL     1      22.387  35.645  41.015  1.00  0.00     0.363 C 
HETATM    6  O2  UNL     1      22.869  34.494  40.917  1.00  0.00    -0.238 OA
HETATM    7  O3  UNL     1      21.025  35.789  40.748  1.00  0.00    -0.297 OA
ENDROOT
BRANCH   1   8
HETATM    8  C5  UNL     1      19.630  36.685  42.432  1.00  0.00     0.179 C 
HETATM    9 BR1  UNL     1      19.273  34.768  42.506  1.00  0.00    -0.078 Br
BRANCH   8  10
HETATM   10  C4  UNL     1      18.386  37.446  42.600  1.00  0.00     0.234 C 
HETATM   11  N2  UNL     1      18.052  38.594  41.844  1.00  0.00    -0.358 N 
ATOM     12  H2  UNL     1      18.716  38.914  41.139  1.00  0.00     0.162 HD
HETATM   13  O1  UNL     1      17.554  37.067  43.463  1.00  0.00    -0.272 OA
BRANCH  11  14
HETATM   14  C3  UNL     1      16.831  39.335  42.012  1.00  0.00     0.150 C 
BRANCH  14  15
HETATM   15  C2  UNL     1      17.100  40.786  42.215  1.00  0.00     0.256 C 
BRANCH  15  16
HETATM   16  N1  UNL     1      16.645  41.327  43.442  1.00  0.00    -0.069 N 
HETATM   17  C1  UNL     1      15.234  41.665  43.311  1.00  0.00     0.272 C 
HETATM   18  C19 UNL     1      16.755  40.430  44.573  1.00  0.00     0.237 C 
HETATM   19  C20 UNL     1      16.380  41.387  45.713  1.00  0.00     0.029 C 
HETATM   20  C21 UNL     1      17.269  42.565  45.372  1.00  0.00     0.029 C 
HETATM   21  C22 UNL     1      17.328  42.530  43.862  1.00  0.00     0.237 C 
ENDBRANCH  15  16
ENDBRANCH  14  15
ENDBRANCH  11  14
ENDBRANCH   8  10
ENDBRANCH   1   8
BRANCH   4  22
HETATM   22  C9  UNL     1      24.600  36.682  41.230  1.00  0.00     0.042 C 
HETATM   23  C10 UNL     1      25.267  38.062  41.355  1.00  0.00     0.036 C 
HETATM   24  C11 UNL     1      26.682  37.627  41.714  1.00  0.00    -0.011 C 
HETATM   25  C12 UNL     1      27.298  36.852  40.582  1.00  0.00     0.009 C 
HETATM   26  C16 UNL     1      26.354  36.713  42.905  1.00  0.00     0.012 C 
HETATM   27  C13 UNL     1      26.440  35.687  40.156  1.00  0.00    -0.011 C 
HETATM   28  C14 UNL     1      26.194  34.847  41.384  1.00  0.00     0.012 C 
HETATM   29  C17 UNL     1      25.036  36.182  39.845  1.00  0.00     0.036 C 
HETATM   30  C15 UNL     1      25.326  35.799  42.213  1.00  0.00     0.015 C 
ENDBRANCH   4  22
TORSDOF 6
ENDMDL
MODEL 4
REMARK VINA RESULT: -7.244906633      1.748      2.105
REMARK  6 active torsions:
REMARK  status: ('A' for Active; 'I' for Inactive)
REMARK    1  A    between atoms: N1_2  and  C2_3 
REMARK    2  A    between atoms: C2_3  and  C3_4 
REMARK    3  A    between atoms: C3_4  and  N2_5 
REMARK       I    between atoms: N2_5  and  C4_7 
REMARK    4  A    between atoms: C4_7  and  C5_9 
REMARK    5  A    between atoms: C5_9  and  C6_11 
REMARK    6  A    between atoms: N3_14  and  C9_15 
ROOT
HETATM    1  C6  UNL     1      21.640  36.637  41.083  1.00  0.00     0.158 C 
HETATM    2  C7  UNL     1      21.607  35.141  41.139  1.00  0.00     0.054 C 
HETATM    3  C8  UNL     1      21.087  34.610  42.466  1.00  0.00     0.131 C 
HETATM    4  N3  UNL     1      19.755  35.162  42.745  1.00  0.00    -0.318 N 
HETATM    5  C18 UNL     1      19.574  36.528  42.411  1.00  0.00     0.363 C 
HETATM    6  O2  UNL     1      18.654  37.204  42.925  1.00  0.00    -0.238 OA
HETATM    7  O3  UNL     1      20.407  37.178  41.499  1.00  0.00    -0.297 OA
ENDROOT
BRANCH   1   8
HETATM    8  C5  UNL     1      22.729  37.241  41.936  1.00  0.00     0.179 C 
HETATM    9 BR1  UNL     1      23.191  38.951  41.116  1.00  0.00    -0.078 Br
BRANCH   8  10
HETATM   10  C4  UNL     1      23.916  36.383  42.037  1.00  0.00     0.234 C 
HETATM   11  N2  UNL     1      24.396  35.836  43.249  1.00  0.00    -0.358 N 
ATOM     12  H2  UNL     1      23.889  36.051  44.108  1.00  0.00     0.162 HD
HETATM   13  O1  UNL     1      24.555  36.106  40.991  1.00  0.00    -0.272 OA
BRANCH  11  14
HETATM   14  C3  UNL     1      25.559  34.995  43.343  1.00  0.00     0.150 C 
BRANCH  14  15
HETATM   15  C2  UNL     1      26.719  35.732  43.916  1.00  0.00     0.256 C 
BRANCH  15  16
HETATM   16  N1  UNL     1      27.620  36.284  42.974  1.00  0.00    -0.069 N 
HETATM   17  C1  UNL     1      28.948  36.335  43.570  1.00  0.00     0.272 C 
HETATM   18  C19 UNL     1      27.742  35.530  41.745  1.00  0.00     0.237 C 
HETATM   19  C20 UNL     1      28.605  36.498  40.921  1.00  0.00     0.029 C 
HETATM   20  C21 UNL     1      27.844  37.787  41.147  1.00  0.00     0.029 C 
HETATM   21  C22 UNL     1      27.300  37.628  42.548  1.00  0.00     0.237 C 
ENDBRANCH  15  16
ENDBRANCH  14  15
ENDBRANCH  11  14
ENDBRANCH   8  10
ENDBRANCH   1   8
BRANCH   4  22
HETATM   22  C9  UNL     1      18.689  34.423  43.308  1.00  0.00     0.042 C 
HETATM   23  C10 UNL     1      18.893  32.906  43.165  1.00  0.00     0.036 C 
HETATM   24  C11 UNL     1      17.979  32.422  44.283  1.00  0.00    -0.011 C 
HETATM   25  C12 UNL     1      16.550  32.783  43.988  1.00  0.00     0.009 C 
HETATM   26  C16 UNL     1      18.545  33.267  45.435  1.00  0.00     0.012 C 
HETATM   27  C13 UNL     1      16.380  34.257  43.718  1.00  0.00    -0.011 C 
HETATM   28  C14 UNL     1      16.944  34.992  44.908  1.00  0.00     0.012 C 
HETATM   29  C17 UNL     1      17.341  34.683  42.620  1.00  0.00     0.036 C 
HETATM   30  C15 UNL     1      18.432  34.653  44.775  1.00  0.00     0.015 C 
ENDBRANCH   4  22
TORSDOF 6
ENDMDL
MODEL 5
REMARK VINA RESULT: -7.226850488      3.436      9.589
REMARK  6 active torsions:
REMARK  status: ('A' for Active; 'I' for Inactive)
REMARK    1  A    between atoms: N1_2  and  C2_3 
REMARK    2  A    between atoms: C2_3  and  C3_4 
REMARK    3  A    between atoms: C3_4  and  N2_5 
REMARK       I    between atoms: N2_5  and  C4_7 
REMARK    4  A    between atoms: C4_7  and  C5_9 
REMARK    5  A    between atoms: C5_9  and  C6_11 
REMARK    6  A    between atoms: N3_14  and  C9_15 
ROOT
HETATM    1  C6  UNL     1      22.066  37.617  42.010  1.00  0.00     0.158 C 
HETATM    2  C7  UNL     1      23.017  37.686  43.165  1.00  0.00     0.054 C 
HETATM    3  C8  UNL     1      24.032  36.553  43.165  1.00  0.00     0.131 C 
HETATM    4  N3  UNL     1      24.769  36.535  41.895  1.00  0.00    -0.318 N 
HETATM    5  C18 UNL     1      23.999  36.794  40.734  1.00  0.00     0.363 C 
HETATM    6  O2  UNL     1      24.400  36.446  39.599  1.00  0.00    -0.238 OA
HETATM    7  O3  UNL     1      22.766  37.444  40.799  1.00  0.00    -0.297 OA
ENDROOT
BRANCH   1   8
HETATM    8  C5  UNL     1      21.059  36.498  42.134  1.00  0.00     0.179 C 
HETATM    9 BR1  UNL     1      20.790  35.795  40.334  1.00  0.00    -0.078 Br
BRANCH   8  10
HETATM   10  C4  UNL     1      19.783  36.942  42.708  1.00  0.00     0.234 C 
HETATM   11  N2  UNL     1      18.868  37.790  42.043  1.00  0.00    -0.358 N 
ATOM     12  H2  UNL     1      19.107  38.116  41.107  1.00  0.00     0.162 HD
HETATM   13  O1  UNL     1      19.468  36.552  43.861  1.00  0.00    -0.272 OA
BRANCH  11  14
HETATM   14  C3  UNL     1      17.618  38.221  42.610  1.00  0.00     0.150 C 
BRANCH  14  15
HETATM   15  C2  UNL     1      17.125  39.465  41.957  1.00  0.00     0.256 C 
BRANCH  15  16
HETATM   16  N1  UNL     1      16.628  40.461  42.832  1.00  0.00    -0.069 N 
HETATM   17  C1  UNL     1      15.202  40.632  42.586  1.00  0.00     0.272 C 
HETATM   18  C19 UNL     1      16.774  40.153  44.239  1.00  0.00     0.237 C 
HETATM   19  C20 UNL     1      16.335  41.490  44.854  1.00  0.00     0.029 C 
HETATM   20  C21 UNL     1      17.163  42.447  44.022  1.00  0.00     0.029 C 
HETATM   21  C22 UNL     1      17.240  41.761  42.677  1.00  0.00     0.237 C 
ENDBRANCH  15  16
ENDBRANCH  14  15
ENDBRANCH  11  14
ENDBRANCH   8  10
ENDBRANCH   1   8
BRANCH   4  22
HETATM   22  C9  UNL     1      26.156  36.282  41.784  1.00  0.00     0.042 C 
HETATM   23  C10 UNL     1      26.844  36.197  43.156  1.00  0.00     0.036 C 
HETATM   24  C11 UNL     1      28.082  35.399  42.769  1.00  0.00    -0.011 C 
HETATM   25  C12 UNL     1      28.934  36.182  41.809  1.00  0.00     0.009 C 
HETATM   26  C16 UNL     1      27.393  34.216  42.071  1.00  0.00     0.012 C 
HETATM   27  C13 UNL     1      28.156  36.639  40.600  1.00  0.00    -0.011 C 
HETATM   28  C14 UNL     1      27.540  35.410  39.980  1.00  0.00     0.012 C 
HETATM   29  C17 UNL     1      26.919  37.397  41.055  1.00  0.00     0.036 C 
HETATM   30  C15 UNL     1      26.538  35.012  41.068  1.00  0.00     0.015 C 
ENDBRANCH   4  22
TORSDOF 6
ENDMDL
