MODEL 1
REMARK VINA RESULT: -9.492642819      0.000      0.000
REMARK  13 active torsions:
REMARK  status: ('A' for Active; 'I' for Inactive)
REMARK    1  A    between atoms: N1_2  and  C2_3 
REMARK    2  A    between atoms: N1_2  and  C4_6 
REMARK    3  A    between atoms: C5_9  and  N4_10 
REMARK    4  A    between atoms: C6_15  and  O1_16 
REMARK    5  A    between atoms: O1_16  and  C7_17 
REMARK    6  A    between atoms: C7_17  and  C8_18 
REMARK    7  A    between atoms: C8_18  and  C9_19 
REMARK    8  A    between atoms: C9_19  and  O2_20 
REMARK    9  A    between atoms: O2_20  and  C10_21 
REMARK   10  A    between atoms: C12_23  and  C13_24 
REMARK   11  A    between atoms: N6_25  and  N7_27 
REMARK       I    between atoms: N7_27  and  C14_29 
REMARK   12  A    between atoms: C17_36  and  N10_37 
REMARK   13  A    between atoms: N10_37  and  O3_39 
ROOT
HETATM    1  C2  UNL     1      -5.021  24.777  19.610  1.00  0.00     0.264 C 
HETATM    2  C3  UNL     1      -5.779  25.073  20.814  1.00  0.00     0.079 C 
HETATM    3  N2  UNL     1      -6.369  25.309  21.776  1.00  0.00    -0.196 NA
ENDROOT
BRANCH   1   4
HETATM    4  N1  UNL     1      -4.294  25.929  19.114  1.00  0.00    -0.209 N 
HETATM    5  C1  UNL     1      -4.098  27.029  20.034  1.00  0.00     0.169 C 
BRANCH   4   6
HETATM    6  C4  UNL     1      -3.798  25.966  17.771  1.00  0.00     0.698 A 
HETATM    7  N3  UNL     1      -3.297  24.849  17.244  1.00  0.00    -0.022 N 
HETATM    8  C5  UNL     1      -2.801  24.792  15.971  1.00  0.00     0.693 A 
ATOM      9  H3  UNL     1      -3.283  24.003  17.814  1.00  0.00     0.203 HD
HETATM   10  N5  UNL     1      -2.850  25.937  15.276  1.00  0.00    -0.154 N 
HETATM   11  C6  UNL     1      -3.348  27.077  15.777  1.00  0.00     0.252 A 
ATOM     12  H5  UNL     1      -2.492  25.942  14.322  1.00  0.00     0.188 HD
HETATM   13  N11 UNL     1      -3.834  27.084  17.060  1.00  0.00    -0.154 N 
ATOM     14  H11 UNL     1      -4.217  27.940  17.462  1.00  0.00     0.188 HD
BRANCH   8  15
HETATM   15  N4  UNL     1      -2.309  23.700  15.465  1.00  0.00    -0.234 N 
ATOM     16  H42 UNL     1      -2.484  22.785  15.881  1.00  0.00     0.174 HD
ATOM     17  H41 UNL     1      -1.727  23.701  14.628  1.00  0.00     0.174 HD
ENDBRANCH   8  15
BRANCH  11  18
HETATM   18  O1  UNL     1      -3.401  28.253  15.067  1.00  0.00    -0.321 OA
BRANCH  18  19
HETATM   19  C7  UNL     1      -2.551  29.315  15.268  1.00  0.00     0.181 C 
BRANCH  19  20
HETATM   20  C8  UNL     1      -1.081  28.975  15.422  1.00  0.00     0.053 C 
BRANCH  20  21
HETATM   21  C9  UNL     1      -0.739  28.683  16.859  1.00  0.00     0.178 C 
BRANCH  21  22
HETATM   22  O2  UNL     1      -0.034  29.684  17.524  1.00  0.00    -0.349 OA
BRANCH  22  23
HETATM   23  C10 UNL     1      -0.471  30.899  17.976  1.00  0.00     0.098 A 
HETATM   24  C11 UNL     1      -1.783  31.260  18.151  1.00  0.00     0.052 A 
HETATM   25  C12 UNL     1      -2.215  32.484  18.603  1.00  0.00    -0.017 A 
HETATM   26  C15 UNL     1      -1.202  33.413  18.898  1.00  0.00     0.015 A 
HETATM   27  C16 UNL     1       0.123  33.090  18.736  1.00  0.00     0.035 A 
HETATM   28  C17 UNL     1       0.510  31.855  18.282  1.00  0.00     0.087 A 
BRANCH  25  29
HETATM   29  C13 UNL     1      -3.595  32.875  18.795  1.00  0.00     0.118 C 
HETATM   30  N6  UNL     1      -4.164  33.975  18.586  1.00  0.00    -0.309 N 
ATOM     31  H6  UNL     1      -5.156  33.950  18.822  1.00  0.00     0.186 HD
BRANCH  30  32
HETATM   32  N7  UNL     1      -3.780  35.174  18.127  1.00  0.00    -0.274 N 
HETATM   33  C14 UNL     1      -4.668  36.177  17.587  1.00  0.00     0.200 C 
HETATM   34  N8  UNL     1      -4.271  37.339  17.444  1.00  0.00    -0.372 N 
HETATM   35  N9  UNL     1      -5.973  35.778  17.244  1.00  0.00    -0.062 NA
ATOM     36  H82 UNL     1      -3.325  37.628  17.692  1.00  0.00     0.158 HD
ATOM     37  H81 UNL     1      -4.898  38.048  17.063  1.00  0.00     0.158 HD
ATOM     38  H7  UNL     1      -2.784  35.395  18.161  1.00  0.00     0.189 HD
ENDBRANCH  30  32
ENDBRANCH  25  29
BRANCH  28  39
HETATM   39  N10 UNL     1       1.887  31.549  18.124  1.00  0.00    -0.267 N 
ATOM     40  H10 UNL     1       2.174  30.808  17.483  1.00  0.00     0.194 HD
BRANCH  39  41
HETATM   41  O3  UNL     1       2.753  32.185  18.770  1.00  0.00    -0.289 OA
ATOM     42  H3  UNL     1       3.001  33.062  18.502  1.00  0.00     0.244 HD
ENDBRANCH  39  41
ENDBRANCH  28  39
ENDBRANCH  22  23
ENDBRANCH  21  22
ENDBRANCH  20  21
ENDBRANCH  19  20
ENDBRANCH  18  19
ENDBRANCH  11  18
ENDBRANCH   4   6
ENDBRANCH   1   4
TORSDOF 13
ENDMDL
MODEL 2
REMARK VINA RESULT: -9.374936765      2.253      3.112
REMARK  13 active torsions:
REMARK  status: ('A' for Active; 'I' for Inactive)
REMARK    1  A    between atoms: N1_2  and  C2_3 
REMARK    2  A    between atoms: N1_2  and  C4_6 
REMARK    3  A    between atoms: C5_9  and  N4_10 
REMARK    4  A    between atoms: C6_15  and  O1_16 
REMARK    5  A    between atoms: O1_16  and  C7_17 
REMARK    6  A    between atoms: C7_17  and  C8_18 
REMARK    7  A    between atoms: C8_18  and  C9_19 
REMARK    8  A    between atoms: C9_19  and  O2_20 
REMARK    9  A    between atoms: O2_20  and  C10_21 
REMARK   10  A    between atoms: C12_23  and  C13_24 
REMARK   11  A    between atoms: N6_25  and  N7_27 
REMARK       I    between atoms: N7_27  and  C14_29 
REMARK   12  A    between atoms: C17_36  and  N10_37 
REMARK   13  A    between atoms: N10_37  and  O3_39 
ROOT
HETATM    1  C2  UNL     1      -4.863  24.720  19.584  1.00  0.00     0.264 C 
HETATM    2  C3  UNL     1      -5.693  25.011  20.741  1.00  0.00     0.079 C 
HETATM    3  N2  UNL     1      -6.340  25.242  21.667  1.00  0.00    -0.196 NA
ENDROOT
BRANCH   1   4
HETATM    4  N1  UNL     1      -4.123  25.880  19.126  1.00  0.00    -0.209 N 
HETATM    5  C1  UNL     1      -4.023  26.999  20.039  1.00  0.00     0.169 C 
BRANCH   4   6
HETATM    6  C4  UNL     1      -3.525  25.907  17.825  1.00  0.00     0.698 A 
HETATM    7  N3  UNL     1      -3.584  24.808  17.073  1.00  0.00    -0.022 N 
HETATM    8  C5  UNL     1      -3.039  24.742  15.820  1.00  0.00     0.693 A 
ATOM      9  H3  UNL     1      -4.054  23.984  17.447  1.00  0.00     0.203 HD
HETATM   10  N5  UNL     1      -2.437  25.860  15.388  1.00  0.00    -0.154 N 
HETATM   11  C6  UNL     1      -2.362  26.980  16.120  1.00  0.00     0.252 A 
ATOM     12  H5  UNL     1      -2.018  25.857  14.459  1.00  0.00     0.188 HD
HETATM   13  N11 UNL     1      -2.923  26.997  17.372  1.00  0.00    -0.154 N 
ATOM     14  H11 UNL     1      -2.876  27.838  17.948  1.00  0.00     0.188 HD
BRANCH   8  15
HETATM   15  N4  UNL     1      -3.096  23.665  15.094  1.00  0.00    -0.234 N 
ATOM     16  H42 UNL     1      -3.950  23.382  14.613  1.00  0.00     0.174 HD
ATOM     17  H41 UNL     1      -2.292  23.052  14.965  1.00  0.00     0.174 HD
ENDBRANCH   8  15
BRANCH  11  18
HETATM   18  O1  UNL     1      -1.746  28.128  15.680  1.00  0.00    -0.321 OA
BRANCH  18  19
HETATM   19  C7  UNL     1      -2.357  29.081  14.900  1.00  0.00     0.181 C 
BRANCH  19  20
HETATM   20  C8  UNL     1      -3.874  29.052  14.875  1.00  0.00     0.053 C 
BRANCH  20  21
HETATM   21  C9  UNL     1      -4.452  29.955  15.931  1.00  0.00     0.178 C 
BRANCH  21  22
HETATM   22  O2  UNL     1      -3.745  30.008  17.130  1.00  0.00    -0.349 OA
BRANCH  22  23
HETATM   23  C10 UNL     1      -3.451  31.088  17.917  1.00  0.00     0.098 A 
HETATM   24  C11 UNL     1      -4.370  31.938  18.480  1.00  0.00     0.052 A 
HETATM   25  C12 UNL     1      -4.067  33.023  19.267  1.00  0.00    -0.017 A 
HETATM   26  C15 UNL     1      -2.697  33.247  19.489  1.00  0.00     0.015 A 
HETATM   27  C16 UNL     1      -1.747  32.419  18.943  1.00  0.00     0.035 A 
HETATM   28  C17 UNL     1      -2.093  31.346  18.163  1.00  0.00     0.087 A 
BRANCH  25  29
HETATM   29  C13 UNL     1      -5.026  33.924  19.869  1.00  0.00     0.118 C 
HETATM   30  N6  UNL     1      -5.758  33.775  20.879  1.00  0.00    -0.309 N 
ATOM     31  H6  UNL     1      -6.340  34.593  21.061  1.00  0.00     0.186 HD
BRANCH  30  32
HETATM   32  N7  UNL     1      -5.958  32.798  21.774  1.00  0.00    -0.274 N 
HETATM   33  C14 UNL     1      -7.247  32.403  22.293  1.00  0.00     0.200 C 
HETATM   34  N8  UNL     1      -7.366  31.330  22.896  1.00  0.00    -0.372 N 
HETATM   35  N9  UNL     1      -8.332  33.275  22.084  1.00  0.00    -0.062 NA
ATOM     36  H82 UNL     1      -6.580  30.699  23.048  1.00  0.00     0.158 HD
ATOM     37  H81 UNL     1      -8.276  31.050  23.263  1.00  0.00     0.158 HD
ATOM     38  H7  UNL     1      -5.138  32.295  22.114  1.00  0.00     0.189 HD
ENDBRANCH  30  32
ENDBRANCH  25  29
BRANCH  28  39
HETATM   39  N10 UNL     1      -1.090  30.507  17.611  1.00  0.00    -0.267 N 
ATOM     40  H10 UNL     1      -0.560  30.815  16.796  1.00  0.00     0.194 HD
BRANCH  39  41
HETATM   41  O3  UNL     1      -0.854  29.386  18.123  1.00  0.00    -0.289 OA
ATOM     42  H3  UNL     1      -0.147  29.288  18.751  1.00  0.00     0.244 HD
ENDBRANCH  39  41
ENDBRANCH  28  39
ENDBRANCH  22  23
ENDBRANCH  21  22
ENDBRANCH  20  21
ENDBRANCH  19  20
ENDBRANCH  18  19
ENDBRANCH  11  18
ENDBRANCH   4   6
ENDBRANCH   1   4
TORSDOF 13
ENDMDL
MODEL 3
REMARK VINA RESULT: -9.295309303      1.569      2.061
REMARK  13 active torsions:
REMARK  status: ('A' for Active; 'I' for Inactive)
REMARK    1  A    between atoms: N1_2  and  C2_3 
REMARK    2  A    between atoms: N1_2  and  C4_6 
REMARK    3  A    between atoms: C5_9  and  N4_10 
REMARK    4  A    between atoms: C6_15  and  O1_16 
REMARK    5  A    between atoms: O1_16  and  C7_17 
REMARK    6  A    between atoms: C7_17  and  C8_18 
REMARK    7  A    between atoms: C8_18  and  C9_19 
REMARK    8  A    between atoms: C9_19  and  O2_20 
REMARK    9  A    between atoms: O2_20  and  C10_21 
REMARK   10  A    between atoms: C12_23  and  C13_24 
REMARK   11  A    between atoms: N6_25  and  N7_27 
REMARK       I    between atoms: N7_27  and  C14_29 
REMARK   12  A    between atoms: C17_36  and  N10_37 
REMARK   13  A    between atoms: N10_37  and  O3_39 
ROOT
HETATM    1  C2  UNL     1      -5.025  24.800  19.554  1.00  0.00     0.264 C 
HETATM    2  C3  UNL     1      -5.758  25.077  20.778  1.00  0.00     0.079 C 
HETATM    3  N2  UNL     1      -6.328  25.296  21.755  1.00  0.00    -0.196 NA
ENDROOT
BRANCH   1   4
HETATM    4  N1  UNL     1      -4.194  25.913  19.141  1.00  0.00    -0.209 N 
HETATM    5  C1  UNL     1      -4.019  26.992  20.089  1.00  0.00     0.169 C 
BRANCH   4   6
HETATM    6  C4  UNL     1      -3.579  25.935  17.847  1.00  0.00     0.698 A 
HETATM    7  N3  UNL     1      -3.622  24.830  17.102  1.00  0.00    -0.022 N 
HETATM    8  C5  UNL     1      -3.062  24.759  15.856  1.00  0.00     0.693 A 
ATOM      9  H3  UNL     1      -4.092  24.006  17.475  1.00  0.00     0.203 HD
HETATM   10  N5  UNL     1      -2.461  25.877  15.424  1.00  0.00    -0.154 N 
HETATM   11  C6  UNL     1      -2.401  27.003  16.149  1.00  0.00     0.252 A 
ATOM     12  H5  UNL     1      -2.030  25.870  14.501  1.00  0.00     0.188 HD
HETATM   13  N11 UNL     1      -2.978  27.025  17.394  1.00  0.00    -0.154 N 
ATOM     14  H11 UNL     1      -2.944  27.871  17.964  1.00  0.00     0.188 HD
BRANCH   8  15
HETATM   15  N4  UNL     1      -3.104  23.677  15.137  1.00  0.00    -0.234 N 
ATOM     16  H42 UNL     1      -3.880  23.477  14.506  1.00  0.00     0.174 HD
ATOM     17  H41 UNL     1      -2.363  22.976  15.162  1.00  0.00     0.174 HD
ENDBRANCH   8  15
BRANCH  11  18
HETATM   18  O1  UNL     1      -1.787  28.152  15.709  1.00  0.00    -0.321 OA
BRANCH  18  19
HETATM   19  C7  UNL     1      -2.404  29.112  14.942  1.00  0.00     0.181 C 
BRANCH  19  20
HETATM   20  C8  UNL     1      -3.920  29.066  14.907  1.00  0.00     0.053 C 
BRANCH  20  21
HETATM   21  C9  UNL     1      -4.515  29.996  15.929  1.00  0.00     0.178 C 
BRANCH  21  22
HETATM   22  O2  UNL     1      -3.853  30.046  17.154  1.00  0.00    -0.349 OA
BRANCH  22  23
HETATM   23  C10 UNL     1      -3.550  31.130  17.932  1.00  0.00     0.098 A 
HETATM   24  C11 UNL     1      -4.460  32.012  18.460  1.00  0.00     0.052 A 
HETATM   25  C12 UNL     1      -4.148  33.100  19.238  1.00  0.00    -0.017 A 
HETATM   26  C15 UNL     1      -2.779  33.292  19.492  1.00  0.00     0.015 A 
HETATM   27  C16 UNL     1      -1.837  32.431  18.981  1.00  0.00     0.035 A 
HETATM   28  C17 UNL     1      -2.193  31.356  18.208  1.00  0.00     0.087 A 
BRANCH  25  29
HETATM   29  C13 UNL     1      -5.097  34.035  19.803  1.00  0.00     0.118 C 
HETATM   30  N6  UNL     1      -5.410  35.196  19.439  1.00  0.00    -0.309 N 
ATOM     31  H6  UNL     1      -6.116  35.615  20.043  1.00  0.00     0.186 HD
BRANCH  30  32
HETATM   32  N7  UNL     1      -5.037  36.015  18.446  1.00  0.00    -0.274 N 
HETATM   33  C14 UNL     1      -5.854  36.358  17.305  1.00  0.00     0.200 C 
HETATM   34  N8  UNL     1      -5.543  37.317  16.590  1.00  0.00    -0.372 N 
HETATM   35  N9  UNL     1      -6.992  35.568  17.055  1.00  0.00    -0.062 NA
ATOM     36  H82 UNL     1      -4.718  37.889  16.771  1.00  0.00     0.158 HD
ATOM     37  H81 UNL     1      -6.120  37.560  15.784  1.00  0.00     0.158 HD
ATOM     38  H7  UNL     1      -4.105  36.427  18.499  1.00  0.00     0.189 HD
ENDBRANCH  30  32
ENDBRANCH  25  29
BRANCH  28  39
HETATM   39  N10 UNL     1      -1.198  30.483  17.694  1.00  0.00    -0.267 N 
ATOM     40  H10 UNL     1      -0.656  30.755  16.874  1.00  0.00     0.194 HD
BRANCH  39  41
HETATM   41  O3  UNL     1      -0.986  29.376  18.245  1.00  0.00    -0.289 OA
ATOM     42  H3  UNL     1      -0.376  28.759  17.858  1.00  0.00     0.244 HD
ENDBRANCH  39  41
ENDBRANCH  28  39
ENDBRANCH  22  23
ENDBRANCH  21  22
ENDBRANCH  20  21
ENDBRANCH  19  20
ENDBRANCH  18  19
ENDBRANCH  11  18
ENDBRANCH   4   6
ENDBRANCH   1   4
TORSDOF 13
ENDMDL
MODEL 4
REMARK VINA RESULT: -9.149535367      1.346      3.519
REMARK  13 active torsions:
REMARK  status: ('A' for Active; 'I' for Inactive)
REMARK    1  A    between atoms: N1_2  and  C2_3 
REMARK    2  A    between atoms: N1_2  and  C4_6 
REMARK    3  A    between atoms: C5_9  and  N4_10 
REMARK    4  A    between atoms: C6_15  and  O1_16 
REMARK    5  A    between atoms: O1_16  and  C7_17 
REMARK    6  A    between atoms: C7_17  and  C8_18 
REMARK    7  A    between atoms: C8_18  and  C9_19 
REMARK    8  A    between atoms: C9_19  and  O2_20 
REMARK    9  A    between atoms: O2_20  and  C10_21 
REMARK   10  A    between atoms: C12_23  and  C13_24 
REMARK   11  A    between atoms: N6_25  and  N7_27 
REMARK       I    between atoms: N7_27  and  C14_29 
REMARK   12  A    between atoms: C17_36  and  N10_37 
REMARK   13  A    between atoms: N10_37  and  O3_39 
ROOT
HETATM    1  C2  UNL     1      -1.097  23.669  14.181  1.00  0.00     0.264 C 
HETATM    2  C3  UNL     1      -1.134  22.897  12.950  1.00  0.00     0.079 C 
HETATM    3  N2  UNL     1      -1.165  22.274  11.981  1.00  0.00    -0.196 NA
ENDROOT
BRANCH   1   4
HETATM    4  N1  UNL     1      -2.395  23.758  14.819  1.00  0.00    -0.209 N 
HETATM    5  C1  UNL     1      -3.361  22.731  14.494  1.00  0.00     0.169 C 
BRANCH   4   6
HETATM    6  C4  UNL     1      -2.699  24.823  15.729  1.00  0.00     0.698 A 
HETATM    7  N3  UNL     1      -2.668  24.572  17.038  1.00  0.00    -0.022 N 
HETATM    8  C5  UNL     1      -2.944  25.526  17.977  1.00  0.00     0.693 A 
ATOM      9  H3  UNL     1      -2.429  23.631  17.350  1.00  0.00     0.203 HD
HETATM   10  N5  UNL     1      -3.250  26.741  17.500  1.00  0.00    -0.154 N 
HETATM   11  C6  UNL     1      -3.289  27.025  16.191  1.00  0.00     0.252 A 
ATOM     12  H5  UNL     1      -3.463  27.484  18.165  1.00  0.00     0.188 HD
HETATM   13  N11 UNL     1      -3.005  26.033  15.286  1.00  0.00    -0.154 N 
ATOM     14  H11 UNL     1      -3.029  26.226  14.284  1.00  0.00     0.188 HD
BRANCH   8  15
HETATM   15  N4  UNL     1      -2.917  25.274  19.253  1.00  0.00    -0.234 N 
ATOM     16  H42 UNL     1      -3.386  24.461  19.653  1.00  0.00     0.174 HD
ATOM     17  H41 UNL     1      -2.426  25.872  19.916  1.00  0.00     0.174 HD
ENDBRANCH   8  15
BRANCH  11  18
HETATM   18  O1  UNL     1      -3.602  28.270  15.697  1.00  0.00    -0.321 OA
BRANCH  18  19
HETATM   19  C7  UNL     1      -2.743  29.343  15.711  1.00  0.00     0.181 C 
BRANCH  19  20
HETATM   20  C8  UNL     1      -1.263  29.016  15.637  1.00  0.00     0.053 C 
BRANCH  20  21
HETATM   21  C9  UNL     1      -0.699  28.741  17.005  1.00  0.00     0.178 C 
BRANCH  21  22
HETATM   22  O2  UNL     1       0.028  29.783  17.576  1.00  0.00    -0.349 OA
BRANCH  22  23
HETATM   23  C10 UNL     1      -0.405  31.003  18.019  1.00  0.00     0.098 A 
HETATM   24  C11 UNL     1      -1.713  31.349  18.248  1.00  0.00     0.052 A 
HETATM   25  C12 UNL     1      -2.141  32.577  18.690  1.00  0.00    -0.017 A 
HETATM   26  C15 UNL     1      -1.129  33.528  18.913  1.00  0.00     0.015 A 
HETATM   27  C16 UNL     1       0.192  33.220  18.695  1.00  0.00     0.035 A 
HETATM   28  C17 UNL     1       0.575  31.980  18.253  1.00  0.00     0.087 A 
BRANCH  25  29
HETATM   29  C13 UNL     1      -3.516  32.954  18.939  1.00  0.00     0.118 C 
HETATM   30  N6  UNL     1      -4.114  34.037  18.722  1.00  0.00    -0.309 N 
ATOM     31  H6  UNL     1      -5.092  34.005  19.009  1.00  0.00     0.186 HD
BRANCH  30  32
HETATM   32  N7  UNL     1      -3.773  35.225  18.204  1.00  0.00    -0.274 N 
HETATM   33  C14 UNL     1      -4.702  36.188  17.660  1.00  0.00     0.200 C 
HETATM   34  N8  UNL     1      -4.337  37.352  17.458  1.00  0.00    -0.372 N 
HETATM   35  N9  UNL     1      -6.010  35.748  17.379  1.00  0.00    -0.062 NA
ATOM     36  H82 UNL     1      -3.390  37.670  17.660  1.00  0.00     0.158 HD
ATOM     37  H81 UNL     1      -4.994  38.032  17.073  1.00  0.00     0.158 HD
ATOM     38  H7  UNL     1      -2.782  35.469  18.194  1.00  0.00     0.189 HD
ENDBRANCH  30  32
ENDBRANCH  25  29
BRANCH  28  39
HETATM   39  N10 UNL     1       1.948  31.689  18.036  1.00  0.00    -0.267 N 
ATOM     40  H10 UNL     1       2.225  31.095  17.254  1.00  0.00     0.194 HD
BRANCH  39  41
HETATM   41  O3  UNL     1       2.820  32.159  18.805  1.00  0.00    -0.289 OA
ATOM     42  H3  UNL     1       3.695  31.786  18.819  1.00  0.00     0.244 HD
ENDBRANCH  39  41
ENDBRANCH  28  39
ENDBRANCH  22  23
ENDBRANCH  21  22
ENDBRANCH  20  21
ENDBRANCH  19  20
ENDBRANCH  18  19
ENDBRANCH  11  18
ENDBRANCH   4   6
ENDBRANCH   1   4
TORSDOF 13
ENDMDL
MODEL 5
REMARK VINA RESULT: -9.083524820      1.450      2.003
REMARK  13 active torsions:
REMARK  status: ('A' for Active; 'I' for Inactive)
REMARK    1  A    between atoms: N1_2  and  C2_3 
REMARK    2  A    between atoms: N1_2  and  C4_6 
REMARK    3  A    between atoms: C5_9  and  N4_10 
REMARK    4  A    between atoms: C6_15  and  O1_16 
REMARK    5  A    between atoms: O1_16  and  C7_17 
REMARK    6  A    between atoms: C7_17  and  C8_18 
REMARK    7  A    between atoms: C8_18  and  C9_19 
REMARK    8  A    between atoms: C9_19  and  O2_20 
REMARK    9  A    between atoms: O2_20  and  C10_21 
REMARK   10  A    between atoms: C12_23  and  C13_24 
REMARK   11  A    between atoms: N6_25  and  N7_27 
REMARK       I    between atoms: N7_27  and  C14_29 
REMARK   12  A    between atoms: C17_36  and  N10_37 
REMARK   13  A    between atoms: N10_37  and  O3_39 
ROOT
HETATM    1  C2  UNL     1      -4.998  24.714  19.643  1.00  0.00     0.264 C 
HETATM    2  C3  UNL     1      -5.784  25.020  20.827  1.00  0.00     0.079 C 
HETATM    3  N2  UNL     1      -6.394  25.262  21.774  1.00  0.00    -0.196 NA
ENDROOT
BRANCH   1   4
HETATM    4  N1  UNL     1      -4.285  25.870  19.137  1.00  0.00    -0.209 N 
HETATM    5  C1  UNL     1      -4.100  26.980  20.047  1.00  0.00     0.169 C 
BRANCH   4   6
HETATM    6  C4  UNL     1      -3.792  25.903  17.792  1.00  0.00     0.698 A 
HETATM    7  N3  UNL     1      -3.263  24.791  17.280  1.00  0.00    -0.022 N 
HETATM    8  C5  UNL     1      -2.767  24.730  16.007  1.00  0.00     0.693 A 
ATOM      9  H3  UNL     1      -3.227  23.954  17.860  1.00  0.00     0.203 HD
HETATM   10  N5  UNL     1      -2.847  25.865  15.297  1.00  0.00    -0.154 N 
HETATM   11  C6  UNL     1      -3.373  26.997  15.783  1.00  0.00     0.252 A 
ATOM     12  H5  UNL     1      -2.490  25.866  14.342  1.00  0.00     0.188 HD
HETATM   13  N11 UNL     1      -3.857  27.010  17.067  1.00  0.00    -0.154 N 
ATOM     14  H11 UNL     1      -4.262  27.860  17.458  1.00  0.00     0.188 HD
BRANCH   8  15
HETATM   15  N4  UNL     1      -2.248  23.645  15.515  1.00  0.00    -0.234 N 
ATOM     16  H42 UNL     1      -2.815  22.826  15.295  1.00  0.00     0.174 HD
ATOM     17  H41 UNL     1      -1.250  23.557  15.321  1.00  0.00     0.174 HD
ENDBRANCH   8  15
BRANCH  11  18
HETATM   18  O1  UNL     1      -3.458  28.162  15.057  1.00  0.00    -0.321 OA
BRANCH  18  19
HETATM   19  C7  UNL     1      -2.850  29.342  15.417  1.00  0.00     0.181 C 
BRANCH  19  20
HETATM   20  C8  UNL     1      -1.334  29.355  15.366  1.00  0.00     0.053 C 
BRANCH  20  21
HETATM   21  C9  UNL     1      -0.743  28.863  16.660  1.00  0.00     0.178 C 
BRANCH  21  22
HETATM   22  O2  UNL     1      -1.204  29.498  17.811  1.00  0.00    -0.349 OA
BRANCH  22  23
HETATM   23  C10 UNL     1      -1.363  30.833  18.062  1.00  0.00     0.098 A 
HETATM   24  C11 UNL     1      -2.564  31.490  18.152  1.00  0.00     0.052 A 
HETATM   25  C12 UNL     1      -2.716  32.833  18.400  1.00  0.00    -0.017 A 
HETATM   26  C15 UNL     1      -1.523  33.557  18.568  1.00  0.00     0.015 A 
HETATM   27  C16 UNL     1      -0.300  32.936  18.484  1.00  0.00     0.035 A 
HETATM   28  C17 UNL     1      -0.194  31.592  18.235  1.00  0.00     0.087 A 
BRANCH  25  29
HETATM   29  C13 UNL     1      -3.976  33.536  18.502  1.00  0.00     0.118 C 
HETATM   30  N6  UNL     1      -4.857  33.500  19.397  1.00  0.00    -0.309 N 
ATOM     31  H6  UNL     1      -5.647  34.111  19.189  1.00  0.00     0.186 HD
BRANCH  30  32
HETATM   32  N7  UNL     1      -5.007  32.850  20.559  1.00  0.00    -0.274 N 
HETATM   33  C14 UNL     1      -6.166  32.944  21.416  1.00  0.00     0.200 C 
HETATM   34  N8  UNL     1      -6.336  32.115  22.317  1.00  0.00    -0.372 N 
HETATM   35  N9  UNL     1      -7.070  33.998  21.181  1.00  0.00    -0.062 NA
ATOM     36  H82 UNL     1      -5.682  31.352  22.488  1.00  0.00     0.158 HD
ATOM     37  H81 UNL     1      -7.155  32.181  22.922  1.00  0.00     0.158 HD
ATOM     38  H7  UNL     1      -4.246  32.242  20.862  1.00  0.00     0.189 HD
ENDBRANCH  30  32
ENDBRANCH  25  29
BRANCH  28  39
HETATM   39  N10 UNL     1       1.082  30.976  18.154  1.00  0.00    -0.267 N 
ATOM     40  H10 UNL     1       1.156  29.959  18.125  1.00  0.00     0.194 HD
BRANCH  39  41
HETATM   41  O3  UNL     1       2.120  31.679  18.117  1.00  0.00    -0.289 OA
ATOM     42  H3  UNL     1       2.612  31.764  17.308  1.00  0.00     0.244 HD
ENDBRANCH  39  41
ENDBRANCH  28  39
ENDBRANCH  22  23
ENDBRANCH  21  22
ENDBRANCH  20  21
ENDBRANCH  19  20
ENDBRANCH  18  19
ENDBRANCH  11  18
ENDBRANCH   4   6
ENDBRANCH   1   4
TORSDOF 13
ENDMDL
