MODEL 1
REMARK VINA RESULT: -7.615298337      0.000      0.000
REMARK  11 active torsions:
REMARK  status: ('A' for Active; 'I' for Inactive)
REMARK    1  A    between atoms: C2_2  and  N1_3 
REMARK    2  A    between atoms: C4_10  and  O1_11 
REMARK    3  A    between atoms: C6_14  and  O2_15 
REMARK    4  A    between atoms: O2_15  and  C7_16 
REMARK    5  A    between atoms: C7_16  and  C8_17 
REMARK    6  A    between atoms: C8_17  and  S1_18 
REMARK    7  A    between atoms: S1_18  and  C9_19 
REMARK    8  A    between atoms: N4_25  and  N5_26 
REMARK    9  A    between atoms: C11_30  and  C12_31 
REMARK   10  A    between atoms: C12_31  and  O5_32 
REMARK   11  A    between atoms: C12_31  and  O6_34 
ROOT
HETATM    1  C1  UNL     1     -15.358 -11.424  10.653  1.00  0.00     0.093 C 
HETATM    2  C2  UNL     1     -15.157  -9.969  10.393  1.00  0.00     0.284 C 
HETATM    3  N2  UNL     1     -15.686  -9.110  11.426  1.00  0.00    -0.326 N 
ATOM      4  H2  UNL     1     -16.491  -9.292  12.025  1.00  0.00     0.165 HD
HETATM    5  C3  UNL     1     -14.844  -7.945  11.436  1.00  0.00     0.158 A 
HETATM    6  C4  UNL     1     -14.812  -6.631  11.841  1.00  0.00     0.127 A 
HETATM    7  C5  UNL     1     -13.561  -6.116  11.467  1.00  0.00     0.071 A 
HETATM    8  C6  UNL     1     -12.951  -4.894  11.590  1.00  0.00     0.125 A 
HETATM    9  S2  UNL     1     -11.435  -5.148  10.855  1.00  0.00    -0.062 SA
HETATM   10  C11 UNL     1     -11.614  -6.790  10.414  1.00  0.00     0.069 A 
HETATM   11  C13 UNL     1     -12.873  -7.092  10.863  1.00  0.00     0.089 A 
HETATM   12  N6  UNL     1     -13.666  -8.209  10.847  1.00  0.00    -0.235 N 
HETATM   13  N7  UNL     1     -13.752  -9.565  10.450  1.00  0.00    -0.070 NA
ENDROOT
BRANCH   8  14
HETATM   14  O2  UNL     1     -13.415  -3.696  12.169  1.00  0.00    -0.342 OA
BRANCH  14  15
HETATM   15  C7  UNL     1     -13.793  -2.623  11.318  1.00  0.00     0.187 C 
BRANCH  15  16
HETATM   16  C8  UNL     1     -15.127  -2.881  10.684  1.00  0.00     0.109 C 
BRANCH  16  17
HETATM   17  S1  UNL     1     -16.505  -2.429  11.734  1.00  0.00    -0.088 SA
BRANCH  17  18
HETATM   18  C9  UNL     1     -16.048  -1.822  13.324  1.00  0.00     0.191 A 
HETATM   19  N3  UNL     1     -16.161  -0.570  13.819  1.00  0.00    -0.232 N 
HETATM   20  O3  UNL     1     -15.710  -0.541  15.034  1.00  0.00    -0.177 OA
ATOM     21  H3  UNL     1     -16.543   0.230  13.314  1.00  0.00     0.197 HD
HETATM   22  C10 UNL     1     -15.294  -1.741  15.376  1.00  0.00     0.410 A 
HETATM   23  O4  UNL     1     -14.797  -2.069  16.483  1.00  0.00    -0.234 OA
HETATM   24  N4  UNL     1     -15.500  -2.553  14.311  1.00  0.00    -0.179 N 
BRANCH  24  25
HETATM   25  N5  UNL     1     -15.165  -3.910  14.345  1.00  0.00    -0.332 N 
ATOM     26  H52 UNL     1     -14.392  -4.286  13.795  1.00  0.00     0.177 HD
ATOM     27  H51 UNL     1     -15.585  -4.677  14.868  1.00  0.00     0.177 HD
ENDBRANCH  24  25
ENDBRANCH  17  18
ENDBRANCH  16  17
ENDBRANCH  15  16
ENDBRANCH  14  15
ENDBRANCH   8  14
BRANCH   6  28
HETATM   28  O1  UNL     1     -15.855  -5.962  12.501  1.00  0.00    -0.356 OA
ATOM     29  H1  UNL     1     -15.839  -5.685  13.409  1.00  0.00     0.218 HD
ENDBRANCH   6  28
BRANCH  10  30
HETATM   30  C12 UNL     1     -10.590  -7.636   9.714  1.00  0.00     0.297 C 
BRANCH  30  31
HETATM   31  O5  UNL     1      -9.290  -7.195   9.948  1.00  0.00    -0.367 OA
ATOM     32  H5  UNL     1      -8.647  -7.687   9.450  1.00  0.00     0.213 HD
ENDBRANCH  30  31
BRANCH  30  33
HETATM   33  O6  UNL     1     -10.742  -8.964  10.095  1.00  0.00    -0.367 OA
ATOM     34  H6  UNL     1     -10.330  -9.530   9.451  1.00  0.00     0.213 HD
ENDBRANCH  30  33
ENDBRANCH  10  30
BRANCH   2  35
HETATM   35  N1  UNL     1     -15.637  -9.572   9.069  1.00  0.00    -0.036 N 
ATOM     36  H13 UNL     1     -15.471 -10.307   8.381  1.00  0.00     0.279 HD
ATOM     37  H12 UNL     1     -16.656  -9.547   9.037  1.00  0.00     0.279 HD
ATOM     38  H11 UNL     1     -15.237  -8.685   8.764  1.00  0.00     0.279 HD
ENDBRANCH   2  35
TORSDOF 11
ENDMDL
MODEL 2
REMARK VINA RESULT: -7.415578768      1.249      1.357
REMARK  11 active torsions:
REMARK  status: ('A' for Active; 'I' for Inactive)
REMARK    1  A    between atoms: C2_2  and  N1_3 
REMARK    2  A    between atoms: C4_10  and  O1_11 
REMARK    3  A    between atoms: C6_14  and  O2_15 
REMARK    4  A    between atoms: O2_15  and  C7_16 
REMARK    5  A    between atoms: C7_16  and  C8_17 
REMARK    6  A    between atoms: C8_17  and  S1_18 
REMARK    7  A    between atoms: S1_18  and  C9_19 
REMARK    8  A    between atoms: N4_25  and  N5_26 
REMARK    9  A    between atoms: C11_30  and  C12_31 
REMARK   10  A    between atoms: C12_31  and  O5_32 
REMARK   11  A    between atoms: C12_31  and  O6_34 
ROOT
HETATM    1  C1  UNL     1     -15.134 -11.202  10.834  1.00  0.00     0.093 C 
HETATM    2  C2  UNL     1     -15.022  -9.733  10.603  1.00  0.00     0.284 C 
HETATM    3  N2  UNL     1     -15.661  -8.929  11.619  1.00  0.00    -0.326 N 
ATOM      4  H2  UNL     1     -16.479  -9.176  12.174  1.00  0.00     0.165 HD
HETATM    5  C3  UNL     1     -14.904  -7.709  11.686  1.00  0.00     0.158 A 
HETATM    6  C4  UNL     1     -14.983  -6.403  12.108  1.00  0.00     0.127 A 
HETATM    7  C5  UNL     1     -13.754  -5.797  11.804  1.00  0.00     0.071 A 
HETATM    8  C6  UNL     1     -13.238  -4.537  11.973  1.00  0.00     0.125 A 
HETATM    9  S2  UNL     1     -11.673  -4.674  11.312  1.00  0.00    -0.062 SA
HETATM   10  C11 UNL     1     -11.715  -6.317  10.843  1.00  0.00     0.069 A 
HETATM   11  C13 UNL     1     -12.971  -6.712  11.223  1.00  0.00     0.089 A 
HETATM   12  N6  UNL     1     -13.683  -7.881  11.154  1.00  0.00    -0.235 N 
HETATM   13  N7  UNL     1     -13.653  -9.234  10.736  1.00  0.00    -0.070 NA
ENDROOT
BRANCH   8  14
HETATM   14  O2  UNL     1     -13.813  -3.384  12.544  1.00  0.00    -0.342 OA
BRANCH  14  15
HETATM   15  C7  UNL     1     -13.784  -2.167  11.810  1.00  0.00     0.187 C 
BRANCH  15  16
HETATM   16  C8  UNL     1     -14.551  -2.292  10.528  1.00  0.00     0.109 C 
BRANCH  16  17
HETATM   17  S1  UNL     1     -16.263  -2.754  10.774  1.00  0.00    -0.088 SA
BRANCH  17  18
HETATM   18  C9  UNL     1     -17.064  -1.924  12.106  1.00  0.00     0.191 A 
HETATM   19  N3  UNL     1     -17.859  -0.832  12.070  1.00  0.00    -0.232 N 
HETATM   20  O3  UNL     1     -18.249  -0.540  13.272  1.00  0.00    -0.177 OA
ATOM     21  H3  UNL     1     -18.113  -0.317  11.227  1.00  0.00     0.197 HD
HETATM   22  C10 UNL     1     -17.739  -1.405  14.121  1.00  0.00     0.410 A 
HETATM   23  O4  UNL     1     -17.912  -1.415  15.366  1.00  0.00    -0.234 OA
HETATM   24  N4  UNL     1     -16.993  -2.278  13.402  1.00  0.00    -0.179 N 
BRANCH  24  25
HETATM   25  N5  UNL     1     -16.308  -3.335  14.009  1.00  0.00    -0.332 N 
ATOM     26  H52 UNL     1     -16.790  -4.027  14.583  1.00  0.00     0.177 HD
ATOM     27  H51 UNL     1     -15.317  -3.575  13.986  1.00  0.00     0.177 HD
ENDBRANCH  24  25
ENDBRANCH  17  18
ENDBRANCH  16  17
ENDBRANCH  15  16
ENDBRANCH  14  15
ENDBRANCH   8  14
BRANCH   6  28
HETATM   28  O1  UNL     1     -16.102  -5.818  12.723  1.00  0.00    -0.356 OA
ATOM     29  H1  UNL     1     -16.535  -5.025  12.431  1.00  0.00     0.218 HD
ENDBRANCH   6  28
BRANCH  10  30
HETATM   30  C12 UNL     1     -10.601  -7.079  10.185  1.00  0.00     0.297 C 
BRANCH  30  31
HETATM   31  O5  UNL     1      -9.729  -7.645  11.110  1.00  0.00    -0.367 OA
ATOM     32  H5  UNL     1      -9.211  -8.348  10.736  1.00  0.00     0.213 HD
ENDBRANCH  30  31
BRANCH  30  33
HETATM   33  O6  UNL     1     -11.132  -8.049   9.342  1.00  0.00    -0.367 OA
ATOM     34  H6  UNL     1     -11.320  -7.666   8.493  1.00  0.00     0.213 HD
ENDBRANCH  30  33
ENDBRANCH  10  30
BRANCH   2  35
HETATM   35  N1  UNL     1     -15.462  -9.349   9.261  1.00  0.00    -0.036 N 
ATOM     36  H13 UNL     1     -14.668  -9.113   8.666  1.00  0.00     0.279 HD
ATOM     37  H12 UNL     1     -15.819 -10.153   8.745  1.00  0.00     0.279 HD
ATOM     38  H11 UNL     1     -16.145  -8.592   9.282  1.00  0.00     0.279 HD
ENDBRANCH   2  35
TORSDOF 11
ENDMDL
MODEL 3
REMARK VINA RESULT: -7.145510261      1.355      1.894
REMARK  11 active torsions:
REMARK  status: ('A' for Active; 'I' for Inactive)
REMARK    1  A    between atoms: C2_2  and  N1_3 
REMARK    2  A    between atoms: C4_10  and  O1_11 
REMARK    3  A    between atoms: C6_14  and  O2_15 
REMARK    4  A    between atoms: O2_15  and  C7_16 
REMARK    5  A    between atoms: C7_16  and  C8_17 
REMARK    6  A    between atoms: C8_17  and  S1_18 
REMARK    7  A    between atoms: S1_18  and  C9_19 
REMARK    8  A    between atoms: N4_25  and  N5_26 
REMARK    9  A    between atoms: C11_30  and  C12_31 
REMARK   10  A    between atoms: C12_31  and  O5_32 
REMARK   11  A    between atoms: C12_31  and  O6_34 
ROOT
HETATM    1  C1  UNL     1     -15.395 -11.614  10.656  1.00  0.00     0.093 C 
HETATM    2  C2  UNL     1     -15.192 -10.157  10.404  1.00  0.00     0.284 C 
HETATM    3  N2  UNL     1     -15.697  -9.305  11.454  1.00  0.00    -0.326 N 
ATOM      4  H2  UNL     1     -16.491  -9.488  12.067  1.00  0.00     0.165 HD
HETATM    5  C3  UNL     1     -14.850  -8.144  11.458  1.00  0.00     0.158 A 
HETATM    6  C4  UNL     1     -14.803  -6.833  11.872  1.00  0.00     0.127 A 
HETATM    7  C5  UNL     1     -13.557  -6.321  11.478  1.00  0.00     0.071 A 
HETATM    8  C6  UNL     1     -12.939  -5.102  11.600  1.00  0.00     0.125 A 
HETATM    9  S2  UNL     1     -11.439  -5.358  10.833  1.00  0.00    -0.062 SA
HETATM   10  C11 UNL     1     -11.634  -6.995  10.382  1.00  0.00     0.069 A 
HETATM   11  C13 UNL     1     -12.886  -7.294  10.853  1.00  0.00     0.089 A 
HETATM   12  N6  UNL     1     -13.685  -8.408  10.843  1.00  0.00    -0.235 N 
HETATM   13  N7  UNL     1     -13.784  -9.761  10.437  1.00  0.00    -0.070 NA
ENDROOT
BRANCH   8  14
HETATM   14  O2  UNL     1     -13.387  -3.908  12.198  1.00  0.00    -0.342 OA
BRANCH  14  15
HETATM   15  C7  UNL     1     -13.805  -2.836  11.363  1.00  0.00     0.187 C 
BRANCH  15  16
HETATM   16  C8  UNL     1     -13.569  -1.512  12.027  1.00  0.00     0.109 C 
BRANCH  16  17
HETATM   17  S1  UNL     1     -14.469  -1.324  13.563  1.00  0.00    -0.088 SA
BRANCH  17  18
HETATM   18  C9  UNL     1     -15.805  -2.455  13.774  1.00  0.00     0.191 A 
HETATM   19  N3  UNL     1     -15.764  -3.765  14.102  1.00  0.00    -0.232 N 
HETATM   20  O3  UNL     1     -16.971  -4.236  14.158  1.00  0.00    -0.177 OA
ATOM     21  H3  UNL     1     -14.913  -4.300  14.279  1.00  0.00     0.197 HD
HETATM   22  C10 UNL     1     -17.828  -3.280  13.876  1.00  0.00     0.410 A 
HETATM   23  O4  UNL     1     -19.080  -3.391  13.839  1.00  0.00    -0.234 OA
HETATM   24  N4  UNL     1     -17.109  -2.158  13.633  1.00  0.00    -0.179 N 
BRANCH  24  25
HETATM   25  N5  UNL     1     -17.725  -0.947  13.301  1.00  0.00    -0.332 N 
ATOM     26  H52 UNL     1     -18.401  -0.879  12.541  1.00  0.00     0.177 HD
ATOM     27  H51 UNL     1     -17.619  -0.022  13.717  1.00  0.00     0.177 HD
ENDBRANCH  24  25
ENDBRANCH  17  18
ENDBRANCH  16  17
ENDBRANCH  15  16
ENDBRANCH  14  15
ENDBRANCH   8  14
BRANCH   6  28
HETATM   28  O1  UNL     1     -15.830  -6.165  12.558  1.00  0.00    -0.356 OA
ATOM     29  H1  UNL     1     -16.358  -5.461  12.201  1.00  0.00     0.218 HD
ENDBRANCH   6  28
BRANCH  10  30
HETATM   30  C12 UNL     1     -10.628  -7.840   9.656  1.00  0.00     0.297 C 
BRANCH  30  31
HETATM   31  O5  UNL     1      -9.335  -7.336   9.766  1.00  0.00    -0.367 OA
ATOM     32  H5  UNL     1      -8.688  -8.022   9.872  1.00  0.00     0.213 HD
ENDBRANCH  30  31
BRANCH  30  33
HETATM   33  O6  UNL     1     -10.694  -9.148  10.119  1.00  0.00    -0.367 OA
ATOM     34  H6  UNL     1     -10.024  -9.671   9.696  1.00  0.00     0.213 HD
ENDBRANCH  30  33
ENDBRANCH  10  30
BRANCH   2  35
HETATM   35  N1  UNL     1     -15.696  -9.747   9.093  1.00  0.00    -0.036 N 
ATOM     36  H13 UNL     1     -16.301 -10.463   8.689  1.00  0.00     0.279 HD
ATOM     37  H12 UNL     1     -16.374  -8.991   9.178  1.00  0.00     0.279 HD
ATOM     38  H11 UNL     1     -14.943  -9.496   8.452  1.00  0.00     0.279 HD
ENDBRANCH   2  35
TORSDOF 11
ENDMDL
MODEL 4
REMARK VINA RESULT: -7.108644333      1.644      2.031
REMARK  11 active torsions:
REMARK  status: ('A' for Active; 'I' for Inactive)
REMARK    1  A    between atoms: C2_2  and  N1_3 
REMARK    2  A    between atoms: C4_10  and  O1_11 
REMARK    3  A    between atoms: C6_14  and  O2_15 
REMARK    4  A    between atoms: O2_15  and  C7_16 
REMARK    5  A    between atoms: C7_16  and  C8_17 
REMARK    6  A    between atoms: C8_17  and  S1_18 
REMARK    7  A    between atoms: S1_18  and  C9_19 
REMARK    8  A    between atoms: N4_25  and  N5_26 
REMARK    9  A    between atoms: C11_30  and  C12_31 
REMARK   10  A    between atoms: C12_31  and  O5_32 
REMARK   11  A    between atoms: C12_31  and  O6_34 
ROOT
HETATM    1  C1  UNL     1     -15.878 -12.170  11.105  1.00  0.00     0.093 C 
HETATM    2  C2  UNL     1     -15.414 -10.845  10.599  1.00  0.00     0.284 C 
HETATM    3  N2  UNL     1     -15.983  -9.718  11.299  1.00  0.00    -0.326 N 
ATOM      4  H2  UNL     1     -16.901  -9.667  11.740  1.00  0.00     0.165 HD
HETATM    5  C3  UNL     1     -14.990  -8.681  11.245  1.00  0.00     0.158 A 
HETATM    6  C4  UNL     1     -14.831  -7.320  11.367  1.00  0.00     0.127 A 
HETATM    7  C5  UNL     1     -13.469  -7.045  11.165  1.00  0.00     0.071 A 
HETATM    8  C6  UNL     1     -12.713  -5.901  11.159  1.00  0.00     0.125 A 
HETATM    9  S2  UNL     1     -11.146  -6.482  10.826  1.00  0.00    -0.062 SA
HETATM   10  C11 UNL     1     -11.490  -8.152  10.705  1.00  0.00     0.069 A 
HETATM   11  C13 UNL     1     -12.841  -8.203  10.933  1.00  0.00     0.089 A 
HETATM   12  N6  UNL     1     -13.779  -9.200  10.982  1.00  0.00    -0.235 N 
HETATM   13  N7  UNL     1     -13.997 -10.594  10.864  1.00  0.00    -0.070 NA
ENDROOT
BRANCH   8  14
HETATM   14  O2  UNL     1     -13.086  -4.559  11.369  1.00  0.00    -0.342 OA
BRANCH  14  15
HETATM   15  C7  UNL     1     -12.101  -3.543  11.237  1.00  0.00     0.187 C 
BRANCH  15  16
HETATM   16  C8  UNL     1     -12.646  -2.206  11.643  1.00  0.00     0.109 C 
BRANCH  16  17
HETATM   17  S1  UNL     1     -14.402  -2.039  11.333  1.00  0.00    -0.088 SA
BRANCH  17  18
HETATM   18  C9  UNL     1     -15.436  -2.843  12.512  1.00  0.00     0.191 A 
HETATM   19  N3  UNL     1     -15.226  -4.002  13.173  1.00  0.00    -0.232 N 
HETATM   20  O3  UNL     1     -16.232  -4.244  13.955  1.00  0.00    -0.177 OA
ATOM     21  H3  UNL     1     -14.403  -4.596  13.072  1.00  0.00     0.197 HD
HETATM   22  C10 UNL     1     -17.118  -3.279  13.841  1.00  0.00     0.410 A 
HETATM   23  O4  UNL     1     -18.212  -3.196  14.455  1.00  0.00    -0.234 OA
HETATM   24  N4  UNL     1     -16.630  -2.394  12.938  1.00  0.00    -0.179 N 
BRANCH  24  25
HETATM   25  N5  UNL     1     -17.334  -1.239  12.585  1.00  0.00    -0.332 N 
ATOM     26  H52 UNL     1     -17.659  -1.078  11.632  1.00  0.00     0.177 HD
ATOM     27  H51 UNL     1     -17.618  -0.443  13.157  1.00  0.00     0.177 HD
ENDBRANCH  24  25
ENDBRANCH  17  18
ENDBRANCH  16  17
ENDBRANCH  15  16
ENDBRANCH  14  15
ENDBRANCH   8  14
BRANCH   6  28
HETATM   28  O1  UNL     1     -15.862  -6.407  11.642  1.00  0.00    -0.356 OA
ATOM     29  H1  UNL     1     -15.793  -5.463  11.560  1.00  0.00     0.218 HD
ENDBRANCH   6  28
BRANCH  10  30
HETATM   30  C12 UNL     1     -10.498  -9.243  10.425  1.00  0.00     0.297 C 
BRANCH  30  31
HETATM   31  O5  UNL     1      -9.288  -8.748   9.947  1.00  0.00    -0.367 OA
ATOM     32  H5  UNL     1      -9.232  -8.786   8.999  1.00  0.00     0.213 HD
ENDBRANCH  30  31
BRANCH  30  33
HETATM   33  O6  UNL     1     -10.306 -10.007  11.571  1.00  0.00    -0.367 OA
ATOM     34  H6  UNL     1     -11.099 -10.491  11.768  1.00  0.00     0.213 HD
ENDBRANCH  30  33
ENDBRANCH  10  30
BRANCH   2  35
HETATM   35  N1  UNL     1     -15.581 -10.717   9.151  1.00  0.00    -0.036 N 
ATOM     36  H13 UNL     1     -15.363  -9.771   8.836  1.00  0.00     0.279 HD
ATOM     37  H12 UNL     1     -14.854 -11.226   8.649  1.00  0.00     0.279 HD
ATOM     38  H11 UNL     1     -16.510 -11.003   8.843  1.00  0.00     0.279 HD
ENDBRANCH   2  35
TORSDOF 11
ENDMDL
MODEL 5
REMARK VINA RESULT: -6.732163257      8.032     11.510
REMARK  11 active torsions:
REMARK  status: ('A' for Active; 'I' for Inactive)
REMARK    1  A    between atoms: C2_2  and  N1_3 
REMARK    2  A    between atoms: C4_10  and  O1_11 
REMARK    3  A    between atoms: C6_14  and  O2_15 
REMARK    4  A    between atoms: O2_15  and  C7_16 
REMARK    5  A    between atoms: C7_16  and  C8_17 
REMARK    6  A    between atoms: C8_17  and  S1_18 
REMARK    7  A    between atoms: S1_18  and  C9_19 
REMARK    8  A    between atoms: N4_25  and  N5_26 
REMARK    9  A    between atoms: C11_30  and  C12_31 
REMARK   10  A    between atoms: C12_31  and  O5_32 
REMARK   11  A    between atoms: C12_31  and  O6_34 
ROOT
HETATM    1  C1  UNL     1      -9.896 -20.178  13.035  1.00  0.00     0.093 C 
HETATM    2  C2  UNL     1     -11.269 -19.894  12.525  1.00  0.00     0.284 C 
HETATM    3  N2  UNL     1     -11.777 -18.595  12.898  1.00  0.00    -0.326 N 
ATOM      4  H2  UNL     1     -11.559 -18.069  13.743  1.00  0.00     0.165 HD
HETATM    5  C3  UNL     1     -12.655 -18.196  11.832  1.00  0.00     0.158 A 
HETATM    6  C4  UNL     1     -13.690 -17.340  11.539  1.00  0.00     0.127 A 
HETATM    7  C5  UNL     1     -14.035 -17.555  10.195  1.00  0.00     0.071 A 
HETATM    8  C6  UNL     1     -14.971 -17.019   9.348  1.00  0.00     0.125 A 
HETATM    9  S2  UNL     1     -14.696 -17.865   7.893  1.00  0.00    -0.062 SA
HETATM   10  C11 UNL     1     -13.408 -18.868   8.397  1.00  0.00     0.069 A 
HETATM   11  C13 UNL     1     -13.230 -18.505   9.706  1.00  0.00     0.089 A 
HETATM   12  N6  UNL     1     -12.388 -18.894  10.715  1.00  0.00    -0.235 N 
HETATM   13  N7  UNL     1     -11.322 -19.757  11.069  1.00  0.00    -0.070 NA
ENDROOT
BRANCH   8  14
HETATM   14  O2  UNL     1     -15.939 -16.021   9.571  1.00  0.00    -0.342 OA
BRANCH  14  15
HETATM   15  C7  UNL     1     -16.184 -15.062   8.551  1.00  0.00     0.187 C 
BRANCH  15  16
HETATM   16  C8  UNL     1     -17.062 -13.954   9.052  1.00  0.00     0.109 C 
BRANCH  16  17
HETATM   17  S1  UNL     1     -16.145 -12.498   9.547  1.00  0.00    -0.088 SA
BRANCH  17  18
HETATM   18  C9  UNL     1     -15.069 -12.741  10.922  1.00  0.00     0.191 A 
HETATM   19  N3  UNL     1     -14.598 -13.897  11.437  1.00  0.00    -0.232 N 
HETATM   20  O3  UNL     1     -13.830 -13.641  12.450  1.00  0.00    -0.177 OA
ATOM     21  H3  UNL     1     -14.813 -14.830  11.082  1.00  0.00     0.197 HD
HETATM   22  C10 UNL     1     -13.769 -12.340  12.635  1.00  0.00     0.410 A 
HETATM   23  O4  UNL     1     -13.116 -11.746  13.530  1.00  0.00    -0.234 OA
HETATM   24  N4  UNL     1     -14.543 -11.765  11.684  1.00  0.00    -0.179 N 
BRANCH  24  25
HETATM   25  N5  UNL     1     -14.694 -10.378  11.599  1.00  0.00    -0.332 N 
ATOM     26  H52 UNL     1     -14.534  -9.872  10.727  1.00  0.00     0.177 HD
ATOM     27  H51 UNL     1     -14.964  -9.702  12.313  1.00  0.00     0.177 HD
ENDBRANCH  24  25
ENDBRANCH  17  18
ENDBRANCH  16  17
ENDBRANCH  15  16
ENDBRANCH  14  15
ENDBRANCH   8  14
BRANCH   6  28
HETATM   28  O1  UNL     1     -14.270 -16.434  12.442  1.00  0.00    -0.356 OA
ATOM     29  H1  UNL     1     -14.164 -15.490  12.413  1.00  0.00     0.218 HD
ENDBRANCH   6  28
BRANCH  10  30
HETATM   30  C12 UNL     1     -12.686 -19.875   7.549  1.00  0.00     0.297 C 
BRANCH  30  31
HETATM   31  O5  UNL     1     -12.898 -19.671   6.188  1.00  0.00    -0.367 OA
ATOM     32  H5  UNL     1     -12.555 -20.381   5.659  1.00  0.00     0.213 HD
ENDBRANCH  30  31
BRANCH  30  33
HETATM   33  O6  UNL     1     -11.329 -19.854   7.850  1.00  0.00    -0.367 OA
ATOM     34  H6  UNL     1     -10.882 -19.251   7.268  1.00  0.00     0.213 HD
ENDBRANCH  30  33
ENDBRANCH  10  30
BRANCH   2  35
HETATM   35  N1  UNL     1     -12.216 -20.957  12.863  1.00  0.00    -0.036 N 
ATOM     36  H13 UNL     1     -11.888 -21.503  13.661  1.00  0.00     0.279 HD
ATOM     37  H12 UNL     1     -13.071 -20.576  13.269  1.00  0.00     0.279 HD
ATOM     38  H11 UNL     1     -12.423 -21.557  12.065  1.00  0.00     0.279 HD
ENDBRANCH   2  35
TORSDOF 11
ENDMDL
