MODEL 1
REMARK VINA RESULT: -3.784437317      0.000      0.000
REMARK  2 active torsions:
REMARK  status: ('A' for Active; 'I' for Inactive)
REMARK    1  A    between atoms: C2_2  and  S1_3 
REMARK    2  A    between atoms: S1_3  and  C3_4 
ROOT
HETATM    1  C3  UNL     1      13.327   3.629 -12.127  1.00  0.00     0.155 C 
HETATM    2  C4  UNL     1      14.385   2.551 -12.286  1.00  0.00     0.086 C 
HETATM    3  C5  UNL     1      14.504   2.161 -10.821  1.00  0.00     0.151 C 
HETATM    4  C6  UNL     1      13.511   1.115 -10.418  1.00  0.00     0.044 C 
HETATM    5  C7  UNL     1      12.078   1.511 -10.565  1.00  0.00     0.079 C 
HETATM    6  S2  UNL     1      11.770   2.777 -11.802  1.00  0.00    -0.129 SA
HETATM    7  O1  UNL     1      14.284   3.320 -10.105  1.00  0.00    -0.279 OA
HETATM    8  N1  UNL     1      13.844   4.273 -10.920  1.00  0.00    -0.068 NA
ENDROOT
BRANCH   1   9
HETATM    9  S1  UNL     1      13.248   4.755 -13.525  1.00  0.00    -0.129 SA
BRANCH   9  10
HETATM   10  C2  UNL     1      12.271   6.186 -12.946  1.00  0.00     0.072 C 
HETATM   11  C1  UNL     1      12.820   7.482 -13.470  1.00  0.00     0.016 C 
ENDBRANCH   9  10
ENDBRANCH   1   9
TORSDOF 2
ENDMDL
MODEL 2
REMARK VINA RESULT: -3.779664989      2.131      2.407
REMARK  2 active torsions:
REMARK  status: ('A' for Active; 'I' for Inactive)
REMARK    1  A    between atoms: C2_2  and  S1_3 
REMARK    2  A    between atoms: S1_3  and  C3_4 
ROOT
HETATM    1  C3  UNL     1      13.627   2.832 -12.285  1.00  0.00     0.155 C 
HETATM    2  C4  UNL     1      14.310   2.107 -11.139  1.00  0.00     0.086 C 
HETATM    3  C5  UNL     1      13.942   3.080 -10.030  1.00  0.00     0.151 C 
HETATM    4  C6  UNL     1      12.611   2.782  -9.415  1.00  0.00     0.044 C 
HETATM    5  C7  UNL     1      11.449   2.855 -10.352  1.00  0.00     0.079 C 
HETATM    6  S2  UNL     1      11.855   2.568 -12.078  1.00  0.00    -0.129 SA
HETATM    7  O1  UNL     1      13.921   4.329 -10.619  1.00  0.00    -0.279 OA
HETATM    8  N1  UNL     1      14.006   4.202 -11.940  1.00  0.00    -0.068 NA
ENDROOT
BRANCH   1   9
HETATM    9  S1  UNL     1      14.241   2.339 -13.900  1.00  0.00    -0.129 SA
BRANCH   9  10
HETATM   10  C2  UNL     1      15.796   3.267 -14.137  1.00  0.00     0.072 C 
HETATM   11  C1  UNL     1      15.653   4.331 -15.188  1.00  0.00     0.016 C 
ENDBRANCH   9  10
ENDBRANCH   1   9
TORSDOF 2
ENDMDL
MODEL 3
REMARK VINA RESULT: -3.751171799      1.451      1.537
REMARK  2 active torsions:
REMARK  status: ('A' for Active; 'I' for Inactive)
REMARK    1  A    between atoms: C2_2  and  S1_3 
REMARK    2  A    between atoms: S1_3  and  C3_4 
ROOT
HETATM    1  C3  UNL     1      13.251   3.652 -11.963  1.00  0.00     0.155 C 
HETATM    2  C4  UNL     1      14.263   2.559 -12.256  1.00  0.00     0.086 C 
HETATM    3  C5  UNL     1      14.494   2.101 -10.825  1.00  0.00     0.151 C 
HETATM    4  C6  UNL     1      13.511   1.062 -10.383  1.00  0.00     0.044 C 
HETATM    5  C7  UNL     1      12.082   1.497 -10.391  1.00  0.00     0.079 C 
HETATM    6  S2  UNL     1      11.705   2.823 -11.542  1.00  0.00    -0.129 SA
HETATM    7  O1  UNL     1      14.366   3.233 -10.044  1.00  0.00    -0.279 OA
HETATM    8  N1  UNL     1      13.884   4.231 -10.778  1.00  0.00    -0.068 NA
ENDROOT
BRANCH   1   9
HETATM    9  S1  UNL     1      13.085   4.841 -13.300  1.00  0.00    -0.129 SA
BRANCH   9  10
HETATM   10  C2  UNL     1      13.830   4.039 -14.762  1.00  0.00     0.072 C 
HETATM   11  C1  UNL     1      15.041   4.784 -15.247  1.00  0.00     0.016 C 
ENDBRANCH   9  10
ENDBRANCH   1   9
TORSDOF 2
ENDMDL
MODEL 4
REMARK VINA RESULT: -3.731980185      2.242      3.336
REMARK  2 active torsions:
REMARK  status: ('A' for Active; 'I' for Inactive)
REMARK    1  A    between atoms: C2_2  and  S1_3 
REMARK    2  A    between atoms: S1_3  and  C3_4 
ROOT
HETATM    1  C3  UNL     1      13.875   2.812 -12.754  1.00  0.00     0.155 C 
HETATM    2  C4  UNL     1      13.301   1.577 -12.081  1.00  0.00     0.086 C 
HETATM    3  C5  UNL     1      13.915   1.787 -10.706  1.00  0.00     0.151 C 
HETATM    4  C6  UNL     1      13.073   2.651  -9.821  1.00  0.00     0.044 C 
HETATM    5  C7  UNL     1      12.842   4.039 -10.323  1.00  0.00     0.079 C 
HETATM    6  S2  UNL     1      12.958   4.223 -12.106  1.00  0.00    -0.129 SA
HETATM    7  O1  UNL     1      15.137   2.390 -10.929  1.00  0.00    -0.279 OA
HETATM    8  N1  UNL     1      15.228   2.758 -12.204  1.00  0.00    -0.068 NA
ENDROOT
BRANCH   1   9
HETATM    9  S1  UNL     1      13.860   2.711 -14.548  1.00  0.00    -0.129 SA
BRANCH   9  10
HETATM   10  C2  UNL     1      13.634   0.941 -14.937  1.00  0.00     0.072 C 
HETATM   11  C1  UNL     1      14.356   0.552 -16.196  1.00  0.00     0.016 C 
ENDBRANCH   9  10
ENDBRANCH   1   9
TORSDOF 2
ENDMDL
MODEL 5
REMARK VINA RESULT: -3.668660494      2.987      3.423
REMARK  2 active torsions:
REMARK  status: ('A' for Active; 'I' for Inactive)
REMARK    1  A    between atoms: C2_2  and  S1_3 
REMARK    2  A    between atoms: S1_3  and  C3_4 
ROOT
HETATM    1  C3  UNL     1      13.018   1.585 -11.076  1.00  0.00     0.155 C 
HETATM    2  C4  UNL     1      12.456   0.640 -12.123  1.00  0.00     0.086 C 
HETATM    3  C5  UNL     1      11.731  -0.307 -11.180  1.00  0.00     0.151 C 
HETATM    4  C6  UNL     1      10.342   0.148 -10.857  1.00  0.00     0.044 C 
HETATM    5  C7  UNL     1      10.253   1.472 -10.169  1.00  0.00     0.079 C 
HETATM    6  S2  UNL     1      11.634   2.577 -10.481  1.00  0.00    -0.129 SA
HETATM    7  O1  UNL     1      12.494  -0.347 -10.030  1.00  0.00    -0.279 OA
HETATM    8  N1  UNL     1      13.430   0.595 -10.081  1.00  0.00    -0.068 NA
ENDROOT
BRANCH   1   9
HETATM    9  S1  UNL     1      14.398   2.567 -11.676  1.00  0.00    -0.129 SA
BRANCH   9  10
HETATM   10  C2  UNL     1      14.358   2.407 -13.495  1.00  0.00     0.072 C 
HETATM   11  C1  UNL     1      15.484   3.160 -14.144  1.00  0.00     0.016 C 
ENDBRANCH   9  10
ENDBRANCH   1   9
TORSDOF 2
ENDMDL
