MODEL 1
REMARK VINA RESULT: -6.075791900      0.000      0.000
REMARK  8 active torsions:
REMARK  status: ('A' for Active; 'I' for Inactive)
REMARK    1  A    between atoms: N1_1  and  N2_4 
REMARK    2  A    between atoms: N2_4  and  C1_6 
REMARK    3  A    between atoms: C2_9  and  C3_10 
REMARK       I    between atoms: C3_10  and  N4_12 
REMARK    4  A    between atoms: N4_12  and  C4_14 
REMARK    5  A    between atoms: C4_14  and  O2_15 
REMARK    6  A    between atoms: O2_15  and  N5_16 
REMARK    7  A    between atoms: C7_23  and  O3_24 
REMARK    8  A    between atoms: O3_24  and  S1_25 
ROOT
HETATM    1  C1  UNL     1      28.159  33.396  40.677  1.00  0.00     0.706 A 
HETATM    2  N3  UNL     1      27.203  34.083  40.030  1.00  0.00    -0.169 N 
ATOM      3  H3  UNL     1      26.885  34.971  40.418  1.00  0.00     0.186 HD
HETATM    4  C2  UNL     1      26.653  33.637  38.887  1.00  0.00     0.191 A 
HETATM    5  N6  UNL     1      27.109  32.463  38.420  1.00  0.00    -0.323 N 
ATOM      6  H6  UNL     1      26.711  32.097  37.555  1.00  0.00     0.169 HD
HETATM    7  C5  UNL     1      28.076  31.738  39.048  1.00  0.00     0.132 A 
HETATM    8  C6  UNL     1      28.475  30.527  38.471  1.00  0.00     0.088 A 
HETATM    9  C7  UNL     1      29.453  29.794  39.107  1.00  0.00     0.097 A 
HETATM   10  C8  UNL     1      29.966  30.314  40.271  1.00  0.00     0.056 A 
HETATM   11  C9  UNL     1      29.558  31.505  40.815  1.00  0.00     0.119 A 
HETATM   12  N7  UNL     1      28.610  32.205  40.190  1.00  0.00    -0.141 N 
ENDROOT
BRANCH   4  13
HETATM   13  C3  UNL     1      25.608  34.394  38.184  1.00  0.00     0.287 C 
HETATM   14  O1  UNL     1      24.507  34.536  38.775  1.00  0.00    -0.264 OA
HETATM   15  N4  UNL     1      25.855  34.933  36.897  1.00  0.00    -0.331 N 
ATOM     16  H4  UNL     1      26.772  34.782  36.477  1.00  0.00     0.165 HD
BRANCH  15  17
HETATM   17  C4  UNL     1      24.880  35.683  36.150  1.00  0.00     0.326 C 
BRANCH  17  18
HETATM   18  O2  UNL     1      24.346  34.942  35.080  1.00  0.00    -0.268 OA
BRANCH  18  19
HETATM   19  N5  UNL     1      25.032  35.316  33.973  1.00  0.00    -0.309 N 
ATOM     20  H52 UNL     1      24.673  35.316  33.017  1.00  0.00     0.184 HD
ATOM     21  H51 UNL     1      25.962  35.592  34.287  1.00  0.00     0.184 HD
ENDBRANCH  18  19
ENDBRANCH  17  18
ENDBRANCH  15  17
ENDBRANCH   4  13
BRANCH   1  22
HETATM   22  N2  UNL     1      28.693  33.808  41.771  1.00  0.00    -0.138 N 
ATOM     23  H2  UNL     1      29.658  34.135  41.726  1.00  0.00     0.205 HD
BRANCH  22  24
HETATM   24  N1  UNL     1      28.071  33.845  42.997  1.00  0.00    -0.331 N 
ATOM     25  H12 UNL     1      27.072  34.048  42.990  1.00  0.00     0.177 HD
ATOM     26  H11 UNL     1      28.527  33.686  43.895  1.00  0.00     0.177 HD
ENDBRANCH  22  24
ENDBRANCH   1  22
BRANCH   9  27
HETATM   27  O3  UNL     1      29.903  28.572  38.590  1.00  0.00    -0.214 OA
BRANCH  27  28
HETATM   28  S1  UNL     1      28.775  27.455  37.953  1.00  0.00     0.256 S 
HETATM   29  O4  UNL     1      29.317  26.044  38.128  1.00  0.00    -0.572 OA
HETATM   30  O5  UNL     1      27.484  27.501  38.718  1.00  0.00    -0.572 OA
HETATM   31  O6  UNL     1      28.514  27.709  36.327  1.00  0.00    -0.572 OA
ENDBRANCH  27  28
ENDBRANCH   9  27
TORSDOF 8
ENDMDL
MODEL 2
REMARK VINA RESULT: -6.053392938      3.525      5.288
REMARK  8 active torsions:
REMARK  status: ('A' for Active; 'I' for Inactive)
REMARK    1  A    between atoms: N1_1  and  N2_4 
REMARK    2  A    between atoms: N2_4  and  C1_6 
REMARK    3  A    between atoms: C2_9  and  C3_10 
REMARK       I    between atoms: C3_10  and  N4_12 
REMARK    4  A    between atoms: N4_12  and  C4_14 
REMARK    5  A    between atoms: C4_14  and  O2_15 
REMARK    6  A    between atoms: O2_15  and  N5_16 
REMARK    7  A    between atoms: C7_23  and  O3_24 
REMARK    8  A    between atoms: O3_24  and  S1_25 
ROOT
HETATM    1  C1  UNL     1      29.192  31.389  37.649  1.00  0.00     0.706 A 
HETATM    2  N3  UNL     1      29.192  31.900  38.891  1.00  0.00    -0.169 N 
ATOM      3  H3  UNL     1      29.378  32.895  39.016  1.00  0.00     0.186 HD
HETATM    4  C2  UNL     1      28.955  31.140  39.975  1.00  0.00     0.191 A 
HETATM    5  N6  UNL     1      28.716  29.837  39.754  1.00  0.00    -0.323 N 
ATOM      6  H6  UNL     1      28.533  29.234  40.556  1.00  0.00     0.169 HD
HETATM    7  C5  UNL     1      28.708  29.283  38.510  1.00  0.00     0.132 A 
HETATM    8  C6  UNL     1      28.448  27.913  38.396  1.00  0.00     0.088 A 
HETATM    9  C7  UNL     1      28.439  27.353  37.137  1.00  0.00     0.097 A 
HETATM   10  C8  UNL     1      28.691  28.194  36.078  1.00  0.00     0.056 A 
HETATM   11  C9  UNL     1      28.943  29.534  36.217  1.00  0.00     0.119 A 
HETATM   12  N7  UNL     1      28.948  30.064  37.441  1.00  0.00    -0.141 N 
ENDROOT
BRANCH   4  13
HETATM   13  C3  UNL     1      28.956  31.705  41.331  1.00  0.00     0.287 C 
HETATM   14  O1  UNL     1      28.190  31.173  42.175  1.00  0.00    -0.264 OA
HETATM   15  N4  UNL     1      29.796  32.801  41.653  1.00  0.00    -0.331 N 
ATOM     16  H4  UNL     1      30.394  33.182  40.919  1.00  0.00     0.165 HD
BRANCH  15  17
HETATM   17  C4  UNL     1      29.849  33.404  42.957  1.00  0.00     0.326 C 
BRANCH  17  18
HETATM   18  O2  UNL     1      29.053  34.561  43.040  1.00  0.00    -0.268 OA
BRANCH  18  19
HETATM   19  N5  UNL     1      27.811  34.150  43.394  1.00  0.00    -0.309 N 
ATOM     20  H52 UNL     1      27.589  33.482  44.132  1.00  0.00     0.184 HD
ATOM     21  H51 UNL     1      27.159  34.638  42.781  1.00  0.00     0.184 HD
ENDBRANCH  18  19
ENDBRANCH  17  18
ENDBRANCH  15  17
ENDBRANCH   4  13
BRANCH   1  22
HETATM   22  N2  UNL     1      29.418  32.102  36.603  1.00  0.00    -0.138 N 
ATOM     23  H2  UNL     1      30.255  31.888  36.063  1.00  0.00     0.205 HD
BRANCH  22  24
HETATM   24  N1  UNL     1      28.622  33.130  36.154  1.00  0.00    -0.331 N 
ATOM     25  H12 UNL     1      28.173  32.990  35.249  1.00  0.00     0.177 HD
ATOM     26  H11 UNL     1      28.452  34.005  36.649  1.00  0.00     0.177 HD
ENDBRANCH  22  24
ENDBRANCH   1  22
BRANCH   9  27
HETATM   27  O3  UNL     1      28.187  25.989  36.945  1.00  0.00    -0.214 OA
BRANCH  27  28
HETATM   28  S1  UNL     1      29.487  24.877  36.953  1.00  0.00     0.256 S 
HETATM   29  O4  UNL     1      30.170  24.898  35.594  1.00  0.00    -0.572 OA
HETATM   30  O5  UNL     1      30.534  25.285  37.949  1.00  0.00    -0.572 OA
HETATM   31  O6  UNL     1      28.961  23.324  37.243  1.00  0.00    -0.572 OA
ENDBRANCH  27  28
ENDBRANCH   9  27
TORSDOF 8
ENDMDL
MODEL 3
REMARK VINA RESULT: -6.045855631      3.498      5.277
REMARK  8 active torsions:
REMARK  status: ('A' for Active; 'I' for Inactive)
REMARK    1  A    between atoms: N1_1  and  N2_4 
REMARK    2  A    between atoms: N2_4  and  C1_6 
REMARK    3  A    between atoms: C2_9  and  C3_10 
REMARK       I    between atoms: C3_10  and  N4_12 
REMARK    4  A    between atoms: N4_12  and  C4_14 
REMARK    5  A    between atoms: C4_14  and  O2_15 
REMARK    6  A    between atoms: O2_15  and  N5_16 
REMARK    7  A    between atoms: C7_23  and  O3_24 
REMARK    8  A    between atoms: O3_24  and  S1_25 
ROOT
HETATM    1  C1  UNL     1      29.085  31.375  37.657  1.00  0.00     0.706 A 
HETATM    2  N3  UNL     1      29.084  31.886  38.899  1.00  0.00    -0.169 N 
ATOM      3  H3  UNL     1      29.226  32.888  39.021  1.00  0.00     0.186 HD
HETATM    4  C2  UNL     1      28.901  31.116  39.987  1.00  0.00     0.191 A 
HETATM    5  N6  UNL     1      28.719  29.803  39.769  1.00  0.00    -0.323 N 
ATOM      6  H6  UNL     1      28.578  29.193  40.574  1.00  0.00     0.169 HD
HETATM    7  C5  UNL     1      28.714  29.249  38.525  1.00  0.00     0.132 A 
HETATM    8  C6  UNL     1      28.515  27.869  38.415  1.00  0.00     0.088 A 
HETATM    9  C7  UNL     1      28.510  27.309  37.157  1.00  0.00     0.097 A 
HETATM   10  C8  UNL     1      28.704  28.160  36.094  1.00  0.00     0.056 A 
HETATM   11  C9  UNL     1      28.896  29.510  36.228  1.00  0.00     0.119 A 
HETATM   12  N7  UNL     1      28.899  30.040  37.453  1.00  0.00    -0.141 N 
ENDROOT
BRANCH   4  13
HETATM   13  C3  UNL     1      28.901  31.681  41.343  1.00  0.00     0.287 C 
HETATM   14  O1  UNL     1      28.120  31.161  42.181  1.00  0.00    -0.264 OA
HETATM   15  N4  UNL     1      29.755  32.763  41.671  1.00  0.00    -0.331 N 
ATOM     16  H4  UNL     1      30.365  33.135  40.942  1.00  0.00     0.165 HD
BRANCH  15  17
HETATM   17  C4  UNL     1      29.808  33.366  42.976  1.00  0.00     0.326 C 
BRANCH  17  18
HETATM   18  O2  UNL     1      29.044  34.545  43.048  1.00  0.00    -0.268 OA
BRANCH  18  19
HETATM   19  N5  UNL     1      27.794  34.173  43.414  1.00  0.00    -0.309 N 
ATOM     20  H52 UNL     1      27.414  34.200  44.361  1.00  0.00     0.184 HD
ATOM     21  H51 UNL     1      27.322  33.866  42.564  1.00  0.00     0.184 HD
ENDBRANCH  18  19
ENDBRANCH  17  18
ENDBRANCH  15  17
ENDBRANCH   4  13
BRANCH   1  22
HETATM   22  N2  UNL     1      29.259  32.097  36.608  1.00  0.00    -0.138 N 
ATOM     23  H2  UNL     1      30.007  31.825  35.971  1.00  0.00     0.205 HD
BRANCH  22  24
HETATM   24  N1  UNL     1      28.518  33.207  36.273  1.00  0.00    -0.331 N 
ATOM     25  H12 UNL     1      27.541  33.041  36.032  1.00  0.00     0.177 HD
ATOM     26  H11 UNL     1      28.867  34.164  36.249  1.00  0.00     0.177 HD
ENDBRANCH  22  24
ENDBRANCH   1  22
BRANCH   9  27
HETATM   27  O3  UNL     1      28.317  25.934  36.969  1.00  0.00    -0.214 OA
BRANCH  27  28
HETATM   28  S1  UNL     1      29.663  24.878  36.994  1.00  0.00     0.256 S 
HETATM   29  O4  UNL     1      29.360  23.705  37.914  1.00  0.00    -0.572 OA
HETATM   30  O5  UNL     1      29.905  24.287  35.635  1.00  0.00    -0.572 OA
HETATM   31  O6  UNL     1      31.029  25.642  37.564  1.00  0.00    -0.572 OA
ENDBRANCH  27  28
ENDBRANCH   9  27
TORSDOF 8
ENDMDL
MODEL 4
REMARK VINA RESULT: -5.924456414      4.396      7.635
REMARK  8 active torsions:
REMARK  status: ('A' for Active; 'I' for Inactive)
REMARK    1  A    between atoms: N1_1  and  N2_4 
REMARK    2  A    between atoms: N2_4  and  C1_6 
REMARK    3  A    between atoms: C2_9  and  C3_10 
REMARK       I    between atoms: C3_10  and  N4_12 
REMARK    4  A    between atoms: N4_12  and  C4_14 
REMARK    5  A    between atoms: C4_14  and  O2_15 
REMARK    6  A    between atoms: O2_15  and  N5_16 
REMARK    7  A    between atoms: C7_23  and  O3_24 
REMARK    8  A    between atoms: O3_24  and  S1_25 
ROOT
HETATM    1  C1  UNL     1      31.676  29.046  39.425  1.00  0.00     0.706 A 
HETATM    2  N3  UNL     1      31.621  27.877  38.765  1.00  0.00    -0.169 N 
ATOM      3  H3  UNL     1      32.474  27.328  38.662  1.00  0.00     0.186 HD
HETATM    4  C2  UNL     1      30.477  27.410  38.237  1.00  0.00     0.191 A 
HETATM    5  N6  UNL     1      29.384  28.173  38.401  1.00  0.00    -0.323 N 
ATOM      6  H6  UNL     1      28.500  27.846  38.011  1.00  0.00     0.169 HD
HETATM    7  C5  UNL     1      29.400  29.362  39.063  1.00  0.00     0.132 A 
HETATM    8  C6  UNL     1      28.201  30.075  39.175  1.00  0.00     0.088 A 
HETATM    9  C7  UNL     1      28.218  31.279  39.845  1.00  0.00     0.097 A 
HETATM   10  C8  UNL     1      29.426  31.691  40.358  1.00  0.00     0.056 A 
HETATM   11  C9  UNL     1      30.587  30.973  40.235  1.00  0.00     0.119 A 
HETATM   12  N7  UNL     1      30.557  29.809  39.583  1.00  0.00    -0.141 N 
ENDROOT
BRANCH   4  13
HETATM   13  C3  UNL     1      30.423  26.130  37.516  1.00  0.00     0.287 C 
HETATM   14  O1  UNL     1      30.524  26.173  36.263  1.00  0.00    -0.264 OA
HETATM   15  N4  UNL     1      30.266  24.912  38.224  1.00  0.00    -0.331 N 
ATOM     16  H4  UNL     1      30.193  24.951  39.241  1.00  0.00     0.165 HD
BRANCH  15  17
HETATM   17  C4  UNL     1      30.205  23.625  37.585  1.00  0.00     0.326 C 
BRANCH  17  18
HETATM   18  O2  UNL     1      28.882  23.224  37.325  1.00  0.00    -0.268 OA
BRANCH  18  19
HETATM   19  N5  UNL     1      28.543  23.766  36.130  1.00  0.00    -0.309 N 
ATOM     20  H52 UNL     1      29.183  23.983  35.367  1.00  0.00     0.184 HD
ATOM     21  H51 UNL     1      27.533  23.910  36.154  1.00  0.00     0.184 HD
ENDBRANCH  18  19
ENDBRANCH  17  18
ENDBRANCH  15  17
ENDBRANCH   4  13
BRANCH   1  22
HETATM   22  N2  UNL     1      32.762  29.507  39.936  1.00  0.00    -0.138 N 
ATOM     23  H2  UNL     1      32.959  30.498  39.800  1.00  0.00     0.205 HD
BRANCH  22  24
HETATM   24  N1  UNL     1      33.680  28.772  40.651  1.00  0.00    -0.331 N 
ATOM     25  H12 UNL     1      34.630  29.141  40.677  1.00  0.00     0.177 HD
ATOM     26  H11 UNL     1      33.484  27.903  41.146  1.00  0.00     0.177 HD
ENDBRANCH  22  24
ENDBRANCH   1  22
BRANCH   9  27
HETATM   27  O3  UNL     1      27.058  32.048  39.997  1.00  0.00    -0.214 OA
BRANCH  27  28
HETATM   28  S1  UNL     1      26.893  33.513  39.129  1.00  0.00     0.256 S 
HETATM   29  O4  UNL     1      25.422  33.898  39.074  1.00  0.00    -0.572 OA
HETATM   30  O5  UNL     1      27.589  34.638  39.839  1.00  0.00    -0.572 OA
HETATM   31  O6  UNL     1      27.446  33.363  37.565  1.00  0.00    -0.572 OA
ENDBRANCH  27  28
ENDBRANCH   9  27
TORSDOF 8
ENDMDL
MODEL 5
REMARK VINA RESULT: -5.891872571      2.655      4.882
REMARK  8 active torsions:
REMARK  status: ('A' for Active; 'I' for Inactive)
REMARK    1  A    between atoms: N1_1  and  N2_4 
REMARK    2  A    between atoms: N2_4  and  C1_6 
REMARK    3  A    between atoms: C2_9  and  C3_10 
REMARK       I    between atoms: C3_10  and  N4_12 
REMARK    4  A    between atoms: N4_12  and  C4_14 
REMARK    5  A    between atoms: C4_14  and  O2_15 
REMARK    6  A    between atoms: O2_15  and  N5_16 
REMARK    7  A    between atoms: C7_23  and  O3_24 
REMARK    8  A    between atoms: O3_24  and  S1_25 
ROOT
HETATM    1  C1  UNL     1      28.889  32.016  36.769  1.00  0.00     0.706 A 
HETATM    2  N3  UNL     1      28.731  32.952  37.720  1.00  0.00    -0.169 N 
ATOM      3  H3  UNL     1      28.799  33.935  37.461  1.00  0.00     0.186 HD
HETATM    4  C2  UNL     1      28.486  32.630  39.002  1.00  0.00     0.191 A 
HETATM    5  N6  UNL     1      28.407  31.320  39.289  1.00  0.00    -0.323 N 
ATOM      6  H6  UNL     1      28.223  31.044  40.253  1.00  0.00     0.169 HD
HETATM    7  C5  UNL     1      28.562  30.344  38.352  1.00  0.00     0.132 A 
HETATM    8  C6  UNL     1      28.459  29.010  38.762  1.00  0.00     0.088 A 
HETATM    9  C7  UNL     1      28.616  28.023  37.814  1.00  0.00     0.097 A 
HETATM   10  C8  UNL     1      28.864  28.429  36.524  1.00  0.00     0.056 A 
HETATM   11  C9  UNL     1      28.959  29.744  36.148  1.00  0.00     0.119 A 
HETATM   12  N7  UNL     1      28.806  30.691  37.076  1.00  0.00    -0.141 N 
ENDROOT
BRANCH   4  13
HETATM   13  C3  UNL     1      28.314  33.658  40.039  1.00  0.00     0.287 C 
HETATM   14  O1  UNL     1      27.472  34.565  39.813  1.00  0.00    -0.264 OA
HETATM   15  N4  UNL     1      29.074  33.607  41.234  1.00  0.00    -0.331 N 
ATOM     16  H4  UNL     1      29.738  32.841  41.352  1.00  0.00     0.165 HD
BRANCH  15  17
HETATM   17  C4  UNL     1      28.959  34.577  42.290  1.00  0.00     0.326 C 
BRANCH  17  18
HETATM   18  O2  UNL     1      28.284  34.063  43.412  1.00  0.00    -0.268 OA
BRANCH  18  19
HETATM   19  N5  UNL     1      28.500  32.725  43.411  1.00  0.00    -0.309 N 
ATOM     20  H52 UNL     1      29.402  32.264  43.296  1.00  0.00     0.184 HD
ATOM     21  H51 UNL     1      27.590  32.285  43.547  1.00  0.00     0.184 HD
ENDBRANCH  18  19
ENDBRANCH  17  18
ENDBRANCH  15  17
ENDBRANCH   4  13
BRANCH   1  22
HETATM   22  N2  UNL     1      29.124  32.307  35.539  1.00  0.00    -0.138 N 
ATOM     23  H2  UNL     1      29.794  31.723  35.040  1.00  0.00     0.205 HD
BRANCH  22  24
HETATM   24  N1  UNL     1      28.546  33.342  34.841  1.00  0.00    -0.331 N 
ATOM     25  H12 UNL     1      29.105  34.190  34.746  1.00  0.00     0.177 HD
ATOM     26  H11 UNL     1      27.618  33.324  34.420  1.00  0.00     0.177 HD
ENDBRANCH  22  24
ENDBRANCH   1  22
BRANCH   9  27
HETATM   27  O3  UNL     1      28.527  26.666  38.149  1.00  0.00    -0.214 OA
BRANCH  27  28
HETATM   28  S1  UNL     1      29.347  25.503  37.201  1.00  0.00     0.256 S 
HETATM   29  O4  UNL     1      29.378  24.179  37.950  1.00  0.00    -0.572 OA
HETATM   30  O5  UNL     1      28.607  25.236  35.921  1.00  0.00    -0.572 OA
HETATM   31  O6  UNL     1      30.919  25.961  36.896  1.00  0.00    -0.572 OA
ENDBRANCH  27  28
ENDBRANCH   9  27
TORSDOF 8
ENDMDL
