MODEL 1
REMARK VINA RESULT: -5.174818022      0.000      0.000
REMARK  9 active torsions:
REMARK  status: ('A' for Active; 'I' for Inactive)
REMARK       I    between atoms: C2_2  and  N1_4 
REMARK    1  A    between atoms: N1_4  and  C3_6 
REMARK    2  A    between atoms: C4_7  and  N2_8 
REMARK    3  A    between atoms: C6_13  and  N3_14 
REMARK    4  A    between atoms: C7_18  and  N4_19 
REMARK    5  A    between atoms: C8_23  and  N5_24 
REMARK    6  A    between atoms: C9_29  and  C10_30 
REMARK    7  A    between atoms: C10_30  and  N8_31 
REMARK    8  A    between atoms: C10_30  and  C11_35 
REMARK    9  A    between atoms: C11_35  and  O2_37 
ROOT
HETATM    1  C3  UNL     1      30.026  35.043  42.913  1.00  0.00     0.143 C 
HETATM    2  C4  UNL     1      28.645  34.882  42.382  1.00  0.00     0.210 C 
HETATM    3  C5  UNL     1      28.516  33.951  41.223  1.00  0.00     0.069 C 
HETATM    4  C6  UNL     1      29.207  32.639  41.402  1.00  0.00     0.218 C 
HETATM    5  C7  UNL     1      30.640  32.869  41.805  1.00  0.00     0.242 C 
HETATM    6  C8  UNL     1      30.746  33.729  43.041  1.00  0.00     0.185 C 
ENDROOT
BRANCH   6   7
HETATM    7  N5  UNL     1      32.131  33.915  43.336  1.00  0.00    -0.209 N 
HETATM    8  N6  UNL     1      33.177  33.366  42.731  1.00  0.00    -0.224 N 
HETATM    9  N7  UNL     1      34.301  33.768  43.272  1.00  0.00    -0.270 N 
ATOM     10  H6  UNL     1      33.115  32.717  41.947  1.00  0.00     0.210 HD
HETATM   11  C9  UNL     1      33.992  34.608  44.268  1.00  0.00     0.146 A 
ATOM     12  H7  UNL     1      35.240  33.491  42.987  1.00  0.00     0.190 HD
HETATM   13  N9  UNL     1      32.650  34.679  44.282  1.00  0.00    -0.268 N 
ATOM     14  H9  UNL     1      32.106  35.245  44.934  1.00  0.00     0.190 HD
BRANCH  11  15
HETATM   15  C10 UNL     1      34.928  35.324  45.177  1.00  0.00     0.281 C 
BRANCH  15  16
HETATM   16  N8  UNL     1      35.864  36.135  44.446  1.00  0.00    -0.066 N 
ATOM     17  H83 UNL     1      36.587  35.564  44.007  1.00  0.00     0.275 HD
ATOM     18  H82 UNL     1      35.439  36.528  43.606  1.00  0.00     0.275 HD
ATOM     19  H81 UNL     1      36.271  36.863  45.033  1.00  0.00     0.275 HD
ENDBRANCH  15  16
BRANCH  15  20
HETATM   20  C11 UNL     1      34.206  36.095  46.246  1.00  0.00     0.152 C 
HETATM   21  C12 UNL     1      35.120  36.629  47.316  1.00  0.00     0.042 C 
BRANCH  20  22
HETATM   22  O2  UNL     1      33.391  37.045  45.682  1.00  0.00    -0.393 OA
ATOM     23  H2  UNL     1      32.589  37.131  46.183  1.00  0.00     0.210 HD
ENDBRANCH  20  22
ENDBRANCH  15  20
ENDBRANCH  11  15
ENDBRANCH   6   7
BRANCH   1  24
HETATM   24  N1  UNL     1      30.805  36.051  42.222  1.00  0.00    -0.353 N 
HETATM   25  C2  UNL     1      31.261  37.247  42.815  1.00  0.00     0.214 C 
HETATM   26  C1  UNL     1      32.051  38.236  42.058  1.00  0.00     0.117 C 
HETATM   27  O1  UNL     1      30.996  37.487  44.015  1.00  0.00    -0.274 OA
ATOM     28  H1  UNL     1      31.038  35.886  41.243  1.00  0.00     0.163 HD
ENDBRANCH   1  24
BRANCH   5  29
HETATM   29  N4  UNL     1      31.456  33.324  40.721  1.00  0.00    -0.071 N 
ATOM     30  H43 UNL     1      30.909  33.415  39.866  1.00  0.00     0.274 HD
ATOM     31  H42 UNL     1      31.724  34.300  40.850  1.00  0.00     0.274 HD
ATOM     32  H41 UNL     1      32.276  32.738  40.569  1.00  0.00     0.274 HD
ENDBRANCH   5  29
BRANCH   2  33
HETATM   33  N2  UNL     1      27.799  34.335  43.458  1.00  0.00    -0.073 N 
ATOM     34  H23 UNL     1      28.160  34.547  44.389  1.00  0.00     0.274 HD
ATOM     35  H22 UNL     1      26.906  34.821  43.543  1.00  0.00     0.274 HD
ATOM     36  H21 UNL     1      27.688  33.333  43.298  1.00  0.00     0.274 HD
ENDBRANCH   2  33
BRANCH   4  37
HETATM   37  N3  UNL     1      28.556  31.758  42.325  1.00  0.00    -0.073 N 
ATOM     38  H33 UNL     1      28.886  31.929  43.275  1.00  0.00     0.274 HD
ATOM     39  H32 UNL     1      27.575  32.015  42.434  1.00  0.00     0.274 HD
ATOM     40  H31 UNL     1      28.643  30.770  42.087  1.00  0.00     0.274 HD
ENDBRANCH   4  37
TORSDOF 9
ENDMDL
MODEL 2
REMARK VINA RESULT: -4.835086632      4.540      7.893
REMARK  9 active torsions:
REMARK  status: ('A' for Active; 'I' for Inactive)
REMARK       I    between atoms: C2_2  and  N1_4 
REMARK    1  A    between atoms: N1_4  and  C3_6 
REMARK    2  A    between atoms: C4_7  and  N2_8 
REMARK    3  A    between atoms: C6_13  and  N3_14 
REMARK    4  A    between atoms: C7_18  and  N4_19 
REMARK    5  A    between atoms: C8_23  and  N5_24 
REMARK    6  A    between atoms: C9_29  and  C10_30 
REMARK    7  A    between atoms: C10_30  and  N8_31 
REMARK    8  A    between atoms: C10_30  and  C11_35 
REMARK    9  A    between atoms: C11_35  and  O2_37 
ROOT
HETATM    1  C3  UNL     1      29.222  33.550  40.397  1.00  0.00     0.143 C 
HETATM    2  C4  UNL     1      29.594  34.768  41.169  1.00  0.00     0.210 C 
HETATM    3  C5  UNL     1      29.558  34.612  42.653  1.00  0.00     0.069 C 
HETATM    4  C6  UNL     1      30.245  33.389  43.166  1.00  0.00     0.218 C 
HETATM    5  C7  UNL     1      29.726  32.174  42.442  1.00  0.00     0.242 C 
HETATM    6  C8  UNL     1      29.866  32.307  40.945  1.00  0.00     0.185 C 
ENDROOT
BRANCH   6   7
HETATM    7  N5  UNL     1      29.331  31.128  40.342  1.00  0.00    -0.209 N 
HETATM    8  N6  UNL     1      28.076  30.698  40.358  1.00  0.00    -0.224 N 
HETATM    9  N7  UNL     1      27.953  29.573  39.696  1.00  0.00    -0.270 N 
ATOM     10  H6  UNL     1      27.307  31.179  40.824  1.00  0.00     0.210 HD
HETATM   11  C9  UNL     1      29.163  29.246  39.227  1.00  0.00     0.146 A 
ATOM     12  H7  UNL     1      27.091  29.044  39.562  1.00  0.00     0.190 HD
HETATM   13  N9  UNL     1      29.991  30.222  39.640  1.00  0.00    -0.268 N 
ATOM     14  H9  UNL     1      30.990  30.257  39.440  1.00  0.00     0.190 HD
BRANCH  11  15
HETATM   15  C10 UNL     1      29.532  28.055  38.415  1.00  0.00     0.281 C 
BRANCH  15  16
HETATM   16  N8  UNL     1      29.871  26.930  39.244  1.00  0.00    -0.066 N 
ATOM     17  H83 UNL     1      30.635  27.154  39.882  1.00  0.00     0.275 HD
ATOM     18  H82 UNL     1      29.141  26.740  39.931  1.00  0.00     0.275 HD
ATOM     19  H81 UNL     1      30.083  26.101  38.688  1.00  0.00     0.275 HD
ENDBRANCH  15  16
BRANCH  15  20
HETATM   20  C11 UNL     1      28.490  27.721  37.386  1.00  0.00     0.152 C 
HETATM   21  C12 UNL     1      28.819  28.243  36.013  1.00  0.00     0.042 C 
BRANCH  20  22
HETATM   22  O2  UNL     1      28.199  26.380  37.418  1.00  0.00    -0.393 OA
ATOM     23  H2  UNL     1      27.987  26.067  36.547  1.00  0.00     0.210 HD
ENDBRANCH  20  22
ENDBRANCH  15  20
ENDBRANCH  11  15
ENDBRANCH   6   7
BRANCH   1  24
HETATM   24  N1  UNL     1      27.795  33.404  40.188  1.00  0.00    -0.353 N 
HETATM   25  C2  UNL     1      27.127  33.757  38.997  1.00  0.00     0.214 C 
HETATM   26  C1  UNL     1      25.671  33.585  38.843  1.00  0.00     0.117 C 
HETATM   27  O1  UNL     1      27.777  34.230  38.035  1.00  0.00    -0.274 OA
ATOM     28  H1  UNL     1      27.237  33.022  40.951  1.00  0.00     0.163 HD
ENDBRANCH   1  24
BRANCH   5  29
HETATM   29  N4  UNL     1      28.411  31.797  42.862  1.00  0.00    -0.071 N 
ATOM     30  H43 UNL     1      28.238  30.810  42.676  1.00  0.00     0.274 HD
ATOM     31  H42 UNL     1      28.340  31.789  43.879  1.00  0.00     0.274 HD
ATOM     32  H41 UNL     1      27.682  32.380  42.450  1.00  0.00     0.274 HD
ENDBRANCH   5  29
BRANCH   2  33
HETATM   33  N2  UNL     1      30.979  35.130  40.817  1.00  0.00    -0.073 N 
ATOM     34  H23 UNL     1      31.417  35.734  41.513  1.00  0.00     0.274 HD
ATOM     35  H22 UNL     1      31.622  34.342  40.893  1.00  0.00     0.274 HD
ATOM     36  H21 UNL     1      30.972  35.545  39.885  1.00  0.00     0.274 HD
ENDBRANCH   2  33
BRANCH   4  37
HETATM   37  N3  UNL     1      31.674  33.450  43.094  1.00  0.00    -0.073 N 
ATOM     38  H33 UNL     1      32.091  32.671  43.605  1.00  0.00     0.274 HD
ATOM     39  H32 UNL     1      31.995  33.230  42.151  1.00  0.00     0.274 HD
ATOM     40  H31 UNL     1      32.068  34.336  43.408  1.00  0.00     0.274 HD
ENDBRANCH   4  37
TORSDOF 9
ENDMDL
MODEL 3
REMARK VINA RESULT: -4.618367910      5.967      8.542
REMARK  9 active torsions:
REMARK  status: ('A' for Active; 'I' for Inactive)
REMARK       I    between atoms: C2_2  and  N1_4 
REMARK    1  A    between atoms: N1_4  and  C3_6 
REMARK    2  A    between atoms: C4_7  and  N2_8 
REMARK    3  A    between atoms: C6_13  and  N3_14 
REMARK    4  A    between atoms: C7_18  and  N4_19 
REMARK    5  A    between atoms: C8_23  and  N5_24 
REMARK    6  A    between atoms: C9_29  and  C10_30 
REMARK    7  A    between atoms: C10_30  and  N8_31 
REMARK    8  A    between atoms: C10_30  and  C11_35 
REMARK    9  A    between atoms: C11_35  and  O2_37 
ROOT
HETATM    1  C3  UNL     1      28.689  28.059  37.186  1.00  0.00     0.143 C 
HETATM    2  C4  UNL     1      29.311  26.952  36.409  1.00  0.00     0.210 C 
HETATM    3  C5  UNL     1      30.709  26.611  36.801  1.00  0.00     0.069 C 
HETATM    4  C6  UNL     1      30.921  26.454  38.271  1.00  0.00     0.218 C 
HETATM    5  C7  UNL     1      30.396  27.668  38.993  1.00  0.00     0.242 C 
HETATM    6  C8  UNL     1      28.948  27.937  38.662  1.00  0.00     0.185 C 
ENDROOT
BRANCH   6   7
HETATM    7  N5  UNL     1      28.541  29.111  39.366  1.00  0.00    -0.209 N 
HETATM    8  N6  UNL     1      27.315  29.461  39.735  1.00  0.00    -0.224 N 
HETATM    9  N7  UNL     1      27.320  30.609  40.367  1.00  0.00    -0.270 N 
ATOM     10  H6  UNL     1      26.478  28.908  39.551  1.00  0.00     0.210 HD
HETATM   11  C9  UNL     1      28.589  31.035  40.418  1.00  0.00     0.146 A 
ATOM     12  H7  UNL     1      26.507  31.090  40.750  1.00  0.00     0.190 HD
HETATM   13  N9  UNL     1      29.316  30.093  39.795  1.00  0.00    -0.268 N 
ATOM     14  H9  UNL     1      30.328  30.130  39.670  1.00  0.00     0.190 HD
BRANCH  11  15
HETATM   15  C10 UNL     1      29.102  32.289  41.034  1.00  0.00     0.281 C 
BRANCH  15  16
HETATM   16  N8  UNL     1      28.205  33.393  40.822  1.00  0.00    -0.066 N 
ATOM     17  H83 UNL     1      27.859  33.412  39.862  1.00  0.00     0.275 HD
ATOM     18  H82 UNL     1      27.319  33.251  41.308  1.00  0.00     0.275 HD
ATOM     19  H81 UNL     1      28.633  34.282  41.080  1.00  0.00     0.275 HD
ENDBRANCH  15  16
BRANCH  15  20
HETATM   20  C11 UNL     1      29.462  32.107  42.481  1.00  0.00     0.152 C 
HETATM   21  C12 UNL     1      30.173  33.294  43.074  1.00  0.00     0.042 C 
BRANCH  20  22
HETATM   22  O2  UNL     1      28.365  31.698  43.199  1.00  0.00    -0.393 OA
ATOM     23  H2  UNL     1      28.157  30.793  42.997  1.00  0.00     0.210 HD
ENDBRANCH  20  22
ENDBRANCH  15  20
ENDBRANCH  11  15
ENDBRANCH   6   7
BRANCH   1  24
HETATM   24  N1  UNL     1      28.987  29.378  36.665  1.00  0.00    -0.353 N 
HETATM   25  C2  UNL     1      29.030  29.698  35.292  1.00  0.00     0.214 C 
HETATM   26  C1  UNL     1      29.340  31.061  34.822  1.00  0.00     0.117 C 
HETATM   27  O1  UNL     1      28.801  28.811  34.438  1.00  0.00    -0.274 OA
ATOM     28  H1  UNL     1      29.178  30.124  37.334  1.00  0.00     0.163 HD
ENDBRANCH   1  24
BRANCH   5  29
HETATM   29  N4  UNL     1      31.238  28.814  38.838  1.00  0.00    -0.071 N 
ATOM     30  H43 UNL     1      32.214  28.538  38.733  1.00  0.00     0.274 HD
ATOM     31  H42 UNL     1      31.092  29.256  37.930  1.00  0.00     0.274 HD
ATOM     32  H41 UNL     1      31.130  29.490  39.594  1.00  0.00     0.274 HD
ENDBRANCH   5  29
BRANCH   2  33
HETATM   33  N2  UNL     1      28.506  25.734  36.618  1.00  0.00    -0.073 N 
ATOM     34  H23 UNL     1      29.058  24.880  36.538  1.00  0.00     0.274 HD
ATOM     35  H22 UNL     1      28.213  25.619  37.588  1.00  0.00     0.274 HD
ATOM     36  H21 UNL     1      27.719  25.757  35.969  1.00  0.00     0.274 HD
ENDBRANCH   2  33
BRANCH   4  37
HETATM   37  N3  UNL     1      30.357  25.257  38.818  1.00  0.00    -0.073 N 
ATOM     38  H33 UNL     1      29.812  25.468  39.654  1.00  0.00     0.274 HD
ATOM     39  H32 UNL     1      29.617  24.902  38.213  1.00  0.00     0.274 HD
ATOM     40  H31 UNL     1      31.042  24.526  39.011  1.00  0.00     0.274 HD
ENDBRANCH   4  37
TORSDOF 9
ENDMDL
MODEL 4
REMARK VINA RESULT: -4.565146036      2.393      6.193
REMARK  9 active torsions:
REMARK  status: ('A' for Active; 'I' for Inactive)
REMARK       I    between atoms: C2_2  and  N1_4 
REMARK    1  A    between atoms: N1_4  and  C3_6 
REMARK    2  A    between atoms: C4_7  and  N2_8 
REMARK    3  A    between atoms: C6_13  and  N3_14 
REMARK    4  A    between atoms: C7_18  and  N4_19 
REMARK    5  A    between atoms: C8_23  and  N5_24 
REMARK    6  A    between atoms: C9_29  and  C10_30 
REMARK    7  A    between atoms: C10_30  and  N8_31 
REMARK    8  A    between atoms: C10_30  and  C11_35 
REMARK    9  A    between atoms: C11_35  and  O2_37 
ROOT
HETATM    1  C3  UNL     1      32.676  37.505  42.586  1.00  0.00     0.143 C 
HETATM    2  C4  UNL     1      33.725  38.443  42.098  1.00  0.00     0.210 C 
HETATM    3  C5  UNL     1      34.209  38.184  40.710  1.00  0.00     0.069 C 
HETATM    4  C6  UNL     1      33.126  37.977  39.703  1.00  0.00     0.218 C 
HETATM    5  C7  UNL     1      32.172  36.917  40.192  1.00  0.00     0.242 C 
HETATM    6  C8  UNL     1      31.614  37.249  41.554  1.00  0.00     0.185 C 
ENDROOT
BRANCH   6   7
HETATM    7  N5  UNL     1      30.743  36.187  41.948  1.00  0.00    -0.209 N 
HETATM    8  N6  UNL     1      30.003  36.100  43.046  1.00  0.00    -0.224 N 
HETATM    9  N7  UNL     1      29.327  34.978  43.073  1.00  0.00    -0.270 N 
ATOM     10  H6  UNL     1      29.965  36.813  43.774  1.00  0.00     0.210 HD
HETATM   11  C9  UNL     1      29.628  34.298  41.960  1.00  0.00     0.146 A 
ATOM     12  H7  UNL     1      28.687  34.676  43.809  1.00  0.00     0.190 HD
HETATM   13  N9  UNL     1      30.501  35.067  41.287  1.00  0.00    -0.268 N 
ATOM     14  H9  UNL     1      30.920  34.821  40.390  1.00  0.00     0.190 HD
BRANCH  11  15
HETATM   15  C10 UNL     1      29.111  32.967  41.539  1.00  0.00     0.281 C 
BRANCH  15  16
HETATM   16  N8  UNL     1      28.461  32.281  42.623  1.00  0.00    -0.066 N 
ATOM     17  H83 UNL     1      29.095  31.628  43.083  1.00  0.00     0.275 HD
ATOM     18  H82 UNL     1      28.283  32.909  43.407  1.00  0.00     0.275 HD
ATOM     19  H81 UNL     1      27.606  31.817  42.317  1.00  0.00     0.275 HD
ENDBRANCH  15  16
BRANCH  15  20
HETATM   20  C11 UNL     1      28.250  33.053  40.310  1.00  0.00     0.152 C 
HETATM   21  C12 UNL     1      27.547  31.763  39.983  1.00  0.00     0.042 C 
BRANCH  20  22
HETATM   22  O2  UNL     1      27.416  34.141  40.386  1.00  0.00    -0.393 OA
ATOM     23  H2  UNL     1      27.488  34.667  39.598  1.00  0.00     0.210 HD
ENDBRANCH  20  22
ENDBRANCH  15  20
ENDBRANCH  11  15
ENDBRANCH   6   7
BRANCH   1  24
HETATM   24  N1  UNL     1      33.206  36.288  43.169  1.00  0.00    -0.353 N 
HETATM   25  C2  UNL     1      33.372  36.078  44.553  1.00  0.00     0.214 C 
HETATM   26  C1  UNL     1      33.917  34.816  45.087  1.00  0.00     0.117 C 
HETATM   27  O1  UNL     1      33.051  36.979  45.363  1.00  0.00    -0.274 OA
ATOM     28  H1  UNL     1      33.477  35.535  42.537  1.00  0.00     0.163 HD
ENDBRANCH   1  24
BRANCH   5  29
HETATM   29  N4  UNL     1      32.717  35.597  40.104  1.00  0.00    -0.071 N 
ATOM     30  H43 UNL     1      32.113  34.990  39.551  1.00  0.00     0.274 HD
ATOM     31  H42 UNL     1      33.549  35.583  39.514  1.00  0.00     0.274 HD
ATOM     32  H41 UNL     1      32.909  35.187  41.017  1.00  0.00     0.274 HD
ENDBRANCH   5  29
BRANCH   2  33
HETATM   33  N2  UNL     1      33.161  39.804  42.100  1.00  0.00    -0.073 N 
ATOM     34  H23 UNL     1      33.589  40.409  41.398  1.00  0.00     0.274 HD
ATOM     35  H22 UNL     1      32.206  39.835  41.742  1.00  0.00     0.274 HD
ATOM     36  H21 UNL     1      33.240  40.181  43.044  1.00  0.00     0.274 HD
ENDBRANCH   2  33
BRANCH   4  37
HETATM   37  N3  UNL     1      32.418  39.172  39.353  1.00  0.00    -0.073 N 
ATOM     38  H33 UNL     1      32.310  39.775  40.169  1.00  0.00     0.274 HD
ATOM     39  H32 UNL     1      32.999  39.774  38.769  1.00  0.00     0.274 HD
ATOM     40  H31 UNL     1      31.516  39.005  38.909  1.00  0.00     0.274 HD
ENDBRANCH   4  37
TORSDOF 9
ENDMDL
MODEL 5
REMARK VINA RESULT: -4.559383325      4.403      7.808
REMARK  9 active torsions:
REMARK  status: ('A' for Active; 'I' for Inactive)
REMARK       I    between atoms: C2_2  and  N1_4 
REMARK    1  A    between atoms: N1_4  and  C3_6 
REMARK    2  A    between atoms: C4_7  and  N2_8 
REMARK    3  A    between atoms: C6_13  and  N3_14 
REMARK    4  A    between atoms: C7_18  and  N4_19 
REMARK    5  A    between atoms: C8_23  and  N5_24 
REMARK    6  A    between atoms: C9_29  and  C10_30 
REMARK    7  A    between atoms: C10_30  and  N8_31 
REMARK    8  A    between atoms: C10_30  and  C11_35 
REMARK    9  A    between atoms: C11_35  and  O2_37 
ROOT
HETATM    1  C3  UNL     1      28.816  32.125  41.221  1.00  0.00     0.143 C 
HETATM    2  C4  UNL     1      29.395  31.987  42.586  1.00  0.00     0.210 C 
HETATM    3  C5  UNL     1      30.753  32.580  42.760  1.00  0.00     0.069 C 
HETATM    4  C6  UNL     1      30.899  33.967  42.224  1.00  0.00     0.218 C 
HETATM    5  C7  UNL     1      30.425  34.012  40.795  1.00  0.00     0.242 C 
HETATM    6  C8  UNL     1      29.010  33.504  40.655  1.00  0.00     0.185 C 
ENDROOT
BRANCH   6   7
HETATM    7  N5  UNL     1      28.653  33.560  39.273  1.00  0.00    -0.209 N 
HETATM    8  N6  UNL     1      27.442  33.466  38.736  1.00  0.00    -0.224 N 
HETATM    9  N7  UNL     1      27.495  33.562  37.430  1.00  0.00    -0.270 N 
ATOM     10  H6  UNL     1      26.583  33.337  39.270  1.00  0.00     0.210 HD
HETATM   11  C9  UNL     1      28.780  33.724  37.089  1.00  0.00     0.146 A 
ATOM     12  H7  UNL     1      26.702  33.522  36.790  1.00  0.00     0.190 HD
HETATM   13  N9  UNL     1      29.468  33.719  38.244  1.00  0.00    -0.268 N 
ATOM     14  H9  UNL     1      30.480  33.824  38.316  1.00  0.00     0.190 HD
BRANCH  11  15
HETATM   15  C10 UNL     1      29.345  33.879  35.721  1.00  0.00     0.281 C 
BRANCH  15  16
HETATM   16  N8  UNL     1      28.856  32.866  34.825  1.00  0.00    -0.066 N 
ATOM     17  H83 UNL     1      28.135  32.296  35.267  1.00  0.00     0.275 HD
ATOM     18  H82 UNL     1      28.300  33.272  34.072  1.00  0.00     0.275 HD
ATOM     19  H81 UNL     1      29.614  32.289  34.459  1.00  0.00     0.275 HD
ENDBRANCH  15  16
BRANCH  15  20
HETATM   20  C11 UNL     1      29.156  35.269  35.181  1.00  0.00     0.152 C 
HETATM   21  C12 UNL     1      28.240  35.326  33.988  1.00  0.00     0.042 C 
BRANCH  20  22
HETATM   22  O2  UNL     1      28.811  36.132  36.192  1.00  0.00    -0.393 OA
ATOM     23  H2  UNL     1      28.514  36.959  35.832  1.00  0.00     0.210 HD
ENDBRANCH  20  22
ENDBRANCH  15  20
ENDBRANCH  11  15
ENDBRANCH   6   7
BRANCH   1  24
HETATM   24  N1  UNL     1      29.217  31.074  40.307  1.00  0.00    -0.353 N 
HETATM   25  C2  UNL     1      28.353  30.069  39.825  1.00  0.00     0.214 C 
HETATM   26  C1  UNL     1      28.820  29.025  38.895  1.00  0.00     0.117 C 
HETATM   27  O1  UNL     1      27.154  30.051  40.189  1.00  0.00    -0.274 OA
ATOM     28  H1  UNL     1      30.186  31.061  39.992  1.00  0.00     0.163 HD
ENDBRANCH   1  24
BRANCH   5  29
HETATM   29  N4  UNL     1      31.344  33.400  39.885  1.00  0.00    -0.071 N 
ATOM     30  H43 UNL     1      32.308  33.564  40.175  1.00  0.00     0.274 HD
ATOM     31  H42 UNL     1      31.317  32.384  39.967  1.00  0.00     0.274 HD
ATOM     32  H41 UNL     1      31.198  33.692  38.919  1.00  0.00     0.274 HD
ENDBRANCH   5  29
BRANCH   2  33
HETATM   33  N2  UNL     1      28.507  32.683  43.535  1.00  0.00    -0.073 N 
ATOM     34  H23 UNL     1      27.523  32.455  43.393  1.00  0.00     0.274 HD
ATOM     35  H22 UNL     1      28.595  32.328  44.487  1.00  0.00     0.274 HD
ATOM     36  H21 UNL     1      28.692  33.684  43.469  1.00  0.00     0.274 HD
ENDBRANCH   2  33
BRANCH   4  37
HETATM   37  N3  UNL     1      30.239  34.967  43.009  1.00  0.00    -0.073 N 
ATOM     38  H33 UNL     1      29.656  34.534  43.725  1.00  0.00     0.274 HD
ATOM     39  H32 UNL     1      30.909  35.456  43.603  1.00  0.00     0.274 HD
ATOM     40  H31 UNL     1      29.696  35.633  42.460  1.00  0.00     0.274 HD
ENDBRANCH   4  37
TORSDOF 9
ENDMDL
