MODEL 1
REMARK VINA RESULT: -5.741319619      0.000      0.000
REMARK  9 active torsions:
REMARK  status: ('A' for Active; 'I' for Inactive)
REMARK    1  A    between atoms: N1_1  and  C1_4 
REMARK    2  A    between atoms: C4_9  and  N3_10 
REMARK    3  A    between atoms: N3_10  and  N4_12 
REMARK    4  A    between atoms: C5_14  and  C6_15 
REMARK    5  A    between atoms: C6_15  and  O1_16 
REMARK    6  A    between atoms: C6_15  and  C7_18 
REMARK    7  A    between atoms: C7_18  and  O2_19 
REMARK    8  A    between atoms: C7_18  and  C8_21 
REMARK    9  A    between atoms: C8_21  and  O3_22 
ROOT
HETATM    1  C1  UNL     1      29.008  31.592  35.269  1.00  0.00     0.679 A 
HETATM    2  N2  UNL     1      29.130  30.272  35.431  1.00  0.00    -0.169 N 
ATOM      3  H2  UNL     1      29.231  29.685  34.604  1.00  0.00     0.186 HD
HETATM    4  C2  UNL     1      29.125  29.675  36.660  1.00  0.00     0.190 A 
HETATM    5  C3  UNL     1      28.992  30.430  37.787  1.00  0.00     0.065 A 
HETATM    6  C4  UNL     1      28.865  31.813  37.601  1.00  0.00     0.148 A 
HETATM    7  N5  UNL     1      28.876  32.352  36.371  1.00  0.00    -0.175 N 
ATOM      8  H5  UNL     1      28.780  33.362  36.270  1.00  0.00     0.186 HD
HETATM    9  C9  UNL     1      28.966  29.962  39.173  1.00  0.00     0.239 C 
HETATM   10  O4  UNL     1      29.542  28.749  39.420  1.00  0.00    -0.249 OA
HETATM   11  S1  UNL     1      28.932  27.625  38.299  1.00  0.00     0.408 S 
HETATM   12  O5  UNL     1      29.601  26.306  38.431  1.00  0.00    -0.168 OA
HETATM   13  O6  UNL     1      27.446  27.555  38.527  1.00  0.00    -0.168 OA
HETATM   14  O7  UNL     1      29.255  28.298  36.768  1.00  0.00    -0.191 OA
ENDROOT
BRANCH   6  15
HETATM   15  N3  UNL     1      28.734  32.597  38.639  1.00  0.00    -0.285 N 
ATOM     16  H3  UNL     1      27.828  32.679  39.100  1.00  0.00     0.188 HD
BRANCH  15  17
HETATM   17  N4  UNL     1      29.812  33.312  39.112  1.00  0.00    -0.312 N 
HETATM   18  C5  UNL     1      29.842  33.728  40.318  1.00  0.00     0.114 C 
ATOM     19  H4  UNL     1      30.596  33.511  38.491  1.00  0.00     0.185 HD
BRANCH  18  20
HETATM   20  C6  UNL     1      28.709  33.438  41.216  1.00  0.00     0.188 C 
BRANCH  20  21
HETATM   21  O1  UNL     1      27.661  34.299  40.831  1.00  0.00    -0.388 OA
ATOM     22  H1  UNL     1      27.338  34.704  41.627  1.00  0.00     0.210 HD
ENDBRANCH  20  21
BRANCH  20  23
HETATM   23  C7  UNL     1      29.064  33.624  42.669  1.00  0.00     0.175 C 
BRANCH  23  24
HETATM   24  O2  UNL     1      28.505  32.610  43.417  1.00  0.00    -0.391 OA
ATOM     25  H2  UNL     1      28.333  32.920  44.298  1.00  0.00     0.210 HD
ENDBRANCH  23  24
BRANCH  23  26
HETATM   26  C8  UNL     1      28.539  34.971  43.099  1.00  0.00     0.198 C 
BRANCH  26  27
HETATM   27  O3  UNL     1      27.246  34.857  43.590  1.00  0.00    -0.398 OA
ATOM     28  H3  UNL     1      27.122  35.425  44.341  1.00  0.00     0.209 HD
ENDBRANCH  26  27
ENDBRANCH  23  26
ENDBRANCH  20  23
ENDBRANCH  18  20
ENDBRANCH  15  17
ENDBRANCH   6  15
BRANCH   1  29
HETATM   29  N1  UNL     1      29.013  32.145  34.100  1.00  0.00    -0.234 N 
ATOM     30  H12 UNL     1      28.136  32.286  33.598  1.00  0.00     0.174 HD
ATOM     31  H11 UNL     1      29.875  32.451  33.649  1.00  0.00     0.174 HD
ENDBRANCH   1  29
TORSDOF 9
ENDMDL
MODEL 2
REMARK VINA RESULT: -5.644178190      3.222      4.380
REMARK  9 active torsions:
REMARK  status: ('A' for Active; 'I' for Inactive)
REMARK    1  A    between atoms: N1_1  and  C1_4 
REMARK    2  A    between atoms: C4_9  and  N3_10 
REMARK    3  A    between atoms: N3_10  and  N4_12 
REMARK    4  A    between atoms: C5_14  and  C6_15 
REMARK    5  A    between atoms: C6_15  and  O1_16 
REMARK    6  A    between atoms: C6_15  and  C7_18 
REMARK    7  A    between atoms: C7_18  and  O2_19 
REMARK    8  A    between atoms: C7_18  and  C8_21 
REMARK    9  A    between atoms: C8_21  and  O3_22 
ROOT
HETATM    1  C1  UNL     1      29.098  29.597  38.978  1.00  0.00     0.679 A 
HETATM    2  N2  UNL     1      29.116  30.316  37.852  1.00  0.00    -0.169 N 
ATOM      3  H2  UNL     1      29.447  29.873  36.995  1.00  0.00     0.186 HD
HETATM    4  C2  UNL     1      28.709  31.618  37.800  1.00  0.00     0.190 A 
HETATM    5  C3  UNL     1      28.260  32.240  38.927  1.00  0.00     0.065 A 
HETATM    6  C4  UNL     1      28.248  31.475  40.100  1.00  0.00     0.148 A 
HETATM    7  N5  UNL     1      28.659  30.196  40.099  1.00  0.00    -0.175 N 
ATOM      8  H5  UNL     1      28.638  29.667  40.970  1.00  0.00     0.186 HD
HETATM    9  C9  UNL     1      27.790  33.620  39.054  1.00  0.00     0.239 C 
HETATM   10  O4  UNL     1      27.348  34.223  37.912  1.00  0.00    -0.249 OA
HETATM   11  S1  UNL     1      28.518  34.001  36.697  1.00  0.00     0.408 S 
HETATM   12  O5  UNL     1      28.054  34.530  35.390  1.00  0.00    -0.168 OA
HETATM   13  O6  UNL     1      29.776  34.666  37.188  1.00  0.00    -0.168 OA
HETATM   14  O7  UNL     1      28.749  32.316  36.602  1.00  0.00    -0.191 OA
ENDROOT
BRANCH   6  15
HETATM   15  N3  UNL     1      27.830  32.008  41.218  1.00  0.00    -0.285 N 
ATOM     16  H3  UNL     1      27.185  32.798  41.193  1.00  0.00     0.188 HD
BRANCH  15  17
HETATM   17  N4  UNL     1      28.255  31.509  42.429  1.00  0.00    -0.312 N 
HETATM   18  C5  UNL     1      29.124  32.134  43.125  1.00  0.00     0.114 C 
ATOM     19  H4  UNL     1      27.871  30.630  42.774  1.00  0.00     0.185 HD
BRANCH  18  20
HETATM   20  C6  UNL     1      29.677  33.407  42.627  1.00  0.00     0.188 C 
BRANCH  20  21
HETATM   21  O1  UNL     1      31.063  33.367  42.877  1.00  0.00    -0.388 OA
ATOM     22  H1  UNL     1      31.222  33.948  43.611  1.00  0.00     0.210 HD
ENDBRANCH  20  21
BRANCH  20  23
HETATM   23  C7  UNL     1      29.037  34.606  43.277  1.00  0.00     0.175 C 
BRANCH  23  24
HETATM   24  O2  UNL     1      27.665  34.477  43.243  1.00  0.00    -0.391 OA
ATOM     25  H2  UNL     1      27.397  33.756  43.799  1.00  0.00     0.210 HD
ENDBRANCH  23  24
BRANCH  23  26
HETATM   26  C8  UNL     1      29.488  35.831  42.522  1.00  0.00     0.198 C 
BRANCH  26  27
HETATM   27  O3  UNL     1      29.895  35.491  41.239  1.00  0.00    -0.398 OA
ATOM     28  H3  UNL     1      29.156  35.190  40.723  1.00  0.00     0.209 HD
ENDBRANCH  26  27
ENDBRANCH  23  26
ENDBRANCH  20  23
ENDBRANCH  18  20
ENDBRANCH  15  17
ENDBRANCH   6  15
BRANCH   1  29
HETATM   29  N1  UNL     1      29.487  28.364  39.014  1.00  0.00    -0.234 N 
ATOM     30  H12 UNL     1      28.833  27.616  38.784  1.00  0.00     0.174 HD
ATOM     31  H11 UNL     1      30.440  28.104  39.268  1.00  0.00     0.174 HD
ENDBRANCH   1  29
TORSDOF 9
ENDMDL
MODEL 3
REMARK VINA RESULT: -5.371886519      1.057      1.395
REMARK  9 active torsions:
REMARK  status: ('A' for Active; 'I' for Inactive)
REMARK    1  A    between atoms: N1_1  and  C1_4 
REMARK    2  A    between atoms: C4_9  and  N3_10 
REMARK    3  A    between atoms: N3_10  and  N4_12 
REMARK    4  A    between atoms: C5_14  and  C6_15 
REMARK    5  A    between atoms: C6_15  and  O1_16 
REMARK    6  A    between atoms: C6_15  and  C7_18 
REMARK    7  A    between atoms: C7_18  and  O2_19 
REMARK    8  A    between atoms: C7_18  and  C8_21 
REMARK    9  A    between atoms: C8_21  and  O3_22 
ROOT
HETATM    1  C1  UNL     1      29.121  32.035  36.202  1.00  0.00     0.679 A 
HETATM    2  N2  UNL     1      28.957  30.727  35.990  1.00  0.00    -0.169 N 
ATOM      3  H2  UNL     1      28.728  30.408  35.049  1.00  0.00     0.186 HD
HETATM    4  C2  UNL     1      29.082  29.797  36.982  1.00  0.00     0.190 A 
HETATM    5  C3  UNL     1      29.388  30.187  38.252  1.00  0.00     0.065 A 
HETATM    6  C4  UNL     1      29.558  31.562  38.459  1.00  0.00     0.148 A 
HETATM    7  N5  UNL     1      29.422  32.437  37.449  1.00  0.00    -0.175 N 
ATOM      8  H5  UNL     1      29.551  33.432  37.633  1.00  0.00     0.186 HD
HETATM    9  C9  UNL     1      29.560  29.333  39.428  1.00  0.00     0.239 C 
HETATM   10  O4  UNL     1      29.869  28.025  39.194  1.00  0.00    -0.249 OA
HETATM   11  S1  UNL     1      28.775  27.409  38.047  1.00  0.00     0.408 S 
HETATM   12  O5  UNL     1      29.122  26.020  37.654  1.00  0.00    -0.168 OA
HETATM   13  O6  UNL     1      27.404  27.522  38.659  1.00  0.00    -0.168 OA
HETATM   14  O7  UNL     1      28.901  28.449  36.704  1.00  0.00    -0.191 OA
ENDROOT
BRANCH   6  15
HETATM   15  N3  UNL     1      29.851  32.007  39.652  1.00  0.00    -0.285 N 
ATOM     16  H3  UNL     1      29.650  31.433  40.471  1.00  0.00     0.188 HD
BRANCH  15  17
HETATM   17  N4  UNL     1      30.431  33.246  39.810  1.00  0.00    -0.312 N 
HETATM   18  C5  UNL     1      29.985  34.071  40.674  1.00  0.00     0.114 C 
ATOM     19  H4  UNL     1      31.227  33.507  39.229  1.00  0.00     0.185 HD
BRANCH  18  20
HETATM   20  C6  UNL     1      28.836  33.693  41.517  1.00  0.00     0.188 C 
BRANCH  20  21
HETATM   21  O1  UNL     1      27.900  34.742  41.413  1.00  0.00    -0.388 OA
ATOM     22  H1  UNL     1      27.696  35.011  42.301  1.00  0.00     0.210 HD
ENDBRANCH  20  21
BRANCH  20  23
HETATM   23  C7  UNL     1      29.229  33.450  42.951  1.00  0.00     0.175 C 
BRANCH  23  24
HETATM   24  O2  UNL     1      30.562  33.754  43.126  1.00  0.00    -0.391 OA
ATOM     25  H2  UNL     1      30.718  34.001  44.029  1.00  0.00     0.210 HD
ENDBRANCH  23  24
BRANCH  23  26
HETATM   26  C8  UNL     1      28.957  31.998  43.260  1.00  0.00     0.198 C 
BRANCH  26  27
HETATM   27  O3  UNL     1      28.095  31.452  42.319  1.00  0.00    -0.398 OA
ATOM     28  H3  UNL     1      28.462  30.656  41.953  1.00  0.00     0.209 HD
ENDBRANCH  26  27
ENDBRANCH  23  26
ENDBRANCH  20  23
ENDBRANCH  18  20
ENDBRANCH  15  17
ENDBRANCH   6  15
BRANCH   1  29
HETATM   29  N1  UNL     1      28.998  32.906  35.254  1.00  0.00    -0.234 N 
ATOM     30  H12 UNL     1      28.995  32.603  34.279  1.00  0.00     0.174 HD
ATOM     31  H11 UNL     1      28.902  33.903  35.443  1.00  0.00     0.174 HD
ENDBRANCH   1  29
TORSDOF 9
ENDMDL
MODEL 4
REMARK VINA RESULT: -5.359102894      2.747      3.338
REMARK  9 active torsions:
REMARK  status: ('A' for Active; 'I' for Inactive)
REMARK    1  A    between atoms: N1_1  and  C1_4 
REMARK    2  A    between atoms: C4_9  and  N3_10 
REMARK    3  A    between atoms: N3_10  and  N4_12 
REMARK    4  A    between atoms: C5_14  and  C6_15 
REMARK    5  A    between atoms: C6_15  and  O1_16 
REMARK    6  A    between atoms: C6_15  and  C7_18 
REMARK    7  A    between atoms: C7_18  and  O2_19 
REMARK    8  A    between atoms: C7_18  and  C8_21 
REMARK    9  A    between atoms: C8_21  and  O3_22 
ROOT
HETATM    1  C1  UNL     1      32.087  30.291  40.034  1.00  0.00     0.679 A 
HETATM    2  N2  UNL     1      31.827  29.210  39.293  1.00  0.00    -0.169 N 
ATOM      3  H2  UNL     1      32.609  28.650  38.954  1.00  0.00     0.186 HD
HETATM    4  C2  UNL     1      30.558  28.823  38.970  1.00  0.00     0.190 A 
HETATM    5  C3  UNL     1      29.490  29.548  39.408  1.00  0.00     0.065 A 
HETATM    6  C4  UNL     1      29.777  30.678  40.184  1.00  0.00     0.148 A 
HETATM    7  N5  UNL     1      31.044  31.017  40.473  1.00  0.00    -0.175 N 
ATOM      8  H5  UNL     1      31.219  31.847  41.040  1.00  0.00     0.186 HD
HETATM    9  C9  UNL     1      28.072  29.282  39.158  1.00  0.00     0.239 C 
HETATM   10  O4  UNL     1      27.738  27.997  38.839  1.00  0.00    -0.249 OA
HETATM   11  S1  UNL     1      28.770  27.466  37.595  1.00  0.00     0.408 S 
HETATM   12  O5  UNL     1      28.543  26.034  37.274  1.00  0.00    -0.168 OA
HETATM   13  O6  UNL     1      28.532  28.377  36.421  1.00  0.00    -0.168 OA
HETATM   14  O7  UNL     1      30.348  27.691  38.196  1.00  0.00    -0.191 OA
ENDROOT
BRANCH   6  15
HETATM   15  N3  UNL     1      28.800  31.419  40.636  1.00  0.00    -0.285 N 
ATOM     16  H3  UNL     1      28.361  32.107  40.025  1.00  0.00     0.188 HD
BRANCH  15  17
HETATM   17  N4  UNL     1      28.361  31.276  41.933  1.00  0.00    -0.312 N 
HETATM   18  C5  UNL     1      28.586  32.182  42.804  1.00  0.00     0.114 C 
ATOM     19  H4  UNL     1      27.849  30.436  42.202  1.00  0.00     0.185 HD
BRANCH  18  20
HETATM   20  C6  UNL     1      29.324  33.397  42.415  1.00  0.00     0.188 C 
BRANCH  20  21
HETATM   21  O1  UNL     1      30.694  33.101  42.568  1.00  0.00    -0.388 OA
ATOM     22  H1  UNL     1      30.768  32.154  42.565  1.00  0.00     0.210 HD
ENDBRANCH  20  21
BRANCH  20  23
HETATM   23  C7  UNL     1      28.929  34.598  43.235  1.00  0.00     0.175 C 
BRANCH  23  24
HETATM   24  O2  UNL     1      27.559  34.626  43.387  1.00  0.00    -0.391 OA
ATOM     25  H2  UNL     1      27.144  34.716  42.537  1.00  0.00     0.210 HD
ENDBRANCH  23  24
BRANCH  23  26
HETATM   26  C8  UNL     1      29.421  35.828  42.513  1.00  0.00     0.198 C 
BRANCH  26  27
HETATM   27  O3  UNL     1      29.927  35.491  41.265  1.00  0.00    -0.398 OA
ATOM     28  H3  UNL     1      30.876  35.460  41.287  1.00  0.00     0.209 HD
ENDBRANCH  26  27
ENDBRANCH  23  26
ENDBRANCH  20  23
ENDBRANCH  18  20
ENDBRANCH  15  17
ENDBRANCH   6  15
BRANCH   1  29
HETATM   29  N1  UNL     1      33.294  30.646  40.332  1.00  0.00    -0.234 N 
ATOM     30  H12 UNL     1      33.955  29.958  40.694  1.00  0.00     0.174 HD
ATOM     31  H11 UNL     1      33.619  31.606  40.219  1.00  0.00     0.174 HD
ENDBRANCH   1  29
TORSDOF 9
ENDMDL
MODEL 5
REMARK VINA RESULT: -5.356964007      2.558      3.237
REMARK  9 active torsions:
REMARK  status: ('A' for Active; 'I' for Inactive)
REMARK    1  A    between atoms: N1_1  and  C1_4 
REMARK    2  A    between atoms: C4_9  and  N3_10 
REMARK    3  A    between atoms: N3_10  and  N4_12 
REMARK    4  A    between atoms: C5_14  and  C6_15 
REMARK    5  A    between atoms: C6_15  and  O1_16 
REMARK    6  A    between atoms: C6_15  and  C7_18 
REMARK    7  A    between atoms: C7_18  and  O2_19 
REMARK    8  A    between atoms: C7_18  and  C8_21 
REMARK    9  A    between atoms: C8_21  and  O3_22 
ROOT
HETATM    1  C1  UNL     1      32.373  28.973  38.952  1.00  0.00     0.679 A 
HETATM    2  N2  UNL     1      32.043  27.932  38.183  1.00  0.00    -0.169 N 
ATOM      3  H2  UNL     1      32.788  27.354  37.795  1.00  0.00     0.186 HD
HETATM    4  C2  UNL     1      30.748  27.608  37.895  1.00  0.00     0.190 A 
HETATM    5  C3  UNL     1      29.726  28.357  38.398  1.00  0.00     0.065 A 
HETATM    6  C4  UNL     1      30.088  29.445  39.203  1.00  0.00     0.148 A 
HETATM    7  N5  UNL     1      31.377  29.723  39.456  1.00  0.00    -0.175 N 
ATOM      8  H5  UNL     1      31.607  30.523  40.045  1.00  0.00     0.186 HD
HETATM    9  C9  UNL     1      28.291  28.156  38.193  1.00  0.00     0.239 C 
HETATM   10  O4  UNL     1      27.894  26.899  37.841  1.00  0.00    -0.249 OA
HETATM   11  S1  UNL     1      28.857  26.374  36.541  1.00  0.00     0.408 S 
HETATM   12  O5  UNL     1      28.561  24.965  36.177  1.00  0.00    -0.168 OA
HETATM   13  O6  UNL     1      28.613  27.337  35.411  1.00  0.00    -0.168 OA
HETATM   14  O7  UNL     1      30.464  26.514  37.090  1.00  0.00    -0.191 OA
ENDROOT
BRANCH   6  15
HETATM   15  N3  UNL     1      29.159  30.206  39.718  1.00  0.00    -0.285 N 
ATOM     16  H3  UNL     1      28.347  29.783  40.167  1.00  0.00     0.188 HD
BRANCH  15  17
HETATM   17  N4  UNL     1      29.272  31.577  39.660  1.00  0.00    -0.312 N 
HETATM   18  C5  UNL     1      29.250  32.282  40.724  1.00  0.00     0.114 C 
ATOM     19  H4  UNL     1      29.374  32.036  38.755  1.00  0.00     0.185 HD
BRANCH  18  20
HETATM   20  C6  UNL     1      29.105  31.618  42.033  1.00  0.00     0.188 C 
BRANCH  20  21
HETATM   21  O1  UNL     1      27.762  31.202  42.125  1.00  0.00    -0.388 OA
ATOM     22  H1  UNL     1      27.653  30.831  42.993  1.00  0.00     0.210 HD
ENDBRANCH  20  21
BRANCH  20  23
HETATM   23  C7  UNL     1      29.479  32.521  43.180  1.00  0.00     0.175 C 
BRANCH  23  24
HETATM   24  O2  UNL     1      28.922  32.043  44.347  1.00  0.00    -0.391 OA
ATOM     25  H2  UNL     1      28.697  32.771  44.915  1.00  0.00     0.210 HD
ENDBRANCH  23  24
BRANCH  23  26
HETATM   26  C8  UNL     1      28.969  33.904  42.860  1.00  0.00     0.198 C 
BRANCH  26  27
HETATM   27  O3  UNL     1      27.765  34.142  43.508  1.00  0.00    -0.398 OA
ATOM     28  H3  UNL     1      27.678  35.064  43.722  1.00  0.00     0.209 HD
ENDBRANCH  26  27
ENDBRANCH  23  26
ENDBRANCH  20  23
ENDBRANCH  18  20
ENDBRANCH  15  17
ENDBRANCH   6  15
BRANCH   1  29
HETATM   29  N1  UNL     1      33.604  29.269  39.217  1.00  0.00    -0.234 N 
ATOM     30  H12 UNL     1      34.356  28.886  38.643  1.00  0.00     0.174 HD
ATOM     31  H11 UNL     1      33.859  29.882  39.990  1.00  0.00     0.174 HD
ENDBRANCH   1  29
TORSDOF 9
ENDMDL
