MODEL 1
REMARK VINA RESULT: -6.555297342      0.000      0.000
REMARK  4 active torsions:
REMARK  status: ('A' for Active; 'I' for Inactive)
REMARK    1  A    between atoms: C3_7  and  N3_8 
REMARK    2  A    between atoms: N3_8  and  N4_10 
REMARK    3  A    between atoms: N4_10  and  C4_12 
REMARK    4  A    between atoms: C5_15  and  C6_16 
ROOT
HETATM    1  N3  UNL     1      28.327  31.295  41.951  1.00  0.00    -0.266 N 
ATOM      2  H3  UNL     1      27.788  30.744  42.618  1.00  0.00     0.189 HD
ENDROOT
BRANCH   1   3
HETATM    3  C3  UNL     1      29.104  32.422  42.378  1.00  0.00     0.194 C 
HETATM    4  N2  UNL     1      28.342  33.398  42.947  1.00  0.00    -0.289 N 
HETATM    5  C2  UNL     1      28.690  34.694  43.003  1.00  0.00     0.331 C 
ATOM      6  H2  UNL     1      27.448  33.127  43.357  1.00  0.00     0.172 HD
HETATM    7  N1  UNL     1      29.877  35.277  42.694  1.00  0.00    -0.256 N 
HETATM    8  O1  UNL     1      27.770  35.460  43.399  1.00  0.00    -0.246 OA
HETATM    9  C1  UNL     1      29.874  36.720  42.815  1.00  0.00     0.166 C 
HETATM   10  C10 UNL     1      31.028  34.703  42.301  1.00  0.00     0.334 C 
HETATM   11  N7  UNL     1      31.353  33.382  42.211  1.00  0.00    -0.267 N 
HETATM   12  O5  UNL     1      31.965  35.464  41.957  1.00  0.00    -0.246 OA
HETATM   13  C8  UNL     1      30.468  32.380  42.171  1.00  0.00     0.296 C 
HETATM   14  C9  UNL     1      32.769  33.062  42.158  1.00  0.00     0.165 C 
HETATM   15  O4  UNL     1      30.936  31.257  41.911  1.00  0.00    -0.264 OA
ENDBRANCH   1   3
BRANCH   1  16
HETATM   16  N4  UNL     1      28.333  30.979  40.601  1.00  0.00    -0.130 N 
ATOM     17  H4  UNL     1      28.580  30.038  40.294  1.00  0.00     0.205 HD
BRANCH  16  18
HETATM   18  C4  UNL     1      27.993  31.978  39.649  1.00  0.00     0.698 A 
HETATM   19  N5  UNL     1      26.860  32.737  39.630  1.00  0.00    -0.181 N 
HETATM   20  C5  UNL     1      26.894  33.573  38.577  1.00  0.00     0.160 A 
ATOM     21  H5  UNL     1      26.103  32.680  40.311  1.00  0.00     0.184 HD
HETATM   22  C7  UNL     1      28.104  33.309  37.927  1.00  0.00     0.131 A 
HETATM   23  S1  UNL     1      28.630  34.167  36.448  1.00  0.00    -0.030 SA
HETATM   24  N6  UNL     1      28.747  32.339  38.598  1.00  0.00    -0.181 N 
ATOM     25  H6  UNL     1      29.654  31.943  38.351  1.00  0.00     0.185 HD
BRANCH  20  26
HETATM   26  C6  UNL     1      25.909  34.555  38.166  1.00  0.00     0.230 C 
HETATM   27  O2  UNL     1      25.787  35.626  38.794  1.00  0.00    -0.643 OA
HETATM   28  O3  UNL     1      25.113  34.295  37.079  1.00  0.00    -0.643 OA
ENDBRANCH  20  26
ENDBRANCH  16  18
ENDBRANCH   1  16
TORSDOF 4
ENDMDL
MODEL 2
REMARK VINA RESULT: -6.000978960      2.813      3.831
REMARK  4 active torsions:
REMARK  status: ('A' for Active; 'I' for Inactive)
REMARK    1  A    between atoms: C3_7  and  N3_8 
REMARK    2  A    between atoms: N3_8  and  N4_10 
REMARK    3  A    between atoms: N4_10  and  C4_12 
REMARK    4  A    between atoms: C5_15  and  C6_16 
ROOT
HETATM    1  N3  UNL     1      28.280  31.706  42.077  1.00  0.00    -0.266 N 
ATOM      2  H3  UNL     1      27.939  31.037  42.766  1.00  0.00     0.189 HD
ENDROOT
BRANCH   1   3
HETATM    3  C3  UNL     1      29.094  32.820  42.467  1.00  0.00     0.194 C 
HETATM    4  N2  UNL     1      28.356  33.890  42.878  1.00  0.00    -0.289 N 
HETATM    5  C2  UNL     1      28.785  35.162  42.846  1.00  0.00     0.331 C 
ATOM      6  H2  UNL     1      27.417  33.712  43.232  1.00  0.00     0.172 HD
HETATM    7  N1  UNL     1      30.030  35.641  42.590  1.00  0.00    -0.256 N 
HETATM    8  O1  UNL     1      27.890  36.016  43.092  1.00  0.00    -0.246 OA
HETATM    9  C1  UNL     1      30.114  37.087  42.580  1.00  0.00     0.166 C 
HETATM   10  C10 UNL     1      31.167  34.966  42.351  1.00  0.00     0.334 C 
HETATM   11  N7  UNL     1      31.409  33.625  42.408  1.00  0.00    -0.267 N 
HETATM   12  O5  UNL     1      32.178  35.633  42.021  1.00  0.00    -0.246 OA
HETATM   13  C8  UNL     1      30.465  32.678  42.382  1.00  0.00     0.296 C 
HETATM   14  C9  UNL     1      32.800  33.217  42.507  1.00  0.00     0.165 C 
HETATM   15  O4  UNL     1      30.875  31.509  42.266  1.00  0.00    -0.264 OA
ENDBRANCH   1   3
BRANCH   1  16
HETATM   16  N4  UNL     1      27.972  31.568  40.732  1.00  0.00    -0.130 N 
ATOM     17  H4  UNL     1      27.305  32.201  40.290  1.00  0.00     0.205 HD
BRANCH  16  18
HETATM   18  C4  UNL     1      28.594  30.538  39.977  1.00  0.00     0.698 A 
HETATM   19  N5  UNL     1      28.048  29.339  39.626  1.00  0.00    -0.181 N 
HETATM   20  C5  UNL     1      28.940  28.628  38.912  1.00  0.00     0.160 A 
ATOM     21  H5  UNL     1      27.108  29.028  39.868  1.00  0.00     0.184 HD
HETATM   22  C7  UNL     1      30.080  29.435  38.826  1.00  0.00     0.131 A 
HETATM   23  S1  UNL     1      31.569  28.939  37.967  1.00  0.00    -0.030 SA
HETATM   24  N6  UNL     1      29.841  30.584  39.480  1.00  0.00    -0.181 N 
ATOM     25  H6  UNL     1      30.495  31.359  39.581  1.00  0.00     0.185 HD
BRANCH  20  26
HETATM   26  C6  UNL     1      28.793  27.305  38.335  1.00  0.00     0.230 C 
HETATM   27  O2  UNL     1      28.061  27.129  37.341  1.00  0.00    -0.643 OA
HETATM   28  O3  UNL     1      29.468  26.250  38.894  1.00  0.00    -0.643 OA
ENDBRANCH  20  26
ENDBRANCH  16  18
ENDBRANCH   1  16
TORSDOF 4
ENDMDL
MODEL 3
REMARK VINA RESULT: -5.977282515      1.197      2.733
REMARK  4 active torsions:
REMARK  status: ('A' for Active; 'I' for Inactive)
REMARK    1  A    between atoms: C3_7  and  N3_8 
REMARK    2  A    between atoms: N3_8  and  N4_10 
REMARK    3  A    between atoms: N4_10  and  C4_12 
REMARK    4  A    between atoms: C5_15  and  C6_16 
ROOT
HETATM    1  N3  UNL     1      28.768  32.412  42.560  1.00  0.00    -0.266 N 
ATOM      2  H3  UNL     1      28.297  32.208  43.441  1.00  0.00     0.189 HD
ENDROOT
BRANCH   1   3
HETATM    3  C3  UNL     1      29.798  33.406  42.484  1.00  0.00     0.194 C 
HETATM    4  N2  UNL     1      31.024  32.872  42.222  1.00  0.00    -0.289 N 
HETATM    5  C2  UNL     1      32.189  33.454  42.549  1.00  0.00     0.331 C 
ATOM      6  H2  UNL     1      31.059  31.971  41.745  1.00  0.00     0.172 HD
HETATM    7  N1  UNL     1      32.420  34.706  43.021  1.00  0.00    -0.256 N 
HETATM    8  O1  UNL     1      33.199  32.715  42.389  1.00  0.00    -0.246 OA
HETATM    9  C1  UNL     1      33.810  34.974  43.327  1.00  0.00     0.166 C 
HETATM   10  C10 UNL     1      31.548  35.706  43.235  1.00  0.00     0.334 C 
HETATM   11  N7  UNL     1      30.219  35.778  42.937  1.00  0.00    -0.267 N 
HETATM   12  O5  UNL     1      31.983  36.744  43.792  1.00  0.00    -0.246 OA
HETATM   13  C8  UNL     1      29.437  34.725  42.678  1.00  0.00     0.296 C 
HETATM   14  C9  UNL     1      29.630  37.106  42.901  1.00  0.00     0.165 C 
HETATM   15  O4  UNL     1      28.218  34.963  42.600  1.00  0.00    -0.264 OA
ENDBRANCH   1   3
BRANCH   1  16
HETATM   16  N4  UNL     1      28.434  31.736  41.396  1.00  0.00    -0.130 N 
ATOM     17  H4  UNL     1      28.466  30.717  41.366  1.00  0.00     0.205 HD
BRANCH  16  18
HETATM   18  C4  UNL     1      28.046  32.476  40.247  1.00  0.00     0.698 A 
HETATM   19  N5  UNL     1      26.874  33.147  40.064  1.00  0.00    -0.181 N 
HETATM   20  C5  UNL     1      26.869  33.727  38.850  1.00  0.00     0.160 A 
ATOM     21  H5  UNL     1      26.116  33.203  40.744  1.00  0.00     0.184 HD
HETATM   22  C7  UNL     1      28.097  33.391  38.269  1.00  0.00     0.131 A 
HETATM   23  S1  UNL     1      28.585  33.924  36.633  1.00  0.00    -0.030 SA
HETATM   24  N6  UNL     1      28.787  32.633  39.137  1.00  0.00    -0.181 N 
ATOM     25  H6  UNL     1      29.717  32.243  38.981  1.00  0.00     0.185 HD
BRANCH  20  26
HETATM   26  C6  UNL     1      25.835  34.536  38.234  1.00  0.00     0.230 C 
HETATM   27  O2  UNL     1      25.033  34.025  37.427  1.00  0.00    -0.643 OA
HETATM   28  O3  UNL     1      25.746  35.869  38.548  1.00  0.00    -0.643 OA
ENDBRANCH  20  26
ENDBRANCH  16  18
ENDBRANCH   1  16
TORSDOF 4
ENDMDL
MODEL 4
REMARK VINA RESULT: -5.831711129      1.436      1.730
REMARK  4 active torsions:
REMARK  status: ('A' for Active; 'I' for Inactive)
REMARK    1  A    between atoms: C3_7  and  N3_8 
REMARK    2  A    between atoms: N3_8  and  N4_10 
REMARK    3  A    between atoms: N4_10  and  C4_12 
REMARK    4  A    between atoms: C5_15  and  C6_16 
ROOT
HETATM    1  N3  UNL     1      28.329  31.652  42.189  1.00  0.00    -0.266 N 
ATOM      2  H3  UNL     1      27.736  31.208  42.890  1.00  0.00     0.189 HD
ENDROOT
BRANCH   1   3
HETATM    3  C3  UNL     1      29.151  32.778  42.519  1.00  0.00     0.194 C 
HETATM    4  N2  UNL     1      28.423  33.859  42.919  1.00  0.00    -0.289 N 
HETATM    5  C2  UNL     1      28.848  35.130  42.836  1.00  0.00     0.331 C 
ATOM      6  H2  UNL     1      27.495  33.691  43.307  1.00  0.00     0.172 HD
HETATM    7  N1  UNL     1      30.083  35.603  42.527  1.00  0.00    -0.256 N 
HETATM    8  O1  UNL     1      27.958  35.990  43.082  1.00  0.00    -0.246 OA
HETATM    9  C1  UNL     1      30.163  37.048  42.471  1.00  0.00     0.166 C 
HETATM   10  C10 UNL     1      31.214  34.923  42.275  1.00  0.00     0.334 C 
HETATM   11  N7  UNL     1      31.461  33.585  42.366  1.00  0.00    -0.267 N 
HETATM   12  O5  UNL     1      32.213  35.581  41.895  1.00  0.00    -0.246 OA
HETATM   13  C8  UNL     1      30.519  32.635  42.397  1.00  0.00     0.296 C 
HETATM   14  C9  UNL     1      32.855  33.182  42.434  1.00  0.00     0.165 C 
HETATM   15  O4  UNL     1      30.929  31.464  42.304  1.00  0.00    -0.264 OA
ENDBRANCH   1   3
BRANCH   1  16
HETATM   16  N4  UNL     1      28.366  31.183  40.884  1.00  0.00    -0.130 N 
ATOM     17  H4  UNL     1      28.614  30.212  40.693  1.00  0.00     0.205 HD
BRANCH  16  18
HETATM   18  C4  UNL     1      28.055  32.068  39.816  1.00  0.00     0.698 A 
HETATM   19  N5  UNL     1      28.842  32.361  38.743  1.00  0.00    -0.181 N 
HETATM   20  C5  UNL     1      28.209  33.240  37.945  1.00  0.00     0.160 A 
ATOM     21  H5  UNL     1      29.769  31.974  38.570  1.00  0.00     0.184 HD
HETATM   22  C7  UNL     1      26.980  33.491  38.564  1.00  0.00     0.131 A 
HETATM   23  S1  UNL     1      25.753  34.607  37.892  1.00  0.00    -0.030 SA
HETATM   24  N6  UNL     1      26.915  32.768  39.695  1.00  0.00    -0.181 N 
ATOM     25  H6  UNL     1      26.133  32.753  40.349  1.00  0.00     0.185 HD
BRANCH  20  26
HETATM   26  C6  UNL     1      28.665  33.828  36.699  1.00  0.00     0.230 C 
HETATM   27  O2  UNL     1      29.060  35.010  36.669  1.00  0.00    -0.643 OA
HETATM   28  O3  UNL     1      28.657  33.070  35.555  1.00  0.00    -0.643 OA
ENDBRANCH  20  26
ENDBRANCH  16  18
ENDBRANCH   1  16
TORSDOF 4
ENDMDL
MODEL 5
REMARK VINA RESULT: -5.708871731      2.832      3.957
REMARK  4 active torsions:
REMARK  status: ('A' for Active; 'I' for Inactive)
REMARK    1  A    between atoms: C3_7  and  N3_8 
REMARK    2  A    between atoms: N3_8  and  N4_10 
REMARK    3  A    between atoms: N4_10  and  C4_12 
REMARK    4  A    between atoms: C5_15  and  C6_16 
ROOT
HETATM    1  N3  UNL     1      28.321  31.556  42.104  1.00  0.00    -0.266 N 
ATOM      2  H3  UNL     1      28.063  30.840  42.783  1.00  0.00     0.189 HD
ENDROOT
BRANCH   1   3
HETATM    3  C3  UNL     1      29.103  32.694  42.489  1.00  0.00     0.194 C 
HETATM    4  N2  UNL     1      28.337  33.730  42.931  1.00  0.00    -0.289 N 
HETATM    5  C2  UNL     1      28.719  35.018  42.905  1.00  0.00     0.331 C 
ATOM      6  H2  UNL     1      27.413  33.514  43.304  1.00  0.00     0.172 HD
HETATM    7  N1  UNL     1      29.938  35.545  42.626  1.00  0.00    -0.256 N 
HETATM    8  O1  UNL     1      27.799  35.835  43.183  1.00  0.00    -0.246 OA
HETATM    9  C1  UNL     1      29.970  36.993  42.633  1.00  0.00     0.166 C 
HETATM   10  C10 UNL     1      31.093  34.915  42.352  1.00  0.00     0.334 C 
HETATM   11  N7  UNL     1      31.385  33.583  42.386  1.00  0.00    -0.267 N 
HETATM   12  O5  UNL     1      32.071  35.623  42.007  1.00  0.00    -0.246 OA
HETATM   13  C8  UNL     1      30.476  32.602  42.370  1.00  0.00     0.296 C 
HETATM   14  C9  UNL     1      32.792  33.225  42.446  1.00  0.00     0.165 C 
HETATM   15  O4  UNL     1      30.926  31.451  42.229  1.00  0.00    -0.264 OA
ENDBRANCH   1   3
BRANCH   1  16
HETATM   16  N4  UNL     1      27.928  31.458  40.778  1.00  0.00    -0.130 N 
ATOM     17  H4  UNL     1      27.217  32.088  40.405  1.00  0.00     0.205 HD
BRANCH  16  18
HETATM   18  C4  UNL     1      28.524  30.474  39.944  1.00  0.00     0.698 A 
HETATM   19  N5  UNL     1      29.856  30.289  39.721  1.00  0.00    -0.181 N 
HETATM   20  C5  UNL     1      30.034  29.259  38.874  1.00  0.00     0.160 A 
ATOM     21  H5  UNL     1      30.604  30.846  40.134  1.00  0.00     0.184 HD
HETATM   22  C7  UNL     1      28.749  28.799  38.568  1.00  0.00     0.131 A 
HETATM   23  S1  UNL     1      28.438  27.424  37.466  1.00  0.00    -0.030 SA
HETATM   24  N6  UNL     1      27.856  29.553  39.230  1.00  0.00    -0.181 N 
ATOM     25  H6  UNL     1      26.842  29.444  39.196  1.00  0.00     0.185 HD
BRANCH  20  26
HETATM   26  C6  UNL     1      31.275  28.711  38.360  1.00  0.00     0.230 C 
HETATM   27  O2  UNL     1      31.851  29.252  37.395  1.00  0.00    -0.643 OA
HETATM   28  O3  UNL     1      31.809  27.591  38.946  1.00  0.00    -0.643 OA
ENDBRANCH  20  26
ENDBRANCH  16  18
ENDBRANCH   1  16
TORSDOF 4
ENDMDL
