MODEL 1
REMARK VINA RESULT: -5.553889419      0.000      0.000
REMARK  8 active torsions:
REMARK  status: ('A' for Active; 'I' for Inactive)
REMARK    1  A    between atoms: N3_7  and  N4_8 
REMARK    2  A    between atoms: C3_11  and  N5_12 
REMARK    3  A    between atoms: N5_12  and  N6_14 
REMARK    4  A    between atoms: N6_14  and  O2_16 
REMARK    5  A    between atoms: C4_18  and  N7_19 
REMARK    6  A    between atoms: N7_19  and  C5_21 
REMARK    7  A    between atoms: C6_23  and  C7_24 
REMARK    8  A    between atoms: N9_29  and  O5_30 
ROOT
HETATM    1  N1  UNL     1      30.637  35.046  38.615  1.00  0.00    -0.080 NA
HETATM    2  C1  UNL     1      29.876  34.080  39.287  1.00  0.00     0.151 A 
HETATM    3  N2  UNL     1      29.487  32.981  38.590  1.00  0.00    -0.293 N 
ATOM      4  H2  UNL     1      29.746  32.872  37.609  1.00  0.00     0.172 HD
HETATM    5  C2  UNL     1      28.758  32.043  39.210  1.00  0.00     0.348 A 
HETATM    6  O1  UNL     1      28.421  31.032  38.508  1.00  0.00    -0.245 OA
HETATM    7  N3  UNL     1      28.410  32.173  40.498  1.00  0.00    -0.192 N 
HETATM    8  C3  UNL     1      28.794  33.271  41.206  1.00  0.00     0.178 A 
HETATM    9  C4  UNL     1      29.544  34.257  40.606  1.00  0.00     0.124 A 
ENDROOT
BRANCH   9  10
HETATM   10  N7  UNL     1      29.948  35.384  41.302  1.00  0.00    -0.329 N 
ATOM     11  H7  UNL     1      29.409  36.245  41.212  1.00  0.00     0.168 HD
BRANCH  10  12
HETATM   12  C5  UNL     1      31.120  35.371  42.153  1.00  0.00     0.179 A 
HETATM   13  S1  UNL     1      32.392  34.236  42.204  1.00  0.00    -0.041 SA
HETATM   14  C6  UNL     1      33.320  34.956  43.448  1.00  0.00     0.128 A 
HETATM   15  C8  UNL     1      32.575  36.057  43.758  1.00  0.00     0.170 A 
HETATM   16  N8  UNL     1      33.041  36.959  44.804  1.00  0.00    -0.078 NA
HETATM   17  N9  UNL     1      31.459  36.250  43.088  1.00  0.00    -0.186 N 
BRANCH  14  18
HETATM   18  C7  UNL     1      34.590  34.513  44.038  1.00  0.00     0.220 C 
HETATM   19  O3  UNL     1      35.634  34.683  43.386  1.00  0.00    -0.643 OA
HETATM   20  O4  UNL     1      34.640  33.921  45.280  1.00  0.00    -0.643 OA
ENDBRANCH  14  18
BRANCH  17  21
HETATM   21  O5  UNL     1      30.616  37.367  43.338  1.00  0.00    -0.279 OA
ATOM     22  H5  UNL     1      30.448  37.993  42.643  1.00  0.00     0.245 HD
ENDBRANCH  17  21
ENDBRANCH  10  12
ENDBRANCH   9  10
BRANCH   8  23
HETATM   23  N5  UNL     1      28.465  33.397  42.432  1.00  0.00    -0.262 N 
ATOM     24  H5  UNL     1      27.636  33.937  42.681  1.00  0.00     0.190 HD
BRANCH  23  25
HETATM   25  N6  UNL     1      29.229  32.801  43.433  1.00  0.00    -0.208 N 
ATOM     26  H6  UNL     1      29.974  33.350  43.862  1.00  0.00     0.215 HD
BRANCH  25  27
HETATM   27  O2  UNL     1      29.054  31.643  43.831  1.00  0.00    -0.274 OA
ATOM     28  H2  UNL     1      29.216  30.873  43.298  1.00  0.00     0.246 HD
ENDBRANCH  25  27
ENDBRANCH  23  25
ENDBRANCH   8  23
BRANCH   7  29
HETATM   29  N4  UNL     1      27.652  31.162  41.083  1.00  0.00    -0.333 N 
ATOM     30  H42 UNL     1      26.690  30.985  40.794  1.00  0.00     0.177 HD
ATOM     31  H41 UNL     1      28.082  30.594  41.813  1.00  0.00     0.177 HD
ENDBRANCH   7  29
TORSDOF 8
ENDMDL
MODEL 2
REMARK VINA RESULT: -5.409249143      2.856      6.127
REMARK  8 active torsions:
REMARK  status: ('A' for Active; 'I' for Inactive)
REMARK    1  A    between atoms: N3_7  and  N4_8 
REMARK    2  A    between atoms: C3_11  and  N5_12 
REMARK    3  A    between atoms: N5_12  and  N6_14 
REMARK    4  A    between atoms: N6_14  and  O2_16 
REMARK    5  A    between atoms: C4_18  and  N7_19 
REMARK    6  A    between atoms: N7_19  and  C5_21 
REMARK    7  A    between atoms: C6_23  and  C7_24 
REMARK    8  A    between atoms: N9_29  and  O5_30 
ROOT
HETATM    1  N1  UNL     1      33.278  33.728  40.726  1.00  0.00    -0.080 NA
HETATM    2  C1  UNL     1      32.386  34.634  41.317  1.00  0.00     0.151 A 
HETATM    3  N2  UNL     1      32.571  35.957  41.072  1.00  0.00    -0.293 N 
ATOM      4  H2  UNL     1      33.338  36.271  40.476  1.00  0.00     0.172 HD
HETATM    5  C2  UNL     1      31.732  36.844  41.625  1.00  0.00     0.348 A 
HETATM    6  O1  UNL     1      31.952  38.073  41.361  1.00  0.00    -0.245 OA
HETATM    7  N3  UNL     1      30.721  36.447  42.411  1.00  0.00    -0.192 N 
HETATM    8  C3  UNL     1      30.527  35.122  42.664  1.00  0.00     0.178 A 
HETATM    9  C4  UNL     1      31.366  34.180  42.114  1.00  0.00     0.124 A 
ENDROOT
BRANCH   9  10
HETATM   10  N7  UNL     1      31.193  32.827  42.354  1.00  0.00    -0.329 N 
ATOM     11  H7  UNL     1      31.647  32.402  43.162  1.00  0.00     0.168 HD
BRANCH  10  12
HETATM   12  C5  UNL     1      30.382  32.001  41.484  1.00  0.00     0.179 A 
HETATM   13  S1  UNL     1      30.775  31.345  39.959  1.00  0.00    -0.041 SA
HETATM   14  C6  UNL     1      29.302  30.533  39.649  1.00  0.00     0.128 A 
HETATM   15  C8  UNL     1      28.575  30.823  40.767  1.00  0.00     0.170 A 
HETATM   16  N8  UNL     1      27.221  30.297  40.891  1.00  0.00    -0.078 NA
HETATM   17  N9  UNL     1      29.143  31.571  41.690  1.00  0.00    -0.186 N 
BRANCH  14  18
HETATM   18  C7  UNL     1      28.909  29.730  38.483  1.00  0.00     0.220 C 
HETATM   19  O3  UNL     1      28.753  30.307  37.394  1.00  0.00    -0.643 OA
HETATM   20  O4  UNL     1      28.716  28.370  38.578  1.00  0.00    -0.643 OA
ENDBRANCH  14  18
BRANCH  17  21
HETATM   21  O5  UNL     1      28.468  31.926  42.889  1.00  0.00    -0.279 OA
ATOM     22  H5  UNL     1      28.967  32.053  43.688  1.00  0.00     0.245 HD
ENDBRANCH  17  21
ENDBRANCH  10  12
ENDBRANCH   9  10
BRANCH   8  23
HETATM   23  N5  UNL     1      29.566  34.742  43.411  1.00  0.00    -0.262 N 
ATOM     24  H5  UNL     1      29.754  34.454  44.371  1.00  0.00     0.190 HD
BRANCH  23  25
HETATM   25  N6  UNL     1      28.260  34.717  42.924  1.00  0.00    -0.208 N 
ATOM     26  H6  UNL     1      28.124  34.683  41.913  1.00  0.00     0.215 HD
BRANCH  25  27
HETATM   27  O2  UNL     1      27.258  34.733  43.648  1.00  0.00    -0.274 OA
ATOM     28  H2  UNL     1      27.093  34.094  44.331  1.00  0.00     0.246 HD
ENDBRANCH  25  27
ENDBRANCH  23  25
ENDBRANCH   8  23
BRANCH   7  29
HETATM   29  N4  UNL     1      29.886  37.419  42.955  1.00  0.00    -0.333 N 
ATOM     30  H42 UNL     1      29.536  37.343  43.911  1.00  0.00     0.177 HD
ATOM     31  H41 UNL     1      29.628  38.217  42.374  1.00  0.00     0.177 HD
ENDBRANCH   7  29
TORSDOF 8
ENDMDL
MODEL 3
REMARK VINA RESULT: -5.383043995      2.195      2.972
REMARK  8 active torsions:
REMARK  status: ('A' for Active; 'I' for Inactive)
REMARK    1  A    between atoms: N3_7  and  N4_8 
REMARK    2  A    between atoms: C3_11  and  N5_12 
REMARK    3  A    between atoms: N5_12  and  N6_14 
REMARK    4  A    between atoms: N6_14  and  O2_16 
REMARK    5  A    between atoms: C4_18  and  N7_19 
REMARK    6  A    between atoms: N7_19  and  C5_21 
REMARK    7  A    between atoms: C6_23  and  C7_24 
REMARK    8  A    between atoms: N9_29  and  O5_30 
ROOT
HETATM    1  N1  UNL     1      31.675  32.310  38.015  1.00  0.00    -0.080 NA
HETATM    2  C1  UNL     1      30.538  31.796  38.654  1.00  0.00     0.151 A 
HETATM    3  N2  UNL     1      30.387  30.447  38.691  1.00  0.00    -0.293 N 
ATOM      4  H2  UNL     1      31.083  29.836  38.264  1.00  0.00     0.172 HD
HETATM    5  C2  UNL     1      29.308  29.932  39.297  1.00  0.00     0.348 A 
HETATM    6  O1  UNL     1      29.217  28.659  39.303  1.00  0.00    -0.245 OA
HETATM    7  N3  UNL     1      28.385  30.722  39.862  1.00  0.00    -0.192 N 
HETATM    8  C3  UNL     1      28.526  32.076  39.830  1.00  0.00     0.178 A 
HETATM    9  C4  UNL     1      29.619  32.646  39.218  1.00  0.00     0.124 A 
ENDROOT
BRANCH   9  10
HETATM   10  N7  UNL     1      29.790  34.019  39.170  1.00  0.00    -0.329 N 
ATOM     11  H7  UNL     1      29.494  34.529  38.338  1.00  0.00     0.168 HD
BRANCH  10  12
HETATM   12  C5  UNL     1      30.378  34.749  40.274  1.00  0.00     0.179 A 
HETATM   13  S1  UNL     1      32.019  34.872  40.722  1.00  0.00    -0.041 SA
HETATM   14  C6  UNL     1      31.830  35.888  42.086  1.00  0.00     0.128 A 
HETATM   15  C8  UNL     1      30.479  36.076  42.116  1.00  0.00     0.170 A 
HETATM   16  N8  UNL     1      29.901  36.910  43.163  1.00  0.00    -0.078 NA
HETATM   17  N9  UNL     1      29.757  35.489  41.185  1.00  0.00    -0.186 N 
BRANCH  14  18
HETATM   18  C7  UNL     1      32.852  36.423  42.996  1.00  0.00     0.220 C 
HETATM   19  O3  UNL     1      33.366  35.653  43.824  1.00  0.00    -0.643 OA
HETATM   20  O4  UNL     1      33.241  37.743  42.946  1.00  0.00    -0.643 OA
ENDBRANCH  14  18
BRANCH  17  21
HETATM   21  O5  UNL     1      28.344  35.625  41.132  1.00  0.00    -0.279 OA
ATOM     22  H5  UNL     1      27.850  35.705  41.941  1.00  0.00     0.245 HD
ENDBRANCH  17  21
ENDBRANCH  10  12
ENDBRANCH   9  10
BRANCH   8  23
HETATM   23  N5  UNL     1      27.649  32.830  40.367  1.00  0.00    -0.262 N 
ATOM     24  H5  UNL     1      27.676  33.003  41.371  1.00  0.00     0.190 HD
BRANCH  23  25
HETATM   25  N6  UNL     1      26.653  33.418  39.589  1.00  0.00    -0.208 N 
ATOM     26  H6  UNL     1      25.850  32.849  39.322  1.00  0.00     0.215 HD
BRANCH  25  27
HETATM   27  O2  UNL     1      26.688  34.594  39.205  1.00  0.00    -0.274 OA
ATOM     28  H2  UNL     1      26.965  34.855  38.335  1.00  0.00     0.246 HD
ENDBRANCH  25  27
ENDBRANCH  23  25
ENDBRANCH   8  23
BRANCH   7  29
HETATM   29  N4  UNL     1      27.287  30.122  40.475  1.00  0.00    -0.333 N 
ATOM     30  H42 UNL     1      27.041  29.150  40.290  1.00  0.00     0.177 HD
ATOM     31  H41 UNL     1      26.728  30.680  41.121  1.00  0.00     0.177 HD
ENDBRANCH   7  29
TORSDOF 8
ENDMDL
MODEL 4
REMARK VINA RESULT: -5.376694449      2.656      6.639
REMARK  8 active torsions:
REMARK  status: ('A' for Active; 'I' for Inactive)
REMARK    1  A    between atoms: N3_7  and  N4_8 
REMARK    2  A    between atoms: C3_11  and  N5_12 
REMARK    3  A    between atoms: N5_12  and  N6_14 
REMARK    4  A    between atoms: N6_14  and  O2_16 
REMARK    5  A    between atoms: C4_18  and  N7_19 
REMARK    6  A    between atoms: N7_19  and  C5_21 
REMARK    7  A    between atoms: C6_23  and  C7_24 
REMARK    8  A    between atoms: N9_29  and  O5_30 
ROOT
HETATM    1  N1  UNL     1      30.104  34.522  37.852  1.00  0.00    -0.080 NA
HETATM    2  C1  UNL     1      30.141  34.557  39.253  1.00  0.00     0.151 A 
HETATM    3  N2  UNL     1      31.155  35.241  39.844  1.00  0.00    -0.293 N 
ATOM      4  H2  UNL     1      31.862  35.711  39.278  1.00  0.00     0.172 HD
HETATM    5  C2  UNL     1      31.212  35.290  41.182  1.00  0.00     0.348 A 
HETATM    6  O1  UNL     1      32.184  35.947  41.684  1.00  0.00    -0.245 OA
HETATM    7  N3  UNL     1      30.291  34.678  41.939  1.00  0.00    -0.192 N 
HETATM    8  C3  UNL     1      29.270  33.988  41.357  1.00  0.00     0.178 A 
HETATM    9  C4  UNL     1      29.175  33.915  39.986  1.00  0.00     0.124 A 
ENDROOT
BRANCH   9  10
HETATM   10  N7  UNL     1      28.149  33.221  39.367  1.00  0.00    -0.329 N 
ATOM     11  H7  UNL     1      27.246  33.677  39.240  1.00  0.00     0.168 HD
BRANCH  10  12
HETATM   12  C5  UNL     1      28.328  31.864  38.895  1.00  0.00     0.179 A 
HETATM   13  S1  UNL     1      28.263  30.407  39.779  1.00  0.00    -0.041 SA
HETATM   14  C6  UNL     1      28.573  29.321  38.494  1.00  0.00     0.128 A 
HETATM   15  C8  UNL     1      28.712  30.167  37.433  1.00  0.00     0.170 A 
HETATM   16  N8  UNL     1      28.992  29.613  36.114  1.00  0.00    -0.078 NA
HETATM   17  N9  UNL     1      28.583  31.458  37.658  1.00  0.00    -0.186 N 
BRANCH  14  18
HETATM   18  C7  UNL     1      28.668  27.855  38.517  1.00  0.00     0.220 C 
HETATM   19  O3  UNL     1      27.683  27.194  38.150  1.00  0.00    -0.643 OA
HETATM   20  O4  UNL     1      29.814  27.214  38.932  1.00  0.00    -0.643 OA
ENDBRANCH  14  18
BRANCH  17  21
HETATM   21  O5  UNL     1      28.710  32.418  36.617  1.00  0.00    -0.279 OA
ATOM     22  H5  UNL     1      29.491  32.421  36.075  1.00  0.00     0.245 HD
ENDBRANCH  17  21
ENDBRANCH  10  12
ENDBRANCH   9  10
BRANCH   8  23
HETATM   23  N5  UNL     1      28.393  33.405  42.076  1.00  0.00    -0.262 N 
ATOM     24  H5  UNL     1      27.488  33.850  42.231  1.00  0.00     0.190 HD
BRANCH  23  25
HETATM   25  N6  UNL     1      28.662  32.164  42.651  1.00  0.00    -0.208 N 
ATOM     26  H6  UNL     1      28.515  31.329  42.085  1.00  0.00     0.215 HD
BRANCH  25  27
HETATM   27  O2  UNL     1      29.069  32.020  43.810  1.00  0.00    -0.274 OA
ATOM     28  H2  UNL     1      29.046  31.193  44.276  1.00  0.00     0.246 HD
ENDBRANCH  25  27
ENDBRANCH  23  25
ENDBRANCH   8  23
BRANCH   7  29
HETATM   29  N4  UNL     1      30.408  34.767  43.325  1.00  0.00    -0.333 N 
ATOM     30  H42 UNL     1      30.027  35.560  43.840  1.00  0.00     0.177 HD
ATOM     31  H41 UNL     1      30.886  34.013  43.819  1.00  0.00     0.177 HD
ENDBRANCH   7  29
TORSDOF 8
ENDMDL
MODEL 5
REMARK VINA RESULT: -5.366007697      2.408      3.306
REMARK  8 active torsions:
REMARK  status: ('A' for Active; 'I' for Inactive)
REMARK    1  A    between atoms: N3_7  and  N4_8 
REMARK    2  A    between atoms: C3_11  and  N5_12 
REMARK    3  A    between atoms: N5_12  and  N6_14 
REMARK    4  A    between atoms: N6_14  and  O2_16 
REMARK    5  A    between atoms: C4_18  and  N7_19 
REMARK    6  A    between atoms: N7_19  and  C5_21 
REMARK    7  A    between atoms: C6_23  and  C7_24 
REMARK    8  A    between atoms: N9_29  and  O5_30 
ROOT
HETATM    1  N1  UNL     1      32.923  32.614  41.155  1.00  0.00    -0.080 NA
HETATM    2  C1  UNL     1      31.567  32.276  41.268  1.00  0.00     0.151 A 
HETATM    3  N2  UNL     1      31.061  31.382  40.379  1.00  0.00    -0.293 N 
ATOM      4  H2  UNL     1      31.655  30.977  39.657  1.00  0.00     0.172 HD
HETATM    5  C2  UNL     1      29.767  31.043  40.467  1.00  0.00     0.348 A 
HETATM    6  O1  UNL     1      29.344  30.199  39.608  1.00  0.00    -0.245 OA
HETATM    7  N3  UNL     1      28.973  31.567  41.410  1.00  0.00    -0.192 N 
HETATM    8  C3  UNL     1      29.470  32.465  42.306  1.00  0.00     0.178 A 
HETATM    9  C4  UNL     1      30.793  32.840  42.251  1.00  0.00     0.124 A 
ENDROOT
BRANCH   9  10
HETATM   10  N7  UNL     1      31.327  33.750  43.148  1.00  0.00    -0.329 N 
ATOM     11  H7  UNL     1      31.457  33.473  44.120  1.00  0.00     0.168 HD
BRANCH  10  12
HETATM   12  C5  UNL     1      31.704  35.087  42.738  1.00  0.00     0.179 A 
HETATM   13  S1  UNL     1      30.910  36.139  41.656  1.00  0.00    -0.041 SA
HETATM   14  C6  UNL     1      31.994  37.459  41.748  1.00  0.00     0.128 A 
HETATM   15  C8  UNL     1      32.928  36.999  42.630  1.00  0.00     0.170 A 
HETATM   16  N8  UNL     1      34.053  37.855  42.985  1.00  0.00    -0.078 NA
HETATM   17  N9  UNL     1      32.762  35.789  43.123  1.00  0.00    -0.186 N 
BRANCH  14  18
HETATM   18  C7  UNL     1      31.943  38.755  41.059  1.00  0.00     0.220 C 
HETATM   19  O3  UNL     1      32.297  38.806  39.869  1.00  0.00    -0.643 OA
HETATM   20  O4  UNL     1      31.516  39.896  41.702  1.00  0.00    -0.643 OA
ENDBRANCH  14  18
BRANCH  17  21
HETATM   21  O5  UNL     1      33.680  35.223  44.048  1.00  0.00    -0.279 OA
ATOM     22  H5  UNL     1      34.611  35.243  43.857  1.00  0.00     0.245 HD
ENDBRANCH  17  21
ENDBRANCH  10  12
ENDBRANCH   9  10
BRANCH   8  23
HETATM   23  N5  UNL     1      28.717  32.966  43.204  1.00  0.00    -0.262 N 
ATOM     24  H5  UNL     1      28.543  32.449  44.066  1.00  0.00     0.190 HD
BRANCH  23  25
HETATM   25  N6  UNL     1      28.129  34.215  43.017  1.00  0.00    -0.208 N 
ATOM     26  H6  UNL     1      28.447  34.785  42.233  1.00  0.00     0.215 HD
BRANCH  25  27
HETATM   27  O2  UNL     1      27.242  34.672  43.748  1.00  0.00    -0.274 OA
ATOM     28  H2  UNL     1      27.413  35.087  44.586  1.00  0.00     0.246 HD
ENDBRANCH  25  27
ENDBRANCH  23  25
ENDBRANCH   8  23
BRANCH   7  29
HETATM   29  N4  UNL     1      27.638  31.172  41.446  1.00  0.00    -0.333 N 
ATOM     30  H42 UNL     1      27.367  30.242  41.767  1.00  0.00     0.177 HD
ATOM     31  H41 UNL     1      26.927  31.839  41.143  1.00  0.00     0.177 HD
ENDBRANCH   7  29
TORSDOF 8
ENDMDL
