MODEL 1
REMARK VINA RESULT: -5.894072320      0.000      0.000
REMARK  7 active torsions:
REMARK  status: ('A' for Active; 'I' for Inactive)
REMARK    1  A    between atoms: O1_2  and  C2_3 
REMARK    2  A    between atoms: C2_3  and  O2_4 
REMARK    3  A    between atoms: C2_3  and  N1_6 
REMARK    4  A    between atoms: C4_9  and  C5_10 
REMARK       I    between atoms: C5_10  and  N2_12 
REMARK    5  A    between atoms: N2_12  and  N3_14 
REMARK       I    between atoms: N3_14  and  C6_16 
REMARK    6  A    between atoms: C11_26  and  O6_27 
REMARK    7  A    between atoms: O6_27  and  C12_28 
ROOT
HETATM    1  N1  UNL     1      39.015   1.333  23.139  1.00  0.00    -0.342 N 
ATOM      2  H1  UNL     1      38.883   2.343  23.175  1.00  0.00     0.164 HD
HETATM    3  C3  UNL     1      38.698   0.718  22.085  1.00  0.00     0.062 C 
HETATM    4  C4  UNL     1      38.169   1.651  21.049  1.00  0.00     0.080 C 
HETATM    5  C8  UNL     1      38.086   1.436  19.753  1.00  0.00     0.154 C 
HETATM    6  O5  UNL     1      38.446   0.337  18.973  1.00  0.00    -0.356 OA
HETATM    7  C9  UNL     1      38.765  -0.994  19.289  1.00  0.00     0.229 C 
HETATM    8  C10 UNL     1      39.455  -1.043  20.581  1.00  0.00     0.040 C 
HETATM    9  N4  UNL     1      40.664  -1.345  20.606  1.00  0.00    -0.401 N 
ATOM     10  H41 UNL     1      41.145  -1.379  21.506  1.00  0.00     0.155 HD
ATOM     11  H42 UNL     1      41.076  -1.540  19.693  1.00  0.00     0.155 HD
HETATM   12  C11 UNL     1      38.844  -0.753  21.937  1.00  0.00     0.231 C 
ENDROOT
BRANCH   4  13
HETATM   13  C5  UNL     1      37.738   2.922  21.554  1.00  0.00     0.274 C 
HETATM   14  O3  UNL     1      38.590   3.887  21.540  1.00  0.00    -0.266 OA
HETATM   15  N2  UNL     1      36.486   3.277  22.073  1.00  0.00    -0.263 N 
ATOM     16  H2  UNL     1      35.759   2.564  22.126  1.00  0.00     0.190 HD
BRANCH  15  17
HETATM   17  N3  UNL     1      36.189   4.590  22.531  1.00  0.00    -0.268 N 
HETATM   18  C6  UNL     1      35.557   4.812  23.764  1.00  0.00     0.232 C 
HETATM   19  C7  UNL     1      35.257   6.185  24.217  1.00  0.00     0.119 C 
HETATM   20  O4  UNL     1      35.216   3.864  24.540  1.00  0.00    -0.272 OA
ATOM     21  H3  UNL     1      36.442   5.389  21.949  1.00  0.00     0.190 HD
ENDBRANCH  15  17
ENDBRANCH   4  13
BRANCH   1  22
HETATM   22  C2  UNL     1      39.555   0.666  24.290  1.00  0.00     0.367 C 
BRANCH  22  23
HETATM   23  O1  UNL     1      40.620   1.386  24.845  1.00  0.00    -0.349 OA
HETATM   24  C1  UNL     1      40.445   2.732  24.560  1.00  0.00     0.206 C 
ENDBRANCH  22  23
BRANCH  22  25
HETATM   25  O2  UNL     1      38.606   0.397  25.285  1.00  0.00    -0.355 OA
ATOM     26  H2  UNL     1      37.785   0.817  25.060  1.00  0.00     0.214 HD
ENDBRANCH  22  25
ENDBRANCH   1  22
BRANCH  12  27
HETATM   27  O6  UNL     1      37.529  -1.325  21.838  1.00  0.00    -0.289 OA
BRANCH  27  28
HETATM   28  C12 UNL     1      36.899  -2.027  22.831  1.00  0.00     0.373 C 
HETATM   29  N5  UNL     1      35.975  -3.078  22.477  1.00  0.00    -0.032 NA
HETATM   30  O7  UNL     1      37.137  -1.745  24.027  1.00  0.00    -0.242 OA
ENDBRANCH  27  28
ENDBRANCH  12  27
TORSDOF 7
ENDMDL
MODEL 2
REMARK VINA RESULT: -5.739317547      2.269      5.091
REMARK  7 active torsions:
REMARK  status: ('A' for Active; 'I' for Inactive)
REMARK    1  A    between atoms: O1_2  and  C2_3 
REMARK    2  A    between atoms: C2_3  and  O2_4 
REMARK    3  A    between atoms: C2_3  and  N1_6 
REMARK    4  A    between atoms: C4_9  and  C5_10 
REMARK       I    between atoms: C5_10  and  N2_12 
REMARK    5  A    between atoms: N2_12  and  N3_14 
REMARK       I    between atoms: N3_14  and  C6_16 
REMARK    6  A    between atoms: C11_26  and  O6_27 
REMARK    7  A    between atoms: O6_27  and  C12_28 
ROOT
HETATM    1  N1  UNL     1      37.781   2.413  21.784  1.00  0.00    -0.342 N 
ATOM      2  H1  UNL     1      37.626   2.298  20.782  1.00  0.00     0.164 HD
HETATM    3  C3  UNL     1      38.600   1.649  22.361  1.00  0.00     0.062 C 
HETATM    4  C4  UNL     1      39.210   0.681  21.403  1.00  0.00     0.080 C 
HETATM    5  C8  UNL     1      40.328   0.004  21.560  1.00  0.00     0.154 C 
HETATM    6  O5  UNL     1      41.251  -0.026  22.605  1.00  0.00    -0.356 OA
HETATM    7  C9  UNL     1      41.203   0.425  23.935  1.00  0.00     0.229 C 
HETATM    8  C10 UNL     1      40.389   1.639  24.015  1.00  0.00     0.040 C 
HETATM    9  N4  UNL     1      40.950   2.724  24.267  1.00  0.00    -0.401 N 
ATOM     10  H41 UNL     1      40.383   3.571  24.323  1.00  0.00     0.155 HD
ATOM     11  H42 UNL     1      41.960   2.663  24.401  1.00  0.00     0.155 HD
HETATM   12  C11 UNL     1      38.889   1.731  23.816  1.00  0.00     0.231 C 
ENDROOT
BRANCH   4  13
HETATM   13  C5  UNL     1      38.486   0.518  20.177  1.00  0.00     0.274 C 
HETATM   14  O3  UNL     1      38.721   1.358  19.230  1.00  0.00    -0.266 OA
HETATM   15  N2  UNL     1      37.531  -0.454  19.849  1.00  0.00    -0.263 N 
ATOM     16  H2  UNL     1      37.283  -1.152  20.550  1.00  0.00     0.190 HD
BRANCH  15  17
HETATM   17  N3  UNL     1      36.895  -0.507  18.579  1.00  0.00    -0.268 N 
HETATM   18  C6  UNL     1      37.299  -1.420  17.593  1.00  0.00     0.232 C 
HETATM   19  C7  UNL     1      36.625  -1.455  16.280  1.00  0.00     0.119 C 
HETATM   20  O4  UNL     1      38.248  -2.249  17.773  1.00  0.00    -0.272 OA
ATOM     21  H3  UNL     1      36.127   0.134  18.380  1.00  0.00     0.190 HD
ENDBRANCH  15  17
ENDBRANCH   4  13
BRANCH   1  22
HETATM   22  C2  UNL     1      37.059   3.439  22.480  1.00  0.00     0.367 C 
BRANCH  22  23
HETATM   23  O1  UNL     1      37.413   4.715  22.023  1.00  0.00    -0.349 OA
HETATM   24  C1  UNL     1      38.163   5.348  23.005  1.00  0.00     0.206 C 
ENDBRANCH  22  23
BRANCH  22  25
HETATM   25  O2  UNL     1      35.666   3.293  22.419  1.00  0.00    -0.355 OA
ATOM     26  H2  UNL     1      35.335   3.749  21.654  1.00  0.00     0.214 HD
ENDBRANCH  22  25
ENDBRANCH   1  22
BRANCH  12  27
HETATM   27  O6  UNL     1      38.398   0.532  24.437  1.00  0.00    -0.289 OA
BRANCH  27  28
HETATM   28  C12 UNL     1      37.180  -0.042  24.186  1.00  0.00     0.373 C 
HETATM   29  N5  UNL     1      37.100  -1.469  23.983  1.00  0.00    -0.032 NA
HETATM   30  O7  UNL     1      36.160   0.680  24.139  1.00  0.00    -0.242 OA
ENDBRANCH  27  28
ENDBRANCH  12  27
TORSDOF 7
ENDMDL
MODEL 3
REMARK VINA RESULT: -5.725477411      1.931      4.172
REMARK  7 active torsions:
REMARK  status: ('A' for Active; 'I' for Inactive)
REMARK    1  A    between atoms: O1_2  and  C2_3 
REMARK    2  A    between atoms: C2_3  and  O2_4 
REMARK    3  A    between atoms: C2_3  and  N1_6 
REMARK    4  A    between atoms: C4_9  and  C5_10 
REMARK       I    between atoms: C5_10  and  N2_12 
REMARK    5  A    between atoms: N2_12  and  N3_14 
REMARK       I    between atoms: N3_14  and  C6_16 
REMARK    6  A    between atoms: C11_26  and  O6_27 
REMARK    7  A    between atoms: O6_27  and  C12_28 
ROOT
HETATM    1  N1  UNL     1      37.338  -0.748  22.561  1.00  0.00    -0.342 N 
ATOM      2  H1  UNL     1      36.614  -0.107  22.887  1.00  0.00     0.164 HD
HETATM    3  C3  UNL     1      38.543  -0.483  22.819  1.00  0.00     0.062 C 
HETATM    4  C4  UNL     1      38.667   0.785  23.595  1.00  0.00     0.080 C 
HETATM    5  C8  UNL     1      39.689   1.172  24.328  1.00  0.00     0.154 C 
HETATM    6  O5  UNL     1      40.913   0.562  24.604  1.00  0.00    -0.356 OA
HETATM    7  C9  UNL     1      41.595  -0.518  24.017  1.00  0.00     0.229 C 
HETATM    8  C10 UNL     1      40.630  -1.511  23.541  1.00  0.00     0.040 C 
HETATM    9  N4  UNL     1      40.561  -2.611  24.125  1.00  0.00    -0.401 N 
ATOM     10  H41 UNL     1      39.889  -3.304  23.794  1.00  0.00     0.155 HD
ATOM     11  H42 UNL     1      41.208  -2.722  24.906  1.00  0.00     0.155 HD
HETATM   12  C11 UNL     1      39.669  -1.347  22.380  1.00  0.00     0.231 C 
ENDROOT
BRANCH   4  13
HETATM   13  C5  UNL     1      37.515   1.637  23.536  1.00  0.00     0.274 C 
HETATM   14  O3  UNL     1      36.701   1.607  24.533  1.00  0.00    -0.266 OA
HETATM   15  N2  UNL     1      37.137   2.525  22.520  1.00  0.00    -0.263 N 
ATOM     16  H2  UNL     1      37.727   2.600  21.692  1.00  0.00     0.190 HD
BRANCH  15  17
HETATM   17  N3  UNL     1      35.965   3.326  22.598  1.00  0.00    -0.268 N 
HETATM   18  C6  UNL     1      36.014   4.657  23.039  1.00  0.00     0.232 C 
HETATM   19  C7  UNL     1      34.783   5.469  23.113  1.00  0.00     0.119 C 
HETATM   20  O4  UNL     1      37.097   5.224  23.390  1.00  0.00    -0.272 OA
ATOM     21  H3  UNL     1      35.068   2.923  22.327  1.00  0.00     0.190 HD
ENDBRANCH  15  17
ENDBRANCH   4  13
BRANCH   1  22
HETATM   22  C2  UNL     1      36.944  -1.917  21.826  1.00  0.00     0.367 C 
BRANCH  22  23
HETATM   23  O1  UNL     1      35.876  -2.576  22.447  1.00  0.00    -0.349 OA
HETATM   24  C1  UNL     1      36.225  -3.905  22.642  1.00  0.00     0.206 C 
ENDBRANCH  22  23
BRANCH  22  25
HETATM   25  O2  UNL     1      36.619  -1.661  20.487  1.00  0.00    -0.355 OA
ATOM     26  H2  UNL     1      37.397  -1.377  20.023  1.00  0.00     0.214 HD
ENDBRANCH  22  25
ENDBRANCH   1  22
BRANCH  12  27
HETATM   27  O6  UNL     1      40.441  -0.619  21.411  1.00  0.00    -0.289 OA
BRANCH  27  28
HETATM   28  C12 UNL     1      39.939  -0.061  20.265  1.00  0.00     0.373 C 
HETATM   29  N5  UNL     1      39.358  -0.917  19.258  1.00  0.00    -0.032 NA
HETATM   30  O7  UNL     1      39.993   1.179  20.112  1.00  0.00    -0.242 OA
ENDBRANCH  27  28
ENDBRANCH  12  27
TORSDOF 7
ENDMDL
MODEL 4
REMARK VINA RESULT: -5.704003294      1.910      3.210
REMARK  7 active torsions:
REMARK  status: ('A' for Active; 'I' for Inactive)
REMARK    1  A    between atoms: O1_2  and  C2_3 
REMARK    2  A    between atoms: C2_3  and  O2_4 
REMARK    3  A    between atoms: C2_3  and  N1_6 
REMARK    4  A    between atoms: C4_9  and  C5_10 
REMARK       I    between atoms: C5_10  and  N2_12 
REMARK    5  A    between atoms: N2_12  and  N3_14 
REMARK       I    between atoms: N3_14  and  C6_16 
REMARK    6  A    between atoms: C11_26  and  O6_27 
REMARK    7  A    between atoms: O6_27  and  C12_28 
ROOT
HETATM    1  N1  UNL     1      37.641  -0.209  22.607  1.00  0.00    -0.342 N 
ATOM      2  H1  UNL     1      37.180   0.483  23.197  1.00  0.00     0.164 HD
HETATM    3  C3  UNL     1      38.559   0.171  21.832  1.00  0.00     0.062 C 
HETATM    4  C4  UNL     1      38.797   1.638  21.949  1.00  0.00     0.080 C 
HETATM    5  C8  UNL     1      39.876   2.301  21.585  1.00  0.00     0.154 C 
HETATM    6  O5  UNL     1      41.072   1.874  21.010  1.00  0.00    -0.356 OA
HETATM    7  C9  UNL     1      41.458   0.676  20.384  1.00  0.00     0.229 C 
HETATM    8  C10 UNL     1      40.767  -0.452  21.011  1.00  0.00     0.040 C 
HETATM    9  N4  UNL     1      41.431  -1.260  21.691  1.00  0.00    -0.401 N 
ATOM     10  H41 UNL     1      40.950  -2.047  22.129  1.00  0.00     0.155 HD
ATOM     11  H42 UNL     1      42.429  -1.055  21.748  1.00  0.00     0.155 HD
HETATM   12  C11 UNL     1      39.285  -0.759  20.928  1.00  0.00     0.231 C 
ENDROOT
BRANCH   4  13
HETATM   13  C5  UNL     1      37.724   2.372  22.554  1.00  0.00     0.274 C 
HETATM   14  O3  UNL     1      37.689   2.422  23.840  1.00  0.00    -0.266 OA
HETATM   15  N2  UNL     1      36.678   3.064  21.930  1.00  0.00    -0.263 N 
ATOM     16  H2  UNL     1      36.631   3.064  20.911  1.00  0.00     0.190 HD
BRANCH  15  17
HETATM   17  N3  UNL     1      35.679   3.765  22.659  1.00  0.00    -0.268 N 
HETATM   18  C6  UNL     1      35.670   5.167  22.728  1.00  0.00     0.232 C 
HETATM   19  C7  UNL     1      34.623   5.873  23.494  1.00  0.00     0.119 C 
HETATM   20  O4  UNL     1      36.542   5.888  22.149  1.00  0.00    -0.272 OA
ATOM     21  H3  UNL     1      34.953   3.237  23.143  1.00  0.00     0.190 HD
ENDBRANCH  15  17
ENDBRANCH   4  13
BRANCH   1  22
HETATM   22  C2  UNL     1      37.218  -1.578  22.691  1.00  0.00     0.367 C 
BRANCH  22  23
HETATM   23  O1  UNL     1      37.692  -2.189  23.859  1.00  0.00    -0.349 OA
HETATM   24  C1  UNL     1      38.375  -3.346  23.511  1.00  0.00     0.206 C 
ENDBRANCH  22  23
BRANCH  22  25
HETATM   25  O2  UNL     1      35.829  -1.749  22.608  1.00  0.00    -0.355 OA
ATOM     26  H2  UNL     1      35.637  -2.634  22.321  1.00  0.00     0.214 HD
ENDBRANCH  22  25
ENDBRANCH   1  22
BRANCH  12  27
HETATM   27  O6  UNL     1      38.951  -0.416  19.573  1.00  0.00    -0.289 OA
BRANCH  27  28
HETATM   28  C12 UNL     1      38.056  -1.093  18.788  1.00  0.00     0.373 C 
HETATM   29  N5  UNL     1      38.467  -2.318  18.143  1.00  0.00    -0.032 NA
HETATM   30  O7  UNL     1      36.899  -0.639  18.645  1.00  0.00    -0.242 OA
ENDBRANCH  27  28
ENDBRANCH  12  27
TORSDOF 7
ENDMDL
MODEL 5
REMARK VINA RESULT: -5.700636746      2.466      4.741
REMARK  7 active torsions:
REMARK  status: ('A' for Active; 'I' for Inactive)
REMARK    1  A    between atoms: O1_2  and  C2_3 
REMARK    2  A    between atoms: C2_3  and  O2_4 
REMARK    3  A    between atoms: C2_3  and  N1_6 
REMARK    4  A    between atoms: C4_9  and  C5_10 
REMARK       I    between atoms: C5_10  and  N2_12 
REMARK    5  A    between atoms: N2_12  and  N3_14 
REMARK       I    between atoms: N3_14  and  C6_16 
REMARK    6  A    between atoms: C11_26  and  O6_27 
REMARK    7  A    between atoms: O6_27  and  C12_28 
ROOT
HETATM    1  N1  UNL     1      37.644   4.326  22.367  1.00  0.00    -0.342 N 
ATOM      2  H1  UNL     1      36.845   4.959  22.396  1.00  0.00     0.164 HD
HETATM    3  C3  UNL     1      37.598   3.261  23.037  1.00  0.00     0.062 C 
HETATM    4  C4  UNL     1      36.308   3.137  23.775  1.00  0.00     0.080 C 
HETATM    5  C8  UNL     1      35.773   2.037  24.262  1.00  0.00     0.154 C 
HETATM    6  O5  UNL     1      36.208   0.712  24.248  1.00  0.00    -0.356 OA
HETATM    7  C9  UNL     1      37.449   0.118  23.961  1.00  0.00     0.229 C 
HETATM    8  C10 UNL     1      38.135   0.887  22.921  1.00  0.00     0.040 C 
HETATM    9  N4  UNL     1      38.273   0.379  21.790  1.00  0.00    -0.401 N 
ATOM     10  H41 UNL     1      38.751   0.915  21.065  1.00  0.00     0.155 HD
ATOM     11  H42 UNL     1      37.883  -0.558  21.691  1.00  0.00     0.155 HD
HETATM   12  C11 UNL     1      38.714   2.280  23.067  1.00  0.00     0.231 C 
ENDROOT
BRANCH   4  13
HETATM   13  C5  UNL     1      35.585   4.366  23.924  1.00  0.00     0.274 C 
HETATM   14  O3  UNL     1      34.954   4.815  22.896  1.00  0.00    -0.266 OA
HETATM   15  N2  UNL     1      35.460   5.172  25.064  1.00  0.00    -0.263 N 
ATOM     16  H2  UNL     1      35.938   4.888  25.919  1.00  0.00     0.190 HD
BRANCH  15  17
HETATM   17  N3  UNL     1      34.694   6.370  25.076  1.00  0.00    -0.268 N 
HETATM   18  C6  UNL     1      35.305   7.632  25.026  1.00  0.00     0.232 C 
HETATM   19  C7  UNL     1      34.489   8.862  25.042  1.00  0.00     0.119 C 
HETATM   20  O4  UNL     1      36.567   7.782  24.966  1.00  0.00    -0.272 OA
ATOM     21  H3  UNL     1      33.677   6.310  25.122  1.00  0.00     0.190 HD
ENDBRANCH  15  17
ENDBRANCH   4  13
BRANCH   1  22
HETATM   22  C2  UNL     1      38.778   4.686  21.563  1.00  0.00     0.367 C 
BRANCH  22  23
HETATM   23  O1  UNL     1      38.549   4.419  20.208  1.00  0.00    -0.349 OA
HETATM   24  C1  UNL     1      39.593   3.643  19.723  1.00  0.00     0.206 C 
ENDBRANCH  22  23
BRANCH  22  25
HETATM   25  O2  UNL     1      39.180   6.020  21.714  1.00  0.00    -0.355 OA
ATOM     26  H2  UNL     1      38.465   6.524  22.084  1.00  0.00     0.214 HD
ENDBRANCH  22  25
ENDBRANCH   1  22
BRANCH  12  27
HETATM   27  O6  UNL     1      39.267   2.272  24.394  1.00  0.00    -0.289 OA
BRANCH  27  28
HETATM   28  C12 UNL     1      40.487   2.787  24.741  1.00  0.00     0.373 C 
HETATM   29  N5  UNL     1      41.295   2.094  25.717  1.00  0.00    -0.032 NA
HETATM   30  O7  UNL     1      40.881   3.847  24.206  1.00  0.00    -0.242 OA
ENDBRANCH  27  28
ENDBRANCH  12  27
TORSDOF 7
ENDMDL
