MODEL 1
REMARK VINA RESULT: -8.185534936      0.000      0.000
REMARK  7 active torsions:
REMARK  status: ('A' for Active; 'I' for Inactive)
REMARK    1  A    between atoms: C2_2  and  C3_7 
REMARK    2  A    between atoms: N1_3  and  O1_5 
REMARK    3  A    between atoms: N2_10  and  O2_11 
REMARK    4  A    between atoms: C6_13  and  O3_14 
REMARK    5  A    between atoms: C7_16  and  O4_18 
REMARK    6  A    between atoms: O4_18  and  C9_19 
REMARK    7  A    between atoms: C9_19  and  C10_20 
ROOT
HETATM    1  C3  UNL     1      29.271   8.963   2.493  1.00  0.00     0.050 A 
HETATM    2  C4  UNL     1      28.607   9.406   1.362  1.00  0.00    -0.007 A 
HETATM    3  C5  UNL     1      29.191  10.608   1.022  1.00  0.00     0.090 A 
HETATM    4  N2  UNL     1      30.171  10.864   1.929  1.00  0.00    -0.201 N 
HETATM    5  C6  UNL     1      30.247   9.880   2.840  1.00  0.00     0.180 A 
HETATM    6  C7  UNL     1      28.541  11.168  -0.189  1.00  0.00     0.168 C 
HETATM    7  C8  UNL     1      27.453  12.110   0.278  1.00  0.00     0.060 C 
HETATM    8  C14 UNL     1      27.839   9.965  -0.788  1.00  0.00     0.283 C 
HETATM    9  F1  UNL     1      26.633  10.318  -1.360  1.00  0.00    -0.202 F 
HETATM   10  F2  UNL     1      28.588   9.319  -1.730  1.00  0.00    -0.202 F 
HETATM   11  C15 UNL     1      27.519   9.064   0.401  1.00  0.00     0.124 C 
ENDROOT
BRANCH   6  12
HETATM   12  O4  UNL     1      29.463  11.744  -1.006  1.00  0.00    -0.367 OA
BRANCH  12  13
HETATM   13  C9  UNL     1      28.994  12.807  -1.753  1.00  0.00     0.177 C 
BRANCH  13  14
HETATM   14  C10 UNL     1      29.230  12.643  -3.223  1.00  0.00    -0.030 C 
HETATM   15  C11 UNL     1      27.990  12.309  -3.995  1.00  0.00     0.016 C 
HETATM   16  C12 UNL     1      30.238  11.522  -3.500  1.00  0.00     0.016 C 
HETATM   17  C13 UNL     1      29.891  13.920  -3.723  1.00  0.00     0.016 C 
ENDBRANCH  13  14
ENDBRANCH  12  13
ENDBRANCH   6  12
BRANCH   4  18
HETATM   18  O2  UNL     1      30.988  11.965   1.941  1.00  0.00    -0.281 OA
ATOM     19  H2  UNL     1      31.418  12.332   2.705  1.00  0.00     0.245 HD
ENDBRANCH   4  18
BRANCH   1  20
HETATM   20  C2  UNL     1      28.980   7.715   3.205  1.00  0.00     0.043 C 
HETATM   21  C1  UNL     1      27.616   7.462   3.722  1.00  0.00     0.071 C 
HETATM   22  N1  UNL     1      29.895   6.839   3.384  1.00  0.00    -0.273 N 
ATOM     23  H1  UNL     1      30.839   7.000   3.032  1.00  0.00     0.194 HD
BRANCH  22  24
HETATM   24  O1  UNL     1      29.597   5.685   4.051  1.00  0.00    -0.290 OA
ATOM     25  H1  UNL     1      29.219   5.735   4.920  1.00  0.00     0.244 HD
ENDBRANCH  22  24
ENDBRANCH   1  20
BRANCH   5  26
HETATM   26  O3  UNL     1      31.125   9.790   3.920  1.00  0.00    -0.344 OA
ATOM     27  H3  UNL     1      31.666   9.043   4.149  1.00  0.00     0.219 HD
ENDBRANCH   5  26
TORSDOF 7
ENDMDL
MODEL 2
REMARK VINA RESULT: -8.108601549      3.474      4.244
REMARK  7 active torsions:
REMARK  status: ('A' for Active; 'I' for Inactive)
REMARK    1  A    between atoms: C2_2  and  C3_7 
REMARK    2  A    between atoms: N1_3  and  O1_5 
REMARK    3  A    between atoms: N2_10  and  O2_11 
REMARK    4  A    between atoms: C6_13  and  O3_14 
REMARK    5  A    between atoms: C7_16  and  O4_18 
REMARK    6  A    between atoms: O4_18  and  C9_19 
REMARK    7  A    between atoms: C9_19  and  C10_20 
ROOT
HETATM    1  C3  UNL     1      29.218  10.927   1.238  1.00  0.00     0.050 A 
HETATM    2  C4  UNL     1      29.394  11.946   0.319  1.00  0.00    -0.007 A 
HETATM    3  C5  UNL     1      30.495  12.658   0.744  1.00  0.00     0.090 A 
HETATM    4  N2  UNL     1      30.954  12.073   1.883  1.00  0.00    -0.201 N 
HETATM    5  C6  UNL     1      30.197  11.013   2.212  1.00  0.00     0.180 A 
HETATM    6  C7  UNL     1      30.766  13.784  -0.184  1.00  0.00     0.168 C 
HETATM    7  C8  UNL     1      30.070  15.006   0.372  1.00  0.00     0.060 C 
HETATM    8  C14 UNL     1      30.005  13.387  -1.434  1.00  0.00     0.283 C 
HETATM    9  F1  UNL     1      29.458  14.489  -2.062  1.00  0.00    -0.202 F 
HETATM   10  F2  UNL     1      30.772  12.714  -2.341  1.00  0.00    -0.202 F 
HETATM   11  C15 UNL     1      28.840  12.539  -0.932  1.00  0.00     0.124 C 
ENDROOT
BRANCH   6  12
HETATM   12  O4  UNL     1      32.104  13.942  -0.370  1.00  0.00    -0.367 OA
BRANCH  12  13
HETATM   13  C9  UNL     1      32.613  15.150   0.067  1.00  0.00     0.177 C 
BRANCH  13  14
HETATM   14  C10 UNL     1      33.981  15.442  -0.470  1.00  0.00    -0.030 C 
HETATM   15  C11 UNL     1      34.339  16.896  -0.439  1.00  0.00     0.016 C 
HETATM   16  C12 UNL     1      34.110  14.986  -1.929  1.00  0.00     0.016 C 
HETATM   17  C13 UNL     1      34.969  14.590   0.314  1.00  0.00     0.016 C 
ENDBRANCH  13  14
ENDBRANCH  12  13
ENDBRANCH   6  12
BRANCH   4  18
HETATM   18  O2  UNL     1      32.037  12.481   2.617  1.00  0.00    -0.281 OA
ATOM     19  H2  UNL     1      32.293  12.144   3.467  1.00  0.00     0.245 HD
ENDBRANCH   4  18
BRANCH   1  20
HETATM   20  C2  UNL     1      28.157   9.917   1.182  1.00  0.00     0.043 C 
HETATM   21  C1  UNL     1      28.074   8.998   0.024  1.00  0.00     0.071 C 
HETATM   22  N1  UNL     1      27.299   9.820   2.127  1.00  0.00    -0.273 N 
ATOM     23  H1  UNL     1      27.345  10.446   2.931  1.00  0.00     0.194 HD
BRANCH  22  24
HETATM   24  O1  UNL     1      26.321   8.870   2.049  1.00  0.00    -0.290 OA
ATOM     25  H1  UNL     1      26.472   8.014   2.432  1.00  0.00     0.244 HD
ENDBRANCH  22  24
ENDBRANCH   1  20
BRANCH   5  26
HETATM   26  O3  UNL     1      30.356  10.165   3.309  1.00  0.00    -0.344 OA
ATOM     27  H3  UNL     1      31.122   9.641   3.512  1.00  0.00     0.219 HD
ENDBRANCH   5  26
TORSDOF 7
ENDMDL
MODEL 3
REMARK VINA RESULT: -8.010050035      1.037      1.098
REMARK  7 active torsions:
REMARK  status: ('A' for Active; 'I' for Inactive)
REMARK    1  A    between atoms: C2_2  and  C3_7 
REMARK    2  A    between atoms: N1_3  and  O1_5 
REMARK    3  A    between atoms: N2_10  and  O2_11 
REMARK    4  A    between atoms: C6_13  and  O3_14 
REMARK    5  A    between atoms: C7_16  and  O4_18 
REMARK    6  A    between atoms: O4_18  and  C9_19 
REMARK    7  A    between atoms: C9_19  and  C10_20 
ROOT
HETATM    1  C3  UNL     1      29.060   8.485   2.927  1.00  0.00     0.050 A 
HETATM    2  C4  UNL     1      28.513   8.862   1.714  1.00  0.00    -0.007 A 
HETATM    3  C5  UNL     1      29.083  10.077   1.397  1.00  0.00     0.090 A 
HETATM    4  N2  UNL     1      29.944  10.405   2.399  1.00  0.00    -0.201 N 
HETATM    5  C6  UNL     1      29.954   9.455   3.347  1.00  0.00     0.180 A 
HETATM    6  C7  UNL     1      28.554  10.570   0.102  1.00  0.00     0.168 C 
HETATM    7  C8  UNL     1      27.384  11.478   0.408  1.00  0.00     0.060 C 
HETATM    8  C14 UNL     1      27.971   9.318  -0.528  1.00  0.00     0.283 C 
HETATM    9  F1  UNL     1      26.825   9.601  -1.244  1.00  0.00    -0.202 F 
HETATM   10  F2  UNL     1      28.847   8.675  -1.355  1.00  0.00    -0.202 F 
HETATM   11  C15 UNL     1      27.554   8.444   0.650  1.00  0.00     0.124 C 
ENDROOT
BRANCH   6  12
HETATM   12  O4  UNL     1      29.539  11.157  -0.628  1.00  0.00    -0.367 OA
BRANCH  12  13
HETATM   13  C9  UNL     1      29.203  12.377  -1.184  1.00  0.00     0.177 C 
BRANCH  13  14
HETATM   14  C10 UNL     1      29.196  12.360  -2.681  1.00  0.00    -0.030 C 
HETATM   15  C11 UNL     1      27.852  12.063  -3.272  1.00  0.00     0.016 C 
HETATM   16  C12 UNL     1      30.162  11.301  -3.227  1.00  0.00     0.016 C 
HETATM   17  C13 UNL     1      29.748  13.698  -3.154  1.00  0.00     0.016 C 
ENDBRANCH  13  14
ENDBRANCH  12  13
ENDBRANCH   6  12
BRANCH   4  18
HETATM   18  O2  UNL     1      30.711  11.539   2.461  1.00  0.00    -0.281 OA
ATOM     19  H2  UNL     1      30.515  12.316   2.971  1.00  0.00     0.245 HD
ENDBRANCH   4  18
BRANCH   1  20
HETATM   20  C2  UNL     1      28.739   7.250   3.648  1.00  0.00     0.043 C 
HETATM   21  C1  UNL     1      29.775   6.206   3.820  1.00  0.00     0.071 C 
HETATM   22  N1  UNL     1      27.569   7.064   4.132  1.00  0.00    -0.273 N 
ATOM     23  H1  UNL     1      26.847   7.775   4.021  1.00  0.00     0.194 HD
BRANCH  22  24
HETATM   24  O1  UNL     1      27.297   5.903   4.799  1.00  0.00    -0.290 OA
ATOM     25  H1  UNL     1      26.393   5.653   4.947  1.00  0.00     0.244 HD
ENDBRANCH  22  24
ENDBRANCH   1  20
BRANCH   5  26
HETATM   26  O3  UNL     1      30.707   9.437   4.522  1.00  0.00    -0.344 OA
ATOM     27  H3  UNL     1      31.646   9.305   4.590  1.00  0.00     0.219 HD
ENDBRANCH   5  26
TORSDOF 7
ENDMDL
MODEL 4
REMARK VINA RESULT: -7.612513296      2.918      6.787
REMARK  7 active torsions:
REMARK  status: ('A' for Active; 'I' for Inactive)
REMARK    1  A    between atoms: C2_2  and  C3_7 
REMARK    2  A    between atoms: N1_3  and  O1_5 
REMARK    3  A    between atoms: N2_10  and  O2_11 
REMARK    4  A    between atoms: C6_13  and  O3_14 
REMARK    5  A    between atoms: C7_16  and  O4_18 
REMARK    6  A    between atoms: O4_18  and  C9_19 
REMARK    7  A    between atoms: C9_19  and  C10_20 
ROOT
HETATM    1  C3  UNL     1      28.012  10.986   0.846  1.00  0.00     0.050 A 
HETATM    2  C4  UNL     1      28.296   9.808   1.515  1.00  0.00    -0.007 A 
HETATM    3  C5  UNL     1      29.006  10.169   2.639  1.00  0.00     0.090 A 
HETATM    4  N2  UNL     1      29.137  11.523   2.632  1.00  0.00    -0.201 N 
HETATM    5  C6  UNL     1      28.540  12.052   1.552  1.00  0.00     0.180 A 
HETATM    6  C7  UNL     1      29.363   8.963   3.428  1.00  0.00     0.168 C 
HETATM    7  C8  UNL     1      30.745   8.532   2.995  1.00  0.00     0.060 C 
HETATM    8  C14 UNL     1      28.401   7.915   2.903  1.00  0.00     0.283 C 
HETATM    9  F1  UNL     1      28.993   6.668   2.854  1.00  0.00    -0.202 F 
HETATM   10  F2  UNL     1      27.256   7.817   3.641  1.00  0.00    -0.202 F 
HETATM   11  C15 UNL     1      28.117   8.329   1.463  1.00  0.00     0.124 C 
ENDROOT
BRANCH   6  12
HETATM   12  O4  UNL     1      29.249   9.210   4.761  1.00  0.00    -0.367 OA
BRANCH  12  13
HETATM   13  C9  UNL     1      30.335   8.818   5.520  1.00  0.00     0.177 C 
BRANCH  13  14
HETATM   14  C10 UNL     1      30.028   7.680   6.444  1.00  0.00    -0.030 C 
HETATM   15  C11 UNL     1      30.269   6.333   5.836  1.00  0.00     0.016 C 
HETATM   16  C12 UNL     1      28.560   7.709   6.887  1.00  0.00     0.016 C 
HETATM   17  C13 UNL     1      30.841   7.892   7.712  1.00  0.00     0.016 C 
ENDBRANCH  13  14
ENDBRANCH  12  13
ENDBRANCH   6  12
BRANCH   4  18
HETATM   18  O2  UNL     1      29.780  12.275   3.581  1.00  0.00    -0.281 OA
ATOM     19  H2  UNL     1      29.898  13.216   3.559  1.00  0.00     0.245 HD
ENDBRANCH   4  18
BRANCH   1  20
HETATM   20  C2  UNL     1      27.266  11.081  -0.412  1.00  0.00     0.043 C 
HETATM   21  C1  UNL     1      27.559  10.138  -1.516  1.00  0.00     0.071 C 
HETATM   22  N1  UNL     1      26.360  11.972  -0.567  1.00  0.00    -0.273 N 
ATOM     23  H1  UNL     1      26.148  12.627   0.186  1.00  0.00     0.194 HD
BRANCH  22  24
HETATM   24  O1  UNL     1      25.680  12.037  -1.750  1.00  0.00    -0.290 OA
ATOM     25  H1  UNL     1      24.878  12.542  -1.798  1.00  0.00     0.244 HD
ENDBRANCH  22  24
ENDBRANCH   1  20
BRANCH   5  26
HETATM   26  O3  UNL     1      28.463  13.401   1.201  1.00  0.00    -0.344 OA
ATOM     27  H3  UNL     1      28.618  13.772   0.340  1.00  0.00     0.219 HD
ENDBRANCH   5  26
TORSDOF 7
ENDMDL
MODEL 5
REMARK VINA RESULT: -7.589659809      3.633      4.288
REMARK  7 active torsions:
REMARK  status: ('A' for Active; 'I' for Inactive)
REMARK    1  A    between atoms: C2_2  and  C3_7 
REMARK    2  A    between atoms: N1_3  and  O1_5 
REMARK    3  A    between atoms: N2_10  and  O2_11 
REMARK    4  A    between atoms: C6_13  and  O3_14 
REMARK    5  A    between atoms: C7_16  and  O4_18 
REMARK    6  A    between atoms: O4_18  and  C9_19 
REMARK    7  A    between atoms: C9_19  and  C10_20 
ROOT
HETATM    1  C3  UNL     1      30.257  10.950   1.700  1.00  0.00     0.050 A 
HETATM    2  C4  UNL     1      30.092  12.023   0.841  1.00  0.00    -0.007 A 
HETATM    3  C5  UNL     1      31.210  12.814   0.999  1.00  0.00     0.090 A 
HETATM    4  N2  UNL     1      32.010  12.222   1.926  1.00  0.00    -0.201 N 
HETATM    5  C6  UNL     1      31.459  11.083   2.373  1.00  0.00     0.180 A 
HETATM    6  C7  UNL     1      31.125  14.002   0.114  1.00  0.00     0.168 C 
HETATM    7  C8  UNL     1      30.518  15.126   0.923  1.00  0.00     0.060 C 
HETATM    8  C14 UNL     1      30.079  13.594  -0.906  1.00  0.00     0.283 C 
HETATM    9  F1  UNL     1      29.296  14.668  -1.282  1.00  0.00    -0.202 F 
HETATM   10  F2  UNL     1      30.614  13.038  -2.033  1.00  0.00    -0.202 F 
HETATM   11  C15 UNL     1      29.169  12.618  -0.167  1.00  0.00     0.124 C 
ENDROOT
BRANCH   6  12
HETATM   12  O4  UNL     1      32.342  14.294  -0.418  1.00  0.00    -0.367 OA
BRANCH  12  13
HETATM   13  C9  UNL     1      32.940  15.432   0.088  1.00  0.00     0.177 C 
BRANCH  13  14
HETATM   14  C10 UNL     1      34.279  15.714  -0.521  1.00  0.00    -0.030 C 
HETATM   15  C11 UNL     1      34.615  17.172  -0.581  1.00  0.00     0.016 C 
HETATM   16  C12 UNL     1      34.356  15.183  -1.958  1.00  0.00     0.016 C 
HETATM   17  C13 UNL     1      35.312  14.918   0.264  1.00  0.00     0.016 C 
ENDBRANCH  13  14
ENDBRANCH  12  13
ENDBRANCH   6  12
BRANCH   4  18
HETATM   18  O2  UNL     1      33.220  12.696   2.364  1.00  0.00    -0.281 OA
ATOM     19  H2  UNL     1      33.716  12.360   3.101  1.00  0.00     0.245 HD
ENDBRANCH   4  18
BRANCH   1  20
HETATM   20  C2  UNL     1      29.304   9.849   1.864  1.00  0.00     0.043 C 
HETATM   21  C1  UNL     1      27.863  10.141   2.040  1.00  0.00     0.071 C 
HETATM   22  N1  UNL     1      29.705   8.634   1.856  1.00  0.00    -0.273 N 
ATOM     23  H1  UNL     1      30.695   8.419   1.735  1.00  0.00     0.194 HD
BRANCH  22  24
HETATM   24  O1  UNL     1      28.795   7.626   2.010  1.00  0.00    -0.290 OA
ATOM     25  H1  UNL     1      28.882   6.837   1.490  1.00  0.00     0.244 HD
ENDBRANCH  22  24
ENDBRANCH   1  20
BRANCH   5  26
HETATM   26  O3  UNL     1      31.981  10.203   3.323  1.00  0.00    -0.344 OA
ATOM     27  H3  UNL     1      32.782   9.698   3.245  1.00  0.00     0.219 HD
ENDBRANCH   5  26
TORSDOF 7
ENDMDL
