MODEL 1
REMARK VINA RESULT: -8.314822187      0.000      0.000
REMARK  5 active torsions:
REMARK  status: ('A' for Active; 'I' for Inactive)
REMARK    1  A    between atoms: C4_7  and  C5_8 
REMARK    2  A    between atoms: C5_8  and  C6_9 
REMARK    3  A    between atoms: C8_16  and  N3_17 
REMARK    4  A    between atoms: C10_21  and  C11_22 
REMARK    5  A    between atoms: C11_22  and  C12_24 
ROOT
HETATM    1  C1  UNL     1      26.344  12.214  -0.760  1.00  0.00     0.069 C 
HETATM    2  C2  UNL     1      27.697  12.749  -0.654  1.00  0.00     0.022 A 
HETATM    3  N1  UNL     1      28.005  13.591   0.383  1.00  0.00    -0.326 N 
ATOM      4  H1  UNL     1      27.276  13.845   1.050  1.00  0.00     0.169 HD
HETATM    5  C3  UNL     1      29.231  14.084   0.541  1.00  0.00     0.256 A 
HETATM    6  O1  UNL     1      29.481  14.846   1.491  1.00  0.00    -0.267 OA
HETATM    7  C4  UNL     1      30.280  13.783  -0.329  1.00  0.00     0.034 A 
HETATM    8  C9  UNL     1      29.991  12.941  -1.372  1.00  0.00     0.034 A 
HETATM    9  C10 UNL     1      28.701  12.418  -1.550  1.00  0.00     0.037 A 
ENDROOT
BRANCH   7  10
HETATM   10  C5  UNL     1      31.572  14.436  -0.151  1.00  0.00     0.038 C 
BRANCH  10  11
HETATM   11  C6  UNL     1      32.606  14.060   0.512  1.00  0.00     0.042 C 
HETATM   12  S1  UNL     1      34.314  14.331  -0.043  1.00  0.00    -0.063 SA
HETATM   13  C7  UNL     1      35.212  13.071   0.833  1.00  0.00     0.112 C 
HETATM   14  N2  UNL     1      36.437  12.832   0.775  1.00  0.00    -0.388 N 
HETATM   15  S2  UNL     1      34.001  12.205   1.812  1.00  0.00    -0.047 SA
ATOM     16  H22 UNL     1      37.130  13.327   0.215  1.00  0.00     0.157 HD
ATOM     17  H21 UNL     1      36.952  12.108   1.277  1.00  0.00     0.157 HD
HETATM   18  C8  UNL     1      32.650  13.420   1.807  1.00  0.00     0.087 C 
BRANCH  18  19
HETATM   19  N3  UNL     1      31.924  13.628   2.832  1.00  0.00    -0.392 N 
ATOM     20  H32 UNL     1      31.774  14.565   3.208  1.00  0.00     0.156 HD
ATOM     21  H31 UNL     1      31.397  12.961   3.395  1.00  0.00     0.156 HD
ENDBRANCH  18  19
ENDBRANCH  10  11
ENDBRANCH   7  10
BRANCH   9  22
HETATM   22  C11 UNL     1      28.374  11.650  -2.733  1.00  0.00     0.189 C 
HETATM   23  O2  UNL     1      28.424  10.361  -2.577  1.00  0.00    -0.287 OA
BRANCH  22  24
HETATM   24  C12 UNL     1      28.010  12.105  -4.028  1.00  0.00     0.129 C 
HETATM   25  C13 UNL     1      26.841  12.373  -4.545  1.00  0.00     0.271 C 
HETATM   26  F1  UNL     1      26.709  12.799  -5.823  1.00  0.00    -0.173 F 
HETATM   27  F2  UNL     1      25.728  12.270  -3.818  1.00  0.00    -0.173 F 
ENDBRANCH  22  24
ENDBRANCH   9  22
TORSDOF 5
ENDMDL
MODEL 2
REMARK VINA RESULT: -8.255389779      3.769      4.542
REMARK  5 active torsions:
REMARK  status: ('A' for Active; 'I' for Inactive)
REMARK    1  A    between atoms: C4_7  and  C5_8 
REMARK    2  A    between atoms: C5_8  and  C6_9 
REMARK    3  A    between atoms: C8_16  and  N3_17 
REMARK    4  A    between atoms: C10_21  and  C11_22 
REMARK    5  A    between atoms: C11_22  and  C12_24 
ROOT
HETATM    1  C1  UNL     1      29.557  14.095  -1.717  1.00  0.00     0.069 C 
HETATM    2  C2  UNL     1      29.449  13.194  -0.575  1.00  0.00     0.022 A 
HETATM    3  N1  UNL     1      29.883  13.617   0.654  1.00  0.00    -0.326 N 
ATOM      4  H1  UNL     1      30.294  14.546   0.744  1.00  0.00     0.169 HD
HETATM    5  C3  UNL     1      29.782  12.845   1.734  1.00  0.00     0.256 A 
HETATM    6  O1  UNL     1      30.186  13.255   2.836  1.00  0.00    -0.267 OA
HETATM    7  C4  UNL     1      29.232  11.563   1.692  1.00  0.00     0.034 A 
HETATM    8  C9  UNL     1      28.790  11.123   0.470  1.00  0.00     0.034 A 
HETATM    9  C10 UNL     1      28.895  11.928  -0.675  1.00  0.00     0.037 A 
ENDROOT
BRANCH   7  10
HETATM   10  C5  UNL     1      29.242  10.736   2.893  1.00  0.00     0.038 C 
BRANCH  10  11
HETATM   11  C6  UNL     1      29.815   9.609   3.118  1.00  0.00     0.042 C 
HETATM   12  S1  UNL     1      28.989   8.001   2.928  1.00  0.00    -0.063 SA
HETATM   13  C7  UNL     1      29.954   6.943   3.981  1.00  0.00     0.112 C 
HETATM   14  N2  UNL     1      29.774   5.726   4.205  1.00  0.00    -0.388 N 
HETATM   15  S2  UNL     1      31.235   7.975   4.664  1.00  0.00    -0.047 SA
ATOM     16  H22 UNL     1      29.041   5.136   3.814  1.00  0.00     0.157 HD
ATOM     17  H21 UNL     1      30.327   5.119   4.810  1.00  0.00     0.157 HD
HETATM   18  C8  UNL     1      31.188   9.367   3.496  1.00  0.00     0.087 C 
BRANCH  18  19
HETATM   19  N3  UNL     1      32.246   9.959   3.108  1.00  0.00    -0.392 N 
ATOM     20  H32 UNL     1      32.744  10.623   3.701  1.00  0.00     0.156 HD
ATOM     21  H31 UNL     1      32.750   9.867   2.226  1.00  0.00     0.156 HD
ENDBRANCH  18  19
ENDBRANCH  10  11
ENDBRANCH   7  10
BRANCH   9  22
HETATM   22  C11 UNL     1      28.560  11.399  -1.981  1.00  0.00     0.189 C 
HETATM   23  O2  UNL     1      29.492  10.680  -2.532  1.00  0.00    -0.287 OA
BRANCH  22  24
HETATM   24  C12 UNL     1      27.367  11.554  -2.735  1.00  0.00     0.129 C 
HETATM   25  C13 UNL     1      27.131  12.207  -3.840  1.00  0.00     0.271 C 
HETATM   26  F1  UNL     1      25.900  12.232  -4.403  1.00  0.00    -0.173 F 
HETATM   27  F2  UNL     1      28.108  12.849  -4.481  1.00  0.00    -0.173 F 
ENDBRANCH  22  24
ENDBRANCH   9  22
TORSDOF 5
ENDMDL
MODEL 3
REMARK VINA RESULT: -8.089143831      4.354      6.031
REMARK  5 active torsions:
REMARK  status: ('A' for Active; 'I' for Inactive)
REMARK    1  A    between atoms: C4_7  and  C5_8 
REMARK    2  A    between atoms: C5_8  and  C6_9 
REMARK    3  A    between atoms: C8_16  and  N3_17 
REMARK    4  A    between atoms: C10_21  and  C11_22 
REMARK    5  A    between atoms: C11_22  and  C12_24 
ROOT
HETATM    1  C1  UNL     1      29.244  13.710  -2.306  1.00  0.00     0.069 C 
HETATM    2  C2  UNL     1      29.128  12.532  -1.454  1.00  0.00     0.022 A 
HETATM    3  N1  UNL     1      28.731  11.342  -2.007  1.00  0.00    -0.326 N 
ATOM      4  H1  UNL     1      28.503  11.307  -3.001  1.00  0.00     0.169 HD
HETATM    5  C3  UNL     1      28.636  10.231  -1.280  1.00  0.00     0.256 A 
HETATM    6  O1  UNL     1      28.273   9.166  -1.808  1.00  0.00    -0.267 OA
HETATM    7  C4  UNL     1      28.931  10.199   0.084  1.00  0.00     0.034 A 
HETATM    8  C9  UNL     1      29.332  11.380   0.655  1.00  0.00     0.034 A 
HETATM    9  C10 UNL     1      29.432  12.558  -0.103  1.00  0.00     0.037 A 
ENDROOT
BRANCH   7  10
HETATM   10  C5  UNL     1      28.712   8.970   0.839  1.00  0.00     0.038 C 
BRANCH  10  11
HETATM   11  C6  UNL     1      28.861   8.730   2.091  1.00  0.00     0.042 C 
HETATM   12  S1  UNL     1      30.480   8.549   2.898  1.00  0.00    -0.063 SA
HETATM   13  C7  UNL     1      30.087   7.592   4.344  1.00  0.00     0.112 C 
HETATM   14  N2  UNL     1      30.877   7.189   5.225  1.00  0.00    -0.388 N 
HETATM   15  S2  UNL     1      28.328   7.316   4.281  1.00  0.00    -0.047 SA
ATOM     16  H22 UNL     1      31.884   7.347   5.261  1.00  0.00     0.157 HD
ATOM     17  H21 UNL     1      30.652   6.639   6.055  1.00  0.00     0.157 HD
HETATM   18  C8  UNL     1      27.838   8.612   3.105  1.00  0.00     0.087 C 
BRANCH  18  19
HETATM   19  N3  UNL     1      26.761   9.277   3.242  1.00  0.00    -0.392 N 
ATOM     20  H32 UNL     1      26.763  10.262   3.506  1.00  0.00     0.156 HD
ATOM     21  H31 UNL     1      25.796   8.977   3.105  1.00  0.00     0.156 HD
ENDBRANCH  18  19
ENDBRANCH  10  11
ENDBRANCH   7  10
BRANCH   9  22
HETATM   22  C11 UNL     1      29.714  13.824   0.540  1.00  0.00     0.189 C 
HETATM   23  O2  UNL     1      30.976  14.120   0.630  1.00  0.00    -0.287 OA
BRANCH  22  24
HETATM   24  C12 UNL     1      28.811  14.779   1.079  1.00  0.00     0.129 C 
HETATM   25  C13 UNL     1      27.695  14.624   1.740  1.00  0.00     0.271 C 
HETATM   26  F1  UNL     1      26.971  15.684   2.170  1.00  0.00    -0.173 F 
HETATM   27  F2  UNL     1      27.242  13.410   2.050  1.00  0.00    -0.173 F 
ENDBRANCH  22  24
ENDBRANCH   9  22
TORSDOF 5
ENDMDL
MODEL 4
REMARK VINA RESULT: -8.027065425      4.446      5.480
REMARK  5 active torsions:
REMARK  status: ('A' for Active; 'I' for Inactive)
REMARK    1  A    between atoms: C4_7  and  C5_8 
REMARK    2  A    between atoms: C5_8  and  C6_9 
REMARK    3  A    between atoms: C8_16  and  N3_17 
REMARK    4  A    between atoms: C10_21  and  C11_22 
REMARK    5  A    between atoms: C11_22  and  C12_24 
ROOT
HETATM    1  C1  UNL     1      27.205  11.496  -2.379  1.00  0.00     0.069 C 
HETATM    2  C2  UNL     1      27.577  11.070  -1.034  1.00  0.00     0.022 A 
HETATM    3  N1  UNL     1      26.938   9.996  -0.472  1.00  0.00    -0.326 N 
ATOM      4  H1  UNL     1      26.199   9.527  -0.996  1.00  0.00     0.169 HD
HETATM    5  C3  UNL     1      27.258   9.549   0.740  1.00  0.00     0.256 A 
HETATM    6  O1  UNL     1      26.662   8.573   1.226  1.00  0.00    -0.267 OA
HETATM    7  C4  UNL     1      28.258  10.137   1.517  1.00  0.00     0.034 A 
HETATM    8  C9  UNL     1      28.910  11.212   0.971  1.00  0.00     0.034 A 
HETATM    9  C10 UNL     1      28.577  11.693  -0.306  1.00  0.00     0.037 A 
ENDROOT
BRANCH   7  10
HETATM   10  C5  UNL     1      28.490   9.656   2.875  1.00  0.00     0.038 C 
BRANCH  10  11
HETATM   11  C6  UNL     1      29.403   8.880   3.334  1.00  0.00     0.042 C 
HETATM   12  S1  UNL     1      29.178   7.094   3.586  1.00  0.00    -0.063 SA
HETATM   13  C7  UNL     1      30.411   6.716   4.808  1.00  0.00     0.112 C 
HETATM   14  N2  UNL     1      30.648   5.605   5.330  1.00  0.00    -0.388 N 
HETATM   15  S2  UNL     1      31.246   8.253   5.149  1.00  0.00    -0.047 SA
ATOM     16  H22 UNL     1      30.170   4.725   5.136  1.00  0.00     0.157 HD
ATOM     17  H21 UNL     1      31.355   5.387   6.032  1.00  0.00     0.157 HD
HETATM   18  C8  UNL     1      30.765   9.214   3.683  1.00  0.00     0.087 C 
BRANCH  18  19
HETATM   19  N3  UNL     1      31.572  10.012   3.104  1.00  0.00    -0.392 N 
ATOM     20  H32 UNL     1      32.335   9.677   2.516  1.00  0.00     0.156 HD
ATOM     21  H31 UNL     1      31.583  11.032   3.108  1.00  0.00     0.156 HD
ENDBRANCH  18  19
ENDBRANCH  10  11
ENDBRANCH   7  10
BRANCH   9  22
HETATM   22  C11 UNL     1      29.170  12.915  -0.810  1.00  0.00     0.189 C 
HETATM   23  O2  UNL     1      28.561  14.004  -0.447  1.00  0.00    -0.287 OA
BRANCH  22  24
HETATM   24  C12 UNL     1      30.311  13.085  -1.636  1.00  0.00     0.129 C 
HETATM   25  C13 UNL     1      30.417  13.452  -2.885  1.00  0.00     0.271 C 
HETATM   26  F1  UNL     1      31.620  13.550  -3.499  1.00  0.00    -0.173 F 
HETATM   27  F2  UNL     1      29.340  13.780  -3.599  1.00  0.00    -0.173 F 
ENDBRANCH  22  24
ENDBRANCH   9  22
TORSDOF 5
ENDMDL
MODEL 5
REMARK VINA RESULT: -8.000895631      4.763      5.847
REMARK  5 active torsions:
REMARK  status: ('A' for Active; 'I' for Inactive)
REMARK    1  A    between atoms: C4_7  and  C5_8 
REMARK    2  A    between atoms: C5_8  and  C6_9 
REMARK    3  A    between atoms: C8_16  and  N3_17 
REMARK    4  A    between atoms: C10_21  and  C11_22 
REMARK    5  A    between atoms: C11_22  and  C12_24 
ROOT
HETATM    1  C1  UNL     1      27.414  11.648  -2.378  1.00  0.00     0.069 C 
HETATM    2  C2  UNL     1      27.746  11.192  -1.033  1.00  0.00     0.022 A 
HETATM    3  N1  UNL     1      27.023  10.169  -0.476  1.00  0.00    -0.326 N 
ATOM      4  H1  UNL     1      26.251   9.760  -1.004  1.00  0.00     0.169 HD
HETATM    5  C3  UNL     1      27.302   9.696   0.736  1.00  0.00     0.256 A 
HETATM    6  O1  UNL     1      26.629   8.768   1.216  1.00  0.00    -0.267 OA
HETATM    7  C4  UNL     1      28.341  10.202   1.519  1.00  0.00     0.034 A 
HETATM    8  C9  UNL     1      29.077  11.224   0.977  1.00  0.00     0.034 A 
HETATM    9  C10 UNL     1      28.788  11.733  -0.299  1.00  0.00     0.037 A 
ENDROOT
BRANCH   7  10
HETATM   10  C5  UNL     1      28.529   9.701   2.876  1.00  0.00     0.038 C 
BRANCH  10  11
HETATM   11  C6  UNL     1      29.413   8.898   3.348  1.00  0.00     0.042 C 
HETATM   12  S1  UNL     1      29.138   7.117   3.578  1.00  0.00    -0.063 SA
HETATM   13  C7  UNL     1      30.335   6.697   4.824  1.00  0.00     0.112 C 
HETATM   14  N2  UNL     1      30.532   5.576   5.341  1.00  0.00    -0.388 N 
HETATM   15  S2  UNL     1      31.199   8.211   5.196  1.00  0.00    -0.047 SA
ATOM     16  H22 UNL     1      30.038   4.710   5.127  1.00  0.00     0.157 HD
ATOM     17  H21 UNL     1      31.219   5.336   6.056  1.00  0.00     0.157 HD
HETATM   18  C8  UNL     1      30.775   9.196   3.729  1.00  0.00     0.087 C 
BRANCH  18  19
HETATM   19  N3  UNL     1      31.613   9.979   3.176  1.00  0.00    -0.392 N 
ATOM     20  H32 UNL     1      32.463   9.633   2.729  1.00  0.00     0.156 HD
ATOM     21  H31 UNL     1      31.576  10.992   3.071  1.00  0.00     0.156 HD
ENDBRANCH  18  19
ENDBRANCH  10  11
ENDBRANCH   7  10
BRANCH   9  22
HETATM   22  C11 UNL     1      29.476  12.906  -0.797  1.00  0.00     0.189 C 
HETATM   23  O2  UNL     1      30.418  12.659  -1.658  1.00  0.00    -0.287 OA
BRANCH  22  24
HETATM   24  C12 UNL     1      29.267  14.273  -0.478  1.00  0.00     0.129 C 
HETATM   25  C13 UNL     1      29.640  14.979   0.556  1.00  0.00     0.271 C 
HETATM   26  F1  UNL     1      29.330  16.291   0.671  1.00  0.00    -0.173 F 
HETATM   27  F2  UNL     1      30.377  14.438   1.527  1.00  0.00    -0.173 F 
ENDBRANCH  22  24
ENDBRANCH   9  22
TORSDOF 5
ENDMDL
