MODEL 1
REMARK VINA RESULT: -4.992315865      0.000      0.000
REMARK  2 active torsions:
REMARK  status: ('A' for Active; 'I' for Inactive)
REMARK    1  A    between atoms: C2_2  and  N1_4 
REMARK    2  A    between atoms: N1_4  and  C4_5 
ROOT
HETATM    1  N1  UNL     1       8.613   9.170  49.693  1.00  0.00    -0.035 N 
HETATM    2  C7  UNL     1       9.452   7.977  49.481  1.00  0.00     0.242 C 
HETATM    3  C8  UNL     1      10.623   8.854  49.186  1.00  0.00     0.056 C 
HETATM    4  C9  UNL     1       9.530   9.872  48.833  1.00  0.00     0.242 C 
ENDROOT
BRANCH   1   5
HETATM    5  C2  UNL     1       8.728   9.557  51.083  1.00  0.00     0.185 C 
HETATM    6  C1  UNL     1       8.304   8.417  51.996  1.00  0.00     0.040 C 
HETATM    7  C3  UNL     1       8.006  10.819  51.420  1.00  0.00     0.040 C 
ENDBRANCH   1   5
BRANCH   1   8
HETATM    8  C4  UNL     1       7.303   8.926  49.197  1.00  0.00     0.389 C 
HETATM    9  C5  UNL     1       6.976   7.548  48.728  1.00  0.00     0.090 C 
HETATM   10  C6  UNL     1       6.322   8.198  47.507  1.00  0.00     0.238 C 
HETATM   11  N2  UNL     1       6.997   9.420  47.874  1.00  0.00    -0.045 N 
ATOM     12  H22 UNL     1       6.500  10.306  47.780  1.00  0.00     0.279 HD
ATOM     13  H21 UNL     1       7.757   9.760  47.285  1.00  0.00     0.279 HD
ENDBRANCH   1   8
TORSDOF 2
ENDMDL
MODEL 2
REMARK VINA RESULT: -4.976528543      1.484      3.170
REMARK  2 active torsions:
REMARK  status: ('A' for Active; 'I' for Inactive)
REMARK    1  A    between atoms: C2_2  and  N1_4 
REMARK    2  A    between atoms: N1_4  and  C4_5 
ROOT
HETATM    1  N1  UNL     1       8.712  10.003  49.766  1.00  0.00    -0.035 N 
HETATM    2  C7  UNL     1       8.037   8.884  49.084  1.00  0.00     0.242 C 
HETATM    3  C8  UNL     1       7.629   9.803  47.981  1.00  0.00     0.056 C 
HETATM    4  C9  UNL     1       7.803  10.874  49.067  1.00  0.00     0.242 C 
ENDROOT
BRANCH   1   5
HETATM    5  C2  UNL     1      10.069  10.078  49.269  1.00  0.00     0.185 C 
HETATM    6  C1  UNL     1      10.762   8.730  49.388  1.00  0.00     0.040 C 
HETATM    7  C3  UNL     1      10.880  11.163  49.895  1.00  0.00     0.040 C 
ENDBRANCH   1   5
BRANCH   1   8
HETATM    8  C4  UNL     1       8.545   9.873  51.172  1.00  0.00     0.389 C 
HETATM    9  C5  UNL     1       7.909   8.627  51.692  1.00  0.00     0.090 C 
HETATM   10  C6  UNL     1       7.068   9.523  52.603  1.00  0.00     0.238 C 
HETATM   11  N2  UNL     1       7.482  10.638  51.784  1.00  0.00    -0.045 N 
ATOM     12  H22 UNL     1       7.708  11.525  52.235  1.00  0.00     0.279 HD
ATOM     13  H21 UNL     1       6.794  11.093  51.185  1.00  0.00     0.279 HD
ENDBRANCH   1   8
TORSDOF 2
ENDMDL
MODEL 3
REMARK VINA RESULT: -4.853475104      1.505      2.391
REMARK  2 active torsions:
REMARK  status: ('A' for Active; 'I' for Inactive)
REMARK    1  A    between atoms: C2_2  and  N1_4 
REMARK    2  A    between atoms: N1_4  and  C4_5 
ROOT
HETATM    1  N1  UNL     1       8.247   9.521  48.947  1.00  0.00    -0.035 N 
HETATM    2  C7  UNL     1       8.098   9.859  47.520  1.00  0.00     0.242 C 
HETATM    3  C8  UNL     1       8.185  11.311  47.855  1.00  0.00     0.056 C 
HETATM    4  C9  UNL     1       7.708  10.826  49.231  1.00  0.00     0.242 C 
ENDROOT
BRANCH   1   5
HETATM    5  C2  UNL     1       9.661   9.414  49.237  1.00  0.00     0.185 C 
HETATM    6  C1  UNL     1      10.227   8.114  48.686  1.00  0.00     0.040 C 
HETATM    7  C3  UNL     1       9.995   9.582  50.681  1.00  0.00     0.040 C 
ENDBRANCH   1   5
BRANCH   1   8
HETATM    8  C4  UNL     1       7.437   8.395  49.257  1.00  0.00     0.389 C 
HETATM    9  C5  UNL     1       6.688   7.741  48.145  1.00  0.00     0.090 C 
HETATM   10  C6  UNL     1       5.475   7.712  49.075  1.00  0.00     0.238 C 
HETATM   11  N2  UNL     1       6.177   8.651  49.918  1.00  0.00    -0.045 N 
ATOM     12  H22 UNL     1       6.120   8.544  50.932  1.00  0.00     0.279 HD
ATOM     13  H21 UNL     1       5.837   9.610  49.979  1.00  0.00     0.279 HD
ENDBRANCH   1   8
TORSDOF 2
ENDMDL
MODEL 4
REMARK VINA RESULT: -4.756282824      1.505      2.105
REMARK  2 active torsions:
REMARK  status: ('A' for Active; 'I' for Inactive)
REMARK    1  A    between atoms: C2_2  and  N1_4 
REMARK    2  A    between atoms: N1_4  and  C4_5 
ROOT
HETATM    1  N1  UNL     1       8.784   9.340  49.913  1.00  0.00    -0.035 N 
HETATM    2  C7  UNL     1       9.998   8.698  49.378  1.00  0.00     0.242 C 
HETATM    3  C8  UNL     1      10.778   9.200  50.548  1.00  0.00     0.056 C 
HETATM    4  C9  UNL     1       9.663  10.253  50.597  1.00  0.00     0.242 C 
ENDROOT
BRANCH   1   5
HETATM    5  C2  UNL     1       8.136   8.400  50.802  1.00  0.00     0.185 C 
HETATM    6  C1  UNL     1       7.080   7.596  50.059  1.00  0.00     0.040 C 
HETATM    7  C3  UNL     1       7.574   9.026  52.035  1.00  0.00     0.040 C 
ENDBRANCH   1   5
BRANCH   1   8
HETATM    8  C4  UNL     1       8.006   9.856  48.840  1.00  0.00     0.389 C 
HETATM    9  C5  UNL     1       8.706  10.204  47.569  1.00  0.00     0.090 C 
HETATM   10  C6  UNL     1       7.898  11.503  47.565  1.00  0.00     0.238 C 
HETATM   11  N2  UNL     1       7.570  11.230  48.944  1.00  0.00    -0.045 N 
ATOM     12  H22 UNL     1       6.624  11.425  49.275  1.00  0.00     0.279 HD
ATOM     13  H21 UNL     1       7.969  11.822  49.673  1.00  0.00     0.279 HD
ENDBRANCH   1   8
TORSDOF 2
ENDMDL
MODEL 5
REMARK VINA RESULT: -4.581066143      1.395      1.972
REMARK  2 active torsions:
REMARK  status: ('A' for Active; 'I' for Inactive)
REMARK    1  A    between atoms: C2_2  and  N1_4 
REMARK    2  A    between atoms: N1_4  and  C4_5 
ROOT
HETATM    1  N1  UNL     1       8.171   9.001  48.402  1.00  0.00    -0.035 N 
HETATM    2  C7  UNL     1       8.692   8.091  49.438  1.00  0.00     0.242 C 
HETATM    3  C8  UNL     1       9.990   8.003  48.707  1.00  0.00     0.056 C 
HETATM    4  C9  UNL     1       9.121   8.397  47.504  1.00  0.00     0.242 C 
ENDROOT
BRANCH   1   5
HETATM    5  C2  UNL     1       8.522  10.354  48.776  1.00  0.00     0.185 C 
HETATM    6  C1  UNL     1       7.937  10.707  50.134  1.00  0.00     0.040 C 
HETATM    7  C3  UNL     1       8.164  11.376  47.749  1.00  0.00     0.040 C 
ENDBRANCH   1   5
BRANCH   1   8
HETATM    8  C4  UNL     1       6.793   8.730  48.178  1.00  0.00     0.389 C 
HETATM    9  C5  UNL     1       6.218   7.485  48.766  1.00  0.00     0.090 C 
HETATM   10  C6  UNL     1       5.537   7.249  47.418  1.00  0.00     0.238 C 
HETATM   11  N2  UNL     1       6.419   8.250  46.867  1.00  0.00    -0.045 N 
ATOM     12  H22 UNL     1       6.050   8.914  46.185  1.00  0.00     0.279 HD
ATOM     13  H21 UNL     1       7.152   7.960  46.220  1.00  0.00     0.279 HD
ENDBRANCH   1   8
TORSDOF 2
ENDMDL
