MODEL 1
REMARK VINA RESULT: -7.831717290      0.000      0.000
REMARK  8 active torsions:
REMARK  status: ('A' for Active; 'I' for Inactive)
REMARK       I    between atoms: N1_2  and  C2_4 
REMARK    1  A    between atoms: C2_4  and  C3_6 
REMARK    2  A    between atoms: C4_7  and  N2_8 
REMARK    3  A    between atoms: N2_8  and  N3_10 
REMARK    4  A    between atoms: N3_10  and  C5_12 
REMARK    5  A    between atoms: C8_15  and  S1_16 
REMARK    6  A    between atoms: S1_16  and  N4_19 
REMARK    7  A    between atoms: C12_24  and  O4_25 
REMARK    8  A    between atoms: C14_29  and  O6_30 
ROOT
HETATM    1  N3  UNL     1      -8.750  -4.761 -14.508  1.00  0.00    -0.298 N 
ATOM      2  H3  UNL     1      -8.755  -5.490 -13.794  1.00  0.00     0.187 HD
ENDROOT
BRANCH   1   3
HETATM    3  N2  UNL     1      -9.789  -4.512 -15.223  1.00  0.00    -0.297 N 
ATOM      4  H2  UNL     1      -9.830  -3.698 -15.837  1.00  0.00     0.187 HD
BRANCH   3   5
HETATM    5  C4  UNL     1     -10.879  -5.416 -15.122  1.00  0.00     0.091 A 
HETATM    6  C3  UNL     1     -11.939  -5.307 -14.208  1.00  0.00     0.119 A 
HETATM    7  C14 UNL     1     -12.773  -6.373 -14.440  1.00  0.00     0.201 A 
HETATM    8  O5  UNL     1     -12.264  -7.085 -15.425  1.00  0.00    -0.297 OA
HETATM    9  C13 UNL     1     -11.148  -6.548 -15.848  1.00  0.00     0.177 A 
BRANCH   6  10
HETATM   10  C2  UNL     1     -12.055  -4.243 -13.239  1.00  0.00     0.258 C 
HETATM   11  N1  UNL     1     -13.275  -3.826 -12.686  1.00  0.00    -0.361 N 
HETATM   12  C1  UNL     1     -13.340  -2.756 -11.720  1.00  0.00     0.149 C 
ATOM     13  H1  UNL     1     -14.137  -4.290 -12.974  1.00  0.00     0.162 HD
HETATM   14  O1  UNL     1     -11.016  -3.635 -12.849  1.00  0.00    -0.267 OA
ENDBRANCH   6  10
BRANCH   7  15
HETATM   15  O6  UNL     1     -13.963  -6.694 -13.781  1.00  0.00    -0.340 OA
ATOM     16  H6  UNL     1     -14.726  -7.135 -14.135  1.00  0.00     0.220 HD
ENDBRANCH   7  15
ENDBRANCH   3   5
ENDBRANCH   1   3
BRANCH   1  17
HETATM   17  C5  UNL     1      -7.580  -3.965 -14.762  1.00  0.00     0.082 A 
HETATM   18  C6  UNL     1      -6.564  -4.425 -15.567  1.00  0.00     0.035 A 
HETATM   19  C7  UNL     1      -5.429  -3.639 -15.806  1.00  0.00     0.028 A 
HETATM   20  C8  UNL     1      -5.298  -2.389 -15.244  1.00  0.00     0.095 A 
HETATM   21  C11 UNL     1      -6.332  -1.955 -14.442  1.00  0.00     0.069 A 
HETATM   22 BR1  UNL     1      -6.177  -0.221 -13.648  1.00  0.00    -0.046 Br
HETATM   23  C12 UNL     1      -7.454  -2.712 -14.195  1.00  0.00     0.112 A 
BRANCH  20  24
HETATM   24  S1  UNL     1      -3.903  -1.390 -15.525  1.00  0.00     0.244 S 
HETATM   25  O2  UNL     1      -4.263  -0.376 -16.597  1.00  0.00    -0.206 OA
HETATM   26  O3  UNL     1      -3.551  -0.594 -14.302  1.00  0.00    -0.206 OA
BRANCH  24  27
HETATM   27  N4  UNL     1      -2.527  -2.223 -16.051  1.00  0.00    -0.215 NA
HETATM   28  C9  UNL     1      -1.550  -1.454 -16.747  1.00  0.00     0.129 C 
HETATM   29  C10 UNL     1      -1.965  -3.111 -15.059  1.00  0.00     0.129 C 
ENDBRANCH  24  27
ENDBRANCH  20  24
BRANCH  23  30
HETATM   30  O4  UNL     1      -8.495  -2.278 -13.390  1.00  0.00    -0.357 OA
ATOM     31  H4  UNL     1      -9.298  -2.019 -13.826  1.00  0.00     0.217 HD
ENDBRANCH  23  30
ENDBRANCH   1  17
TORSDOF 8
ENDMDL
MODEL 2
REMARK VINA RESULT: -7.761102859      1.411      1.736
REMARK  8 active torsions:
REMARK  status: ('A' for Active; 'I' for Inactive)
REMARK       I    between atoms: N1_2  and  C2_4 
REMARK    1  A    between atoms: C2_4  and  C3_6 
REMARK    2  A    between atoms: C4_7  and  N2_8 
REMARK    3  A    between atoms: N2_8  and  N3_10 
REMARK    4  A    between atoms: N3_10  and  C5_12 
REMARK    5  A    between atoms: C8_15  and  S1_16 
REMARK    6  A    between atoms: S1_16  and  N4_19 
REMARK    7  A    between atoms: C12_24  and  O4_25 
REMARK    8  A    between atoms: C14_29  and  O6_30 
ROOT
HETATM    1  N3  UNL     1      -8.846  -3.307 -13.546  1.00  0.00    -0.298 N 
ATOM      2  H3  UNL     1      -8.879  -3.582 -12.564  1.00  0.00     0.187 HD
ENDROOT
BRANCH   1   3
HETATM    3  N2  UNL     1      -9.913  -3.002 -14.196  1.00  0.00    -0.297 N 
ATOM      4  H2  UNL     1     -10.083  -2.051 -14.523  1.00  0.00     0.187 HD
BRANCH   3   5
HETATM    5  C4  UNL     1     -10.845  -4.044 -14.441  1.00  0.00     0.091 A 
HETATM    6  C3  UNL     1     -11.931  -4.370 -13.611  1.00  0.00     0.119 A 
HETATM    7  C14 UNL     1     -12.577  -5.429 -14.203  1.00  0.00     0.201 A 
HETATM    8  O5  UNL     1     -11.936  -5.731 -15.314  1.00  0.00    -0.297 OA
HETATM    9  C13 UNL     1     -10.912  -4.934 -15.482  1.00  0.00     0.177 A 
BRANCH   6  10
HETATM   10  C2  UNL     1     -12.239  -3.674 -12.385  1.00  0.00     0.258 C 
HETATM   11  N1  UNL     1     -13.537  -3.554 -11.866  1.00  0.00    -0.361 N 
HETATM   12  C1  UNL     1     -13.796  -2.846 -10.635  1.00  0.00     0.149 C 
ATOM     13  H1  UNL     1     -14.317  -3.975 -12.371  1.00  0.00     0.162 HD
HETATM   14  O1  UNL     1     -11.308  -3.132 -11.721  1.00  0.00    -0.267 OA
ENDBRANCH   6  10
BRANCH   7  15
HETATM   15  O6  UNL     1     -13.714  -6.102 -13.751  1.00  0.00    -0.340 OA
ATOM     16  H6  UNL     1     -13.773  -6.987 -13.410  1.00  0.00     0.220 HD
ENDBRANCH   7  15
ENDBRANCH   3   5
ENDBRANCH   1   3
BRANCH   1  17
HETATM   17  C5  UNL     1      -7.604  -3.243 -14.268  1.00  0.00     0.082 A 
HETATM   18  C6  UNL     1      -7.158  -4.306 -15.017  1.00  0.00     0.035 A 
HETATM   19  C7  UNL     1      -5.945  -4.231 -15.715  1.00  0.00     0.028 A 
HETATM   20  C8  UNL     1      -5.170  -3.095 -15.671  1.00  0.00     0.095 A 
HETATM   21  C11 UNL     1      -5.643  -2.046 -14.913  1.00  0.00     0.069 A 
HETATM   22 BR1  UNL     1      -4.584  -0.453 -14.835  1.00  0.00    -0.046 Br
HETATM   23  C12 UNL     1      -6.830  -2.101 -14.220  1.00  0.00     0.112 A 
BRANCH  20  24
HETATM   24  S1  UNL     1      -3.663  -2.972 -16.530  1.00  0.00     0.244 S 
HETATM   25  O2  UNL     1      -3.399  -4.305 -17.207  1.00  0.00    -0.206 OA
HETATM   26  O3  UNL     1      -3.749  -1.957 -17.634  1.00  0.00    -0.206 OA
BRANCH  24  27
HETATM   27  N4  UNL     1      -2.321  -2.615 -15.564  1.00  0.00    -0.215 NA
HETATM   28  C9  UNL     1      -2.002  -3.563 -14.549  1.00  0.00     0.129 C 
HETATM   29  C10 UNL     1      -1.170  -2.153 -16.306  1.00  0.00     0.129 C 
ENDBRANCH  24  27
ENDBRANCH  20  24
BRANCH  23  30
HETATM   30  O4  UNL     1      -7.308  -1.048 -13.458  1.00  0.00    -0.357 OA
ATOM     31  H4  UNL     1      -8.242  -0.880 -13.492  1.00  0.00     0.217 HD
ENDBRANCH  23  30
ENDBRANCH   1  17
TORSDOF 8
ENDMDL
MODEL 3
REMARK VINA RESULT: -7.748786028      1.932      3.165
REMARK  8 active torsions:
REMARK  status: ('A' for Active; 'I' for Inactive)
REMARK       I    between atoms: N1_2  and  C2_4 
REMARK    1  A    between atoms: C2_4  and  C3_6 
REMARK    2  A    between atoms: C4_7  and  N2_8 
REMARK    3  A    between atoms: N2_8  and  N3_10 
REMARK    4  A    between atoms: N3_10  and  C5_12 
REMARK    5  A    between atoms: C8_15  and  S1_16 
REMARK    6  A    between atoms: S1_16  and  N4_19 
REMARK    7  A    between atoms: C12_24  and  O4_25 
REMARK    8  A    between atoms: C14_29  and  O6_30 
ROOT
HETATM    1  N3  UNL     1      -8.681  -2.182 -13.057  1.00  0.00    -0.298 N 
ATOM      2  H3  UNL     1      -8.845  -1.301 -12.570  1.00  0.00     0.187 HD
ENDROOT
BRANCH   1   3
HETATM    3  N2  UNL     1      -9.507  -3.164 -12.967  1.00  0.00    -0.297 N 
ATOM      4  H2  UNL     1      -9.339  -4.046 -13.453  1.00  0.00     0.187 HD
BRANCH   3   5
HETATM    5  C4  UNL     1     -10.661  -2.971 -12.165  1.00  0.00     0.091 A 
HETATM    6  C3  UNL     1     -11.908  -3.581 -12.380  1.00  0.00     0.119 A 
HETATM    7  C14 UNL     1     -12.745  -3.131 -11.388  1.00  0.00     0.201 A 
HETATM    8  O5  UNL     1     -12.063  -2.306 -10.619  1.00  0.00    -0.297 OA
HETATM    9  C13 UNL     1     -10.834  -2.191 -11.050  1.00  0.00     0.177 A 
BRANCH   6  10
HETATM   10  C2  UNL     1     -12.176  -4.496 -13.464  1.00  0.00     0.258 C 
HETATM   11  N1  UNL     1     -13.059  -5.582 -13.363  1.00  0.00    -0.361 N 
HETATM   12  C1  UNL     1     -13.293  -6.471 -14.475  1.00  0.00     0.149 C 
ATOM     13  H1  UNL     1     -13.546  -5.748 -12.482  1.00  0.00     0.162 HD
HETATM   14  O1  UNL     1     -11.596  -4.335 -14.577  1.00  0.00    -0.267 OA
ENDBRANCH   6  10
BRANCH   7  15
HETATM   15  O6  UNL     1     -14.088  -3.458 -11.182  1.00  0.00    -0.340 OA
ATOM     16  H6  UNL     1     -14.540  -4.255 -11.433  1.00  0.00     0.220 HD
ENDBRANCH   7  15
ENDBRANCH   3   5
ENDBRANCH   1   3
BRANCH   1  17
HETATM   17  C5  UNL     1      -7.517  -2.384 -13.876  1.00  0.00     0.082 A 
HETATM   18  C6  UNL     1      -7.302  -3.574 -14.530  1.00  0.00     0.035 A 
HETATM   19  C7  UNL     1      -6.162  -3.758 -15.325  1.00  0.00     0.028 A 
HETATM   20  C8  UNL     1      -5.230  -2.756 -15.473  1.00  0.00     0.095 A 
HETATM   21  C11 UNL     1      -5.473  -1.575 -14.806  1.00  0.00     0.069 A 
HETATM   22 BR1  UNL     1      -4.193  -0.164 -14.996  1.00  0.00    -0.046 Br
HETATM   23  C12 UNL     1      -6.585  -1.375 -14.021  1.00  0.00     0.112 A 
BRANCH  20  24
HETATM   24  S1  UNL     1      -3.809  -2.954 -16.456  1.00  0.00     0.244 S 
HETATM   25  O2  UNL     1      -3.773  -4.392 -16.942  1.00  0.00    -0.206 OA
HETATM   26  O3  UNL     1      -3.880  -2.102 -17.690  1.00  0.00    -0.206 OA
BRANCH  24  27
HETATM   27  N4  UNL     1      -2.347  -2.645 -15.662  1.00  0.00    -0.215 NA
HETATM   28  C9  UNL     1      -1.943  -3.602 -14.686  1.00  0.00     0.129 C 
HETATM   29  C10 UNL     1      -1.279  -2.230 -16.542  1.00  0.00     0.129 C 
ENDBRANCH  24  27
ENDBRANCH  20  24
BRANCH  23  30
HETATM   30  O4  UNL     1      -6.832  -0.189 -13.350  1.00  0.00    -0.357 OA
ATOM     31  H4  UNL     1      -6.289  -0.000 -12.593  1.00  0.00     0.217 HD
ENDBRANCH  23  30
ENDBRANCH   1  17
TORSDOF 8
ENDMDL
MODEL 4
REMARK VINA RESULT: -7.679443097      1.374      1.649
REMARK  8 active torsions:
REMARK  status: ('A' for Active; 'I' for Inactive)
REMARK       I    between atoms: N1_2  and  C2_4 
REMARK    1  A    between atoms: C2_4  and  C3_6 
REMARK    2  A    between atoms: C4_7  and  N2_8 
REMARK    3  A    between atoms: N2_8  and  N3_10 
REMARK    4  A    between atoms: N3_10  and  C5_12 
REMARK    5  A    between atoms: C8_15  and  S1_16 
REMARK    6  A    between atoms: S1_16  and  N4_19 
REMARK    7  A    between atoms: C12_24  and  O4_25 
REMARK    8  A    between atoms: C14_29  and  O6_30 
ROOT
HETATM    1  N3  UNL     1      -8.939  -3.662 -13.783  1.00  0.00    -0.298 N 
ATOM      2  H3  UNL     1      -9.019  -4.109 -12.870  1.00  0.00     0.187 HD
ENDROOT
BRANCH   1   3
HETATM    3  N2  UNL     1      -9.978  -3.352 -14.474  1.00  0.00    -0.297 N 
ATOM      4  H2  UNL     1     -10.093  -2.419 -14.871  1.00  0.00     0.187 HD
BRANCH   3   5
HETATM    5  C4  UNL     1     -10.958  -4.361 -14.661  1.00  0.00     0.091 A 
HETATM    6  C3  UNL     1     -12.029  -4.620 -13.790  1.00  0.00     0.119 A 
HETATM    7  C14 UNL     1     -12.735  -5.666 -14.332  1.00  0.00     0.201 A 
HETATM    8  O5  UNL     1     -12.143  -6.023 -15.455  1.00  0.00    -0.297 OA
HETATM    9  C13 UNL     1     -11.094  -5.273 -15.676  1.00  0.00     0.177 A 
BRANCH   6  10
HETATM   10  C2  UNL     1     -12.269  -3.882 -12.574  1.00  0.00     0.258 C 
HETATM   11  N1  UNL     1     -13.544  -3.699 -12.016  1.00  0.00    -0.361 N 
HETATM   12  C1  UNL     1     -13.734  -2.950 -10.797  1.00  0.00     0.149 C 
ATOM     13  H1  UNL     1     -14.355  -4.104 -12.483  1.00  0.00     0.162 HD
HETATM   14  O1  UNL     1     -11.297  -3.358 -11.956  1.00  0.00    -0.267 OA
ENDBRANCH   6  10
BRANCH   7  15
HETATM   15  O6  UNL     1     -13.884  -6.281 -13.828  1.00  0.00    -0.340 OA
ATOM     16  H6  UNL     1     -14.701  -6.454 -14.281  1.00  0.00     0.220 HD
ENDBRANCH   7  15
ENDBRANCH   3   5
ENDBRANCH   1   3
BRANCH   1  17
HETATM   17  C5  UNL     1      -7.658  -3.350 -14.358  1.00  0.00     0.082 A 
HETATM   18  C6  UNL     1      -7.038  -4.213 -15.230  1.00  0.00     0.035 A 
HETATM   19  C7  UNL     1      -5.790  -3.897 -15.784  1.00  0.00     0.028 A 
HETATM   20  C8  UNL     1      -5.152  -2.719 -15.472  1.00  0.00     0.095 A 
HETATM   21  C11 UNL     1      -5.798  -1.873 -14.595  1.00  0.00     0.069 A 
HETATM   22 BR1  UNL     1      -4.934  -0.226 -14.144  1.00  0.00    -0.046 Br
HETATM   23  C12 UNL     1      -7.023  -2.166 -14.041  1.00  0.00     0.112 A 
BRANCH  20  24
HETATM   24  S1  UNL     1      -3.605  -2.298 -16.145  1.00  0.00     0.244 S 
HETATM   25  O2  UNL     1      -2.595  -2.262 -15.012  1.00  0.00    -0.206 OA
HETATM   26  O3  UNL     1      -3.122  -3.355 -17.097  1.00  0.00    -0.206 OA
BRANCH  24  27
HETATM   27  N4  UNL     1      -3.553  -0.797 -16.924  1.00  0.00    -0.215 NA
HETATM   28  C9  UNL     1      -2.258  -0.282 -17.219  1.00  0.00     0.129 C 
HETATM   29  C10 UNL     1      -4.488  -0.672 -18.019  1.00  0.00     0.129 C 
ENDBRANCH  24  27
ENDBRANCH  20  24
BRANCH  23  30
HETATM   30  O4  UNL     1      -7.674  -1.318 -13.161  1.00  0.00    -0.357 OA
ATOM     31  H4  UNL     1      -8.548  -1.034 -13.402  1.00  0.00     0.217 HD
ENDBRANCH  23  30
ENDBRANCH   1  17
TORSDOF 8
ENDMDL
MODEL 5
REMARK VINA RESULT: -7.678250877      1.231      1.479
REMARK  8 active torsions:
REMARK  status: ('A' for Active; 'I' for Inactive)
REMARK       I    between atoms: N1_2  and  C2_4 
REMARK    1  A    between atoms: C2_4  and  C3_6 
REMARK    2  A    between atoms: C4_7  and  N2_8 
REMARK    3  A    between atoms: N2_8  and  N3_10 
REMARK    4  A    between atoms: N3_10  and  C5_12 
REMARK    5  A    between atoms: C8_15  and  S1_16 
REMARK    6  A    between atoms: S1_16  and  N4_19 
REMARK    7  A    between atoms: C12_24  and  O4_25 
REMARK    8  A    between atoms: C14_29  and  O6_30 
ROOT
HETATM    1  N3  UNL     1      -9.098  -5.030 -14.520  1.00  0.00    -0.298 N 
ATOM      2  H3  UNL     1      -9.400  -5.240 -13.568  1.00  0.00     0.187 HD
ENDROOT
BRANCH   1   3
HETATM    3  N2  UNL     1      -9.820  -5.338 -15.539  1.00  0.00    -0.297 N 
ATOM      4  H2  UNL     1      -9.595  -4.993 -16.472  1.00  0.00     0.187 HD
BRANCH   3   5
HETATM    5  C4  UNL     1     -10.941  -6.177 -15.310  1.00  0.00     0.091 A 
HETATM    6  C3  UNL     1     -12.045  -5.851 -14.504  1.00  0.00     0.119 A 
HETATM    7  C14 UNL     1     -12.899  -6.926 -14.551  1.00  0.00     0.201 A 
HETATM    8  O5  UNL     1     -12.361  -7.844 -15.329  1.00  0.00    -0.297 OA
HETATM    9  C13 UNL     1     -11.209  -7.433 -15.791  1.00  0.00     0.177 A 
BRANCH   6  10
HETATM   10  C2  UNL     1     -12.177  -4.602 -13.794  1.00  0.00     0.258 C 
HETATM   11  N1  UNL     1     -12.994  -4.434 -12.665  1.00  0.00    -0.361 N 
HETATM   12  C1  UNL     1     -13.094  -3.163 -11.989  1.00  0.00     0.149 C 
ATOM     13  H1  UNL     1     -13.530  -5.228 -12.316  1.00  0.00     0.162 HD
HETATM   14  O1  UNL     1     -11.533  -3.586 -14.188  1.00  0.00    -0.267 OA
ENDBRANCH   6  10
BRANCH   7  15
HETATM   15  O6  UNL     1     -14.131  -7.073 -13.909  1.00  0.00    -0.340 OA
ATOM     16  H6  UNL     1     -14.491  -7.855 -13.506  1.00  0.00     0.220 HD
ENDBRANCH   7  15
ENDBRANCH   3   5
ENDBRANCH   1   3
BRANCH   1  17
HETATM   17  C5  UNL     1      -7.844  -4.377 -14.784  1.00  0.00     0.082 A 
HETATM   18  C6  UNL     1      -6.850  -5.003 -15.497  1.00  0.00     0.035 A 
HETATM   19  C7  UNL     1      -5.632  -4.355 -15.747  1.00  0.00     0.028 A 
HETATM   20  C8  UNL     1      -5.399  -3.079 -15.288  1.00  0.00     0.095 A 
HETATM   21  C11 UNL     1      -6.415  -2.477 -14.577  1.00  0.00     0.069 A 
HETATM   22 BR1  UNL     1      -6.117  -0.702 -13.927  1.00  0.00    -0.046 Br
HETATM   23  C12 UNL     1      -7.616  -3.097 -14.320  1.00  0.00     0.112 A 
BRANCH  20  24
HETATM   24  S1  UNL     1      -3.900  -2.249 -15.586  1.00  0.00     0.244 S 
HETATM   25  O2  UNL     1      -3.342  -1.797 -14.248  1.00  0.00    -0.206 OA
HETATM   26  O3  UNL     1      -2.874  -3.176 -16.171  1.00  0.00    -0.206 OA
BRANCH  24  27
HETATM   27  N4  UNL     1      -4.029  -0.883 -16.575  1.00  0.00    -0.215 NA
HETATM   28  C9  UNL     1      -2.811  -0.215 -16.894  1.00  0.00     0.129 C 
HETATM   29  C10 UNL     1      -4.905  -1.061 -17.710  1.00  0.00     0.129 C 
ENDBRANCH  24  27
ENDBRANCH  20  24
BRANCH  23  30
HETATM   30  O4  UNL     1      -8.638  -2.494 -13.606  1.00  0.00    -0.357 OA
ATOM     31  H4  UNL     1      -8.942  -1.649 -13.917  1.00  0.00     0.217 HD
ENDBRANCH  23  30
ENDBRANCH   1  17
TORSDOF 8
ENDMDL
