MODEL 1
REMARK VINA RESULT: -9.678408796      0.000      0.000
REMARK  7 active torsions:
REMARK  status: ('A' for Active; 'I' for Inactive)
REMARK    1  A    between atoms: C6_6  and  C7_7 
REMARK    2  A    between atoms: C7_7  and  C8_8 
REMARK    3  A    between atoms: C7_7  and  N1_14 
REMARK    4  A    between atoms: C15_16  and  C16_17 
REMARK    5  A    between atoms: C20_23  and  O2_24 
REMARK    6  A    between atoms: C21_26  and  O3_27 
REMARK    7  A    between atoms: C22_29  and  O4_30 
ROOT
HETATM    1  C16 UNL     1      -6.236  -2.004 -15.277  1.00  0.00     0.207 C 
HETATM    2  O1  UNL     1      -5.262  -2.855 -15.766  1.00  0.00    -0.349 OA
HETATM    3  C17 UNL     1      -4.120  -2.209 -16.176  1.00  0.00     0.174 C 
HETATM    4  C18 UNL     1      -3.202  -3.240 -16.798  1.00  0.00     0.066 C 
HETATM    5  C19 UNL     1      -4.459  -1.141 -17.111  1.00  0.00     0.100 C 
HETATM    6  N2  UNL     1      -4.716  -0.304 -17.860  1.00  0.00    -0.194 NA
HETATM    7  C20 UNL     1      -3.458  -1.652 -14.929  1.00  0.00     0.198 C 
HETATM    8  C21 UNL     1      -4.361  -0.724 -14.183  1.00  0.00     0.182 C 
HETATM    9  C22 UNL     1      -5.793  -1.140 -14.152  1.00  0.00     0.184 C 
ENDROOT
BRANCH   7  10
HETATM   10  O2  UNL     1      -3.041  -2.686 -14.119  1.00  0.00    -0.389 OA
ATOM     11  H2  UNL     1      -2.282  -2.415 -13.615  1.00  0.00     0.210 HD
ENDBRANCH   7  10
BRANCH   1  12
HETATM   12  C15 UNL     1      -7.386  -2.865 -14.829  1.00  0.00     0.076 A 
HETATM   13  C14 UNL     1      -8.713  -2.727 -15.173  1.00  0.00     0.142 A 
HETATM   14  N1  UNL     1      -9.404  -3.683 -14.571  1.00  0.00    -0.274 N 
HETATM   15  N4  UNL     1      -8.547  -4.406 -13.869  1.00  0.00    -0.240 N 
HETATM   16  N3  UNL     1      -7.337  -3.928 -14.013  1.00  0.00    -0.286 N 
ATOM     17  H4  UNL     1      -8.793  -5.216 -13.300  1.00  0.00     0.208 HD
ATOM     18  H3  UNL     1      -6.496  -4.303 -13.576  1.00  0.00     0.188 HD
BRANCH  14  19
HETATM   19  C7  UNL     1     -10.822  -4.000 -14.586  1.00  0.00     0.175 C 
BRANCH  19  20
HETATM   20  C6  UNL     1     -11.502  -3.680 -13.319  1.00  0.00    -0.029 A 
HETATM   21  C5  UNL     1     -12.799  -4.043 -13.018  1.00  0.00     0.010 A 
HETATM   22  C4  UNL     1     -13.402  -3.719 -11.808  1.00  0.00     0.001 A 
HETATM   23  C3  UNL     1     -12.696  -3.014 -10.864  1.00  0.00     0.007 A 
HETATM   24  C2  UNL     1     -11.406  -2.638 -11.131  1.00  0.00    -0.061 A 
HETATM   25  C1  UNL     1     -10.645  -1.872 -10.105  1.00  0.00     0.048 C 
HETATM   26  C23 UNL     1     -10.826  -2.968 -12.336  1.00  0.00     0.016 A 
ENDBRANCH  19  20
BRANCH  19  27
HETATM   27  C8  UNL     1     -11.085  -5.392 -15.037  1.00  0.00    -0.029 A 
HETATM   28  C9  UNL     1     -12.206  -6.085 -14.636  1.00  0.00     0.009 A 
HETATM   29  C10 UNL     1     -12.457  -7.389 -15.054  1.00  0.00     0.001 A 
HETATM   30  C11 UNL     1     -11.583  -8.043 -15.897  1.00  0.00     0.000 A 
HETATM   31  C12 UNL     1     -10.462  -7.351 -16.298  1.00  0.00     0.001 A 
HETATM   32  C13 UNL     1     -10.211  -6.059 -15.884  1.00  0.00     0.009 A 
ENDBRANCH  19  27
ENDBRANCH  14  19
ENDBRANCH   1  12
BRANCH   8  33
HETATM   33  O3  UNL     1      -3.860  -0.596 -12.887  1.00  0.00    -0.390 OA
ATOM     34  H3  UNL     1      -4.475  -0.069 -12.391  1.00  0.00     0.210 HD
ENDBRANCH   8  33
BRANCH   9  35
HETATM   35  O4  UNL     1      -6.574   0.039 -14.199  1.00  0.00    -0.390 OA
ATOM     36  H4  UNL     1      -6.670   0.348 -13.305  1.00  0.00     0.210 HD
ENDBRANCH   9  35
TORSDOF 7
ENDMDL
MODEL 2
REMARK VINA RESULT: -9.647874871      1.686      2.820
REMARK  7 active torsions:
REMARK  status: ('A' for Active; 'I' for Inactive)
REMARK    1  A    between atoms: C6_6  and  C7_7 
REMARK    2  A    between atoms: C7_7  and  C8_8 
REMARK    3  A    between atoms: C7_7  and  N1_14 
REMARK    4  A    between atoms: C15_16  and  C16_17 
REMARK    5  A    between atoms: C20_23  and  O2_24 
REMARK    6  A    between atoms: C21_26  and  O3_27 
REMARK    7  A    between atoms: C22_29  and  O4_30 
ROOT
HETATM    1  C16 UNL     1      -6.489  -2.749 -16.515  1.00  0.00     0.207 C 
HETATM    2  O1  UNL     1      -5.900  -2.237 -15.374  1.00  0.00    -0.349 OA
HETATM    3  C17 UNL     1      -4.530  -2.149 -15.452  1.00  0.00     0.174 C 
HETATM    4  C18 UNL     1      -4.017  -1.695 -14.102  1.00  0.00     0.066 C 
HETATM    5  C19 UNL     1      -3.969  -3.436 -15.849  1.00  0.00     0.100 C 
HETATM    6  N2  UNL     1      -3.516  -4.451 -16.148  1.00  0.00    -0.194 NA
HETATM    7  C20 UNL     1      -4.217  -1.077 -16.481  1.00  0.00     0.198 C 
HETATM    8  C21 UNL     1      -4.812  -1.392 -17.815  1.00  0.00     0.182 C 
HETATM    9  C22 UNL     1      -6.169  -2.009 -17.762  1.00  0.00     0.184 C 
ENDROOT
BRANCH   7  10
HETATM   10  O2  UNL     1      -4.652   0.149 -16.028  1.00  0.00    -0.389 OA
ATOM     11  H2  UNL     1      -3.970   0.800 -16.151  1.00  0.00     0.210 HD
ENDBRANCH   7  10
BRANCH   1  12
HETATM   12  C15 UNL     1      -7.976  -2.732 -16.286  1.00  0.00     0.076 A 
HETATM   13  C14 UNL     1      -8.692  -3.511 -15.403  1.00  0.00     0.142 A 
HETATM   14  N1  UNL     1      -9.974  -3.190 -15.506  1.00  0.00    -0.274 N 
HETATM   15  N4  UNL     1     -10.071  -2.239 -16.420  1.00  0.00    -0.240 N 
HETATM   16  N3  UNL     1      -8.885  -1.956 -16.896  1.00  0.00    -0.286 N 
ATOM     17  H4  UNL     1     -10.940  -1.793 -16.712  1.00  0.00     0.208 HD
ATOM     18  H3  UNL     1      -8.684  -1.260 -17.613  1.00  0.00     0.188 HD
BRANCH  14  19
HETATM   19  C7  UNL     1     -11.149  -3.693 -14.816  1.00  0.00     0.175 C 
BRANCH  19  20
HETATM   20  C6  UNL     1     -11.163  -3.368 -13.379  1.00  0.00    -0.029 A 
HETATM   21  C5  UNL     1     -10.045  -3.014 -12.650  1.00  0.00     0.010 A 
HETATM   22  C4  UNL     1     -10.104  -2.714 -11.294  1.00  0.00     0.001 A 
HETATM   23  C3  UNL     1     -11.309  -2.765 -10.638  1.00  0.00     0.007 A 
HETATM   24  C2  UNL     1     -12.439  -3.112 -11.332  1.00  0.00    -0.061 A 
HETATM   25  C1  UNL     1     -13.744  -3.167 -10.617  1.00  0.00     0.048 C 
HETATM   26  C23 UNL     1     -12.360  -3.406 -12.675  1.00  0.00     0.016 A 
ENDBRANCH  19  20
BRANCH  19  27
HETATM   27  C8  UNL     1     -11.380  -5.139 -15.073  1.00  0.00    -0.029 A 
HETATM   28  C9  UNL     1     -10.513  -5.887 -15.840  1.00  0.00     0.009 A 
HETATM   29  C10 UNL     1     -10.724  -7.241 -16.084  1.00  0.00     0.001 A 
HETATM   30  C11 UNL     1     -11.823  -7.892 -15.563  1.00  0.00     0.000 A 
HETATM   31  C12 UNL     1     -12.690  -7.145 -14.796  1.00  0.00     0.001 A 
HETATM   32  C13 UNL     1     -12.482  -5.803 -14.553  1.00  0.00     0.009 A 
ENDBRANCH  19  27
ENDBRANCH  14  19
ENDBRANCH   1  12
BRANCH   8  33
HETATM   33  O3  UNL     1      -4.840  -0.210 -18.556  1.00  0.00    -0.390 OA
ATOM     34  H3  UNL     1      -5.627  -0.220 -19.087  1.00  0.00     0.210 HD
ENDBRANCH   8  33
BRANCH   9  35
HETATM   35  O4  UNL     1      -6.251  -2.934 -18.830  1.00  0.00    -0.390 OA
ATOM     36  H4  UNL     1      -5.700  -2.604 -19.530  1.00  0.00     0.210 HD
ENDBRANCH   9  35
TORSDOF 7
ENDMDL
MODEL 3
REMARK VINA RESULT: -9.455352074      0.657      1.085
REMARK  7 active torsions:
REMARK  status: ('A' for Active; 'I' for Inactive)
REMARK    1  A    between atoms: C6_6  and  C7_7 
REMARK    2  A    between atoms: C7_7  and  C8_8 
REMARK    3  A    between atoms: C7_7  and  N1_14 
REMARK    4  A    between atoms: C15_16  and  C16_17 
REMARK    5  A    between atoms: C20_23  and  O2_24 
REMARK    6  A    between atoms: C21_26  and  O3_27 
REMARK    7  A    between atoms: C22_29  and  O4_30 
ROOT
HETATM    1  C16 UNL     1      -5.969  -2.150 -15.613  1.00  0.00     0.207 C 
HETATM    2  O1  UNL     1      -4.923  -2.916 -16.094  1.00  0.00    -0.349 OA
HETATM    3  C17 UNL     1      -3.789  -2.190 -16.372  1.00  0.00     0.174 C 
HETATM    4  C18 UNL     1      -2.782  -3.128 -17.003  1.00  0.00     0.066 C 
HETATM    5  C19 UNL     1      -4.117  -1.068 -17.246  1.00  0.00     0.100 C 
HETATM    6  N2  UNL     1      -4.363  -0.188 -17.946  1.00  0.00    -0.194 NA
HETATM    7  C20 UNL     1      -3.241  -1.703 -15.043  1.00  0.00     0.198 C 
HETATM    8  C21 UNL     1      -4.238  -0.877 -14.295  1.00  0.00     0.182 C 
HETATM    9  C22 UNL     1      -5.647  -1.357 -14.398  1.00  0.00     0.184 C 
ENDROOT
BRANCH   7  10
HETATM   10  O2  UNL     1      -2.830  -2.777 -14.284  1.00  0.00    -0.389 OA
ATOM     11  H2  UNL     1      -3.131  -3.587 -14.681  1.00  0.00     0.210 HD
ENDBRANCH   7  10
BRANCH   1  12
HETATM   12  C15 UNL     1      -7.102  -3.092 -15.314  1.00  0.00     0.076 A 
HETATM   13  C14 UNL     1      -8.428  -2.936 -15.655  1.00  0.00     0.142 A 
HETATM   14  N1  UNL     1      -9.102  -3.986 -15.210  1.00  0.00    -0.274 N 
HETATM   15  N4  UNL     1      -8.236  -4.785 -14.608  1.00  0.00    -0.240 N 
HETATM   16  N3  UNL     1      -7.037  -4.263 -14.662  1.00  0.00    -0.286 N 
ATOM     17  H4  UNL     1      -8.468  -5.675 -14.168  1.00  0.00     0.208 HD
ATOM     18  H3  UNL     1      -6.191  -4.679 -14.272  1.00  0.00     0.188 HD
BRANCH  14  19
HETATM   19  C7  UNL     1     -10.512  -4.329 -15.293  1.00  0.00     0.175 C 
BRANCH  19  20
HETATM   20  C6  UNL     1     -11.261  -4.009 -14.066  1.00  0.00    -0.029 A 
HETATM   21  C5  UNL     1     -12.597  -4.295 -13.872  1.00  0.00     0.010 A 
HETATM   22  C4  UNL     1     -13.265  -3.974 -12.696  1.00  0.00     0.001 A 
HETATM   23  C3  UNL     1     -12.587  -3.350 -11.678  1.00  0.00     0.007 A 
HETATM   24  C2  UNL     1     -11.259  -3.051 -11.838  1.00  0.00    -0.061 A 
HETATM   25  C1  UNL     1     -10.528  -2.373 -10.731  1.00  0.00     0.048 C 
HETATM   26  C23 UNL     1     -10.615  -3.377 -13.010  1.00  0.00     0.016 A 
ENDBRANCH  19  20
BRANCH  19  27
HETATM   27  C8  UNL     1     -10.726  -5.731 -15.741  1.00  0.00    -0.029 A 
HETATM   28  C9  UNL     1     -10.057  -6.257 -16.825  1.00  0.00     0.009 A 
HETATM   29  C10 UNL     1     -10.255  -7.568 -17.248  1.00  0.00     0.001 A 
HETATM   30  C11 UNL     1     -11.139  -8.399 -16.592  1.00  0.00     0.000 A 
HETATM   31  C12 UNL     1     -11.808  -7.874 -15.509  1.00  0.00     0.001 A 
HETATM   32  C13 UNL     1     -11.613  -6.575 -15.087  1.00  0.00     0.009 A 
ENDBRANCH  19  27
ENDBRANCH  14  19
ENDBRANCH   1  12
BRANCH   8  33
HETATM   33  O3  UNL     1      -3.833  -0.828 -12.961  1.00  0.00    -0.390 OA
ATOM     34  H3  UNL     1      -3.516   0.050 -12.788  1.00  0.00     0.210 HD
ENDBRANCH   8  33
BRANCH   9  35
HETATM   35  O4  UNL     1      -6.480  -0.214 -14.412  1.00  0.00    -0.390 OA
ATOM     36  H4  UNL     1      -7.311  -0.467 -14.027  1.00  0.00     0.210 HD
ENDBRANCH   9  35
TORSDOF 7
ENDMDL
MODEL 4
REMARK VINA RESULT: -9.260348895      1.311      4.045
REMARK  7 active torsions:
REMARK  status: ('A' for Active; 'I' for Inactive)
REMARK    1  A    between atoms: C6_6  and  C7_7 
REMARK    2  A    between atoms: C7_7  and  C8_8 
REMARK    3  A    between atoms: C7_7  and  N1_14 
REMARK    4  A    between atoms: C15_16  and  C16_17 
REMARK    5  A    between atoms: C20_23  and  O2_24 
REMARK    6  A    between atoms: C21_26  and  O3_27 
REMARK    7  A    between atoms: C22_29  and  O4_30 
ROOT
HETATM    1  C16 UNL     1      -5.088  -1.835 -15.283  1.00  0.00     0.207 C 
HETATM    2  O1  UNL     1      -5.002  -2.731 -16.332  1.00  0.00    -0.349 OA
HETATM    3  C17 UNL     1      -3.831  -2.637 -17.044  1.00  0.00     0.174 C 
HETATM    4  C18 UNL     1      -3.928  -3.580 -18.225  1.00  0.00     0.066 C 
HETATM    5  C19 UNL     1      -3.609  -1.256 -17.461  1.00  0.00     0.100 C 
HETATM    6  N2  UNL     1      -3.434  -0.171 -17.806  1.00  0.00    -0.194 NA
HETATM    7  C20 UNL     1      -2.719  -3.114 -16.127  1.00  0.00     0.198 C 
HETATM    8  C21 UNL     1      -2.648  -2.311 -14.868  1.00  0.00     0.182 C 
HETATM    9  C22 UNL     1      -3.973  -1.920 -14.304  1.00  0.00     0.184 C 
ENDROOT
BRANCH   7  10
HETATM   10  O2  UNL     1      -2.886  -4.452 -15.845  1.00  0.00    -0.389 OA
ATOM     11  H2  UNL     1      -2.237  -4.965 -16.313  1.00  0.00     0.210 HD
ENDBRANCH   7  10
BRANCH   1  12
HETATM   12  C15 UNL     1      -6.393  -2.102 -14.584  1.00  0.00     0.076 A 
HETATM   13  C14 UNL     1      -7.153  -3.250 -14.646  1.00  0.00     0.142 A 
HETATM   14  N1  UNL     1      -8.227  -3.084 -13.889  1.00  0.00    -0.274 N 
HETATM   15  N4  UNL     1      -8.154  -1.873 -13.360  1.00  0.00    -0.240 N 
HETATM   16  N3  UNL     1      -7.064  -1.274 -13.768  1.00  0.00    -0.286 N 
ATOM     17  H4  UNL     1      -8.844  -1.466 -12.729  1.00  0.00     0.208 HD
ATOM     18  H3  UNL     1      -6.772  -0.332 -13.507  1.00  0.00     0.188 HD
BRANCH  14  19
HETATM   19  C7  UNL     1      -9.344  -3.966 -13.598  1.00  0.00     0.175 C 
BRANCH  19  20
HETATM   20  C6  UNL     1      -9.998  -4.492 -14.809  1.00  0.00    -0.029 A 
HETATM   21  C5  UNL     1     -10.499  -3.707 -15.828  1.00  0.00     0.010 A 
HETATM   22  C4  UNL     1     -11.108  -4.247 -16.954  1.00  0.00     0.001 A 
HETATM   23  C3  UNL     1     -11.225  -5.610 -17.076  1.00  0.00     0.007 A 
HETATM   24  C2  UNL     1     -10.739  -6.419 -16.083  1.00  0.00    -0.061 A 
HETATM   25  C1  UNL     1     -10.869  -7.897 -16.219  1.00  0.00     0.048 C 
HETATM   26  C23 UNL     1     -10.138  -5.864 -14.974  1.00  0.00     0.016 A 
ENDBRANCH  19  20
BRANCH  19  27
HETATM   27  C8  UNL     1     -10.313  -3.358 -12.648  1.00  0.00    -0.029 A 
HETATM   28  C9  UNL     1      -9.905  -2.516 -11.636  1.00  0.00     0.009 A 
HETATM   29  C10 UNL     1     -10.807  -1.944 -10.744  1.00  0.00     0.001 A 
HETATM   30  C11 UNL     1     -12.159  -2.203 -10.839  1.00  0.00     0.000 A 
HETATM   31  C12 UNL     1     -12.567  -3.044 -11.850  1.00  0.00     0.001 A 
HETATM   32  C13 UNL     1     -11.674  -3.611 -12.736  1.00  0.00     0.009 A 
ENDBRANCH  19  27
ENDBRANCH  14  19
ENDBRANCH   1  12
BRANCH   8  33
HETATM   33  O3  UNL     1      -1.917  -3.047 -13.936  1.00  0.00    -0.390 OA
ATOM     34  H3  UNL     1      -1.017  -2.744 -13.971  1.00  0.00     0.210 HD
ENDBRANCH   8  33
BRANCH   9  35
HETATM   35  O4  UNL     1      -3.822  -0.635 -13.730  1.00  0.00    -0.390 OA
ATOM     36  H4  UNL     1      -2.894  -0.435 -13.730  1.00  0.00     0.210 HD
ENDBRANCH   9  35
TORSDOF 7
ENDMDL
MODEL 5
REMARK VINA RESULT: -9.242511898      2.944      5.253
REMARK  7 active torsions:
REMARK  status: ('A' for Active; 'I' for Inactive)
REMARK    1  A    between atoms: C6_6  and  C7_7 
REMARK    2  A    between atoms: C7_7  and  C8_8 
REMARK    3  A    between atoms: C7_7  and  N1_14 
REMARK    4  A    between atoms: C15_16  and  C16_17 
REMARK    5  A    between atoms: C20_23  and  O2_24 
REMARK    6  A    between atoms: C21_26  and  O3_27 
REMARK    7  A    between atoms: C22_29  and  O4_30 
ROOT
HETATM    1  C16 UNL     1      -7.964  -1.237 -18.329  1.00  0.00     0.207 C 
HETATM    2  O1  UNL     1      -8.608  -1.386 -19.543  1.00  0.00    -0.349 OA
HETATM    3  C17 UNL     1      -7.932  -0.826 -20.600  1.00  0.00     0.174 C 
HETATM    4  C18 UNL     1      -8.805  -0.954 -21.830  1.00  0.00     0.066 C 
HETATM    5  C19 UNL     1      -7.604   0.565 -20.301  1.00  0.00     0.100 C 
HETATM    6  N2  UNL     1      -7.353   1.667 -20.081  1.00  0.00    -0.194 NA
HETATM    7  C20 UNL     1      -6.674  -1.650 -20.804  1.00  0.00     0.198 C 
HETATM    8  C21 UNL     1      -5.821  -1.683 -19.577  1.00  0.00     0.182 C 
HETATM    9  C22 UNL     1      -6.578  -1.771 -18.295  1.00  0.00     0.184 C 
ENDROOT
BRANCH   7  10
HETATM   10  O2  UNL     1      -7.009  -2.926 -21.200  1.00  0.00    -0.389 OA
ATOM     11  H2  UNL     1      -7.856  -2.919 -21.631  1.00  0.00     0.210 HD
ENDBRANCH   7  10
BRANCH   1  12
HETATM   12  C15 UNL     1      -8.802  -1.942 -17.298  1.00  0.00     0.076 A 
HETATM   13  C14 UNL     1      -8.391  -2.917 -16.415  1.00  0.00     0.142 A 
HETATM   14  N1  UNL     1      -9.429  -3.278 -15.676  1.00  0.00    -0.274 N 
HETATM   15  N4  UNL     1     -10.465  -2.558 -16.072  1.00  0.00    -0.240 N 
HETATM   16  N3  UNL     1     -10.105  -1.756 -17.042  1.00  0.00    -0.286 N 
ATOM     17  H4  UNL     1     -11.405  -2.618 -15.681  1.00  0.00     0.208 HD
ATOM     18  H3  UNL     1     -10.717  -1.097 -17.524  1.00  0.00     0.188 HD
BRANCH  14  19
HETATM   19  C7  UNL     1      -9.555  -4.253 -14.605  1.00  0.00     0.175 C 
BRANCH  19  20
HETATM   20  C6  UNL     1     -10.234  -5.492 -15.026  1.00  0.00    -0.029 A 
HETATM   21  C5  UNL     1      -9.665  -6.455 -15.835  1.00  0.00     0.010 A 
HETATM   22  C4  UNL     1     -10.343  -7.610 -16.207  1.00  0.00     0.001 A 
HETATM   23  C3  UNL     1     -11.625  -7.819 -15.762  1.00  0.00     0.007 A 
HETATM   24  C2  UNL     1     -12.219  -6.883 -14.957  1.00  0.00    -0.061 A 
HETATM   25  C1  UNL     1     -13.610  -7.113 -14.477  1.00  0.00     0.048 C 
HETATM   26  C23 UNL     1     -11.531  -5.744 -14.599  1.00  0.00     0.016 A 
ENDBRANCH  19  20
BRANCH  19  27
HETATM   27  C8  UNL     1     -10.150  -3.668 -13.375  1.00  0.00    -0.029 A 
HETATM   28  C9  UNL     1      -9.411  -2.887 -12.512  1.00  0.00     0.009 A 
HETATM   29  C10 UNL     1      -9.963  -2.338 -11.359  1.00  0.00     0.001 A 
HETATM   30  C11 UNL     1     -11.285  -2.557 -11.032  1.00  0.00     0.000 A 
HETATM   31  C12 UNL     1     -12.023  -3.337 -11.893  1.00  0.00     0.001 A 
HETATM   32  C13 UNL     1     -11.479  -3.883 -13.037  1.00  0.00     0.009 A 
ENDBRANCH  19  27
ENDBRANCH  14  19
ENDBRANCH   1  12
BRANCH   8  33
HETATM   33  O3  UNL     1      -4.940  -2.758 -19.701  1.00  0.00    -0.390 OA
ATOM     34  H3  UNL     1      -4.897  -2.991 -20.621  1.00  0.00     0.210 HD
ENDBRANCH   8  33
BRANCH   9  35
HETATM   35  O4  UNL     1      -5.864  -1.017 -17.333  1.00  0.00    -0.390 OA
ATOM     36  H4  UNL     1      -5.190  -0.535 -17.798  1.00  0.00     0.210 HD
ENDBRANCH   9  35
TORSDOF 7
ENDMDL
