MODEL 1
REMARK VINA RESULT: -7.885230113      0.000      0.000
REMARK  7 active torsions:
REMARK  status: ('A' for Active; 'I' for Inactive)
REMARK    1  A    between atoms: C2_2  and  C3_3 
REMARK    2  A    between atoms: C3_3  and  C4_4 
REMARK       I    between atoms: C4_4  and  N1_6 
REMARK    3  A    between atoms: N1_6  and  C5_8 
REMARK    4  A    between atoms: C6_11  and  C7_12 
REMARK    5  A    between atoms: C7_12  and  C10_15 
REMARK    6  A    between atoms: C11_19  and  N3_20 
REMARK       I    between atoms: N3_20  and  C12_22 
REMARK    7  A    between atoms: C12_22  and  C13_24 
ROOT
HETATM    1  C5  UNL     1      -8.306  -9.284 -15.270  1.00  0.00     0.153 A 
HETATM    2  N2  UNL     1      -8.788  -8.322 -14.477  1.00  0.00    -0.337 N 
ATOM      3  H2  UNL     1      -9.619  -8.484 -13.908  1.00  0.00     0.168 HD
HETATM    4  C6  UNL     1      -8.169  -7.165 -14.445  1.00  0.00     0.062 A 
HETATM    5  C11 UNL     1      -7.055  -7.037 -15.248  1.00  0.00     0.103 A 
HETATM    6  S1  UNL     1      -6.952  -8.553 -15.993  1.00  0.00    -0.034 SA
ENDROOT
BRANCH   1   7
HETATM    7  N1  UNL     1      -8.772 -10.507 -15.448  1.00  0.00    -0.307 N 
HETATM    8  C4  UNL     1      -9.953 -10.763 -16.147  1.00  0.00     0.223 C 
HETATM    9  O1  UNL     1     -11.024 -10.899 -15.496  1.00  0.00    -0.273 OA
ATOM     10  H1  UNL     1      -8.249 -11.292 -15.061  1.00  0.00     0.171 HD
BRANCH   8  11
HETATM   11  C3  UNL     1     -10.032 -10.889 -17.624  1.00  0.00     0.103 C 
BRANCH  11  12
HETATM   12  C2  UNL     1      -8.925 -11.766 -18.164  1.00  0.00     0.005 C 
HETATM   13  C1  UNL     1      -7.960 -10.892 -18.930  1.00  0.00     0.005 C 
ENDBRANCH  11  12
ENDBRANCH   8  11
ENDBRANCH   1   7
BRANCH   4  14
HETATM   14  C7  UNL     1      -8.644  -6.013 -13.578  1.00  0.00     0.095 C 
HETATM   15  C8  UNL     1     -10.024  -6.234 -13.078  1.00  0.00     0.031 C 
HETATM   16  C9  UNL     1      -8.672  -4.720 -14.405  1.00  0.00     0.031 C 
BRANCH  14  17
HETATM   17  C10 UNL     1      -7.722  -5.736 -12.433  1.00  0.00     0.400 C 
HETATM   18  F1  UNL     1      -6.787  -4.753 -12.710  1.00  0.00    -0.170 F 
HETATM   19  F2  UNL     1      -8.455  -5.215 -11.346  1.00  0.00    -0.170 F 
HETATM   20  F3  UNL     1      -7.187  -6.903 -11.952  1.00  0.00    -0.170 F 
ENDBRANCH  14  17
ENDBRANCH   4  14
BRANCH   5  21
HETATM   21  N3  UNL     1      -6.188  -5.930 -15.434  1.00  0.00    -0.319 N 
HETATM   22  C12 UNL     1      -6.239  -5.166 -16.627  1.00  0.00     0.226 C 
HETATM   23  O2  UNL     1      -7.066  -5.489 -17.514  1.00  0.00    -0.273 OA
ATOM     24  H3  UNL     1      -5.522  -5.681 -14.704  1.00  0.00     0.169 HD
BRANCH  22  25
HETATM   25  C13 UNL     1      -5.356  -4.004 -16.868  1.00  0.00     0.070 C 
HETATM   26  C14 UNL     1      -4.047  -4.533 -17.414  1.00  0.00     0.019 C 
HETATM   27  C15 UNL     1      -5.157  -3.298 -15.541  1.00  0.00     0.019 C 
ENDBRANCH  22  25
ENDBRANCH   5  21
TORSDOF 7
ENDMDL
MODEL 2
REMARK VINA RESULT: -7.715939343      1.633      2.137
REMARK  7 active torsions:
REMARK  status: ('A' for Active; 'I' for Inactive)
REMARK    1  A    between atoms: C2_2  and  C3_3 
REMARK    2  A    between atoms: C3_3  and  C4_4 
REMARK       I    between atoms: C4_4  and  N1_6 
REMARK    3  A    between atoms: N1_6  and  C5_8 
REMARK    4  A    between atoms: C6_11  and  C7_12 
REMARK    5  A    between atoms: C7_12  and  C10_15 
REMARK    6  A    between atoms: C11_19  and  N3_20 
REMARK       I    between atoms: N3_20  and  C12_22 
REMARK    7  A    between atoms: C12_22  and  C13_24 
ROOT
HETATM    1  C5  UNL     1      -8.063  -9.167 -15.542  1.00  0.00     0.153 A 
HETATM    2  N2  UNL     1      -8.583  -8.065 -14.993  1.00  0.00    -0.337 N 
ATOM      3  H2  UNL     1      -9.525  -8.074 -14.603  1.00  0.00     0.168 HD
HETATM    4  C6  UNL     1      -7.857  -6.972 -14.967  1.00  0.00     0.062 A 
HETATM    5  C11 UNL     1      -6.596  -7.054 -15.519  1.00  0.00     0.103 A 
HETATM    6  S1  UNL     1      -6.516  -8.663 -16.036  1.00  0.00    -0.034 SA
ENDROOT
BRANCH   1   7
HETATM    7  N1  UNL     1      -8.616 -10.358 -15.669  1.00  0.00    -0.307 N 
HETATM    8  C4  UNL     1      -9.820 -10.555 -16.350  1.00  0.00     0.223 C 
HETATM    9  O1  UNL     1     -10.892 -10.587 -15.687  1.00  0.00    -0.273 OA
ATOM     10  H1  UNL     1      -8.148 -11.164 -15.254  1.00  0.00     0.171 HD
BRANCH   8  11
HETATM   11  C3  UNL     1      -9.920 -10.733 -17.820  1.00  0.00     0.103 C 
BRANCH  11  12
HETATM   12  C2  UNL     1      -8.906 -11.732 -18.327  1.00  0.00     0.005 C 
HETATM   13  C1  UNL     1      -7.827 -10.977 -19.067  1.00  0.00     0.005 C 
ENDBRANCH  11  12
ENDBRANCH   8  11
ENDBRANCH   1   7
BRANCH   4  14
HETATM   14  C7  UNL     1      -8.366  -5.673 -14.368  1.00  0.00     0.095 C 
HETATM   15  C8  UNL     1      -7.395  -5.097 -13.404  1.00  0.00     0.031 C 
HETATM   16  C9  UNL     1      -9.663  -5.936 -13.589  1.00  0.00     0.031 C 
BRANCH  14  17
HETATM   17  C10 UNL     1      -8.721  -4.659 -15.407  1.00  0.00     0.400 C 
HETATM   18  F1  UNL     1      -7.873  -3.565 -15.415  1.00  0.00    -0.170 F 
HETATM   19  F2  UNL     1      -8.569  -5.219 -16.693  1.00  0.00    -0.170 F 
HETATM   20  F3  UNL     1     -10.052  -4.339 -15.334  1.00  0.00    -0.170 F 
ENDBRANCH  14  17
ENDBRANCH   4  14
BRANCH   5  21
HETATM   21  N3  UNL     1      -5.590  -6.062 -15.644  1.00  0.00    -0.319 N 
HETATM   22  C12 UNL     1      -5.286  -5.498 -16.908  1.00  0.00     0.226 C 
HETATM   23  O2  UNL     1      -5.924  -5.894 -17.914  1.00  0.00    -0.273 OA
ATOM     24  H3  UNL     1      -5.081  -5.751 -14.817  1.00  0.00     0.169 HD
BRANCH  22  25
HETATM   25  C13 UNL     1      -4.246  -4.461 -17.090  1.00  0.00     0.070 C 
HETATM   26  C14 UNL     1      -4.810  -3.155 -16.572  1.00  0.00     0.019 C 
HETATM   27  C15 UNL     1      -3.936  -4.381 -18.572  1.00  0.00     0.019 C 
ENDBRANCH  22  25
ENDBRANCH   5  21
TORSDOF 7
ENDMDL
MODEL 3
REMARK VINA RESULT: -7.690088261      1.855      2.446
REMARK  7 active torsions:
REMARK  status: ('A' for Active; 'I' for Inactive)
REMARK    1  A    between atoms: C2_2  and  C3_3 
REMARK    2  A    between atoms: C3_3  and  C4_4 
REMARK       I    between atoms: C4_4  and  N1_6 
REMARK    3  A    between atoms: N1_6  and  C5_8 
REMARK    4  A    between atoms: C6_11  and  C7_12 
REMARK    5  A    between atoms: C7_12  and  C10_15 
REMARK    6  A    between atoms: C11_19  and  N3_20 
REMARK       I    between atoms: N3_20  and  C12_22 
REMARK    7  A    between atoms: C12_22  and  C13_24 
ROOT
HETATM    1  C5  UNL     1      -8.155  -9.080 -15.188  1.00  0.00     0.153 A 
HETATM    2  N2  UNL     1      -8.280  -7.836 -14.717  1.00  0.00    -0.337 N 
ATOM      3  H2  UNL     1      -8.998  -7.610 -14.029  1.00  0.00     0.168 HD
HETATM    4  C6  UNL     1      -7.460  -6.910 -15.158  1.00  0.00     0.062 A 
HETATM    5  C11 UNL     1      -6.522  -7.308 -16.088  1.00  0.00     0.103 A 
HETATM    6  S1  UNL     1      -6.856  -8.956 -16.278  1.00  0.00    -0.034 SA
ENDROOT
BRANCH   1   7
HETATM    7  N1  UNL     1      -8.868 -10.147 -14.880  1.00  0.00    -0.307 N 
HETATM    8  C4  UNL     1      -9.866 -10.647 -15.720  1.00  0.00     0.223 C 
HETATM    9  O1  UNL     1     -11.061 -10.302 -15.511  1.00  0.00    -0.273 OA
ATOM     10  H1  UNL     1      -8.683 -10.624 -13.998  1.00  0.00     0.171 HD
BRANCH   8  11
HETATM   11  C3  UNL     1      -9.611 -11.570 -16.853  1.00  0.00     0.103 C 
BRANCH  11  12
HETATM   12  C2  UNL     1      -9.398 -10.813 -18.145  1.00  0.00     0.005 C 
HETATM   13  C1  UNL     1      -8.278 -11.481 -18.905  1.00  0.00     0.005 C 
ENDBRANCH  11  12
ENDBRANCH   8  11
ENDBRANCH   1   7
BRANCH   4  14
HETATM   14  C7  UNL     1      -7.529  -5.470 -14.683  1.00  0.00     0.095 C 
HETATM   15  C8  UNL     1      -6.216  -4.995 -14.180  1.00  0.00     0.031 C 
HETATM   16  C9  UNL     1      -8.520  -5.358 -13.515  1.00  0.00     0.031 C 
BRANCH  14  17
HETATM   17  C10 UNL     1      -8.042  -4.540 -15.736  1.00  0.00     0.400 C 
HETATM   18  F1  UNL     1      -8.769  -5.182 -16.724  1.00  0.00    -0.170 F 
HETATM   19  F2  UNL     1      -8.963  -3.636 -15.165  1.00  0.00    -0.170 F 
HETATM   20  F3  UNL     1      -7.033  -3.742 -16.207  1.00  0.00    -0.170 F 
ENDBRANCH  14  17
ENDBRANCH   4  14
BRANCH   5  21
HETATM   21  N3  UNL     1      -5.515  -6.555 -16.745  1.00  0.00    -0.319 N 
HETATM   22  C12 UNL     1      -5.693  -6.129 -18.085  1.00  0.00     0.226 C 
HETATM   23  O2  UNL     1      -6.757  -6.431 -18.678  1.00  0.00    -0.273 OA
ATOM     24  H3  UNL     1      -4.656  -6.318 -16.250  1.00  0.00     0.169 HD
BRANCH  22  25
HETATM   25  C13 UNL     1      -4.673  -5.343 -18.814  1.00  0.00     0.070 C 
HETATM   26  C14 UNL     1      -4.213  -4.232 -17.895  1.00  0.00     0.019 C 
HETATM   27  C15 UNL     1      -5.329  -4.791 -20.065  1.00  0.00     0.019 C 
ENDBRANCH  22  25
ENDBRANCH   5  21
TORSDOF 7
ENDMDL
MODEL 4
REMARK VINA RESULT: -7.667088256      1.730      2.096
REMARK  7 active torsions:
REMARK  status: ('A' for Active; 'I' for Inactive)
REMARK    1  A    between atoms: C2_2  and  C3_3 
REMARK    2  A    between atoms: C3_3  and  C4_4 
REMARK       I    between atoms: C4_4  and  N1_6 
REMARK    3  A    between atoms: N1_6  and  C5_8 
REMARK    4  A    between atoms: C6_11  and  C7_12 
REMARK    5  A    between atoms: C7_12  and  C10_15 
REMARK    6  A    between atoms: C11_19  and  N3_20 
REMARK       I    between atoms: N3_20  and  C12_22 
REMARK    7  A    between atoms: C12_22  and  C13_24 
ROOT
HETATM    1  C5  UNL     1      -8.035  -9.114 -15.686  1.00  0.00     0.153 A 
HETATM    2  N2  UNL     1      -8.498  -7.990 -15.130  1.00  0.00    -0.337 N 
ATOM      3  H2  UNL     1      -9.386  -7.985 -14.629  1.00  0.00     0.168 HD
HETATM    4  C6  UNL     1      -7.785  -6.893 -15.243  1.00  0.00     0.062 A 
HETATM    5  C11 UNL     1      -6.599  -6.995 -15.938  1.00  0.00     0.103 A 
HETATM    6  S1  UNL     1      -6.565  -8.627 -16.386  1.00  0.00    -0.034 SA
ENDROOT
BRANCH   1   7
HETATM    7  N1  UNL     1      -8.588 -10.313 -15.690  1.00  0.00    -0.307 N 
HETATM    8  C4  UNL     1      -9.810 -10.571 -16.314  1.00  0.00     0.223 C 
HETATM    9  O1  UNL     1     -10.862 -10.545 -15.620  1.00  0.00    -0.273 OA
ATOM     10  H1  UNL     1      -8.105 -11.078 -15.219  1.00  0.00     0.171 HD
BRANCH   8  11
HETATM   11  C3  UNL     1      -9.954 -10.879 -17.759  1.00  0.00     0.103 C 
BRANCH  11  12
HETATM   12  C2  UNL     1      -8.854 -11.798 -18.240  1.00  0.00     0.005 C 
HETATM   13  C1  UNL     1      -7.939 -11.007 -19.144  1.00  0.00     0.005 C 
ENDBRANCH  11  12
ENDBRANCH   8  11
ENDBRANCH   1   7
BRANCH   4  14
HETATM   14  C7  UNL     1      -8.231  -5.570 -14.648  1.00  0.00     0.095 C 
HETATM   15  C8  UNL     1      -7.219  -5.021 -13.711  1.00  0.00     0.031 C 
HETATM   16  C9  UNL     1      -9.520  -5.775 -13.838  1.00  0.00     0.031 C 
BRANCH  14  17
HETATM   17  C10 UNL     1      -8.570  -4.554 -15.691  1.00  0.00     0.400 C 
HETATM   18  F1  UNL     1      -8.798  -5.107 -16.939  1.00  0.00    -0.170 F 
HETATM   19  F2  UNL     1      -9.791  -3.926 -15.366  1.00  0.00    -0.170 F 
HETATM   20  F3  UNL     1      -7.654  -3.534 -15.686  1.00  0.00    -0.170 F 
ENDBRANCH  14  17
ENDBRANCH   4  14
BRANCH   5  21
HETATM   21  N3  UNL     1      -5.625  -6.006 -16.230  1.00  0.00    -0.319 N 
HETATM   22  C12 UNL     1      -5.539  -5.439 -17.526  1.00  0.00     0.226 C 
HETATM   23  O2  UNL     1      -6.340  -5.830 -18.409  1.00  0.00    -0.273 OA
ATOM     24  H3  UNL     1      -4.982  -5.699 -15.501  1.00  0.00     0.169 HD
BRANCH  22  25
HETATM   25  C13 UNL     1      -4.541  -4.405 -17.879  1.00  0.00     0.070 C 
HETATM   26  C14 UNL     1      -3.190  -5.083 -17.953  1.00  0.00     0.019 C 
HETATM   27  C15 UNL     1      -4.572  -3.350 -16.791  1.00  0.00     0.019 C 
ENDBRANCH  22  25
ENDBRANCH   5  21
TORSDOF 7
ENDMDL
MODEL 5
REMARK VINA RESULT: -7.635015986      0.788      1.195
REMARK  7 active torsions:
REMARK  status: ('A' for Active; 'I' for Inactive)
REMARK    1  A    between atoms: C2_2  and  C3_3 
REMARK    2  A    between atoms: C3_3  and  C4_4 
REMARK       I    between atoms: C4_4  and  N1_6 
REMARK    3  A    between atoms: N1_6  and  C5_8 
REMARK    4  A    between atoms: C6_11  and  C7_12 
REMARK    5  A    between atoms: C7_12  and  C10_15 
REMARK    6  A    between atoms: C11_19  and  N3_20 
REMARK       I    between atoms: N3_20  and  C12_22 
REMARK    7  A    between atoms: C12_22  and  C13_24 
ROOT
HETATM    1  C5  UNL     1      -8.078  -9.205 -15.343  1.00  0.00     0.153 A 
HETATM    2  N2  UNL     1      -8.323  -8.153 -14.556  1.00  0.00    -0.337 N 
ATOM      3  H2  UNL     1      -9.073  -8.183 -13.866  1.00  0.00     0.168 HD
HETATM    4  C6  UNL     1      -7.579  -7.079 -14.691  1.00  0.00     0.062 A 
HETATM    5  C11 UNL     1      -6.590  -7.129 -15.650  1.00  0.00     0.103 A 
HETATM    6  S1  UNL     1      -6.773  -8.682 -16.298  1.00  0.00    -0.034 SA
ENDROOT
BRANCH   1   7
HETATM    7  N1  UNL     1      -8.700 -10.368 -15.371  1.00  0.00    -0.307 N 
HETATM    8  C4  UNL     1      -9.937 -10.540 -15.996  1.00  0.00     0.223 C 
HETATM    9  O1  UNL     1     -10.984 -10.468 -15.295  1.00  0.00    -0.273 OA
ATOM     10  H1  UNL     1      -8.261 -11.171 -14.920  1.00  0.00     0.171 HD
BRANCH   8  11
HETATM   11  C3  UNL     1     -10.104 -10.806 -17.446  1.00  0.00     0.103 C 
BRANCH  11  12
HETATM   12  C2  UNL     1      -9.088 -11.809 -17.944  1.00  0.00     0.005 C 
HETATM   13  C1  UNL     1      -8.166 -11.106 -18.913  1.00  0.00     0.005 C 
ENDBRANCH  11  12
ENDBRANCH   8  11
ENDBRANCH   1   7
BRANCH   4  14
HETATM   14  C7  UNL     1      -7.785  -5.836 -13.843  1.00  0.00     0.095 C 
HETATM   15  C8  UNL     1      -8.614  -4.825 -14.546  1.00  0.00     0.031 C 
HETATM   16  C9  UNL     1      -6.429  -5.177 -13.554  1.00  0.00     0.031 C 
BRANCH  14  17
HETATM   17  C10 UNL     1      -8.376  -6.143 -12.504  1.00  0.00     0.400 C 
HETATM   18  F1  UNL     1      -7.774  -7.220 -11.876  1.00  0.00    -0.170 F 
HETATM   19  F2  UNL     1      -8.150  -5.063 -11.625  1.00  0.00    -0.170 F 
HETATM   20  F3  UNL     1      -9.741  -6.231 -12.588  1.00  0.00    -0.170 F 
ENDBRANCH  14  17
ENDBRANCH   4  14
BRANCH   5  21
HETATM   21  N3  UNL     1      -5.640  -6.146 -16.031  1.00  0.00    -0.319 N 
HETATM   22  C12 UNL     1      -5.873  -5.317 -17.156  1.00  0.00     0.226 C 
HETATM   23  O2  UNL     1      -6.935  -5.468 -17.808  1.00  0.00    -0.273 OA
ATOM     24  H3  UNL     1      -4.783  -6.036 -15.491  1.00  0.00     0.169 HD
BRANCH  22  25
HETATM   25  C13 UNL     1      -4.914  -4.279 -17.594  1.00  0.00     0.070 C 
HETATM   26  C14 UNL     1      -3.559  -4.940 -17.729  1.00  0.00     0.019 C 
HETATM   27  C15 UNL     1      -4.897  -3.195 -16.533  1.00  0.00     0.019 C 
ENDBRANCH  22  25
ENDBRANCH   5  21
TORSDOF 7
ENDMDL
