MODEL 1
REMARK VINA RESULT: -8.471210251      0.000      0.000
REMARK  5 active torsions:
REMARK  status: ('A' for Active; 'I' for Inactive)
REMARK    1  A    between atoms: C2_2  and  C3_3 
REMARK    2  A    between atoms: C3_3  and  N1_5 
REMARK    3  A    between atoms: N1_5  and  C5_7 
REMARK    4  A    between atoms: C7_11  and  S1_12 
REMARK    5  A    between atoms: S1_12  and  C8_13 
ROOT
HETATM    1  C5  UNL     1      -4.536  -4.967 -16.547  1.00  0.00     0.141 A 
HETATM    2  N2  UNL     1      -4.343  -6.204 -16.066  1.00  0.00    -0.349 N 
ATOM      3  H2  UNL     1      -3.396  -6.585 -16.060  1.00  0.00     0.167 HD
HETATM    4  C6  UNL     1      -5.347  -6.959 -15.592  1.00  0.00     0.109 A 
HETATM    5  C7  UNL     1      -6.663  -6.515 -15.564  1.00  0.00     0.031 A 
HETATM    6  C15 UNL     1      -6.899  -5.269 -16.041  1.00  0.00    -0.001 A 
HETATM    7  C16 UNL     1      -8.258  -4.690 -16.035  1.00  0.00     0.053 C 
HETATM    8  C17 UNL     1      -5.856  -4.496 -16.529  1.00  0.00     0.167 A 
HETATM    9  F2  UNL     1      -6.124  -3.243 -17.005  1.00  0.00    -0.202 F 
ENDROOT
BRANCH   5  10
HETATM   10  S1  UNL     1      -7.924  -7.610 -14.880  1.00  0.00    -0.067 SA
BRANCH  10  11
HETATM   11  C8  UNL     1      -8.303  -8.940 -15.978  1.00  0.00     0.120 A 
HETATM   12  N3  UNL     1      -7.614  -9.113 -17.146  1.00  0.00    -0.328 N 
HETATM   13  C9  UNL     1      -7.851 -10.106 -17.986  1.00  0.00     0.162 A 
ATOM     14  H3  UNL     1      -6.882  -8.444 -17.381  1.00  0.00     0.168 HD
HETATM   15  O1  UNL     1      -7.327 -10.458 -19.136  1.00  0.00    -0.305 OA
HETATM   16  C12 UNL     1      -8.847 -11.023 -17.677  1.00  0.00     0.070 A 
HETATM   17  C10 UNL     1      -7.915 -11.538 -19.588  1.00  0.00     0.145 A 
HETATM   18  C11 UNL     1      -8.892 -11.947 -18.706  1.00  0.00     0.044 A 
HETATM   19  C13 UNL     1      -9.559 -10.892 -16.527  1.00  0.00     0.227 A 
HETATM   20  O2  UNL     1     -10.466 -11.698 -16.211  1.00  0.00    -0.284 OA
HETATM   21  C14 UNL     1      -9.286  -9.840 -15.667  1.00  0.00     0.201 A 
HETATM   22  F1  UNL     1     -10.002  -9.771 -14.538  1.00  0.00    -0.199 F 
ENDBRANCH  10  11
ENDBRANCH   5  10
BRANCH   1  23
HETATM   23  N1  UNL     1      -3.585  -4.240 -17.000  1.00  0.00    -0.369 N 
ATOM     24  H1  UNL     1      -2.939  -3.813 -16.337  1.00  0.00     0.161 HD
BRANCH  23  25
HETATM   25  C3  UNL     1      -3.389  -4.001 -18.389  1.00  0.00     0.078 C 
HETATM   26  C4  UNL     1      -1.947  -3.511 -18.579  1.00  0.00     0.032 C 
BRANCH  25  27
HETATM   27  C2  UNL     1      -3.628  -5.238 -19.236  1.00  0.00     0.020 C 
HETATM   28  C1  UNL     1      -4.738  -4.911 -20.213  1.00  0.00     0.007 C 
ENDBRANCH  25  27
ENDBRANCH  23  25
ENDBRANCH   1  23
TORSDOF 5
ENDMDL
MODEL 2
REMARK VINA RESULT: -8.339869694      0.402      1.194
REMARK  5 active torsions:
REMARK  status: ('A' for Active; 'I' for Inactive)
REMARK    1  A    between atoms: C2_2  and  C3_3 
REMARK    2  A    between atoms: C3_3  and  N1_5 
REMARK    3  A    between atoms: N1_5  and  C5_7 
REMARK    4  A    between atoms: C7_11  and  S1_12 
REMARK    5  A    between atoms: S1_12  and  C8_13 
ROOT
HETATM    1  C5  UNL     1      -4.596  -4.819 -16.589  1.00  0.00     0.141 A 
HETATM    2  N2  UNL     1      -4.301  -6.035 -16.108  1.00  0.00    -0.349 N 
ATOM      3  H2  UNL     1      -3.329  -6.345 -16.121  1.00  0.00     0.167 HD
HETATM    4  C6  UNL     1      -5.236  -6.861 -15.609  1.00  0.00     0.109 A 
HETATM    5  C7  UNL     1      -6.580  -6.516 -15.555  1.00  0.00     0.031 A 
HETATM    6  C15 UNL     1      -6.919  -5.293 -16.031  1.00  0.00    -0.001 A 
HETATM    7  C16 UNL     1      -8.316  -4.817 -15.998  1.00  0.00     0.053 C 
HETATM    8  C17 UNL     1      -5.947  -4.448 -16.545  1.00  0.00     0.167 A 
HETATM    9  F2  UNL     1      -6.318  -3.220 -17.019  1.00  0.00    -0.202 F 
ENDROOT
BRANCH   5  10
HETATM   10  S1  UNL     1      -7.741  -7.698 -14.840  1.00  0.00    -0.067 SA
BRANCH  10  11
HETATM   11  C8  UNL     1      -8.152  -8.984 -15.978  1.00  0.00     0.120 A 
HETATM   12  N3  UNL     1      -7.447  -9.158 -17.135  1.00  0.00    -0.328 N 
HETATM   13  C9  UNL     1      -7.708 -10.119 -18.004  1.00  0.00     0.162 A 
ATOM     14  H3  UNL     1      -6.682  -8.515 -17.338  1.00  0.00     0.168 HD
HETATM   15  O1  UNL     1      -7.174 -10.466 -19.151  1.00  0.00    -0.305 OA
HETATM   16  C12 UNL     1      -8.747 -11.000 -17.739  1.00  0.00     0.070 A 
HETATM   17  C10 UNL     1      -7.797 -11.509 -19.643  1.00  0.00     0.145 A 
HETATM   18  C11 UNL     1      -8.809 -11.896 -18.791  1.00  0.00     0.044 A 
HETATM   19  C13 UNL     1      -9.478 -10.867 -16.600  1.00  0.00     0.227 A 
HETATM   20  O2  UNL     1     -10.424 -11.640 -16.324  1.00  0.00    -0.284 OA
HETATM   21  C14 UNL     1      -9.179  -9.848 -15.710  1.00  0.00     0.201 A 
HETATM   22  F1  UNL     1      -9.916  -9.776 -14.593  1.00  0.00    -0.199 F 
ENDBRANCH  10  11
ENDBRANCH   5  10
BRANCH   1  23
HETATM   23  N1  UNL     1      -3.712  -4.026 -17.066  1.00  0.00    -0.369 N 
ATOM     24  H1  UNL     1      -3.594  -3.111 -16.632  1.00  0.00     0.161 HD
BRANCH  23  25
HETATM   25  C3  UNL     1      -2.887  -4.364 -18.174  1.00  0.00     0.078 C 
HETATM   26  C4  UNL     1      -3.793  -4.504 -19.405  1.00  0.00     0.032 C 
BRANCH  25  27
HETATM   27  C2  UNL     1      -1.812  -3.327 -18.443  1.00  0.00     0.020 C 
HETATM   28  C1  UNL     1      -0.477  -4.044 -18.431  1.00  0.00     0.007 C 
ENDBRANCH  25  27
ENDBRANCH  23  25
ENDBRANCH   1  23
TORSDOF 5
ENDMDL
MODEL 3
REMARK VINA RESULT: -8.017986766      3.039      7.098
REMARK  5 active torsions:
REMARK  status: ('A' for Active; 'I' for Inactive)
REMARK    1  A    between atoms: C2_2  and  C3_3 
REMARK    2  A    between atoms: C3_3  and  N1_5 
REMARK    3  A    between atoms: N1_5  and  C5_7 
REMARK    4  A    between atoms: C7_11  and  S1_12 
REMARK    5  A    between atoms: S1_12  and  C8_13 
ROOT
HETATM    1  C5  UNL     1      -8.184  -9.134 -15.504  1.00  0.00     0.141 A 
HETATM    2  N2  UNL     1      -7.442  -8.772 -16.560  1.00  0.00    -0.349 N 
ATOM      3  H2  UNL     1      -7.130  -9.494 -17.211  1.00  0.00     0.167 HD
HETATM    4  C6  UNL     1      -7.094  -7.497 -16.795  1.00  0.00     0.109 A 
HETATM    5  C7  UNL     1      -7.477  -6.455 -15.960  1.00  0.00     0.031 A 
HETATM    6  C15 UNL     1      -8.230  -6.780 -14.880  1.00  0.00    -0.001 A 
HETATM    7  C16 UNL     1      -8.712  -5.747 -13.943  1.00  0.00     0.053 C 
HETATM    8  C17 UNL     1      -8.584  -8.100 -14.646  1.00  0.00     0.167 A 
HETATM    9  F2  UNL     1      -9.343  -8.399 -13.549  1.00  0.00    -0.202 F 
ENDROOT
BRANCH   5  10
HETATM   10  S1  UNL     1      -6.971  -4.778 -16.392  1.00  0.00    -0.067 SA
BRANCH  10  11
HETATM   11  C8  UNL     1      -5.705  -4.772 -17.623  1.00  0.00     0.120 A 
HETATM   12  N3  UNL     1      -5.997  -4.545 -18.939  1.00  0.00    -0.328 N 
HETATM   13  C9  UNL     1      -5.078  -4.511 -19.888  1.00  0.00     0.162 A 
ATOM     14  H3  UNL     1      -6.970  -4.393 -19.200  1.00  0.00     0.168 HD
HETATM   15  O1  UNL     1      -5.128  -4.314 -21.185  1.00  0.00    -0.305 OA
HETATM   16  C12 UNL     1      -3.749  -4.717 -19.545  1.00  0.00     0.070 A 
HETATM   17  C10 UNL     1      -3.925  -4.378 -21.699  1.00  0.00     0.145 A 
HETATM   18  C11 UNL     1      -3.002  -4.633 -20.706  1.00  0.00     0.044 A 
HETATM   19  C13 UNL     1      -3.409  -4.948 -18.248  1.00  0.00     0.227 A 
HETATM   20  O2  UNL     1      -2.222  -5.139 -17.896  1.00  0.00    -0.284 OA
HETATM   21  C14 UNL     1      -4.397  -4.976 -17.277  1.00  0.00     0.201 A 
HETATM   22  F1  UNL     1      -4.005  -5.186 -16.013  1.00  0.00    -0.199 F 
ENDBRANCH  10  11
ENDBRANCH   5  10
BRANCH   1  23
HETATM   23  N1  UNL     1      -8.520 -10.347 -15.272  1.00  0.00    -0.369 N 
ATOM     24  H1  UNL     1      -8.013 -10.864 -14.554  1.00  0.00     0.161 HD
BRANCH  23  25
HETATM   25  C3  UNL     1      -9.570 -11.006 -15.971  1.00  0.00     0.078 C 
HETATM   26  C4  UNL     1     -10.886 -10.679 -15.252  1.00  0.00     0.032 C 
BRANCH  25  27
HETATM   27  C2  UNL     1      -9.659 -10.585 -17.426  1.00  0.00     0.020 C 
HETATM   28  C1  UNL     1      -8.960 -11.647 -18.249  1.00  0.00     0.007 C 
ENDBRANCH  25  27
ENDBRANCH  23  25
ENDBRANCH   1  23
TORSDOF 5
ENDMDL
MODEL 4
REMARK VINA RESULT: -7.967294013      2.815      7.254
REMARK  5 active torsions:
REMARK  status: ('A' for Active; 'I' for Inactive)
REMARK    1  A    between atoms: C2_2  and  C3_3 
REMARK    2  A    between atoms: C3_3  and  N1_5 
REMARK    3  A    between atoms: N1_5  and  C5_7 
REMARK    4  A    between atoms: C7_11  and  S1_12 
REMARK    5  A    between atoms: S1_12  and  C8_13 
ROOT
HETATM    1  C5  UNL     1      -7.343  -8.829 -15.838  1.00  0.00     0.141 A 
HETATM    2  N2  UNL     1      -6.079  -8.742 -16.278  1.00  0.00    -0.349 N 
ATOM      3  H2  UNL     1      -5.631  -9.579 -16.652  1.00  0.00     0.167 HD
HETATM    4  C6  UNL     1      -5.381  -7.595 -16.247  1.00  0.00     0.109 A 
HETATM    5  C7  UNL     1      -5.917  -6.411 -15.755  1.00  0.00     0.031 A 
HETATM    6  C15 UNL     1      -7.193  -6.458 -15.300  1.00  0.00    -0.001 A 
HETATM    7  C16 UNL     1      -7.866  -5.252 -14.780  1.00  0.00     0.053 C 
HETATM    8  C17 UNL     1      -7.905  -7.647 -15.336  1.00  0.00     0.167 A 
HETATM    9  F2  UNL     1      -9.191  -7.665 -14.870  1.00  0.00    -0.202 F 
ENDROOT
BRANCH   5  10
HETATM   10  S1  UNL     1      -4.891  -4.927 -15.787  1.00  0.00    -0.067 SA
BRANCH  10  11
HETATM   11  C8  UNL     1      -4.280  -4.588 -17.409  1.00  0.00     0.120 A 
HETATM   12  N3  UNL     1      -2.994  -4.173 -17.609  1.00  0.00    -0.328 N 
HETATM   13  C9  UNL     1      -2.490  -3.928 -18.806  1.00  0.00     0.162 A 
ATOM     14  H3  UNL     1      -2.393  -4.046 -16.795  1.00  0.00     0.168 HD
HETATM   15  O1  UNL     1      -1.311  -3.530 -19.224  1.00  0.00    -0.305 OA
HETATM   16  C12 UNL     1      -3.298  -4.097 -19.922  1.00  0.00     0.070 A 
HETATM   17  C10 UNL     1      -1.305  -3.432 -20.530  1.00  0.00     0.145 A 
HETATM   18  C11 UNL     1      -2.540  -3.779 -21.035  1.00  0.00     0.044 A 
HETATM   19  C13 UNL     1      -4.585  -4.508 -19.774  1.00  0.00     0.227 A 
HETATM   20  O2  UNL     1      -5.348  -4.673 -20.755  1.00  0.00    -0.284 OA
HETATM   21  C14 UNL     1      -5.083  -4.756 -18.505  1.00  0.00     0.201 A 
HETATM   22  F1  UNL     1      -6.351  -5.181 -18.417  1.00  0.00    -0.199 F 
ENDBRANCH  10  11
ENDBRANCH   5  10
BRANCH   1  23
HETATM   23  N1  UNL     1      -8.015  -9.918 -15.863  1.00  0.00    -0.369 N 
ATOM     24  H1  UNL     1      -7.849 -10.610 -15.134  1.00  0.00     0.161 HD
BRANCH  23  25
HETATM   25  C3  UNL     1      -8.985 -10.204 -16.864  1.00  0.00     0.078 C 
HETATM   26  C4  UNL     1      -8.247 -10.795 -18.073  1.00  0.00     0.032 C 
BRANCH  25  27
HETATM   27  C2  UNL     1     -10.051 -11.174 -16.387  1.00  0.00     0.020 C 
HETATM   28  C1  UNL     1     -10.672 -10.586 -15.137  1.00  0.00     0.007 C 
ENDBRANCH  25  27
ENDBRANCH  23  25
ENDBRANCH   1  23
TORSDOF 5
ENDMDL
MODEL 5
REMARK VINA RESULT: -7.891317126      1.646      2.245
REMARK  5 active torsions:
REMARK  status: ('A' for Active; 'I' for Inactive)
REMARK    1  A    between atoms: C2_2  and  C3_3 
REMARK    2  A    between atoms: C3_3  and  N1_5 
REMARK    3  A    between atoms: N1_5  and  C5_7 
REMARK    4  A    between atoms: C7_11  and  S1_12 
REMARK    5  A    between atoms: S1_12  and  C8_13 
ROOT
HETATM    1  C5  UNL     1      -4.963  -4.952 -18.786  1.00  0.00     0.141 A 
HETATM    2  N2  UNL     1      -6.251  -5.248 -19.015  1.00  0.00    -0.349 N 
ATOM      3  H2  UNL     1      -6.694  -4.885 -19.860  1.00  0.00     0.167 HD
HETATM    4  C6  UNL     1      -6.980  -6.002 -18.176  1.00  0.00     0.109 A 
HETATM    5  C7  UNL     1      -6.453  -6.534 -17.006  1.00  0.00     0.031 A 
HETATM    6  C15 UNL     1      -5.153  -6.259 -16.739  1.00  0.00    -0.001 A 
HETATM    7  C16 UNL     1      -4.488  -6.795 -15.535  1.00  0.00     0.053 C 
HETATM    8  C17 UNL     1      -4.409  -5.478 -17.610  1.00  0.00     0.167 A 
HETATM    9  F2  UNL     1      -3.100  -5.216 -17.315  1.00  0.00    -0.202 F 
ENDROOT
BRANCH   5  10
HETATM   10  S1  UNL     1      -7.521  -7.555 -15.971  1.00  0.00    -0.067 SA
BRANCH  10  11
HETATM   11  C8  UNL     1      -8.049  -9.015 -16.812  1.00  0.00     0.120 A 
HETATM   12  N3  UNL     1      -7.470  -9.404 -17.987  1.00  0.00    -0.328 N 
HETATM   13  C9  UNL     1      -7.820 -10.499 -18.639  1.00  0.00     0.162 A 
ATOM     14  H3  UNL     1      -6.733  -8.820 -18.381  1.00  0.00     0.168 HD
HETATM   15  O1  UNL     1      -7.410 -11.053 -19.756  1.00  0.00    -0.305 OA
HETATM   16  C12 UNL     1      -8.823 -11.302 -18.113  1.00  0.00     0.070 A 
HETATM   17  C10 UNL     1      -8.080 -12.156 -19.985  1.00  0.00     0.145 A 
HETATM   18  C11 UNL     1      -8.995 -12.369 -18.976  1.00  0.00     0.044 A 
HETATM   19  C13 UNL     1      -9.429 -10.956 -16.946  1.00  0.00     0.227 A 
HETATM   20  O2  UNL     1     -10.338 -11.653 -16.438  1.00  0.00    -0.284 OA
HETATM   21  C14 UNL     1      -9.038  -9.801 -16.288  1.00  0.00     0.201 A 
HETATM   22  F1  UNL     1      -9.653  -9.520 -15.131  1.00  0.00    -0.199 F 
ENDBRANCH  10  11
ENDBRANCH   5  10
BRANCH   1  23
HETATM   23  N1  UNL     1      -4.262  -4.234 -19.579  1.00  0.00    -0.369 N 
ATOM     24  H1  UNL     1      -3.961  -3.312 -19.263  1.00  0.00     0.161 HD
BRANCH  23  25
HETATM   25  C3  UNL     1      -3.883  -4.664 -20.881  1.00  0.00     0.078 C 
HETATM   26  C4  UNL     1      -4.595  -3.760 -21.897  1.00  0.00     0.032 C 
BRANCH  25  27
HETATM   27  C2  UNL     1      -2.382  -4.606 -21.104  1.00  0.00     0.020 C 
HETATM   28  C1  UNL     1      -1.824  -3.566 -20.155  1.00  0.00     0.007 C 
ENDBRANCH  25  27
ENDBRANCH  23  25
ENDBRANCH   1  23
TORSDOF 5
ENDMDL
