MODEL 1
REMARK VINA RESULT: -7.062616659      0.000      0.000
REMARK  3 active torsions:
REMARK  status: ('A' for Active; 'I' for Inactive)
REMARK    1  A    between atoms: C2_2  and  C3_3 
REMARK    2  A    between atoms: C4_6  and  S1_7 
REMARK    3  A    between atoms: S1_7  and  C5_8 
ROOT
HETATM    1  C5  UNL     1      -8.552  -8.273 -15.363  1.00  0.00     0.078 A 
HETATM    2  C6  UNL     1      -9.435  -9.322 -15.178  1.00  0.00     0.065 A 
HETATM    3  C7  UNL     1      -9.522 -10.368 -16.100  1.00  0.00     0.069 A 
HETATM    4  N2  UNL     1     -10.430 -11.427 -15.891  1.00  0.00    -0.101 NA
HETATM    5  C8  UNL     1      -8.716 -10.358 -17.215  1.00  0.00     0.069 A 
HETATM    6 BR1  UNL     1      -8.789 -11.755 -18.505  1.00  0.00    -0.046 Br
HETATM    7  C9  UNL     1      -7.842  -9.305 -17.383  1.00  0.00     0.100 A 
HETATM    8 BR2  UNL     1      -6.694  -9.252 -18.929  1.00  0.00    -0.030 Br
HETATM    9  N3  UNL     1      -7.800  -8.329 -16.466  1.00  0.00    -0.344 N 
ATOM     10  H3  UNL     1      -7.141  -7.567 -16.622  1.00  0.00     0.167 HD
ENDROOT
BRANCH   1  11
HETATM   11  S1  UNL     1      -8.506  -6.991 -14.147  1.00  0.00    -0.053 SA
BRANCH  11  12
HETATM   12  C4  UNL     1      -7.949  -5.441 -14.797  1.00  0.00     0.093 A 
HETATM   13  N1  UNL     1      -6.632  -5.083 -14.836  1.00  0.00    -0.336 N 
HETATM   14  C3  UNL     1      -6.541  -3.862 -15.380  1.00  0.00     0.104 A 
ATOM     15  H1  UNL     1      -5.850  -5.650 -14.506  1.00  0.00     0.168 HD
HETATM   16  N4  UNL     1      -7.741  -3.406 -15.699  1.00  0.00    -0.350 N 
HETATM   17  C10 UNL     1      -8.630  -4.382 -15.339  1.00  0.00     0.127 A 
ATOM     18  H4  UNL     1      -7.961  -2.507 -16.127  1.00  0.00     0.166 HD
BRANCH  14  19
HETATM   19  C2  UNL     1      -5.302  -3.105 -15.608  1.00  0.00     0.038 C 
HETATM   20  C1  UNL     1      -4.926  -2.707 -16.794  1.00  0.00     0.015 C 
ENDBRANCH  14  19
ENDBRANCH  11  12
ENDBRANCH   1  11
TORSDOF 3
ENDMDL
MODEL 2
REMARK VINA RESULT: -7.044551662      2.613      6.261
REMARK  3 active torsions:
REMARK  status: ('A' for Active; 'I' for Inactive)
REMARK    1  A    between atoms: C2_2  and  C3_3 
REMARK    2  A    between atoms: C4_6  and  S1_7 
REMARK    3  A    between atoms: S1_7  and  C5_8 
ROOT
HETATM    1  C5  UNL     1      -8.219  -7.192 -14.563  1.00  0.00     0.078 A 
HETATM    2  C6  UNL     1      -8.834  -5.953 -14.570  1.00  0.00     0.065 A 
HETATM    3  C7  UNL     1      -8.154  -4.808 -14.992  1.00  0.00     0.069 A 
HETATM    4  N2  UNL     1      -8.802  -3.555 -14.990  1.00  0.00    -0.101 NA
HETATM    5  C8  UNL     1      -6.847  -4.910 -15.410  1.00  0.00     0.069 A 
HETATM    6 BR1  UNL     1      -5.871  -3.386 -15.996  1.00  0.00    -0.046 Br
HETATM    7  C9  UNL     1      -6.250  -6.153 -15.397  1.00  0.00     0.100 A 
HETATM    8 BR2  UNL     1      -4.423  -6.342 -15.974  1.00  0.00    -0.030 Br
HETATM    9  N3  UNL     1      -6.951  -7.218 -14.982  1.00  0.00    -0.344 N 
ATOM     10  H3  UNL     1      -6.477  -8.121 -14.987  1.00  0.00     0.167 HD
ENDROOT
BRANCH   1  11
HETATM   11  S1  UNL     1      -9.152  -8.589 -14.014  1.00  0.00    -0.053 SA
BRANCH  11  12
HETATM   12  C4  UNL     1      -9.433  -9.780 -15.293  1.00  0.00     0.093 A 
HETATM   13  N1  UNL     1      -8.680  -9.839 -16.430  1.00  0.00    -0.336 N 
HETATM   14  C3  UNL     1      -9.141 -10.841 -17.193  1.00  0.00     0.104 A 
ATOM     15  H1  UNL     1      -7.899  -9.225 -16.661  1.00  0.00     0.168 HD
HETATM   16  N4  UNL     1     -10.163 -11.439 -16.603  1.00  0.00    -0.350 N 
HETATM   17  C10 UNL     1     -10.357 -10.786 -15.416  1.00  0.00     0.127 A 
ATOM     18  H4  UNL     1     -10.699 -12.229 -16.961  1.00  0.00     0.166 HD
BRANCH  14  19
HETATM   19  C2  UNL     1      -8.612 -11.247 -18.502  1.00  0.00     0.038 C 
HETATM   20  C1  UNL     1      -7.575 -10.674 -19.053  1.00  0.00     0.015 C 
ENDBRANCH  14  19
ENDBRANCH  11  12
ENDBRANCH   1  11
TORSDOF 3
ENDMDL
MODEL 3
REMARK VINA RESULT: -6.836038778      2.118      2.658
REMARK  3 active torsions:
REMARK  status: ('A' for Active; 'I' for Inactive)
REMARK    1  A    between atoms: C2_2  and  C3_3 
REMARK    2  A    between atoms: C4_6  and  S1_7 
REMARK    3  A    between atoms: S1_7  and  C5_8 
ROOT
HETATM    1  C5  UNL     1      -6.470  -7.734 -16.062  1.00  0.00     0.078 A 
HETATM    2  C6  UNL     1      -7.304  -7.517 -14.979  1.00  0.00     0.065 A 
HETATM    3  C7  UNL     1      -8.473  -8.260 -14.803  1.00  0.00     0.069 A 
HETATM    4  N2  UNL     1      -9.308  -8.021 -13.691  1.00  0.00    -0.101 NA
HETATM    5  C8  UNL     1      -8.808  -9.227 -15.723  1.00  0.00     0.069 A 
HETATM    6 BR1  UNL     1     -10.388 -10.270 -15.537  1.00  0.00    -0.046 Br
HETATM    7  C9  UNL     1      -7.966  -9.430 -16.796  1.00  0.00     0.100 A 
HETATM    8 BR2  UNL     1      -8.395 -10.774 -18.107  1.00  0.00    -0.030 Br
HETATM    9  N3  UNL     1      -6.856  -8.688 -16.914  1.00  0.00    -0.344 N 
ATOM     10  H3  UNL     1      -6.256  -8.867 -17.719  1.00  0.00     0.167 HD
ENDROOT
BRANCH   1  11
HETATM   11  S1  UNL     1      -5.010  -6.750 -16.207  1.00  0.00    -0.053 SA
BRANCH  11  12
HETATM   12  C4  UNL     1      -5.352  -5.017 -16.327  1.00  0.00     0.093 A 
HETATM   13  N1  UNL     1      -4.379  -4.062 -16.261  1.00  0.00    -0.336 N 
HETATM   14  C3  UNL     1      -4.957  -2.858 -16.382  1.00  0.00     0.104 A 
ATOM     15  H1  UNL     1      -3.381  -4.235 -16.140  1.00  0.00     0.168 HD
HETATM   16  N4  UNL     1      -6.267  -2.986 -16.524  1.00  0.00    -0.350 N 
HETATM   17  C10 UNL     1      -6.527  -4.329 -16.490  1.00  0.00     0.127 A 
ATOM     18  H4  UNL     1      -6.946  -2.234 -16.636  1.00  0.00     0.166 HD
BRANCH  14  19
HETATM   19  C2  UNL     1      -4.268  -1.561 -16.365  1.00  0.00     0.038 C 
HETATM   20  C1  UNL     1      -4.018  -0.909 -15.261  1.00  0.00     0.015 C 
ENDBRANCH  14  19
ENDBRANCH  11  12
ENDBRANCH   1  11
TORSDOF 3
ENDMDL
MODEL 4
REMARK VINA RESULT: -6.674997497      3.116      6.767
REMARK  3 active torsions:
REMARK  status: ('A' for Active; 'I' for Inactive)
REMARK    1  A    between atoms: C2_2  and  C3_3 
REMARK    2  A    between atoms: C4_6  and  S1_7 
REMARK    3  A    between atoms: S1_7  and  C5_8 
ROOT
HETATM    1  C5  UNL     1      -8.308  -8.429 -15.274  1.00  0.00     0.078 A 
HETATM    2  C6  UNL     1      -8.928  -7.562 -14.392  1.00  0.00     0.065 A 
HETATM    3  C7  UNL     1      -8.296  -6.396 -13.955  1.00  0.00     0.069 A 
HETATM    4  N2  UNL     1      -8.949  -5.526 -13.055  1.00  0.00    -0.101 NA
HETATM    5  C8  UNL     1      -7.031  -6.099 -14.408  1.00  0.00     0.069 A 
HETATM    6 BR1  UNL     1      -6.120  -4.525 -13.848  1.00  0.00    -0.046 Br
HETATM    7  C9  UNL     1      -6.428  -6.974 -15.286  1.00  0.00     0.100 A 
HETATM    8 BR2  UNL     1      -4.658  -6.597 -15.946  1.00  0.00    -0.030 Br
HETATM    9  N3  UNL     1      -7.081  -8.078 -15.673  1.00  0.00    -0.344 N 
ATOM     10  H3  UNL     1      -6.605  -8.701 -16.324  1.00  0.00     0.167 HD
ENDROOT
BRANCH   1  11
HETATM   11  S1  UNL     1      -9.179  -9.882 -15.776  1.00  0.00    -0.053 SA
BRANCH  11  12
HETATM   12  C4  UNL     1      -8.662 -10.487 -17.358  1.00  0.00     0.093 A 
HETATM   13  N1  UNL     1      -9.311 -11.491 -18.016  1.00  0.00    -0.336 N 
HETATM   14  C3  UNL     1      -8.679 -11.715 -19.177  1.00  0.00     0.104 A 
ATOM     15  H1  UNL     1     -10.138 -11.987 -17.682  1.00  0.00     0.168 HD
HETATM   16  N4  UNL     1      -7.644 -10.900 -19.305  1.00  0.00    -0.350 N 
HETATM   17  C10 UNL     1      -7.622 -10.129 -18.175  1.00  0.00     0.127 A 
ATOM     18  H4  UNL     1      -6.993 -10.856 -20.089  1.00  0.00     0.166 HD
BRANCH  14  19
HETATM   19  C2  UNL     1      -9.052 -12.713 -20.188  1.00  0.00     0.038 C 
HETATM   20  C1  UNL     1      -8.179 -13.502 -20.757  1.00  0.00     0.015 C 
ENDBRANCH  14  19
ENDBRANCH  11  12
ENDBRANCH   1  11
TORSDOF 3
ENDMDL
MODEL 5
REMARK VINA RESULT: -6.661137882      2.777      6.435
REMARK  3 active torsions:
REMARK  status: ('A' for Active; 'I' for Inactive)
REMARK    1  A    between atoms: C2_2  and  C3_3 
REMARK    2  A    between atoms: C4_6  and  S1_7 
REMARK    3  A    between atoms: S1_7  and  C5_8 
ROOT
HETATM    1  C5  UNL     1      -8.189  -7.429 -14.544  1.00  0.00     0.078 A 
HETATM    2  C6  UNL     1      -7.823  -6.741 -13.401  1.00  0.00     0.065 A 
HETATM    3  C7  UNL     1      -7.048  -5.581 -13.469  1.00  0.00     0.069 A 
HETATM    4  N2  UNL     1      -6.688  -4.896 -12.289  1.00  0.00    -0.101 NA
HETATM    5  C8  UNL     1      -6.638  -5.110 -14.695  1.00  0.00     0.069 A 
HETATM    6 BR1  UNL     1      -5.581  -3.535 -14.850  1.00  0.00    -0.046 Br
HETATM    7  C9  UNL     1      -7.012  -5.808 -15.824  1.00  0.00     0.100 A 
HETATM    8 BR2  UNL     1      -6.460  -5.183 -17.560  1.00  0.00    -0.030 Br
HETATM    9  N3  UNL     1      -7.757  -6.914 -15.699  1.00  0.00    -0.344 N 
ATOM     10  H3  UNL     1      -8.015  -7.404 -16.556  1.00  0.00     0.167 HD
ENDROOT
BRANCH   1  11
HETATM   11  S1  UNL     1      -9.171  -8.888 -14.368  1.00  0.00    -0.053 SA
BRANCH  11  12
HETATM   12  C4  UNL     1      -9.423  -9.741 -15.899  1.00  0.00     0.093 A 
HETATM   13  N1  UNL     1      -8.397 -10.110 -16.720  1.00  0.00    -0.336 N 
HETATM   14  C3  UNL     1      -8.912 -10.732 -17.790  1.00  0.00     0.104 A 
ATOM     15  H1  UNL     1      -7.405  -9.940 -16.549  1.00  0.00     0.168 HD
HETATM   16  N4  UNL     1     -10.232 -10.786 -17.703  1.00  0.00    -0.350 N 
HETATM   17  C10 UNL     1     -10.563 -10.170 -16.526  1.00  0.00     0.127 A 
ATOM     18  H4  UNL     1     -10.873 -11.203 -18.377  1.00  0.00     0.166 HD
BRANCH  14  19
HETATM   19  C2  UNL     1      -8.153 -11.289 -18.918  1.00  0.00     0.038 C 
HETATM   20  C1  UNL     1      -8.627 -12.228 -19.692  1.00  0.00     0.015 C 
ENDBRANCH  14  19
ENDBRANCH  11  12
ENDBRANCH   1  11
TORSDOF 3
ENDMDL
