MODEL 1
REMARK VINA RESULT: -8.431997274      0.000      0.000
REMARK  6 active torsions:
REMARK  status: ('A' for Active; 'I' for Inactive)
REMARK    1  A    between atoms: C2_2  and  C4_5 
REMARK    2  A    between atoms: N3_10  and  C5_11 
REMARK    3  A    between atoms: C5_11  and  C6_12 
REMARK    4  A    between atoms: C9_16  and  O1_17 
REMARK    5  A    between atoms: O1_17  and  C10_18 
REMARK       I    between atoms: C10_18  and  N4_20 
REMARK    6  A    between atoms: N4_20  and  C11_22 
ROOT
HETATM    1  C5  UNL     1      -7.659  -5.704 -13.903  1.00  0.00     0.085 C 
HETATM    2  C7  UNL     1      -9.099  -5.751 -13.434  1.00  0.00     0.038 C 
HETATM    3  C8  UNL     1      -9.485  -7.239 -13.444  1.00  0.00     0.035 C 
HETATM    4  C9  UNL     1      -8.736  -7.674 -14.705  1.00  0.00     0.136 C 
HETATM    5  C17 UNL     1      -7.421  -7.059 -14.455  1.00  0.00     0.068 C 
ENDROOT
BRANCH   1   6
HETATM    6  N3  UNL     1      -7.479  -4.672 -14.906  1.00  0.00    -0.250 N 
HETATM    7  C4  UNL     1      -6.767  -4.380 -15.986  1.00  0.00     0.139 A 
HETATM    8  N1  UNL     1      -7.420  -3.201 -16.097  1.00  0.00    -0.271 N 
HETATM    9  N2  UNL     1      -8.101  -3.511 -15.043  1.00  0.00    -0.237 N 
ATOM     10  H1  UNL     1      -7.388  -2.409 -16.739  1.00  0.00     0.190 HD
ATOM     11  H2  UNL     1      -8.837  -3.040 -14.517  1.00  0.00     0.208 HD
BRANCH   7  12
HETATM   12  C2  UNL     1      -5.720  -4.991 -16.795  1.00  0.00     0.091 C 
HETATM   13  C1  UNL     1      -4.508  -5.451 -16.004  1.00  0.00     0.041 C 
HETATM   14  C3  UNL     1      -6.218  -6.085 -17.717  1.00  0.00     0.041 C 
HETATM   15 CL1  UNL     1      -5.064  -3.738 -17.926  1.00  0.00    -0.112 Cl
ENDBRANCH   7  12
ENDBRANCH   1   6
BRANCH   1  16
HETATM   16  C6  UNL     1      -6.911  -5.404 -12.617  1.00  0.00     0.255 C 
HETATM   17  F1  UNL     1      -5.792  -4.631 -12.998  1.00  0.00    -0.253 F 
ENDBRANCH   1  16
BRANCH   4  18
HETATM   18  O1  UNL     1      -8.779  -9.027 -14.973  1.00  0.00    -0.299 OA
BRANCH  18  19
HETATM   19  C10 UNL     1      -8.928  -9.533 -16.220  1.00  0.00     0.361 C 
HETATM   20  O2  UNL     1     -10.114  -9.766 -16.623  1.00  0.00    -0.238 OA
HETATM   21  N4  UNL     1      -7.804  -9.801 -17.059  1.00  0.00    -0.332 N 
ATOM     22  H4  UNL     1      -6.857  -9.592 -16.741  1.00  0.00     0.165 HD
BRANCH  21  23
HETATM   23  C11 UNL     1      -8.033 -10.375 -18.372  1.00  0.00     0.086 C 
HETATM   24  C12 UNL     1      -6.742 -10.341 -19.214  1.00  0.00     0.025 C 
HETATM   25  C13 UNL     1      -7.215 -10.565 -20.636  1.00  0.00     0.002 C 
HETATM   26  C14 UNL     1      -7.925 -11.883 -20.785  1.00  0.00     0.000 C 
HETATM   27  C15 UNL     1      -8.887 -12.232 -19.700  1.00  0.00     0.002 C 
HETATM   28  C16 UNL     1      -8.461 -11.781 -18.308  1.00  0.00     0.025 C 
ENDBRANCH  21  23
ENDBRANCH  18  19
ENDBRANCH   4  18
TORSDOF 6
ENDMDL
MODEL 2
REMARK VINA RESULT: -8.258664768      2.900      4.393
REMARK  6 active torsions:
REMARK  status: ('A' for Active; 'I' for Inactive)
REMARK    1  A    between atoms: C2_2  and  C4_5 
REMARK    2  A    between atoms: N3_10  and  C5_11 
REMARK    3  A    between atoms: C5_11  and  C6_12 
REMARK    4  A    between atoms: C9_16  and  O1_17 
REMARK    5  A    between atoms: O1_17  and  C10_18 
REMARK       I    between atoms: C10_18  and  N4_20 
REMARK    6  A    between atoms: N4_20  and  C11_22 
ROOT
HETATM    1  C5  UNL     1      -4.507  -4.014 -17.414  1.00  0.00     0.085 C 
HETATM    2  C7  UNL     1      -3.629  -5.233 -17.223  1.00  0.00     0.038 C 
HETATM    3  C8  UNL     1      -4.011  -6.195 -18.360  1.00  0.00     0.035 C 
HETATM    4  C9  UNL     1      -5.519  -5.934 -18.400  1.00  0.00     0.136 C 
HETATM    5  C17 UNL     1      -5.530  -4.461 -18.388  1.00  0.00     0.068 C 
ENDROOT
BRANCH   1   6
HETATM    6  N3  UNL     1      -5.100  -3.606 -16.155  1.00  0.00    -0.250 N 
HETATM    7  C4  UNL     1      -5.958  -4.008 -15.227  1.00  0.00     0.139 A 
HETATM    8  N1  UNL     1      -5.738  -2.870 -14.531  1.00  0.00    -0.271 N 
HETATM    9  N2  UNL     1      -4.906  -2.502 -15.449  1.00  0.00    -0.237 N 
ATOM     10  H1  UNL     1      -6.082  -2.473 -13.657  1.00  0.00     0.190 HD
ATOM     11  H2  UNL     1      -4.323  -1.675 -15.580  1.00  0.00     0.208 HD
BRANCH   7  12
HETATM   12  C2  UNL     1      -6.812  -5.159 -14.963  1.00  0.00     0.091 C 
HETATM   13  C1  UNL     1      -8.101  -5.178 -15.766  1.00  0.00     0.041 C 
HETATM   14  C3  UNL     1      -6.093  -6.490 -15.053  1.00  0.00     0.041 C 
HETATM   15 CL1  UNL     1      -7.363  -5.082 -13.240  1.00  0.00    -0.112 Cl
ENDBRANCH   7  12
ENDBRANCH   1   6
BRANCH   1  16
HETATM   16  C6  UNL     1      -3.524  -2.990 -17.953  1.00  0.00     0.255 C 
HETATM   17  F1  UNL     1      -3.481  -3.201 -19.349  1.00  0.00    -0.253 F 
ENDBRANCH   1  16
BRANCH   4  18
HETATM   18  O1  UNL     1      -6.197  -6.580 -19.412  1.00  0.00    -0.299 OA
BRANCH  18  19
HETATM   19  C10 UNL     1      -7.054  -7.606 -19.195  1.00  0.00     0.361 C 
HETATM   20  O2  UNL     1      -7.593  -8.148 -20.214  1.00  0.00    -0.238 OA
HETATM   21  N4  UNL     1      -7.352  -8.067 -17.876  1.00  0.00    -0.332 N 
ATOM     22  H4  UNL     1      -6.903  -7.643 -17.064  1.00  0.00     0.165 HD
BRANCH  21  23
HETATM   23  C11 UNL     1      -8.307  -9.147 -17.713  1.00  0.00     0.086 C 
HETATM   24  C12 UNL     1      -7.689 -10.490 -18.149  1.00  0.00     0.025 C 
HETATM   25  C13 UNL     1      -8.878 -11.412 -18.324  1.00  0.00     0.002 C 
HETATM   26  C14 UNL     1      -9.657 -11.564 -17.045  1.00  0.00     0.000 C 
HETATM   27  C15 UNL     1      -9.893 -10.311 -16.274  1.00  0.00     0.002 C 
HETATM   28  C16 UNL     1      -8.741  -9.314 -16.317  1.00  0.00     0.025 C 
ENDBRANCH  21  23
ENDBRANCH  18  19
ENDBRANCH   4  18
TORSDOF 6
ENDMDL
MODEL 3
REMARK VINA RESULT: -8.065053069      3.188      5.031
REMARK  6 active torsions:
REMARK  status: ('A' for Active; 'I' for Inactive)
REMARK    1  A    between atoms: C2_2  and  C4_5 
REMARK    2  A    between atoms: N3_10  and  C5_11 
REMARK    3  A    between atoms: C5_11  and  C6_12 
REMARK    4  A    between atoms: C9_16  and  O1_17 
REMARK    5  A    between atoms: O1_17  and  C10_18 
REMARK       I    between atoms: C10_18  and  N4_20 
REMARK    6  A    between atoms: N4_20  and  C11_22 
ROOT
HETATM    1  C5  UNL     1      -4.196  -4.434 -18.878  1.00  0.00     0.085 C 
HETATM    2  C7  UNL     1      -3.014  -5.381 -18.874  1.00  0.00     0.038 C 
HETATM    3  C8  UNL     1      -3.509  -6.656 -19.575  1.00  0.00     0.035 C 
HETATM    4  C9  UNL     1      -4.937  -6.694 -19.027  1.00  0.00     0.136 C 
HETATM    5  C17 UNL     1      -5.342  -5.296 -19.251  1.00  0.00     0.068 C 
ENDROOT
BRANCH   1   6
HETATM    6  N3  UNL     1      -4.375  -3.831 -17.571  1.00  0.00    -0.250 N 
HETATM    7  C4  UNL     1      -4.870  -4.080 -16.366  1.00  0.00     0.139 A 
HETATM    8  N1  UNL     1      -4.497  -2.846 -15.958  1.00  0.00    -0.271 N 
HETATM    9  N2  UNL     1      -4.021  -2.629 -17.140  1.00  0.00    -0.237 N 
ATOM     10  H1  UNL     1      -4.562  -2.316 -15.089  1.00  0.00     0.190 HD
ATOM     11  H2  UNL     1      -3.552  -1.835 -17.576  1.00  0.00     0.208 HD
BRANCH   7  12
HETATM   12  C2  UNL     1      -5.536  -5.174 -15.670  1.00  0.00     0.091 C 
HETATM   13  C1  UNL     1      -6.946  -5.457 -16.157  1.00  0.00     0.041 C 
HETATM   14  C3  UNL     1      -4.716  -6.446 -15.601  1.00  0.00     0.041 C 
HETATM   15 CL1  UNL     1      -5.750  -4.704 -13.935  1.00  0.00    -0.112 Cl
ENDBRANCH   7  12
ENDBRANCH   1   6
BRANCH   1  16
HETATM   16  C6  UNL     1      -3.794  -3.421 -19.936  1.00  0.00     0.255 C 
HETATM   17  F1  UNL     1      -4.627  -3.680 -21.046  1.00  0.00    -0.253 F 
ENDBRANCH   1  16
BRANCH   4  18
HETATM   18  O1  UNL     1      -5.736  -7.693 -19.544  1.00  0.00    -0.299 OA
BRANCH  18  19
HETATM   19  C10 UNL     1      -6.855  -8.142 -18.930  1.00  0.00     0.361 C 
HETATM   20  O2  UNL     1      -7.957  -8.032 -19.560  1.00  0.00    -0.238 OA
HETATM   21  N4  UNL     1      -6.813  -8.717 -17.623  1.00  0.00    -0.332 N 
ATOM     22  H4  UNL     1      -5.926  -8.823 -17.130  1.00  0.00     0.165 HD
BRANCH  21  23
HETATM   23  C11 UNL     1      -8.055  -9.147 -17.009  1.00  0.00     0.086 C 
HETATM   24  C12 UNL     1      -8.410 -10.583 -17.445  1.00  0.00     0.025 C 
HETATM   25  C13 UNL     1      -9.875 -10.733 -17.088  1.00  0.00     0.002 C 
HETATM   26  C14 UNL     1     -10.112 -10.540 -15.615  1.00  0.00     0.000 C 
HETATM   27  C15 UNL     1      -9.385  -9.402 -14.982  1.00  0.00     0.002 C 
HETATM   28  C16 UNL     1      -7.988  -9.154 -15.539  1.00  0.00     0.025 C 
ENDBRANCH  21  23
ENDBRANCH  18  19
ENDBRANCH   4  18
TORSDOF 6
ENDMDL
MODEL 4
REMARK VINA RESULT: -8.031176611      2.385      3.677
REMARK  6 active torsions:
REMARK  status: ('A' for Active; 'I' for Inactive)
REMARK    1  A    between atoms: C2_2  and  C4_5 
REMARK    2  A    between atoms: N3_10  and  C5_11 
REMARK    3  A    between atoms: C5_11  and  C6_12 
REMARK    4  A    between atoms: C9_16  and  O1_17 
REMARK    5  A    between atoms: O1_17  and  C10_18 
REMARK       I    between atoms: C10_18  and  N4_20 
REMARK    6  A    between atoms: N4_20  and  C11_22 
ROOT
HETATM    1  C5  UNL     1      -5.896  -4.417 -16.379  1.00  0.00     0.085 C 
HETATM    2  C7  UNL     1      -5.080  -5.450 -15.630  1.00  0.00     0.038 C 
HETATM    3  C8  UNL     1      -4.491  -6.370 -16.713  1.00  0.00     0.035 C 
HETATM    4  C9  UNL     1      -5.685  -6.409 -17.671  1.00  0.00     0.136 C 
HETATM    5  C17 UNL     1      -6.007  -4.974 -17.748  1.00  0.00     0.068 C 
ENDROOT
BRANCH   1   6
HETATM    6  N3  UNL     1      -7.196  -4.242 -15.759  1.00  0.00    -0.250 N 
HETATM    7  C4  UNL     1      -7.991  -4.765 -14.836  1.00  0.00     0.139 A 
HETATM    8  N1  UNL     1      -8.920  -3.819 -15.099  1.00  0.00    -0.271 N 
HETATM    9  N2  UNL     1      -8.126  -3.328 -15.993  1.00  0.00    -0.237 N 
ATOM     10  H1  UNL     1      -9.849  -3.592 -14.745  1.00  0.00     0.190 HD
ATOM     11  H2  UNL     1      -8.191  -2.537 -16.635  1.00  0.00     0.208 HD
BRANCH   7  12
HETATM   12  C2  UNL     1      -7.970  -5.869 -13.885  1.00  0.00     0.091 C 
HETATM   13  C1  UNL     1      -7.635  -7.217 -14.499  1.00  0.00     0.041 C 
HETATM   14  C3  UNL     1      -7.125  -5.604 -12.655  1.00  0.00     0.041 C 
HETATM   15 CL1  UNL     1      -9.641  -6.086 -13.221  1.00  0.00    -0.112 Cl
ENDBRANCH   7  12
ENDBRANCH   1   6
BRANCH   1  16
HETATM   16  C6  UNL     1      -5.027  -3.177 -16.268  1.00  0.00     0.255 C 
HETATM   17  F1  UNL     1      -5.054  -2.812 -14.905  1.00  0.00    -0.253 F 
ENDBRANCH   1  16
BRANCH   4  18
HETATM   18  O1  UNL     1      -5.465  -7.090 -18.850  1.00  0.00    -0.299 OA
BRANCH  18  19
HETATM   19  C10 UNL     1      -6.319  -8.019 -19.342  1.00  0.00     0.361 C 
HETATM   20  O2  UNL     1      -7.257  -7.611 -20.103  1.00  0.00    -0.238 OA
HETATM   21  N4  UNL     1      -6.184  -9.404 -19.023  1.00  0.00    -0.332 N 
ATOM     22  H4  UNL     1      -5.420  -9.729 -18.430  1.00  0.00     0.165 HD
BRANCH  21  23
HETATM   23  C11 UNL     1      -7.155 -10.341 -19.556  1.00  0.00     0.086 C 
HETATM   24  C12 UNL     1      -6.469 -11.374 -20.472  1.00  0.00     0.025 C 
HETATM   25  C13 UNL     1      -7.605 -11.992 -21.260  1.00  0.00     0.002 C 
HETATM   26  C14 UNL     1      -8.613 -12.652 -20.358  1.00  0.00     0.000 C 
HETATM   27  C15 UNL     1      -8.989 -11.890 -19.133  1.00  0.00     0.002 C 
HETATM   28  C16 UNL     1      -7.847 -11.101 -18.503  1.00  0.00     0.025 C 
ENDBRANCH  21  23
ENDBRANCH  18  19
ENDBRANCH   4  18
TORSDOF 6
ENDMDL
MODEL 5
REMARK VINA RESULT: -8.007623212      0.851      1.347
REMARK  6 active torsions:
REMARK  status: ('A' for Active; 'I' for Inactive)
REMARK    1  A    between atoms: C2_2  and  C4_5 
REMARK    2  A    between atoms: N3_10  and  C5_11 
REMARK    3  A    between atoms: C5_11  and  C6_12 
REMARK    4  A    between atoms: C9_16  and  O1_17 
REMARK    5  A    between atoms: O1_17  and  C10_18 
REMARK       I    between atoms: C10_18  and  N4_20 
REMARK    6  A    between atoms: N4_20  and  C11_22 
ROOT
HETATM    1  C5  UNL     1      -7.475  -5.527 -13.799  1.00  0.00     0.085 C 
HETATM    2  C7  UNL     1      -8.831  -5.246 -13.186  1.00  0.00     0.038 C 
HETATM    3  C8  UNL     1      -9.473  -6.625 -12.962  1.00  0.00     0.035 C 
HETATM    4  C9  UNL     1      -8.974  -7.331 -14.225  1.00  0.00     0.136 C 
HETATM    5  C17 UNL     1      -7.551  -6.954 -14.192  1.00  0.00     0.068 C 
ENDROOT
BRANCH   1   6
HETATM    6  N3  UNL     1      -7.239  -4.664 -14.941  1.00  0.00    -0.250 N 
HETATM    7  C4  UNL     1      -6.452  -4.526 -16.000  1.00  0.00     0.139 A 
HETATM    8  N1  UNL     1      -7.119  -3.403 -16.348  1.00  0.00    -0.271 N 
HETATM    9  N2  UNL     1      -7.873  -3.561 -15.310  1.00  0.00    -0.237 N 
ATOM     10  H1  UNL     1      -7.054  -2.723 -17.106  1.00  0.00     0.190 HD
ATOM     11  H2  UNL     1      -8.657  -3.036 -14.922  1.00  0.00     0.208 HD
BRANCH   7  12
HETATM   12  C2  UNL     1      -5.334  -5.225 -16.620  1.00  0.00     0.091 C 
HETATM   13  C1  UNL     1      -4.352  -5.832 -15.634  1.00  0.00     0.041 C 
HETATM   14  C3  UNL     1      -5.749  -6.235 -17.670  1.00  0.00     0.041 C 
HETATM   15 CL1  UNL     1      -4.348  -4.021 -17.546  1.00  0.00    -0.112 Cl
ENDBRANCH   7  12
ENDBRANCH   1   6
BRANCH   1  16
HETATM   16  C6  UNL     1      -6.532  -5.237 -12.645  1.00  0.00     0.255 C 
HETATM   17  F1  UNL     1      -5.781  -4.108 -13.041  1.00  0.00    -0.253 F 
ENDBRANCH   1  16
BRANCH   4  18
HETATM   18  O1  UNL     1      -9.289  -8.671 -14.309  1.00  0.00    -0.299 OA
BRANCH  18  19
HETATM   19  C10 UNL     1      -8.816  -9.486 -15.282  1.00  0.00     0.361 C 
HETATM   20  O2  UNL     1      -8.470 -10.665 -14.945  1.00  0.00    -0.238 OA
HETATM   21  N4  UNL     1      -8.703  -9.049 -16.637  1.00  0.00    -0.332 N 
ATOM     22  H4  UNL     1      -9.001  -8.111 -16.906  1.00  0.00     0.165 HD
BRANCH  21  23
HETATM   23  C11 UNL     1      -8.156  -9.962 -17.623  1.00  0.00     0.086 C 
HETATM   24  C12 UNL     1      -9.274 -10.814 -18.255  1.00  0.00     0.025 C 
HETATM   25  C13 UNL     1      -8.542 -11.963 -18.917  1.00  0.00     0.002 C 
HETATM   26  C14 UNL     1      -7.574 -11.478 -19.962  1.00  0.00     0.000 C 
HETATM   27  C15 UNL     1      -6.752 -10.292 -19.587  1.00  0.00     0.002 C 
HETATM   28  C16 UNL     1      -7.478  -9.265 -18.726  1.00  0.00     0.025 C 
ENDBRANCH  21  23
ENDBRANCH  18  19
ENDBRANCH   4  18
TORSDOF 6
ENDMDL
