MODEL 1
REMARK VINA RESULT: -8.738254455      0.000      0.000
REMARK  6 active torsions:
REMARK  status: ('A' for Active; 'I' for Inactive)
REMARK    1  A    between atoms: C2_2  and  C5_5 
REMARK    2  A    between atoms: C5_5  and  C6_6 
REMARK    3  A    between atoms: C6_6  and  N1_7 
REMARK    4  A    between atoms: C10_15  and  C11_16 
REMARK    5  A    between atoms: C11_16  and  O1_17 
REMARK    6  A    between atoms: C17_26  and  C18_27 
ROOT
HETATM    1  N1  UNL     1      -7.906  -8.382 -16.657  1.00  0.00    -0.368 N 
ATOM      2  H1  UNL     1      -8.595  -9.021 -16.261  1.00  0.00     0.165 HD
HETATM    3  C7  UNL     1      -7.529  -8.791 -17.763  1.00  0.00     0.064 A 
HETATM    4  C8  UNL     1      -6.600  -8.140 -18.542  1.00  0.00     0.050 A 
HETATM    5  C9  UNL     1      -6.255  -8.689 -19.745  1.00  0.00     0.110 A 
HETATM    6  N2  UNL     1      -6.804  -9.831 -20.160  1.00  0.00    -0.303 N 
ATOM      7  H2  UNL     1      -6.522 -10.213 -21.063  1.00  0.00     0.186 HD
HETATM    8  N3  UNL     1      -7.712 -10.496 -19.434  1.00  0.00    -0.237 N 
HETATM    9  C10 UNL     1      -8.371 -11.639 -19.673  1.00  0.00     0.139 A 
HETATM   10  N4  UNL     1      -9.159 -11.827 -18.594  1.00  0.00    -0.336 N 
ATOM     11  H4  UNL     1      -9.788 -12.622 -18.479  1.00  0.00     0.167 HD
HETATM   12  C17 UNL     1      -9.019 -10.845 -17.687  1.00  0.00     0.149 A 
HETATM   13  C19 UNL     1      -8.077  -9.986 -18.241  1.00  0.00     0.116 A 
ENDROOT
BRANCH   1  14
HETATM   14  C6  UNL     1      -7.681  -7.326 -15.791  1.00  0.00     0.062 C 
BRANCH  14  15
HETATM   15  C5  UNL     1      -8.039  -7.450 -14.354  1.00  0.00     0.052 C 
BRANCH  15  16
HETATM   16  C2  UNL     1      -8.455  -6.112 -13.780  1.00  0.00    -0.047 C 
HETATM   17  C1  UNL     1      -8.745  -5.093 -14.868  1.00  0.00     0.015 C 
HETATM   18  C3  UNL     1      -9.704  -6.347 -12.944  1.00  0.00     0.015 C 
HETATM   19  C4  UNL     1      -7.401  -5.512 -12.888  1.00  0.00     0.015 C 
ENDBRANCH  15  16
ENDBRANCH  14  15
ENDBRANCH   1  14
BRANCH  12  20
HETATM   20  C18 UNL     1      -9.732 -10.723 -16.373  1.00  0.00     0.435 C 
HETATM   21  F1  UNL     1     -10.398 -11.954 -16.188  1.00  0.00    -0.165 F 
HETATM   22  F2  UNL     1      -8.889 -10.648 -15.301  1.00  0.00    -0.165 F 
HETATM   23  F3  UNL     1     -10.745  -9.802 -16.389  1.00  0.00    -0.165 F 
ENDBRANCH  12  20
BRANCH   9  24
HETATM   24  C11 UNL     1      -8.297 -12.546 -20.856  1.00  0.00     0.118 C 
HETATM   25  C12 UNL     1      -8.352 -11.773 -22.151  1.00  0.00     0.046 C 
HETATM   26  C13 UNL     1      -7.991 -12.671 -23.294  1.00  0.00     0.003 C 
HETATM   27  C14 UNL     1      -6.545 -13.108 -23.258  1.00  0.00     0.000 C 
HETATM   28  C15 UNL     1      -6.011 -12.820 -21.884  1.00  0.00     0.003 C 
HETATM   29  C16 UNL     1      -6.974 -13.316 -20.852  1.00  0.00     0.046 C 
BRANCH  24  30
HETATM   30  O1  UNL     1      -9.292 -13.500 -20.859  1.00  0.00    -0.382 OA
ATOM     31  H1  UNL     1      -8.954 -14.384 -20.947  1.00  0.00     0.211 HD
ENDBRANCH  24  30
ENDBRANCH   9  24
TORSDOF 6
ENDMDL
MODEL 2
REMARK VINA RESULT: -8.707641241      2.394      3.281
REMARK  6 active torsions:
REMARK  status: ('A' for Active; 'I' for Inactive)
REMARK    1  A    between atoms: C2_2  and  C5_5 
REMARK    2  A    between atoms: C5_5  and  C6_6 
REMARK    3  A    between atoms: C6_6  and  N1_7 
REMARK    4  A    between atoms: C10_15  and  C11_16 
REMARK    5  A    between atoms: C11_16  and  O1_17 
REMARK    6  A    between atoms: C17_26  and  C18_27 
ROOT
HETATM    1  N1  UNL     1      -8.320  -8.582 -15.483  1.00  0.00    -0.368 N 
ATOM      2  H1  UNL     1      -7.525  -7.991 -15.723  1.00  0.00     0.165 HD
HETATM    3  C7  UNL     1      -8.486  -9.449 -16.351  1.00  0.00     0.064 A 
HETATM    4  C8  UNL     1      -9.483 -10.396 -16.304  1.00  0.00     0.050 A 
HETATM    5  C9  UNL     1      -9.574 -11.302 -17.324  1.00  0.00     0.110 A 
HETATM    6  N2  UNL     1      -8.717 -11.272 -18.345  1.00  0.00    -0.303 N 
ATOM      7  H2  UNL     1      -8.815 -11.962 -19.090  1.00  0.00     0.186 HD
HETATM    8  N3  UNL     1      -7.732 -10.369 -18.430  1.00  0.00    -0.237 N 
HETATM    9  C10 UNL     1      -6.783 -10.177 -19.357  1.00  0.00     0.139 A 
HETATM   10  N4  UNL     1      -6.066  -9.121 -18.921  1.00  0.00    -0.336 N 
ATOM     11  H4  UNL     1      -5.266  -8.731 -19.418  1.00  0.00     0.167 HD
HETATM   12  C17 UNL     1      -6.530  -8.643 -17.753  1.00  0.00     0.149 A 
HETATM   13  C19 UNL     1      -7.611  -9.459 -17.443  1.00  0.00     0.116 A 
ENDROOT
BRANCH   1  14
HETATM   14  C6  UNL     1      -8.880  -8.168 -14.287  1.00  0.00     0.062 C 
BRANCH  14  15
HETATM   15  C5  UNL     1      -8.021  -7.589 -13.221  1.00  0.00     0.052 C 
BRANCH  15  16
HETATM   16  C2  UNL     1      -8.087  -6.077 -13.231  1.00  0.00    -0.047 C 
HETATM   17  C1  UNL     1      -9.211  -5.563 -14.113  1.00  0.00     0.015 C 
HETATM   18  C3  UNL     1      -8.306  -5.624 -11.795  1.00  0.00     0.015 C 
HETATM   19  C4  UNL     1      -6.815  -5.446 -13.732  1.00  0.00     0.015 C 
ENDBRANCH  15  16
ENDBRANCH  14  15
ENDBRANCH   1  14
BRANCH  12  20
HETATM   20  C18 UNL     1      -5.983  -7.482 -16.974  1.00  0.00     0.435 C 
HETATM   21  F1  UNL     1      -4.878  -7.016 -17.717  1.00  0.00    -0.165 F 
HETATM   22  F2  UNL     1      -6.825  -6.407 -16.939  1.00  0.00    -0.165 F 
HETATM   23  F3  UNL     1      -5.441  -7.845 -15.771  1.00  0.00    -0.165 F 
ENDBRANCH  12  20
BRANCH   9  24
HETATM   24  C11 UNL     1      -6.522 -10.936 -20.617  1.00  0.00     0.118 C 
HETATM   25  C12 UNL     1      -6.893 -10.128 -21.836  1.00  0.00     0.046 C 
HETATM   26  C13 UNL     1      -6.358 -10.793 -23.067  1.00  0.00     0.003 C 
HETATM   27  C14 UNL     1      -4.849 -10.774 -23.133  1.00  0.00     0.000 C 
HETATM   28  C15 UNL     1      -4.333 -10.433 -21.763  1.00  0.00     0.003 C 
HETATM   29  C16 UNL     1      -5.032 -11.268 -20.738  1.00  0.00     0.046 C 
BRANCH  24  30
HETATM   30  O1  UNL     1      -7.186 -12.143 -20.659  1.00  0.00    -0.382 OA
ATOM     31  H1  UNL     1      -8.120 -12.054 -20.513  1.00  0.00     0.211 HD
ENDBRANCH  24  30
ENDBRANCH   9  24
TORSDOF 6
ENDMDL
MODEL 3
REMARK VINA RESULT: -8.634049926      1.610      1.962
REMARK  6 active torsions:
REMARK  status: ('A' for Active; 'I' for Inactive)
REMARK    1  A    between atoms: C2_2  and  C5_5 
REMARK    2  A    between atoms: C5_5  and  C6_6 
REMARK    3  A    between atoms: C6_6  and  N1_7 
REMARK    4  A    between atoms: C10_15  and  C11_16 
REMARK    5  A    between atoms: C11_16  and  O1_17 
REMARK    6  A    between atoms: C17_26  and  C18_27 
ROOT
HETATM    1  N1  UNL     1      -8.396  -8.218 -15.701  1.00  0.00    -0.368 N 
ATOM      2  H1  UNL     1      -8.999  -9.037 -15.780  1.00  0.00     0.165 HD
HETATM    3  C7  UNL     1      -7.571  -8.205 -16.624  1.00  0.00     0.064 A 
HETATM    4  C8  UNL     1      -6.622  -7.221 -16.785  1.00  0.00     0.050 A 
HETATM    5  C9  UNL     1      -5.757  -7.313 -17.839  1.00  0.00     0.110 A 
HETATM    6  N2  UNL     1      -5.826  -8.333 -18.696  1.00  0.00    -0.303 N 
ATOM      7  H2  UNL     1      -5.164  -8.370 -19.471  1.00  0.00     0.186 HD
HETATM    8  N3  UNL     1      -6.734  -9.310 -18.577  1.00  0.00    -0.237 N 
HETATM    9  C10 UNL     1      -6.965 -10.400 -19.322  1.00  0.00     0.139 A 
HETATM   10  N4  UNL     1      -8.005 -11.023 -18.730  1.00  0.00    -0.336 N 
ATOM     11  H4  UNL     1      -8.416 -11.893 -19.069  1.00  0.00     0.167 HD
HETATM   12  C17 UNL     1      -8.435 -10.364 -17.640  1.00  0.00     0.149 A 
HETATM   13  C19 UNL     1      -7.604  -9.253 -17.549  1.00  0.00     0.116 A 
ENDROOT
BRANCH   1  14
HETATM   14  C6  UNL     1      -8.755  -7.465 -14.597  1.00  0.00     0.062 C 
BRANCH  14  15
HETATM   15  C5  UNL     1      -7.746  -7.137 -13.557  1.00  0.00     0.052 C 
BRANCH  15  16
HETATM   16  C2  UNL     1      -7.812  -5.672 -13.180  1.00  0.00    -0.047 C 
HETATM   17  C1  UNL     1      -8.577  -4.855 -14.205  1.00  0.00     0.015 C 
HETATM   18  C3  UNL     1      -8.503  -5.585 -11.826  1.00  0.00     0.015 C 
HETATM   19  C4  UNL     1      -6.449  -5.046 -13.050  1.00  0.00     0.015 C 
ENDBRANCH  15  16
ENDBRANCH  14  15
ENDBRANCH   1  14
BRANCH  12  20
HETATM   20  C18 UNL     1      -9.567 -10.759 -16.737  1.00  0.00     0.435 C 
HETATM   21  F1  UNL     1     -10.005 -12.015 -17.207  1.00  0.00    -0.165 F 
HETATM   22  F2  UNL     1      -9.174 -11.014 -15.454  1.00  0.00    -0.165 F 
HETATM   23  F3  UNL     1     -10.668  -9.957 -16.866  1.00  0.00    -0.165 F 
ENDBRANCH  12  20
BRANCH   9  24
HETATM   24  C11 UNL     1      -6.263 -10.873 -20.552  1.00  0.00     0.118 C 
HETATM   25  C12 UNL     1      -6.658 -12.286 -20.906  1.00  0.00     0.046 C 
HETATM   26  C13 UNL     1      -6.166 -12.621 -22.281  1.00  0.00     0.003 C 
HETATM   27  C14 UNL     1      -6.865 -11.827 -23.360  1.00  0.00     0.000 C 
HETATM   28  C15 UNL     1      -7.567 -10.674 -22.701  1.00  0.00     0.003 C 
HETATM   29  C16 UNL     1      -6.637  -9.993 -21.748  1.00  0.00     0.046 C 
BRANCH  24  30
HETATM   30  O1  UNL     1      -4.891 -10.804 -20.443  1.00  0.00    -0.382 OA
ATOM     31  H1  UNL     1      -4.444 -11.138 -21.211  1.00  0.00     0.211 HD
ENDBRANCH  24  30
ENDBRANCH   9  24
TORSDOF 6
ENDMDL
MODEL 4
REMARK VINA RESULT: -8.593835728      1.912      3.001
REMARK  6 active torsions:
REMARK  status: ('A' for Active; 'I' for Inactive)
REMARK    1  A    between atoms: C2_2  and  C5_5 
REMARK    2  A    between atoms: C5_5  and  C6_6 
REMARK    3  A    between atoms: C6_6  and  N1_7 
REMARK    4  A    between atoms: C10_15  and  C11_16 
REMARK    5  A    between atoms: C11_16  and  O1_17 
REMARK    6  A    between atoms: C17_26  and  C18_27 
ROOT
HETATM    1  N1  UNL     1      -8.170  -8.704 -15.994  1.00  0.00    -0.368 N 
ATOM      2  H1  UNL     1      -7.519  -8.179 -16.579  1.00  0.00     0.165 HD
HETATM    3  C7  UNL     1      -8.582  -9.701 -16.602  1.00  0.00     0.064 A 
HETATM    4  C8  UNL     1      -9.474 -10.604 -16.071  1.00  0.00     0.050 A 
HETATM    5  C9  UNL     1      -9.864 -11.667 -16.837  1.00  0.00     0.110 A 
HETATM    6  N2  UNL     1      -9.393 -11.829 -18.074  1.00  0.00    -0.303 N 
ATOM      7  H2  UNL     1      -9.706 -12.633 -18.618  1.00  0.00     0.186 HD
HETATM    8  N3  UNL     1      -8.523 -10.975 -18.629  1.00  0.00    -0.237 N 
HETATM    9  C10 UNL     1      -7.939 -10.965 -19.836  1.00  0.00     0.139 A 
HETATM   10  N4  UNL     1      -7.155  -9.866 -19.843  1.00  0.00    -0.336 N 
ATOM     11  H4  UNL     1      -6.578  -9.584 -20.635  1.00  0.00     0.167 HD
HETATM   12  C17 UNL     1      -7.225  -9.188 -18.685  1.00  0.00     0.149 A 
HETATM   13  C19 UNL     1      -8.116  -9.915 -17.903  1.00  0.00     0.116 A 
ENDROOT
BRANCH   1  14
HETATM   14  C6  UNL     1      -8.319  -8.081 -14.768  1.00  0.00     0.062 C 
BRANCH  14  15
HETATM   15  C5  UNL     1      -7.440  -6.941 -14.398  1.00  0.00     0.052 C 
BRANCH  15  16
HETATM   16  C2  UNL     1      -8.190  -5.926 -13.561  1.00  0.00    -0.047 C 
HETATM   17  C1  UNL     1      -7.396  -5.499 -12.340  1.00  0.00     0.015 C 
HETATM   18  C3  UNL     1      -8.463  -4.721 -14.450  1.00  0.00     0.015 C 
HETATM   19  C4  UNL     1      -9.511  -6.450 -13.064  1.00  0.00     0.015 C 
ENDBRANCH  15  16
ENDBRANCH  14  15
ENDBRANCH   1  14
BRANCH  12  20
HETATM   20  C18 UNL     1      -6.494  -7.925 -18.335  1.00  0.00     0.435 C 
HETATM   21  F1  UNL     1      -5.684  -7.635 -19.454  1.00  0.00    -0.165 F 
HETATM   22  F2  UNL     1      -7.310  -6.834 -18.236  1.00  0.00    -0.165 F 
HETATM   23  F3  UNL     1      -5.597  -8.083 -17.313  1.00  0.00    -0.165 F 
ENDBRANCH  12  20
BRANCH   9  24
HETATM   24  C11 UNL     1      -8.081 -11.931 -20.965  1.00  0.00     0.118 C 
HETATM   25  C12 UNL     1      -7.892 -11.253 -22.300  1.00  0.00     0.046 C 
HETATM   26  C13 UNL     1      -7.755 -12.284 -23.378  1.00  0.00     0.003 C 
HETATM   27  C14 UNL     1      -6.482 -13.089 -23.258  1.00  0.00     0.000 C 
HETATM   28  C15 UNL     1      -5.926 -12.869 -21.880  1.00  0.00     0.003 C 
HETATM   29  C16 UNL     1      -7.014 -13.025 -20.865  1.00  0.00     0.046 C 
BRANCH  24  30
HETATM   30  O1  UNL     1      -9.296 -12.583 -20.960  1.00  0.00    -0.382 OA
ATOM     31  H1  UNL     1      -9.981 -12.085 -21.389  1.00  0.00     0.211 HD
ENDBRANCH  24  30
ENDBRANCH   9  24
TORSDOF 6
ENDMDL
MODEL 5
REMARK VINA RESULT: -8.526974582      4.460      6.947
REMARK  6 active torsions:
REMARK  status: ('A' for Active; 'I' for Inactive)
REMARK    1  A    between atoms: C2_2  and  C5_5 
REMARK    2  A    between atoms: C5_5  and  C6_6 
REMARK    3  A    between atoms: C6_6  and  N1_7 
REMARK    4  A    between atoms: C10_15  and  C11_16 
REMARK    5  A    between atoms: C11_16  and  O1_17 
REMARK    6  A    between atoms: C17_26  and  C18_27 
ROOT
HETATM    1  N1  UNL     1      -7.338  -7.760 -16.179  1.00  0.00    -0.368 N 
ATOM      2  H1  UNL     1      -7.318  -8.185 -17.106  1.00  0.00     0.165 HD
HETATM    3  C7  UNL     1      -6.435  -6.921 -16.073  1.00  0.00     0.064 A 
HETATM    4  C8  UNL     1      -6.209  -6.181 -14.935  1.00  0.00     0.050 A 
HETATM    5  C9  UNL     1      -5.177  -5.285 -14.931  1.00  0.00     0.110 A 
HETATM    6  N2  UNL     1      -4.401  -5.128 -16.005  1.00  0.00    -0.303 N 
ATOM      7  H2  UNL     1      -3.638  -4.452 -15.966  1.00  0.00     0.186 HD
HETATM    8  N3  UNL     1      -4.586  -5.826 -17.132  1.00  0.00    -0.237 N 
HETATM    9  C10 UNL     1      -3.928  -5.813 -18.300  1.00  0.00     0.139 A 
HETATM   10  N4  UNL     1      -4.555  -6.724 -19.073  1.00  0.00    -0.336 N 
ATOM     11  H4  UNL     1      -4.282  -6.944 -20.030  1.00  0.00     0.167 HD
HETATM   12  C17 UNL     1      -5.583  -7.308 -18.433  1.00  0.00     0.149 A 
HETATM   13  C19 UNL     1      -5.595  -6.720 -17.173  1.00  0.00     0.116 A 
ENDROOT
BRANCH   1  14
HETATM   14  C6  UNL     1      -8.368  -8.301 -15.429  1.00  0.00     0.062 C 
BRANCH  14  15
HETATM   15  C5  UNL     1      -8.440  -9.769 -15.208  1.00  0.00     0.052 C 
BRANCH  15  16
HETATM   16  C2  UNL     1      -9.704 -10.347 -15.807  1.00  0.00    -0.047 C 
HETATM   17  C1  UNL     1      -9.639 -11.859 -15.920  1.00  0.00     0.015 C 
HETATM   18  C3  UNL     1     -10.859  -9.943 -14.902  1.00  0.00     0.015 C 
HETATM   19  C4  UNL     1      -9.984  -9.816 -17.188  1.00  0.00     0.015 C 
ENDBRANCH  15  16
ENDBRANCH  14  15
ENDBRANCH   1  14
BRANCH  12  20
HETATM   20  C18 UNL     1      -6.502  -8.363 -18.978  1.00  0.00     0.435 C 
HETATM   21  F1  UNL     1      -6.009  -8.665 -20.265  1.00  0.00    -0.165 F 
HETATM   22  F2  UNL     1      -6.419  -9.553 -18.313  1.00  0.00    -0.165 F 
HETATM   23  F3  UNL     1      -7.771  -7.907 -19.211  1.00  0.00    -0.165 F 
ENDBRANCH  12  20
BRANCH   9  24
HETATM   24  C11 UNL     1      -2.755  -4.990 -18.717  1.00  0.00     0.118 C 
HETATM   25  C12 UNL     1      -1.999  -5.638 -19.852  1.00  0.00     0.046 C 
HETATM   26  C13 UNL     1      -1.017  -4.665 -20.428  1.00  0.00     0.003 C 
HETATM   27  C14 UNL     1      -1.686  -3.505 -21.128  1.00  0.00     0.000 C 
HETATM   28  C15 UNL     1      -3.127  -3.481 -20.703  1.00  0.00     0.003 C 
HETATM   29  C16 UNL     1      -3.219  -3.619 -19.217  1.00  0.00     0.046 C 
BRANCH  24  30
HETATM   30  O1  UNL     1      -1.882  -4.741 -17.680  1.00  0.00    -0.382 OA
ATOM     31  H1  UNL     1      -1.772  -3.814 -17.506  1.00  0.00     0.211 HD
ENDBRANCH  24  30
ENDBRANCH   9  24
TORSDOF 6
ENDMDL
