MODEL 1
REMARK VINA RESULT: -8.010700976      0.000      0.000
REMARK  6 active torsions:
REMARK  status: ('A' for Active; 'I' for Inactive)
REMARK    1  A    between atoms: C5_5  and  O1_6 
REMARK    2  A    between atoms: C6_8  and  N1_9 
REMARK       I    between atoms: N1_9  and  C7_11 
REMARK    3  A    between atoms: C7_11  and  C8_13 
REMARK    4  A    between atoms: C8_13  and  C9_14 
REMARK    5  A    between atoms: C9_14  and  N2_15 
REMARK    6  A    between atoms: C10_16  and  C11_17 
ROOT
HETATM    1  N2  UNL     1      -8.556  -7.729 -15.391  1.00  0.00    -0.362 N 
HETATM    2  C10 UNL     1      -7.501  -7.540 -16.301  1.00  0.00     0.194 C 
HETATM    3  C12 UNL     1      -7.094  -6.146 -16.620  1.00  0.00     0.054 C 
HETATM    4  C13 UNL     1      -7.498  -5.075 -15.681  1.00  0.00     0.005 C 
HETATM    5  C14 UNL     1      -6.476  -3.944 -15.762  1.00  0.00     0.026 C 
HETATM    6  C15 UNL     1      -8.870  -4.506 -15.964  1.00  0.00     0.026 C 
HETATM    7  S1  UNL     1      -7.355  -5.745 -14.004  1.00  0.00    -0.129 SA
HETATM    8  C16 UNL     1      -8.382  -7.276 -14.050  1.00  0.00     0.074 C 
HETATM    9  C17 UNL     1      -9.704  -6.790 -13.464  1.00  0.00     0.050 C 
HETATM   10  C18 UNL     1      -7.847  -8.271 -13.067  1.00  0.00     0.050 C 
ENDROOT
BRANCH   1  11
HETATM   11  C9  UNL     1      -9.278  -8.941 -15.482  1.00  0.00     0.070 C 
BRANCH  11  12
HETATM   12  C8  UNL     1      -8.689 -10.145 -16.032  1.00  0.00     0.147 C 
BRANCH  12  13
HETATM   13  C7  UNL     1      -8.949 -10.461 -17.443  1.00  0.00     0.222 C 
HETATM   14  N1  UNL     1      -7.876 -10.895 -18.310  1.00  0.00    -0.353 N 
ATOM     15  H1  UNL     1      -6.936 -10.976 -17.921  1.00  0.00     0.163 HD
HETATM   16  O2  UNL     1     -10.062 -10.392 -17.996  1.00  0.00    -0.273 OA
BRANCH  14  17
HETATM   17  C6  UNL     1      -8.082 -11.218 -19.705  1.00  0.00     0.116 C 
HETATM   18  C2  UNL     1      -6.789 -10.975 -20.443  1.00  0.00     0.007 C 
HETATM   19  C1  UNL     1      -6.950  -9.759 -21.330  1.00  0.00     0.012 C 
HETATM   20  C3  UNL     1      -6.477 -12.211 -21.220  1.00  0.00     0.009 C 
HETATM   21  C4  UNL     1      -7.623 -13.166 -21.019  1.00  0.00     0.034 C 
HETATM   22  C5  UNL     1      -8.489 -12.643 -19.922  1.00  0.00     0.141 C 
BRANCH  22  23
HETATM   23  O1  UNL     1      -9.812 -12.685 -20.409  1.00  0.00    -0.394 OA
ATOM     24  H1  UNL     1     -10.283 -11.991 -19.962  1.00  0.00     0.210 HD
ENDBRANCH  22  23
ENDBRANCH  14  17
ENDBRANCH  12  13
ENDBRANCH  11  12
ENDBRANCH   1  11
BRANCH   2  25
HETATM   25  C11 UNL     1      -6.234  -8.338 -16.130  1.00  0.00     0.407 C 
HETATM   26  F1  UNL     1      -5.715  -8.645 -17.426  1.00  0.00    -0.169 F 
HETATM   27  F2  UNL     1      -5.183  -7.633 -15.580  1.00  0.00    -0.169 F 
HETATM   28  F3  UNL     1      -6.375  -9.497 -15.422  1.00  0.00    -0.169 F 
ENDBRANCH   2  25
TORSDOF 6
ENDMDL
MODEL 2
REMARK VINA RESULT: -7.781046054      3.938      7.869
REMARK  6 active torsions:
REMARK  status: ('A' for Active; 'I' for Inactive)
REMARK    1  A    between atoms: C5_5  and  O1_6 
REMARK    2  A    between atoms: C6_8  and  N1_9 
REMARK       I    between atoms: N1_9  and  C7_11 
REMARK    3  A    between atoms: C7_11  and  C8_13 
REMARK    4  A    between atoms: C8_13  and  C9_14 
REMARK    5  A    between atoms: C9_14  and  N2_15 
REMARK    6  A    between atoms: C10_16  and  C11_17 
ROOT
HETATM    1  N2  UNL     1      -6.206 -11.406 -21.673  1.00  0.00    -0.362 N 
HETATM    2  C10 UNL     1      -7.583 -11.682 -21.605  1.00  0.00     0.194 C 
HETATM    3  C12 UNL     1      -8.330 -11.828 -22.883  1.00  0.00     0.054 C 
HETATM    4  C13 UNL     1      -7.552 -12.100 -24.113  1.00  0.00     0.005 C 
HETATM    5  C14 UNL     1      -8.436 -12.873 -25.089  1.00  0.00     0.026 C 
HETATM    6  C15 UNL     1      -7.051 -10.851 -24.803  1.00  0.00     0.026 C 
HETATM    7  S1  UNL     1      -6.211 -13.233 -23.664  1.00  0.00    -0.129 SA
HETATM    8  C16 UNL     1      -5.350 -12.372 -22.279  1.00  0.00     0.074 C 
HETATM    9  C17 UNL     1      -4.188 -11.694 -22.999  1.00  0.00     0.050 C 
HETATM   10  C18 UNL     1      -4.725 -13.383 -21.369  1.00  0.00     0.050 C 
ENDROOT
BRANCH   1  11
HETATM   11  C9  UNL     1      -5.622 -10.763 -20.558  1.00  0.00     0.070 C 
BRANCH  11  12
HETATM   12  C8  UNL     1      -5.840  -9.357 -20.283  1.00  0.00     0.147 C 
BRANCH  12  13
HETATM   13  C7  UNL     1      -6.978  -8.987 -19.431  1.00  0.00     0.222 C 
HETATM   14  N1  UNL     1      -7.125  -9.558 -18.111  1.00  0.00    -0.353 N 
ATOM     15  H1  UNL     1      -6.423 -10.223 -17.784  1.00  0.00     0.163 HD
HETATM   16  O2  UNL     1      -7.876  -8.186 -19.748  1.00  0.00    -0.273 OA
BRANCH  14  17
HETATM   17  C6  UNL     1      -8.228  -9.225 -17.234  1.00  0.00     0.116 C 
HETATM   18  C2  UNL     1      -9.076 -10.460 -17.051  1.00  0.00     0.007 C 
HETATM   19  C1  UNL     1     -10.389 -10.266 -17.777  1.00  0.00     0.012 C 
HETATM   20  C3  UNL     1      -9.259 -10.664 -15.584  1.00  0.00     0.009 C 
HETATM   21  C4  UNL     1      -8.594  -9.507 -14.885  1.00  0.00     0.034 C 
HETATM   22  C5  UNL     1      -7.782  -8.755 -15.885  1.00  0.00     0.141 C 
BRANCH  22  23
HETATM   23  O1  UNL     1      -8.120  -7.394 -15.725  1.00  0.00    -0.394 OA
ATOM     24  H1  UNL     1      -7.926  -6.973 -16.555  1.00  0.00     0.210 HD
ENDBRANCH  22  23
ENDBRANCH  14  17
ENDBRANCH  12  13
ENDBRANCH  11  12
ENDBRANCH   1  11
BRANCH   2  25
HETATM   25  C11 UNL     1      -8.066 -12.777 -20.689  1.00  0.00     0.407 C 
HETATM   26  F1  UNL     1      -9.477 -12.922 -20.865  1.00  0.00    -0.169 F 
HETATM   27  F2  UNL     1      -7.623 -14.040 -21.022  1.00  0.00    -0.169 F 
HETATM   28  F3  UNL     1      -7.802 -12.577 -19.364  1.00  0.00    -0.169 F 
ENDBRANCH   2  25
TORSDOF 6
ENDMDL
MODEL 3
REMARK VINA RESULT: -7.693193875      2.509      3.834
REMARK  6 active torsions:
REMARK  status: ('A' for Active; 'I' for Inactive)
REMARK    1  A    between atoms: C5_5  and  O1_6 
REMARK    2  A    between atoms: C6_8  and  N1_9 
REMARK       I    between atoms: N1_9  and  C7_11 
REMARK    3  A    between atoms: C7_11  and  C8_13 
REMARK    4  A    between atoms: C8_13  and  C9_14 
REMARK    5  A    between atoms: C9_14  and  N2_15 
REMARK    6  A    between atoms: C10_16  and  C11_17 
ROOT
HETATM    1  N2  UNL     1      -6.376  -6.328 -16.826  1.00  0.00    -0.362 N 
HETATM    2  C10 UNL     1      -7.374  -5.404 -16.468  1.00  0.00     0.194 C 
HETATM    3  C12 UNL     1      -8.487  -5.878 -15.604  1.00  0.00     0.054 C 
HETATM    4  C13 UNL     1      -8.283  -7.124 -14.831  1.00  0.00     0.005 C 
HETATM    5  C14 UNL     1      -9.144  -7.065 -13.573  1.00  0.00     0.026 C 
HETATM    6  C15 UNL     1      -8.636  -8.379 -15.598  1.00  0.00     0.026 C 
HETATM    7  S1  UNL     1      -6.567  -7.123 -14.250  1.00  0.00    -0.129 SA
HETATM    8  C16 UNL     1      -5.579  -6.898 -15.792  1.00  0.00     0.074 C 
HETATM    9  C17 UNL     1      -5.190  -8.334 -16.132  1.00  0.00     0.050 C 
HETATM   10  C18 UNL     1      -4.294  -6.200 -15.468  1.00  0.00     0.050 C 
ENDROOT
BRANCH   1  11
HETATM   11  C9  UNL     1      -5.652  -6.068 -18.012  1.00  0.00     0.070 C 
BRANCH  11  12
HETATM   12  C8  UNL     1      -6.219  -6.302 -19.324  1.00  0.00     0.147 C 
BRANCH  12  13
HETATM   13  C7  UNL     1      -6.747  -7.641 -19.621  1.00  0.00     0.222 C 
HETATM   14  N1  UNL     1      -6.239  -8.399 -20.743  1.00  0.00    -0.353 N 
ATOM     15  H1  UNL     1      -5.508  -7.985 -21.322  1.00  0.00     0.163 HD
HETATM   16  O2  UNL     1      -7.634  -8.219 -18.968  1.00  0.00    -0.273 OA
BRANCH  14  17
HETATM   17  C6  UNL     1      -6.727  -9.720 -21.076  1.00  0.00     0.116 C 
HETATM   18  C2  UNL     1      -6.316 -10.032 -22.494  1.00  0.00     0.007 C 
HETATM   19  C1  UNL     1      -7.545 -10.020 -23.376  1.00  0.00     0.012 C 
HETATM   20  C3  UNL     1      -5.635 -11.361 -22.482  1.00  0.00     0.009 C 
HETATM   21  C4  UNL     1      -5.711 -11.889 -21.073  1.00  0.00     0.034 C 
HETATM   22  C5  UNL     1      -6.181 -10.789 -20.181  1.00  0.00     0.141 C 
BRANCH  22  23
HETATM   23  O1  UNL     1      -7.227 -11.330 -19.403  1.00  0.00    -0.394 OA
ATOM     24  H1  UNL     1      -6.944 -12.201 -19.148  1.00  0.00     0.210 HD
ENDBRANCH  22  23
ENDBRANCH  14  17
ENDBRANCH  12  13
ENDBRANCH  11  12
ENDBRANCH   1  11
BRANCH   2  25
HETATM   25  C11 UNL     1      -6.965  -4.049 -15.950  1.00  0.00     0.407 C 
HETATM   26  F1  UNL     1      -8.142  -3.258 -15.779  1.00  0.00    -0.169 F 
HETATM   27  F2  UNL     1      -6.456  -4.055 -14.669  1.00  0.00    -0.169 F 
HETATM   28  F3  UNL     1      -6.087  -3.370 -16.746  1.00  0.00    -0.169 F 
ENDBRANCH   2  25
TORSDOF 6
ENDMDL
MODEL 4
REMARK VINA RESULT: -7.658105388      2.348      3.718
REMARK  6 active torsions:
REMARK  status: ('A' for Active; 'I' for Inactive)
REMARK    1  A    between atoms: C5_5  and  O1_6 
REMARK    2  A    between atoms: C6_8  and  N1_9 
REMARK       I    between atoms: N1_9  and  C7_11 
REMARK    3  A    between atoms: C7_11  and  C8_13 
REMARK    4  A    between atoms: C8_13  and  C9_14 
REMARK    5  A    between atoms: C9_14  and  N2_15 
REMARK    6  A    between atoms: C10_16  and  C11_17 
ROOT
HETATM    1  N2  UNL     1      -6.492  -6.394 -16.768  1.00  0.00    -0.362 N 
HETATM    2  C10 UNL     1      -7.522  -5.495 -16.439  1.00  0.00     0.194 C 
HETATM    3  C12 UNL     1      -8.609  -5.974 -15.544  1.00  0.00     0.054 C 
HETATM    4  C13 UNL     1      -8.348  -7.177 -14.721  1.00  0.00     0.005 C 
HETATM    5  C14 UNL     1      -9.201  -7.098 -13.458  1.00  0.00     0.026 C 
HETATM    6  C15 UNL     1      -8.658  -8.477 -15.430  1.00  0.00     0.026 C 
HETATM    7  S1  UNL     1      -6.628  -7.084 -14.159  1.00  0.00    -0.129 SA
HETATM    8  C16 UNL     1      -5.663  -6.887 -15.718  1.00  0.00     0.074 C 
HETATM    9  C17 UNL     1      -5.221  -8.320 -16.001  1.00  0.00     0.050 C 
HETATM   10  C18 UNL     1      -4.405  -6.125 -15.438  1.00  0.00     0.050 C 
ENDROOT
BRANCH   1  11
HETATM   11  C9  UNL     1      -5.789  -6.156 -17.971  1.00  0.00     0.070 C 
BRANCH  11  12
HETATM   12  C8  UNL     1      -5.422  -7.232 -18.870  1.00  0.00     0.147 C 
BRANCH  12  13
HETATM   13  C7  UNL     1      -6.498  -8.051 -19.444  1.00  0.00     0.222 C 
HETATM   14  N1  UNL     1      -6.833  -9.334 -18.867  1.00  0.00    -0.353 N 
ATOM     15  H1  UNL     1      -6.307  -9.657 -18.054  1.00  0.00     0.163 HD
HETATM   16  O2  UNL     1      -7.187  -7.733 -20.430  1.00  0.00    -0.273 OA
BRANCH  14  17
HETATM   17  C6  UNL     1      -7.883 -10.177 -19.396  1.00  0.00     0.116 C 
HETATM   18  C2  UNL     1      -7.248 -11.239 -20.260  1.00  0.00     0.007 C 
HETATM   19  C1  UNL     1      -7.579 -10.957 -21.709  1.00  0.00     0.012 C 
HETATM   20  C3  UNL     1      -7.769 -12.560 -19.802  1.00  0.00     0.009 C 
HETATM   21  C4  UNL     1      -8.782 -12.291 -18.721  1.00  0.00     0.034 C 
HETATM   22  C5  UNL     1      -8.684 -10.854 -18.328  1.00  0.00     0.141 C 
BRANCH  22  23
HETATM   23  O1  UNL     1     -10.003 -10.352 -18.339  1.00  0.00    -0.394 OA
ATOM     24  H1  UNL     1     -10.443 -10.777 -19.066  1.00  0.00     0.210 HD
ENDBRANCH  22  23
ENDBRANCH  14  17
ENDBRANCH  12  13
ENDBRANCH  11  12
ENDBRANCH   1  11
BRANCH   2  25
HETATM   25  C11 UNL     1      -7.163  -4.103 -15.984  1.00  0.00     0.407 C 
HETATM   26  F1  UNL     1      -8.362  -3.329 -15.913  1.00  0.00    -0.169 F 
HETATM   27  F2  UNL     1      -6.714  -4.025 -14.683  1.00  0.00    -0.169 F 
HETATM   28  F3  UNL     1      -6.262  -3.454 -16.778  1.00  0.00    -0.169 F 
ENDBRANCH   2  25
TORSDOF 6
ENDMDL
MODEL 5
REMARK VINA RESULT: -7.624179225      4.308      5.514
REMARK  6 active torsions:
REMARK  status: ('A' for Active; 'I' for Inactive)
REMARK    1  A    between atoms: C5_5  and  O1_6 
REMARK    2  A    between atoms: C6_8  and  N1_9 
REMARK       I    between atoms: N1_9  and  C7_11 
REMARK    3  A    between atoms: C7_11  and  C8_13 
REMARK    4  A    between atoms: C8_13  and  C9_14 
REMARK    5  A    between atoms: C9_14  and  N2_15 
REMARK    6  A    between atoms: C10_16  and  C11_17 
ROOT
HETATM    1  N2  UNL     1      -6.755  -6.905 -16.741  1.00  0.00    -0.362 N 
HETATM    2  C10 UNL     1      -5.944  -5.973 -16.069  1.00  0.00     0.194 C 
HETATM    3  C12 UNL     1      -6.508  -5.287 -14.877  1.00  0.00     0.054 C 
HETATM    4  C13 UNL     1      -7.681  -5.902 -14.214  1.00  0.00     0.005 C 
HETATM    5  C14 UNL     1      -7.667  -5.513 -12.739  1.00  0.00     0.026 C 
HETATM    6  C15 UNL     1      -9.005  -5.481 -14.811  1.00  0.00     0.026 C 
HETATM    7  S1  UNL     1      -7.441  -7.698 -14.250  1.00  0.00    -0.129 SA
HETATM    8  C16 UNL     1      -7.171  -8.072 -16.036  1.00  0.00     0.074 C 
HETATM    9  C17 UNL     1      -8.563  -8.509 -16.483  1.00  0.00     0.050 C 
HETATM   10  C18 UNL     1      -6.305  -9.286 -16.170  1.00  0.00     0.050 C 
ENDROOT
BRANCH   1  11
HETATM   11  C9  UNL     1      -6.465  -7.148 -18.103  1.00  0.00     0.070 C 
BRANCH  11  12
HETATM   12  C8  UNL     1      -6.600  -6.117 -19.112  1.00  0.00     0.147 C 
BRANCH  12  13
HETATM   13  C7  UNL     1      -5.382  -5.636 -19.778  1.00  0.00     0.222 C 
HETATM   14  N1  UNL     1      -4.125  -6.329 -19.602  1.00  0.00    -0.353 N 
ATOM     15  H1  UNL     1      -4.102  -7.157 -19.005  1.00  0.00     0.163 HD
HETATM   16  O2  UNL     1      -5.322  -4.639 -20.521  1.00  0.00    -0.273 OA
BRANCH  14  17
HETATM   17  C6  UNL     1      -2.899  -5.895 -20.236  1.00  0.00     0.116 C 
HETATM   18  C2  UNL     1      -1.860  -5.683 -19.163  1.00  0.00     0.007 C 
HETATM   19  C1  UNL     1      -1.596  -4.200 -19.021  1.00  0.00     0.012 C 
HETATM   20  C3  UNL     1      -0.640  -6.444 -19.564  1.00  0.00     0.009 C 
HETATM   21  C4  UNL     1      -0.913  -7.044 -20.918  1.00  0.00     0.034 C 
HETATM   22  C5  UNL     1      -2.366  -6.889 -21.220  1.00  0.00     0.141 C 
BRANCH  22  23
HETATM   23  O1  UNL     1      -2.442  -6.350 -22.522  1.00  0.00    -0.394 OA
ATOM     24  H1  UNL     1      -2.888  -7.000 -23.053  1.00  0.00     0.210 HD
ENDBRANCH  22  23
ENDBRANCH  14  17
ENDBRANCH  12  13
ENDBRANCH  11  12
ENDBRANCH   1  11
BRANCH   2  25
HETATM   25  C11 UNL     1      -4.525  -6.349 -15.727  1.00  0.00     0.407 C 
HETATM   26  F1  UNL     1      -3.643  -5.540 -16.507  1.00  0.00    -0.169 F 
HETATM   27  F2  UNL     1      -4.137  -6.013 -14.447  1.00  0.00    -0.169 F 
HETATM   28  F3  UNL     1      -4.214  -7.664 -15.927  1.00  0.00    -0.169 F 
ENDBRANCH   2  25
TORSDOF 6
ENDMDL
