MODEL 1
REMARK VINA RESULT: -7.045612299      0.000      0.000
REMARK  3 active torsions:
REMARK  status: ('A' for Active; 'I' for Inactive)
REMARK    1  A    between atoms: C4_4  and  N1_5 
REMARK    2  A    between atoms: N2_8  and  C7_9 
REMARK    3  A    between atoms: C16_18  and  O1_19 
ROOT
HETATM    1  N1  UNL     1      42.609  17.333  15.975  1.00  0.00    -0.368 N 
HETATM    2  C5  UNL     1      41.830  16.524  15.062  1.00  0.00     0.168 C 
HETATM    3  C6  UNL     1      40.552  16.171  15.795  1.00  0.00     0.083 C 
HETATM    4  N2  UNL     1      40.880  15.368  16.902  1.00  0.00    -0.366 N 
HETATM    5  C14 UNL     1      41.934  15.757  17.729  1.00  0.00     0.083 C 
HETATM    6  C15 UNL     1      42.381  17.161  17.383  1.00  0.00     0.168 C 
ENDROOT
BRANCH   1   7
HETATM    7  C4  UNL     1      43.559  18.257  15.477  1.00  0.00     0.083 A 
HETATM    8  C3  UNL     1      43.075  19.358  14.776  1.00  0.00     0.043 A 
HETATM    9  C2  UNL     1      43.958  20.293  14.268  1.00  0.00    -0.021 A 
HETATM   10  C1  UNL     1      43.474  21.487  13.512  1.00  0.00     0.051 C 
HETATM   11  C18 UNL     1      45.303  20.090  14.482  1.00  0.00     0.110 A 
HETATM   12  N3  UNL     1      45.749  19.004  15.172  1.00  0.00    -0.321 N 
HETATM   13  S1  UNL     1      46.402  21.175  13.897  1.00  0.00    -0.060 SA
HETATM   14  C16 UNL     1      44.909  18.083  15.675  1.00  0.00     0.170 A 
HETATM   15  C17 UNL     1      47.171  18.804  15.391  1.00  0.00     0.159 C 
BRANCH  14  16
HETATM   16  O1  UNL     1      45.388  17.007  16.361  1.00  0.00    -0.344 OA
ATOM     17  H1  UNL     1      46.233  16.627  16.151  1.00  0.00     0.219 HD
ENDBRANCH  14  16
ENDBRANCH   1   7
BRANCH   4  18
HETATM   18  C7  UNL     1      40.167  14.188  17.127  1.00  0.00     0.091 C 
HETATM   19  C8  UNL     1      38.674  14.507  17.276  1.00  0.00     0.052 C 
HETATM   20  C9  UNL     1      37.977  13.471  18.070  1.00  0.00    -0.029 C 
HETATM   21  C10 UNL     1      38.244  12.168  18.120  1.00  0.00    -0.031 C 
HETATM   22  C11 UNL     1      39.297  11.428  17.398  1.00  0.00     0.027 C 
HETATM   23  C12 UNL     1      40.656  11.852  17.860  1.00  0.00     0.006 C 
HETATM   24  C13 UNL     1      40.641  13.322  18.243  1.00  0.00     0.026 C 
ENDBRANCH   4  18
TORSDOF 3
ENDMDL
MODEL 2
REMARK VINA RESULT: -7.012625543      6.170      7.640
REMARK  3 active torsions:
REMARK  status: ('A' for Active; 'I' for Inactive)
REMARK    1  A    between atoms: C4_4  and  N1_5 
REMARK    2  A    between atoms: N2_8  and  C7_9 
REMARK    3  A    between atoms: C16_18  and  O1_19 
ROOT
HETATM    1  N1  UNL     1      37.478  14.953  17.379  1.00  0.00    -0.368 N 
HETATM    2  C5  UNL     1      38.719  15.179  16.667  1.00  0.00     0.168 C 
HETATM    3  C6  UNL     1      39.162  13.826  16.149  1.00  0.00     0.083 C 
HETATM    4  N2  UNL     1      39.445  12.998  17.250  1.00  0.00    -0.366 N 
HETATM    5  C14 UNL     1      38.537  12.946  18.307  1.00  0.00     0.083 C 
HETATM    6  C15 UNL     1      37.250  13.646  17.927  1.00  0.00     0.168 C 
ENDROOT
BRANCH   1   7
HETATM    7  C4  UNL     1      36.534  16.000  17.517  1.00  0.00     0.083 A 
HETATM    8  C3  UNL     1      36.818  17.206  16.882  1.00  0.00     0.043 A 
HETATM    9  C2  UNL     1      35.931  18.262  16.983  1.00  0.00    -0.021 A 
HETATM   10  C1  UNL     1      36.202  19.569  16.313  1.00  0.00     0.051 C 
HETATM   11  C18 UNL     1      34.784  18.070  17.721  1.00  0.00     0.110 A 
HETATM   12  N3  UNL     1      34.533  16.880  18.332  1.00  0.00    -0.321 N 
HETATM   13  S1  UNL     1      33.691  19.298  17.875  1.00  0.00    -0.060 SA
HETATM   14  C16 UNL     1      35.380  15.840  18.247  1.00  0.00     0.170 A 
HETATM   15  C17 UNL     1      33.319  16.692  19.107  1.00  0.00     0.159 C 
BRANCH  14  16
HETATM   16  O1  UNL     1      35.098  14.661  18.871  1.00  0.00    -0.344 OA
ATOM     17  H1  UNL     1      35.657  14.324  19.560  1.00  0.00     0.219 HD
ENDBRANCH  14  16
ENDBRANCH   1   7
BRANCH   4  18
HETATM   18  C7  UNL     1      40.642  12.278  17.273  1.00  0.00     0.091 C 
HETATM   19  C8  UNL     1      40.967  11.770  15.863  1.00  0.00     0.052 C 
HETATM   20  C9  UNL     1      41.828  10.567  15.907  1.00  0.00    -0.029 C 
HETATM   21  C10 UNL     1      42.769  10.273  16.801  1.00  0.00    -0.031 C 
HETATM   22  C11 UNL     1      43.192  11.068  17.970  1.00  0.00     0.027 C 
HETATM   23  C12 UNL     1      42.088  11.162  18.976  1.00  0.00     0.006 C 
HETATM   24  C13 UNL     1      40.742  11.177  18.272  1.00  0.00     0.026 C 
ENDBRANCH   4  18
TORSDOF 3
ENDMDL
MODEL 3
REMARK VINA RESULT: -6.998748162      1.702      2.014
REMARK  3 active torsions:
REMARK  status: ('A' for Active; 'I' for Inactive)
REMARK    1  A    between atoms: C4_4  and  N1_5 
REMARK    2  A    between atoms: N2_8  and  C7_9 
REMARK    3  A    between atoms: C16_18  and  O1_19 
ROOT
HETATM    1  N1  UNL     1      41.657  17.230  15.916  1.00  0.00    -0.368 N 
HETATM    2  C5  UNL     1      42.104  15.942  16.403  1.00  0.00     0.168 C 
HETATM    3  C6  UNL     1      41.153  14.917  15.822  1.00  0.00     0.083 C 
HETATM    4  N2  UNL     1      39.870  15.151  16.349  1.00  0.00    -0.366 N 
HETATM    5  C14 UNL     1      39.376  16.455  16.370  1.00  0.00     0.083 C 
HETATM    6  C15 UNL     1      40.273  17.368  15.561  1.00  0.00     0.168 C 
ENDROOT
BRANCH   1   7
HETATM    7  C4  UNL     1      42.572  18.306  15.801  1.00  0.00     0.083 A 
HETATM    8  C3  UNL     1      43.163  18.513  14.558  1.00  0.00     0.043 A 
HETATM    9  C2  UNL     1      44.062  19.550  14.388  1.00  0.00    -0.021 A 
HETATM   10  C1  UNL     1      44.716  19.802  13.068  1.00  0.00     0.051 C 
HETATM   11  C18 UNL     1      44.338  20.347  15.477  1.00  0.00     0.110 A 
HETATM   12  N3  UNL     1      43.744  20.121  16.681  1.00  0.00    -0.321 N 
HETATM   13  S1  UNL     1      45.404  21.599  15.330  1.00  0.00    -0.060 SA
HETATM   14  C16 UNL     1      42.867  19.120  16.869  1.00  0.00     0.170 A 
HETATM   15  C17 UNL     1      44.044  20.971  17.820  1.00  0.00     0.159 C 
BRANCH  14  16
HETATM   16  O1  UNL     1      42.290  18.922  18.087  1.00  0.00    -0.344 OA
ATOM     17  H1  UNL     1      41.443  19.297  18.296  1.00  0.00     0.219 HD
ENDBRANCH  14  16
ENDBRANCH   1   7
BRANCH   4  18
HETATM   18  C7  UNL     1      39.138  14.080  16.868  1.00  0.00     0.091 C 
HETATM   19  C8  UNL     1      37.769  14.576  17.351  1.00  0.00     0.052 C 
HETATM   20  C9  UNL     1      37.213  13.692  18.399  1.00  0.00    -0.029 C 
HETATM   21  C10 UNL     1      37.367  12.375  18.519  1.00  0.00    -0.031 C 
HETATM   22  C11 UNL     1      38.127  11.466  17.640  1.00  0.00     0.027 C 
HETATM   23  C12 UNL     1      39.592  11.770  17.701  1.00  0.00     0.006 C 
HETATM   24  C13 UNL     1      39.807  13.258  17.917  1.00  0.00     0.026 C 
ENDBRANCH   4  18
TORSDOF 3
ENDMDL
MODEL 4
REMARK VINA RESULT: -6.981377350      0.717      1.872
REMARK  3 active torsions:
REMARK  status: ('A' for Active; 'I' for Inactive)
REMARK    1  A    between atoms: C4_4  and  N1_5 
REMARK    2  A    between atoms: N2_8  and  C7_9 
REMARK    3  A    between atoms: C16_18  and  O1_19 
ROOT
HETATM    1  N1  UNL     1      42.534  16.839  16.050  1.00  0.00    -0.368 N 
HETATM    2  C5  UNL     1      42.164  16.766  17.448  1.00  0.00     0.168 C 
HETATM    3  C6  UNL     1      41.739  15.335  17.699  1.00  0.00     0.083 C 
HETATM    4  N2  UNL     1      40.585  15.072  16.939  1.00  0.00    -0.366 N 
HETATM    5  C14 UNL     1      40.556  15.460  15.599  1.00  0.00     0.083 C 
HETATM    6  C15 UNL     1      41.936  15.892  15.150  1.00  0.00     0.168 C 
ENDROOT
BRANCH   1   7
HETATM    7  C4  UNL     1      43.455  17.818  15.604  1.00  0.00     0.083 A 
HETATM    8  C3  UNL     1      42.947  18.891  14.877  1.00  0.00     0.043 A 
HETATM    9  C2  UNL     1      43.802  19.877  14.419  1.00  0.00    -0.021 A 
HETATM   10  C1  UNL     1      43.292  21.043  13.637  1.00  0.00     0.051 C 
HETATM   11  C18 UNL     1      45.143  19.751  14.708  1.00  0.00     0.110 A 
HETATM   12  N3  UNL     1      45.611  18.691  15.421  1.00  0.00    -0.321 N 
HETATM   13  S1  UNL     1      46.207  20.900  14.185  1.00  0.00    -0.060 SA
HETATM   14  C16 UNL     1      44.799  17.721  15.877  1.00  0.00     0.170 A 
HETATM   15  C17 UNL     1      47.028  18.572  15.719  1.00  0.00     0.159 C 
BRANCH  14  16
HETATM   16  O1  UNL     1      45.301  16.673  16.589  1.00  0.00    -0.344 OA
ATOM     17  H1  UNL     1      46.171  16.709  16.968  1.00  0.00     0.219 HD
ENDBRANCH  14  16
ENDBRANCH   1   7
BRANCH   4  18
HETATM   18  C7  UNL     1      39.486  14.464  17.551  1.00  0.00     0.091 C 
HETATM   19  C8  UNL     1      39.818  13.001  17.871  1.00  0.00     0.052 C 
HETATM   20  C9  UNL     1      38.593  12.175  17.953  1.00  0.00    -0.029 C 
HETATM   21  C10 UNL     1      37.388  12.547  18.380  1.00  0.00    -0.031 C 
HETATM   22  C11 UNL     1      36.969  13.870  18.879  1.00  0.00     0.027 C 
HETATM   23  C12 UNL     1      37.038  14.895  17.790  1.00  0.00     0.006 C 
HETATM   24  C13 UNL     1      38.180  14.572  16.842  1.00  0.00     0.026 C 
ENDBRANCH   4  18
TORSDOF 3
ENDMDL
MODEL 5
REMARK VINA RESULT: -6.960795906      1.321      1.664
REMARK  3 active torsions:
REMARK  status: ('A' for Active; 'I' for Inactive)
REMARK    1  A    between atoms: C4_4  and  N1_5 
REMARK    2  A    between atoms: N2_8  and  C7_9 
REMARK    3  A    between atoms: C16_18  and  O1_19 
ROOT
HETATM    1  N1  UNL     1      42.675  16.959  16.575  1.00  0.00    -0.368 N 
HETATM    2  C5  UNL     1      42.344  16.356  17.848  1.00  0.00     0.168 C 
HETATM    3  C6  UNL     1      42.143  14.879  17.577  1.00  0.00     0.083 C 
HETATM    4  N2  UNL     1      41.030  14.729  16.732  1.00  0.00    -0.366 N 
HETATM    5  C14 UNL     1      40.921  15.546  15.606  1.00  0.00     0.083 C 
HETATM    6  C15 UNL     1      42.212  16.304  15.383  1.00  0.00     0.168 C 
ENDROOT
BRANCH   1   7
HETATM    7  C4  UNL     1      43.431  18.156  16.527  1.00  0.00     0.083 A 
HETATM    8  C3  UNL     1      42.729  19.358  16.537  1.00  0.00     0.043 A 
HETATM    9  C2  UNL     1      43.417  20.557  16.494  1.00  0.00    -0.021 A 
HETATM   10  C1  UNL     1      42.696  21.865  16.505  1.00  0.00     0.051 C 
HETATM   11  C18 UNL     1      44.792  20.508  16.441  1.00  0.00     0.110 A 
HETATM   12  N3  UNL     1      45.453  19.318  16.431  1.00  0.00    -0.321 N 
HETATM   13  S1  UNL     1      45.663  21.910  16.387  1.00  0.00    -0.060 SA
HETATM   14  C16 UNL     1      44.805  18.141  16.474  1.00  0.00     0.170 A 
HETATM   15  C17 UNL     1      46.903  19.282  16.377  1.00  0.00     0.159 C 
BRANCH  14  16
HETATM   16  O1  UNL     1      45.497  16.967  16.464  1.00  0.00    -0.344 OA
ATOM     17  H1  UNL     1      46.430  16.945  16.641  1.00  0.00     0.219 HD
ENDBRANCH  14  16
ENDBRANCH   1   7
BRANCH   4  18
HETATM   18  C7  UNL     1      40.045  13.793  17.057  1.00  0.00     0.091 C 
HETATM   19  C8  UNL     1      38.691  14.498  17.204  1.00  0.00     0.052 C 
HETATM   20  C9  UNL     1      37.778  13.736  18.086  1.00  0.00    -0.029 C 
HETATM   21  C10 UNL     1      37.702  12.415  18.231  1.00  0.00    -0.031 C 
HETATM   22  C11 UNL     1      38.503  11.379  17.552  1.00  0.00     0.027 C 
HETATM   23  C12 UNL     1      39.940  11.467  17.960  1.00  0.00     0.006 C 
HETATM   24  C13 UNL     1      40.318  12.913  18.229  1.00  0.00     0.026 C 
ENDBRANCH   4  18
TORSDOF 3
ENDMDL
