MODEL 1
REMARK VINA RESULT: -7.578834666      0.000      0.000
REMARK  2 active torsions:
REMARK  status: ('A' for Active; 'I' for Inactive)
REMARK    1  A    between atoms: C10_12  and  C11_13 
REMARK    2  A    between atoms: C14_16  and  C15_17 
ROOT
HETATM    1  C1  UNL     1      41.923  15.627  17.778  1.00  0.00     0.017 C 
HETATM    2  C2  UNL     1      41.365  14.472  17.497  1.00  0.00    -0.055 C 
HETATM    3  C3  UNL     1      41.565  13.172  18.146  1.00  0.00     0.035 C 
HETATM    4  C4  UNL     1      43.006  12.815  18.400  1.00  0.00     0.011 C 
HETATM    5  C5  UNL     1      43.056  11.398  18.878  1.00  0.00     0.001 C 
HETATM    6  C6  UNL     1      41.749  10.692  18.927  1.00  0.00     0.002 C 
HETATM    7  C7  UNL     1      40.892  10.888  17.699  1.00  0.00     0.021 C 
HETATM    8  C8  UNL     1      41.106  12.208  17.041  1.00  0.00     0.080 C 
HETATM    9  N1  UNL     1      39.890  12.873  16.613  1.00  0.00    -0.230 NA
HETATM   10  S1  UNL     1      38.824  12.950  18.025  1.00  0.00    -0.033 SA
HETATM   11  C9  UNL     1      37.877  14.442  17.650  1.00  0.00     0.057 C 
HETATM   12  C10 UNL     1      36.698  14.809  18.095  1.00  0.00     0.064 C 
HETATM   13  S2  UNL     1      38.943  15.323  16.501  1.00  0.00    -0.096 SA
HETATM   14  C16 UNL     1      40.367  14.236  16.405  1.00  0.00     0.166 C 
ENDROOT
BRANCH  12  15
HETATM   15  C11 UNL     1      36.160  16.091  17.616  1.00  0.00     0.078 A 
HETATM   16  C12 UNL     1      36.280  17.313  18.242  1.00  0.00     0.040 A 
HETATM   17  C13 UNL     1      35.635  18.243  17.462  1.00  0.00     0.047 A 
HETATM   18  C14 UNL     1      35.139  17.566  16.382  1.00  0.00     0.152 A 
HETATM   19  O3  UNL     1      35.473  16.304  16.517  1.00  0.00    -0.304 OA
BRANCH  18  20
HETATM   20  C15 UNL     1      34.366  18.126  15.254  1.00  0.00     0.234 C 
HETATM   21  O1  UNL     1      33.722  19.185  15.405  1.00  0.00    -0.642 OA
HETATM   22  O2  UNL     1      34.385  17.443  14.049  1.00  0.00    -0.642 OA
ENDBRANCH  18  20
ENDBRANCH  12  15
TORSDOF 2
ENDMDL
MODEL 2
REMARK VINA RESULT: -7.515494879      3.915      7.852
REMARK  2 active torsions:
REMARK  status: ('A' for Active; 'I' for Inactive)
REMARK    1  A    between atoms: C10_12  and  C11_13 
REMARK    2  A    between atoms: C14_16  and  C15_17 
ROOT
HETATM    1  C1  UNL     1      39.239  16.119  13.261  1.00  0.00     0.017 C 
HETATM    2  C2  UNL     1      38.665  16.658  14.312  1.00  0.00    -0.055 C 
HETATM    3  C3  UNL     1      37.307  17.197  14.442  1.00  0.00     0.035 C 
HETATM    4  C4  UNL     1      36.878  18.090  13.308  1.00  0.00     0.011 C 
HETATM    5  C5  UNL     1      35.567  18.710  13.677  1.00  0.00     0.001 C 
HETATM    6  C6  UNL     1      35.054  18.368  15.029  1.00  0.00     0.002 C 
HETATM    7  C7  UNL     1      36.091  18.446  16.124  1.00  0.00     0.021 C 
HETATM    8  C8  UNL     1      37.469  18.135  15.649  1.00  0.00     0.080 C 
HETATM    9  N1  UNL     1      38.234  17.280  16.535  1.00  0.00    -0.230 NA
HETATM   10  S1  UNL     1      37.248  15.841  16.837  1.00  0.00    -0.033 SA
HETATM   11  C9  UNL     1      38.534  14.608  17.136  1.00  0.00     0.057 C 
HETATM   12  C10 UNL     1      38.456  13.468  17.781  1.00  0.00     0.064 C 
HETATM   13  S2  UNL     1      39.976  15.320  16.332  1.00  0.00    -0.096 SA
HETATM   14  C16 UNL     1      39.309  16.842  15.652  1.00  0.00     0.166 C 
ENDROOT
BRANCH  12  15
HETATM   15  C11 UNL     1      39.676  12.653  17.872  1.00  0.00     0.078 A 
HETATM   16  C12 UNL     1      40.081  11.685  16.978  1.00  0.00     0.040 A 
HETATM   17  C13 UNL     1      41.269  11.169  17.436  1.00  0.00     0.047 A 
HETATM   18  C14 UNL     1      41.560  11.835  18.596  1.00  0.00     0.152 A 
HETATM   19  O3  UNL     1      40.594  12.697  18.810  1.00  0.00    -0.304 OA
BRANCH  18  20
HETATM   20  C15 UNL     1      42.738  11.640  19.467  1.00  0.00     0.234 C 
HETATM   21  O1  UNL     1      43.802  11.200  18.986  1.00  0.00    -0.642 OA
HETATM   22  O2  UNL     1      42.613  11.959  20.809  1.00  0.00    -0.642 OA
ENDBRANCH  18  20
ENDBRANCH  12  15
TORSDOF 2
ENDMDL
MODEL 3
REMARK VINA RESULT: -7.464825078      1.213      1.563
REMARK  2 active torsions:
REMARK  status: ('A' for Active; 'I' for Inactive)
REMARK    1  A    between atoms: C10_12  and  C11_13 
REMARK    2  A    between atoms: C14_16  and  C15_17 
ROOT
HETATM    1  C1  UNL     1      41.916  15.608  17.671  1.00  0.00     0.017 C 
HETATM    2  C2  UNL     1      41.364  14.438  17.445  1.00  0.00    -0.055 C 
HETATM    3  C3  UNL     1      41.587  13.167  18.141  1.00  0.00     0.035 C 
HETATM    4  C4  UNL     1      43.035  12.832  18.384  1.00  0.00     0.011 C 
HETATM    5  C5  UNL     1      43.106  11.436  18.916  1.00  0.00     0.001 C 
HETATM    6  C6  UNL     1      41.807  10.721  19.015  1.00  0.00     0.002 C 
HETATM    7  C7  UNL     1      40.928  10.861  17.795  1.00  0.00     0.021 C 
HETATM    8  C8  UNL     1      41.118  12.156  17.082  1.00  0.00     0.080 C 
HETATM    9  N1  UNL     1      39.889  12.793  16.650  1.00  0.00    -0.230 NA
HETATM   10  S1  UNL     1      38.846  12.917  18.075  1.00  0.00    -0.033 SA
HETATM   11  C9  UNL     1      37.879  14.384  17.658  1.00  0.00     0.057 C 
HETATM   12  C10 UNL     1      36.705  14.758  18.109  1.00  0.00     0.064 C 
HETATM   13  S2  UNL     1      38.917  15.229  16.458  1.00  0.00    -0.096 SA
HETATM   14  C16 UNL     1      40.350  14.151  16.380  1.00  0.00     0.166 C 
ENDROOT
BRANCH  12  15
HETATM   15  C11 UNL     1      36.146  16.015  17.589  1.00  0.00     0.078 A 
HETATM   16  C12 UNL     1      34.947  16.165  16.926  1.00  0.00     0.040 A 
HETATM   17  C13 UNL     1      34.808  17.496  16.615  1.00  0.00     0.047 A 
HETATM   18  C14 UNL     1      35.925  18.125  17.096  1.00  0.00     0.152 A 
HETATM   19  O3  UNL     1      36.681  17.213  17.660  1.00  0.00    -0.304 OA
BRANCH  18  20
HETATM   20  C15 UNL     1      36.246  19.565  17.011  1.00  0.00     0.234 C 
HETATM   21  O1  UNL     1      35.400  20.366  16.561  1.00  0.00    -0.642 OA
HETATM   22  O2  UNL     1      37.496  19.979  17.441  1.00  0.00    -0.642 OA
ENDBRANCH  18  20
ENDBRANCH  12  15
TORSDOF 2
ENDMDL
MODEL 4
REMARK VINA RESULT: -7.336379357      4.956      7.771
REMARK  2 active torsions:
REMARK  status: ('A' for Active; 'I' for Inactive)
REMARK    1  A    between atoms: C10_12  and  C11_13 
REMARK    2  A    between atoms: C14_16  and  C15_17 
ROOT
HETATM    1  C1  UNL     1      44.018  17.406  14.998  1.00  0.00     0.017 C 
HETATM    2  C2  UNL     1      42.831  17.952  15.121  1.00  0.00    -0.055 C 
HETATM    3  C3  UNL     1      42.157  18.898  14.225  1.00  0.00     0.035 C 
HETATM    4  C4  UNL     1      43.023  20.037  13.754  1.00  0.00     0.011 C 
HETATM    5  C5  UNL     1      42.152  21.008  13.020  1.00  0.00     0.001 C 
HETATM    6  C6  UNL     1      40.705  20.672  12.985  1.00  0.00     0.002 C 
HETATM    7  C7  UNL     1      40.138  20.234  14.315  1.00  0.00     0.021 C 
HETATM    8  C8  UNL     1      41.137  19.542  15.177  1.00  0.00     0.080 C 
HETATM    9  N1  UNL     1      40.636  18.359  15.850  1.00  0.00    -0.230 NA
HETATM   10  S1  UNL     1      39.936  17.316  14.602  1.00  0.00    -0.033 SA
HETATM   11  C9  UNL     1      40.181  15.689  15.347  1.00  0.00     0.057 C 
HETATM   12  C10 UNL     1      39.548  14.564  15.108  1.00  0.00     0.064 C 
HETATM   13  S2  UNL     1      41.518  15.972  16.515  1.00  0.00    -0.096 SA
HETATM   14  C16 UNL     1      41.879  17.710  16.252  1.00  0.00     0.166 C 
ENDROOT
BRANCH  12  15
HETATM   15  C11 UNL     1      39.960  13.377  15.871  1.00  0.00     0.078 A 
HETATM   16  C12 UNL     1      39.374  12.903  17.026  1.00  0.00     0.040 A 
HETATM   17  C13 UNL     1      40.065  11.779  17.409  1.00  0.00     0.047 A 
HETATM   18  C14 UNL     1      41.053  11.595  16.481  1.00  0.00     0.152 A 
HETATM   19  O3  UNL     1      40.950  12.560  15.597  1.00  0.00    -0.304 OA
BRANCH  18  20
HETATM   20  C15 UNL     1      42.064  10.517  16.453  1.00  0.00     0.234 C 
HETATM   21  O1  UNL     1      42.834  10.360  17.423  1.00  0.00    -0.642 OA
HETATM   22  O2  UNL     1      42.119   9.707  15.331  1.00  0.00    -0.642 OA
ENDBRANCH  18  20
ENDBRANCH  12  15
TORSDOF 2
ENDMDL
MODEL 5
REMARK VINA RESULT: -7.241799280      3.861      7.753
REMARK  2 active torsions:
REMARK  status: ('A' for Active; 'I' for Inactive)
REMARK    1  A    between atoms: C10_12  and  C11_13 
REMARK    2  A    between atoms: C14_16  and  C15_17 
ROOT
HETATM    1  C1  UNL     1      38.938  16.333  13.049  1.00  0.00     0.017 C 
HETATM    2  C2  UNL     1      38.416  16.855  14.135  1.00  0.00    -0.055 C 
HETATM    3  C3  UNL     1      37.055  17.355  14.351  1.00  0.00     0.035 C 
HETATM    4  C4  UNL     1      36.529  18.236  13.249  1.00  0.00     0.011 C 
HETATM    5  C5  UNL     1      35.226  18.817  13.700  1.00  0.00     0.001 C 
HETATM    6  C6  UNL     1      34.811  18.461  15.082  1.00  0.00     0.002 C 
HETATM    7  C7  UNL     1      35.912  18.569  16.109  1.00  0.00     0.021 C 
HETATM    8  C8  UNL     1      37.265  18.298  15.547  1.00  0.00     0.080 C 
HETATM    9  N1  UNL     1      38.109  17.465  16.381  1.00  0.00    -0.230 NA
HETATM   10  S1  UNL     1      37.186  15.998  16.743  1.00  0.00    -0.033 SA
HETATM   11  C9  UNL     1      38.523  14.803  16.958  1.00  0.00     0.057 C 
HETATM   12  C10 UNL     1      38.518  13.661  17.605  1.00  0.00     0.064 C 
HETATM   13  S2  UNL     1      39.890  15.556  16.065  1.00  0.00    -0.096 SA
HETATM   14  C16 UNL     1      39.139  17.057  15.431  1.00  0.00     0.166 C 
ENDROOT
BRANCH  12  15
HETATM   15  C11 UNL     1      39.765  12.881  17.617  1.00  0.00     0.078 A 
HETATM   16  C12 UNL     1      40.733  12.903  18.598  1.00  0.00     0.040 A 
HETATM   17  C13 UNL     1      41.726  12.032  18.218  1.00  0.00     0.047 A 
HETATM   18  C14 UNL     1      41.339  11.501  17.018  1.00  0.00     0.152 A 
HETATM   19  O3  UNL     1      40.180  12.031  16.706  1.00  0.00    -0.304 OA
BRANCH  18  20
HETATM   20  C15 UNL     1      42.072  10.511  16.201  1.00  0.00     0.234 C 
HETATM   21  O1  UNL     1      43.181  10.085  16.585  1.00  0.00    -0.642 OA
HETATM   22  O2  UNL     1      41.488  10.085  15.019  1.00  0.00    -0.642 OA
ENDBRANCH  18  20
ENDBRANCH  12  15
TORSDOF 2
ENDMDL
