MODEL 1
REMARK VINA RESULT: -6.892247787      0.000      0.000
REMARK  6 active torsions:
REMARK  status: ('A' for Active; 'I' for Inactive)
REMARK    1  A    between atoms: C2_2  and  C4_4 
REMARK    2  A    between atoms: C9_9  and  C11_11 
REMARK    3  A    between atoms: C11_11  and  O1_12 
REMARK    4  A    between atoms: C14_16  and  C15_17 
REMARK    5  A    between atoms: C16_18  and  C17_19 
REMARK    6  A    between atoms: C17_19  and  O2_20 
ROOT
HETATM    1  C4  UNL     1     -27.025 -28.153   8.045  1.00  0.00    -0.010 C 
HETATM    2  C5  UNL     1     -27.149 -29.168   6.781  1.00  0.00     0.010 C 
HETATM    3  C6  UNL     1     -28.037 -28.220   6.108  1.00  0.00    -0.006 C 
HETATM    4  C7  UNL     1     -29.320 -28.238   6.037  1.00  0.00     0.006 C 
HETATM    5  C8  UNL     1     -29.935 -27.025   5.308  1.00  0.00     0.012 C 
HETATM    6  C9  UNL     1     -29.317 -25.849   6.141  1.00  0.00    -0.018 C 
HETATM    7  C10 UNL     1     -30.242 -25.674   7.336  1.00  0.00     0.018 C 
HETATM    8  C12 UNL     1     -27.893 -26.097   6.584  1.00  0.00     0.004 C 
HETATM    9  C13 UNL     1     -27.661 -26.855   7.861  1.00  0.00     0.011 C 
HETATM   10  C14 UNL     1     -27.242 -27.059   5.553  1.00  0.00     0.017 C 
ENDROOT
BRANCH  10  11
HETATM   11  C15 UNL     1     -27.156 -26.755   4.205  1.00  0.00    -0.023 C 
HETATM   12  C16 UNL     1     -26.069 -26.833   3.428  1.00  0.00    -0.005 C 
BRANCH  12  13
HETATM   13  C17 UNL     1     -24.773 -27.276   3.933  1.00  0.00     0.191 C 
BRANCH  13  14
HETATM   14  O2  UNL     1     -23.723 -26.433   3.527  1.00  0.00    -0.397 OA
ATOM     15  H2  UNL     1     -22.871 -26.843   3.627  1.00  0.00     0.209 HD
ENDBRANCH  13  14
ENDBRANCH  12  13
ENDBRANCH  10  11
BRANCH   6  16
HETATM   16  C11 UNL     1     -29.436 -24.599   5.329  1.00  0.00     0.173 C 
BRANCH  16  17
HETATM   17  O1  UNL     1     -30.668 -23.995   5.588  1.00  0.00    -0.400 OA
ATOM     18  H1  UNL     1     -31.137 -23.874   4.771  1.00  0.00     0.209 HD
ENDBRANCH  16  17
ENDBRANCH   6  16
BRANCH   1  19
HETATM   19  C2  UNL     1     -25.608 -28.144   8.399  1.00  0.00    -0.019 C 
HETATM   20  C1  UNL     1     -25.199 -29.572   8.859  1.00  0.00     0.010 C 
HETATM   21  C3  UNL     1     -25.284 -27.281   9.610  1.00  0.00     0.010 C 
ENDBRANCH   1  19
TORSDOF 6
ENDMDL
MODEL 2
REMARK VINA RESULT: -6.817804155      2.196      4.695
REMARK  6 active torsions:
REMARK  status: ('A' for Active; 'I' for Inactive)
REMARK    1  A    between atoms: C2_2  and  C4_4 
REMARK    2  A    between atoms: C9_9  and  C11_11 
REMARK    3  A    between atoms: C11_11  and  O1_12 
REMARK    4  A    between atoms: C14_16  and  C15_17 
REMARK    5  A    between atoms: C16_18  and  C17_19 
REMARK    6  A    between atoms: C17_19  and  O2_20 
ROOT
HETATM    1  C4  UNL     1     -29.499 -25.970   2.765  1.00  0.00    -0.010 C 
HETATM    2  C5  UNL     1     -27.959 -25.458   2.851  1.00  0.00     0.010 C 
HETATM    3  C6  UNL     1     -28.000 -25.579   4.308  1.00  0.00    -0.006 C 
HETATM    4  C7  UNL     1     -28.183 -24.655   5.183  1.00  0.00     0.006 C 
HETATM    5  C8  UNL     1     -28.247 -25.161   6.640  1.00  0.00     0.012 C 
HETATM    6  C9  UNL     1     -29.395 -26.223   6.522  1.00  0.00    -0.018 C 
HETATM    7  C10 UNL     1     -30.687 -25.435   6.677  1.00  0.00     0.018 C 
HETATM    8  C12 UNL     1     -29.380 -26.997   5.225  1.00  0.00     0.004 C 
HETATM    9  C13 UNL     1     -30.077 -26.409   4.029  1.00  0.00     0.011 C 
HETATM   10  C14 UNL     1     -27.912 -27.033   4.716  1.00  0.00     0.017 C 
ENDROOT
BRANCH  10  11
HETATM   11  C15 UNL     1     -26.879 -27.564   5.470  1.00  0.00    -0.023 C 
HETATM   12  C16 UNL     1     -25.613 -27.758   5.080  1.00  0.00    -0.005 C 
BRANCH  12  13
HETATM   13  C17 UNL     1     -25.142 -27.414   3.742  1.00  0.00     0.191 C 
BRANCH  13  14
HETATM   14  O2  UNL     1     -23.739 -27.420   3.649  1.00  0.00    -0.397 OA
ATOM     15  H2  UNL     1     -23.398 -28.263   3.375  1.00  0.00     0.209 HD
ENDBRANCH  13  14
ENDBRANCH  12  13
ENDBRANCH  10  11
BRANCH   6  16
HETATM   16  C11 UNL     1     -29.308 -27.127   7.710  1.00  0.00     0.173 C 
BRANCH  16  17
HETATM   17  O1  UNL     1     -29.420 -26.368   8.877  1.00  0.00    -0.400 OA
ATOM     18  H1  UNL     1     -29.043 -26.851   9.603  1.00  0.00     0.209 HD
ENDBRANCH  16  17
ENDBRANCH   6  16
BRANCH   1  19
HETATM   19  C2  UNL     1     -29.529 -26.929   1.664  1.00  0.00    -0.019 C 
HETATM   20  C1  UNL     1     -28.191 -26.829   0.877  1.00  0.00     0.010 C 
HETATM   21  C3  UNL     1     -30.578 -26.615   0.607  1.00  0.00     0.010 C 
ENDBRANCH   1  19
TORSDOF 6
ENDMDL
MODEL 3
REMARK VINA RESULT: -6.755613543      0.950      1.195
REMARK  6 active torsions:
REMARK  status: ('A' for Active; 'I' for Inactive)
REMARK    1  A    between atoms: C2_2  and  C4_4 
REMARK    2  A    between atoms: C9_9  and  C11_11 
REMARK    3  A    between atoms: C11_11  and  O1_12 
REMARK    4  A    between atoms: C14_16  and  C15_17 
REMARK    5  A    between atoms: C16_18  and  C17_19 
REMARK    6  A    between atoms: C17_19  and  O2_20 
ROOT
HETATM    1  C4  UNL     1     -26.931 -28.599   8.473  1.00  0.00    -0.010 C 
HETATM    2  C5  UNL     1     -27.237 -29.644   7.266  1.00  0.00     0.010 C 
HETATM    3  C6  UNL     1     -28.031 -28.622   6.584  1.00  0.00    -0.006 C 
HETATM    4  C7  UNL     1     -29.308 -28.481   6.565  1.00  0.00     0.006 C 
HETATM    5  C8  UNL     1     -29.801 -27.232   5.803  1.00  0.00     0.012 C 
HETATM    6  C9  UNL     1     -29.004 -26.109   6.552  1.00  0.00    -0.018 C 
HETATM    7  C10 UNL     1     -29.844 -25.766   7.773  1.00  0.00     0.018 C 
HETATM    8  C12 UNL     1     -27.603 -26.515   6.950  1.00  0.00     0.004 C 
HETATM    9  C13 UNL     1     -27.408 -27.240   8.252  1.00  0.00     0.011 C 
HETATM   10  C14 UNL     1     -27.124 -27.596   5.942  1.00  0.00     0.017 C 
ENDROOT
BRANCH  10  11
HETATM   11  C15 UNL     1     -27.063 -27.363   4.578  1.00  0.00    -0.023 C 
HETATM   12  C16 UNL     1     -25.961 -27.250   3.827  1.00  0.00    -0.005 C 
BRANCH  12  13
HETATM   13  C17 UNL     1     -24.617 -27.366   4.384  1.00  0.00     0.191 C 
BRANCH  13  14
HETATM   14  O2  UNL     1     -23.630 -26.876   3.510  1.00  0.00    -0.397 OA
ATOM     15  H2  UNL     1     -23.795 -25.979   3.243  1.00  0.00     0.209 HD
ENDBRANCH  13  14
ENDBRANCH  12  13
ENDBRANCH  10  11
BRANCH   6  16
HETATM   16  C11 UNL     1     -29.004 -24.890   5.686  1.00  0.00     0.173 C 
BRANCH  16  17
HETATM   17  O1  UNL     1     -27.915 -24.083   6.024  1.00  0.00    -0.400 OA
ATOM     18  H1  UNL     1     -27.566 -23.680   5.237  1.00  0.00     0.209 HD
ENDBRANCH  16  17
ENDBRANCH   6  16
BRANCH   1  19
HETATM   19  C2  UNL     1     -25.509 -28.754   8.769  1.00  0.00    -0.019 C 
HETATM   20  C1  UNL     1     -24.686 -28.070   7.640  1.00  0.00     0.010 C 
HETATM   21  C3  UNL     1     -25.027 -30.197   8.726  1.00  0.00     0.010 C 
ENDBRANCH   1  19
TORSDOF 6
ENDMDL
MODEL 4
REMARK VINA RESULT: -6.558403604      2.247      4.269
REMARK  6 active torsions:
REMARK  status: ('A' for Active; 'I' for Inactive)
REMARK    1  A    between atoms: C2_2  and  C4_4 
REMARK    2  A    between atoms: C9_9  and  C11_11 
REMARK    3  A    between atoms: C11_11  and  O1_12 
REMARK    4  A    between atoms: C14_16  and  C15_17 
REMARK    5  A    between atoms: C16_18  and  C17_19 
REMARK    6  A    between atoms: C17_19  and  O2_20 
ROOT
HETATM    1  C4  UNL     1     -26.788 -27.643   6.431  1.00  0.00    -0.010 C 
HETATM    2  C5  UNL     1     -28.180 -26.806   6.486  1.00  0.00     0.010 C 
HETATM    3  C6  UNL     1     -27.886 -26.230   5.174  1.00  0.00    -0.006 C 
HETATM    4  C7  UNL     1     -27.394 -25.075   4.900  1.00  0.00     0.006 C 
HETATM    5  C8  UNL     1     -27.139 -24.832   3.397  1.00  0.00     0.012 C 
HETATM    6  C9  UNL     1     -26.222 -26.058   3.061  1.00  0.00    -0.018 C 
HETATM    7  C10 UNL     1     -24.813 -25.619   3.431  1.00  0.00     0.018 C 
HETATM    8  C12 UNL     1     -26.607 -27.326   3.789  1.00  0.00     0.004 C 
HETATM    9  C13 UNL     1     -26.062 -27.554   5.171  1.00  0.00     0.011 C 
HETATM   10  C14 UNL     1     -28.130 -27.252   4.086  1.00  0.00     0.017 C 
ENDROOT
BRANCH  10  11
HETATM   11  C15 UNL     1     -29.075 -27.104   3.085  1.00  0.00    -0.023 C 
HETATM   12  C16 UNL     1     -30.339 -27.544   3.098  1.00  0.00    -0.005 C 
BRANCH  12  13
HETATM   13  C17 UNL     1     -30.907 -28.269   4.231  1.00  0.00     0.191 C 
BRANCH  13  14
HETATM   14  O2  UNL     1     -30.606 -29.642   4.194  1.00  0.00    -0.397 OA
ATOM     15  H2  UNL     1     -30.122 -29.886   3.413  1.00  0.00     0.209 HD
ENDBRANCH  13  14
ENDBRANCH  12  13
ENDBRANCH  10  11
BRANCH   6  16
HETATM   16  C11 UNL     1     -26.230 -26.245   1.578  1.00  0.00     0.173 C 
BRANCH  16  17
HETATM   17  O1  UNL     1     -26.768 -25.108   0.972  1.00  0.00    -0.400 OA
ATOM     18  H1  UNL     1     -26.504 -25.083   0.060  1.00  0.00     0.209 HD
ENDBRANCH  16  17
ENDBRANCH   6  16
BRANCH   1  19
HETATM   19  C2  UNL     1     -27.123 -28.984   6.902  1.00  0.00    -0.019 C 
HETATM   20  C1  UNL     1     -28.571 -28.969   7.468  1.00  0.00     0.010 C 
HETATM   21  C3  UNL     1     -26.289 -29.443   8.089  1.00  0.00     0.010 C 
ENDBRANCH   1  19
TORSDOF 6
ENDMDL
MODEL 5
REMARK VINA RESULT: -6.505131952      2.141      4.394
REMARK  6 active torsions:
REMARK  status: ('A' for Active; 'I' for Inactive)
REMARK    1  A    between atoms: C2_2  and  C4_4 
REMARK    2  A    between atoms: C9_9  and  C11_11 
REMARK    3  A    between atoms: C11_11  and  O1_12 
REMARK    4  A    between atoms: C14_16  and  C15_17 
REMARK    5  A    between atoms: C16_18  and  C17_19 
REMARK    6  A    between atoms: C17_19  and  O2_20 
ROOT
HETATM    1  C4  UNL     1     -27.066 -26.000   3.819  1.00  0.00    -0.010 C 
HETATM    2  C5  UNL     1     -27.274 -24.794   4.888  1.00  0.00     0.010 C 
HETATM    3  C6  UNL     1     -28.154 -25.650   5.683  1.00  0.00    -0.006 C 
HETATM    4  C7  UNL     1     -29.439 -25.673   5.709  1.00  0.00     0.006 C 
HETATM    5  C8  UNL     1     -30.039 -26.771   6.613  1.00  0.00     0.012 C 
HETATM    6  C9  UNL     1     -29.348 -28.044   6.011  1.00  0.00    -0.018 C 
HETATM    7  C10 UNL     1     -30.220 -28.455   4.834  1.00  0.00     0.018 C 
HETATM    8  C12 UNL     1     -27.918 -27.815   5.579  1.00  0.00     0.004 C 
HETATM    9  C13 UNL     1     -27.663 -27.275   4.199  1.00  0.00     0.011 C 
HETATM   10  C14 UNL     1     -27.341 -26.668   6.452  1.00  0.00     0.017 C 
ENDROOT
BRANCH  10  11
HETATM   11  C15 UNL     1     -27.297 -26.737   7.834  1.00  0.00    -0.023 C 
HETATM   12  C16 UNL     1     -26.439 -27.444   8.580  1.00  0.00    -0.005 C 
BRANCH  12  13
HETATM   13  C17 UNL     1     -25.387 -28.270   7.995  1.00  0.00     0.191 C 
BRANCH  13  14
HETATM   14  O2  UNL     1     -24.102 -27.875   8.408  1.00  0.00    -0.397 OA
ATOM     15  H2  UNL     1     -23.681 -28.527   8.955  1.00  0.00     0.209 HD
ENDBRANCH  13  14
ENDBRANCH  12  13
ENDBRANCH  10  11
BRANCH   6  16
HETATM   16  C11 UNL     1     -29.455 -29.143   7.019  1.00  0.00     0.173 C 
BRANCH  16  17
HETATM   17  O1  UNL     1     -29.722 -30.347   6.363  1.00  0.00    -0.400 OA
ATOM     18  H1  UNL     1     -29.175 -31.032   6.729  1.00  0.00     0.209 HD
ENDBRANCH  16  17
ENDBRANCH   6  16
BRANCH   1  19
HETATM   19  C2  UNL     1     -25.637 -26.011   3.518  1.00  0.00    -0.019 C 
HETATM   20  C1  UNL     1     -25.452 -26.081   1.976  1.00  0.00     0.010 C 
HETATM   21  C3  UNL     1     -24.915 -27.256   4.013  1.00  0.00     0.010 C 
ENDBRANCH   1  19
TORSDOF 6
ENDMDL
