MODEL 1
REMARK VINA RESULT: -5.232681553      0.000      0.000
REMARK  3 active torsions:
REMARK  status: ('A' for Active; 'I' for Inactive)
REMARK    1  A    between atoms: C1_4  and  C2_5 
REMARK    2  A    between atoms: C2_5  and  C3_6 
REMARK    3  A    between atoms: C3_6  and  N2_7 
ROOT
HETATM    1  N2  UNL     1      -3.807  -4.999  17.116  1.00  0.00    -0.066 N 
HETATM    2  C4  UNL     1      -5.150  -5.079  16.579  1.00  0.00     0.238 C 
HETATM    3  C5  UNL     1      -5.879  -6.141  17.411  1.00  0.00     0.034 C 
HETATM    4  C6  UNL     1      -4.704  -6.722  18.167  1.00  0.00     0.015 C 
HETATM    5  C7  UNL     1      -3.753  -7.287  17.149  1.00  0.00     0.034 C 
HETATM    6  C8  UNL     1      -2.984  -6.071  16.652  1.00  0.00     0.238 C 
HETATM    7  C9  UNL     1      -3.994  -5.402  18.511  1.00  0.00     0.242 C 
ENDROOT
BRANCH   1   8
HETATM    8  C3  UNL     1      -3.294  -3.698  16.951  1.00  0.00     0.242 C 
BRANCH   8   9
HETATM    9  C2  UNL     1      -4.012  -2.864  15.916  1.00  0.00     0.072 C 
BRANCH   9  10
HETATM   10  C1  UNL     1      -3.618  -1.458  16.162  1.00  0.00     0.054 C 
HETATM   11  N1  UNL     1      -2.774  -0.890  15.405  1.00  0.00    -0.411 N 
ATOM     12  H12 UNL     1      -2.375  -1.417  14.629  1.00  0.00     0.155 HD
ATOM     13  H11 UNL     1      -2.502   0.078  15.574  1.00  0.00     0.155 HD
ENDBRANCH   9  10
ENDBRANCH   8   9
ENDBRANCH   1   8
TORSDOF 3
ENDMDL
MODEL 2
REMARK VINA RESULT: -4.983023934      2.226      2.483
REMARK  3 active torsions:
REMARK  status: ('A' for Active; 'I' for Inactive)
REMARK    1  A    between atoms: C1_4  and  C2_5 
REMARK    2  A    between atoms: C2_5  and  C3_6 
REMARK    3  A    between atoms: C3_6  and  N2_7 
ROOT
HETATM    1  N2  UNL     1      -3.986  -5.840  17.601  1.00  0.00    -0.066 N 
HETATM    2  C4  UNL     1      -4.722  -5.234  16.510  1.00  0.00     0.238 C 
HETATM    3  C5  UNL     1      -6.206  -5.356  16.876  1.00  0.00     0.034 C 
HETATM    4  C6  UNL     1      -6.098  -6.294  18.059  1.00  0.00     0.015 C 
HETATM    5  C7  UNL     1      -5.482  -7.572  17.560  1.00  0.00     0.034 C 
HETATM    6  C8  UNL     1      -3.992  -7.267  17.517  1.00  0.00     0.238 C 
HETATM    7  C9  UNL     1      -4.882  -5.645  18.740  1.00  0.00     0.242 C 
ENDROOT
BRANCH   1   8
HETATM    8  C3  UNL     1      -2.727  -5.226  17.738  1.00  0.00     0.242 C 
BRANCH   8   9
HETATM    9  C2  UNL     1      -2.083  -4.808  16.438  1.00  0.00     0.072 C 
BRANCH   9  10
HETATM   10  C1  UNL     1      -0.632  -4.691  16.706  1.00  0.00     0.054 C 
HETATM   11  N1  UNL     1      -0.215  -4.463  17.881  1.00  0.00    -0.411 N 
ATOM     12  H12 UNL     1      -0.896  -4.362  18.634  1.00  0.00     0.155 HD
ATOM     13  H11 UNL     1       0.784  -4.382  18.066  1.00  0.00     0.155 HD
ENDBRANCH   9  10
ENDBRANCH   8   9
ENDBRANCH   1   8
TORSDOF 3
ENDMDL
MODEL 3
REMARK VINA RESULT: -4.971173879      2.514      4.381
REMARK  3 active torsions:
REMARK  status: ('A' for Active; 'I' for Inactive)
REMARK    1  A    between atoms: C1_4  and  C2_5 
REMARK    2  A    between atoms: C2_5  and  C3_6 
REMARK    3  A    between atoms: C3_6  and  N2_7 
ROOT
HETATM    1  N2  UNL     1      -7.021  -6.595  17.247  1.00  0.00    -0.066 N 
HETATM    2  C4  UNL     1      -6.728  -7.947  17.678  1.00  0.00     0.238 C 
HETATM    3  C5  UNL     1      -7.871  -8.821  17.151  1.00  0.00     0.034 C 
HETATM    4  C6  UNL     1      -8.828  -7.740  16.697  1.00  0.00     0.015 C 
HETATM    5  C7  UNL     1      -9.188  -6.925  17.908  1.00  0.00     0.034 C 
HETATM    6  C8  UNL     1      -8.009  -5.977  18.075  1.00  0.00     0.238 C 
HETATM    7  C9  UNL     1      -7.802  -6.810  16.029  1.00  0.00     0.242 C 
ENDROOT
BRANCH   1   8
HETATM    8  C3  UNL     1      -5.827  -5.877  17.054  1.00  0.00     0.242 C 
BRANCH   8   9
HETATM    9  C2  UNL     1      -4.630  -6.431  17.790  1.00  0.00     0.072 C 
BRANCH   9  10
HETATM   10  C1  UNL     1      -3.500  -5.520  17.502  1.00  0.00     0.054 C 
HETATM   11  N1  UNL     1      -2.418  -5.975  17.022  1.00  0.00    -0.411 N 
ATOM     12  H12 UNL     1      -2.343  -6.975  16.839  1.00  0.00     0.155 HD
ATOM     13  H11 UNL     1      -1.639  -5.348  16.824  1.00  0.00     0.155 HD
ENDBRANCH   9  10
ENDBRANCH   8   9
ENDBRANCH   1   8
TORSDOF 3
ENDMDL
MODEL 4
REMARK VINA RESULT: -4.862959776      3.401      5.499
REMARK  3 active torsions:
REMARK  status: ('A' for Active; 'I' for Inactive)
REMARK    1  A    between atoms: C1_4  and  C2_5 
REMARK    2  A    between atoms: C2_5  and  C3_6 
REMARK    3  A    between atoms: C3_6  and  N2_7 
ROOT
HETATM    1  N2  UNL     1      -8.053  -7.229  17.080  1.00  0.00    -0.066 N 
HETATM    2  C4  UNL     1      -7.952  -8.628  17.446  1.00  0.00     0.238 C 
HETATM    3  C5  UNL     1      -9.165  -9.322  16.816  1.00  0.00     0.034 C 
HETATM    4  C6  UNL     1      -9.955  -8.107  16.381  1.00  0.00     0.015 C 
HETATM    5  C7  UNL     1     -10.276  -7.316  17.620  1.00  0.00     0.034 C 
HETATM    6  C8  UNL     1      -9.000  -6.534  17.895  1.00  0.00     0.238 C 
HETATM    7  C9  UNL     1      -8.788  -7.280  15.816  1.00  0.00     0.242 C 
ENDROOT
BRANCH   1   8
HETATM    8  C3  UNL     1      -6.770  -6.658  16.985  1.00  0.00     0.242 C 
BRANCH   8   9
HETATM    9  C2  UNL     1      -5.673  -7.455  17.650  1.00  0.00     0.072 C 
BRANCH   9  10
HETATM   10  C1  UNL     1      -4.513  -6.545  17.784  1.00  0.00     0.054 C 
HETATM   11  N1  UNL     1      -3.332  -6.999  17.707  1.00  0.00    -0.411 N 
ATOM     12  H12 UNL     1      -3.198  -7.998  17.551  1.00  0.00     0.155 HD
ATOM     13  H11 UNL     1      -2.533  -6.373  17.799  1.00  0.00     0.155 HD
ENDBRANCH   9  10
ENDBRANCH   8   9
ENDBRANCH   1   8
TORSDOF 3
ENDMDL
MODEL 5
REMARK VINA RESULT: -4.849747006      1.780      4.086
REMARK  3 active torsions:
REMARK  status: ('A' for Active; 'I' for Inactive)
REMARK    1  A    between atoms: C1_4  and  C2_5 
REMARK    2  A    between atoms: C2_5  and  C3_6 
REMARK    3  A    between atoms: C3_6  and  N2_7 
ROOT
HETATM    1  N2  UNL     1      -2.857  -4.925  17.241  1.00  0.00    -0.066 N 
HETATM    2  C4  UNL     1      -3.430  -3.646  16.872  1.00  0.00     0.238 C 
HETATM    3  C5  UNL     1      -2.956  -3.363  15.442  1.00  0.00     0.034 C 
HETATM    4  C6  UNL     1      -1.919  -4.455  15.297  1.00  0.00     0.015 C 
HETATM    5  C7  UNL     1      -0.871  -4.218  16.349  1.00  0.00     0.034 C 
HETATM    6  C8  UNL     1      -1.483  -4.804  17.613  1.00  0.00     0.238 C 
HETATM    7  C9  UNL     1      -2.716  -5.598  15.949  1.00  0.00     0.242 C 
ENDROOT
BRANCH   1   8
HETATM    8  C3  UNL     1      -3.698  -5.589  18.153  1.00  0.00     0.242 C 
BRANCH   8   9
HETATM    9  C2  UNL     1      -4.085  -6.993  17.749  1.00  0.00     0.072 C 
BRANCH   9  10
HETATM   10  C1  UNL     1      -5.564  -7.034  17.734  1.00  0.00     0.054 C 
HETATM   11  N1  UNL     1      -6.228  -6.020  17.359  1.00  0.00    -0.411 N 
ATOM     12  H12 UNL     1      -5.725  -5.182  17.070  1.00  0.00     0.155 HD
ATOM     13  H11 UNL     1      -7.247  -6.048  17.348  1.00  0.00     0.155 HD
ENDBRANCH   9  10
ENDBRANCH   8   9
ENDBRANCH   1   8
TORSDOF 3
ENDMDL
