MODEL 1
REMARK VINA RESULT: -7.883547062      0.000      0.000
REMARK  4 active torsions:
REMARK  status: ('A' for Active; 'I' for Inactive)
REMARK    1  A    between atoms: O1_1  and  C1_3 
REMARK    2  A    between atoms: C6_8  and  O2_9 
REMARK    3  A    between atoms: C11_19  and  O3_20 
REMARK    4  A    between atoms: C12_22  and  C13_23 
ROOT
HETATM    1  C1  UNL     1       7.013  14.963  41.885  1.00  0.00     0.140 A 
HETATM    2  C2  UNL     1       7.044  14.854  43.277  1.00  0.00     0.057 A 
HETATM    3  C3  UNL     1       8.218  15.063  43.960  1.00  0.00     0.018 A 
HETATM    4  C4  UNL     1       9.345  15.376  43.244  1.00  0.00    -0.006 A 
HETATM    5  C5  UNL     1      10.520  15.582  43.942  1.00  0.00     0.052 A 
HETATM    6  C6  UNL     1      11.665  15.898  43.249  1.00  0.00     0.093 A 
HETATM    7  C7  UNL     1      11.645  16.007  41.876  1.00  0.00     0.072 A 
HETATM    8  C8  UNL     1      10.475  15.804  41.143  1.00  0.00     0.024 A 
HETATM    9  C9  UNL     1       9.334  15.488  41.855  1.00  0.00     0.055 A 
HETATM   10  N1  UNL     1       8.149  15.271  41.249  1.00  0.00    -0.336 N 
ATOM     11  H1  UNL     1       8.117  15.347  40.232  1.00  0.00     0.168 HD
HETATM   12  C10 UNL     1      10.389  15.906  39.691  1.00  0.00     0.187 A 
HETATM   13  N2  UNL     1       9.673  17.122  39.313  1.00  0.00    -0.131 NA
HETATM   14  N3  UNL     1      10.793  17.477  38.554  1.00  0.00    -0.104 NA
HETATM   15  C11 UNL     1      11.583  16.333  38.973  1.00  0.00     0.194 A 
HETATM   16  C12 UNL     1      12.769  16.735  39.743  1.00  0.00     0.194 C 
HETATM   17  N4  UNL     1      12.794  16.329  41.111  1.00  0.00    -0.372 N 
ATOM     18  H4  UNL     1      13.701  16.267  41.571  1.00  0.00     0.160 HD
ENDROOT
BRANCH  16  19
HETATM   19  C13 UNL     1      13.987  16.133  39.087  1.00  0.00     0.079 A 
HETATM   20  C14 UNL     1      14.881  15.258  39.671  1.00  0.00     0.037 A 
HETATM   21  C15 UNL     1      15.832  14.963  38.724  1.00  0.00     0.027 A 
HETATM   22  C16 UNL     1      15.489  15.664  37.603  1.00  0.00     0.142 A 
HETATM   23  O4  UNL     1      14.404  16.335  37.857  1.00  0.00    -0.325 OA
ENDBRANCH  16  19
BRANCH  15  24
HETATM   24  O3  UNL     1      11.829  15.524  37.843  1.00  0.00    -0.369 OA
ATOM     25  H3  UNL     1      12.495  14.869  38.018  1.00  0.00     0.212 HD
ENDBRANCH  15  24
BRANCH   6  26
HETATM   26  O2  UNL     1      12.833  16.102  43.960  1.00  0.00    -0.358 OA
ATOM     27  H2  UNL     1      13.641  15.731  43.624  1.00  0.00     0.217 HD
ENDBRANCH   6  26
BRANCH   1  28
HETATM   28  O1  UNL     1       5.832  14.754  41.195  1.00  0.00    -0.346 OA
ATOM     29  H1  UNL     1       5.502  13.873  41.065  1.00  0.00     0.219 HD
ENDBRANCH   1  28
TORSDOF 4
ENDMDL
MODEL 2
REMARK VINA RESULT: -7.789535419      2.563      7.164
REMARK  4 active torsions:
REMARK  status: ('A' for Active; 'I' for Inactive)
REMARK    1  A    between atoms: O1_1  and  C1_3 
REMARK    2  A    between atoms: C6_8  and  O2_9 
REMARK    3  A    between atoms: C11_19  and  O3_20 
REMARK    4  A    between atoms: C12_22  and  C13_23 
ROOT
HETATM    1  C1  UNL     1      15.468  15.044  36.210  1.00  0.00     0.140 A 
HETATM    2  C2  UNL     1      15.378  15.730  34.998  1.00  0.00     0.057 A 
HETATM    3  C3  UNL     1      14.489  16.768  34.856  1.00  0.00     0.018 A 
HETATM    4  C4  UNL     1      13.701  17.105  35.927  1.00  0.00    -0.006 A 
HETATM    5  C5  UNL     1      12.810  18.150  35.771  1.00  0.00     0.052 A 
HETATM    6  C6  UNL     1      12.008  18.510  36.829  1.00  0.00     0.093 A 
HETATM    7  C7  UNL     1      12.090  17.839  38.030  1.00  0.00     0.072 A 
HETATM    8  C8  UNL     1      12.978  16.780  38.217  1.00  0.00     0.024 A 
HETATM    9  C9  UNL     1      13.777  16.432  37.145  1.00  0.00     0.055 A 
HETATM   10  N1  UNL     1      14.670  15.425  37.214  1.00  0.00    -0.336 N 
ATOM     11  H1  UNL     1      14.743  14.917  38.096  1.00  0.00     0.168 HD
HETATM   12  C10 UNL     1      13.112  16.032  39.461  1.00  0.00     0.187 A 
HETATM   13  N2  UNL     1      14.365  16.383  40.127  1.00  0.00    -0.131 NA
HETATM   14  N3  UNL     1      13.605  16.724  41.251  1.00  0.00    -0.104 NA
HETATM   15  C11 UNL     1      12.328  16.481  40.605  1.00  0.00     0.194 A 
HETATM   16  C12 UNL     1      11.530  17.709  40.482  1.00  0.00     0.194 C 
HETATM   17  N4  UNL     1      11.288  18.167  39.152  1.00  0.00    -0.372 N 
ATOM     18  H4  UNL     1      10.482  18.772  38.998  1.00  0.00     0.160 HD
ENDROOT
BRANCH  16  19
HETATM   19  C13 UNL     1      10.181  17.463  41.111  1.00  0.00     0.079 A 
HETATM   20  C14 UNL     1       8.961  17.490  40.466  1.00  0.00     0.037 A 
HETATM   21  C15 UNL     1       8.000  17.214  41.409  1.00  0.00     0.027 A 
HETATM   22  C16 UNL     1       8.662  17.028  42.589  1.00  0.00     0.142 A 
HETATM   23  O4  UNL     1       9.936  17.183  42.372  1.00  0.00    -0.325 OA
ENDBRANCH  16  19
BRANCH  15  24
HETATM   24  O3  UNL     1      11.697  15.400  41.260  1.00  0.00    -0.369 OA
ATOM     25  H3  UNL     1      11.506  15.603  42.168  1.00  0.00     0.212 HD
ENDBRANCH  15  24
BRANCH   6  26
HETATM   26  O2  UNL     1      11.121  19.557  36.660  1.00  0.00    -0.358 OA
ATOM     27  H2  UNL     1      11.468  20.431  36.526  1.00  0.00     0.217 HD
ENDBRANCH   6  26
BRANCH   1  28
HETATM   28  O1  UNL     1      16.365  13.999  36.356  1.00  0.00    -0.346 OA
ATOM     29  H1  UNL     1      16.285  13.398  37.087  1.00  0.00     0.219 HD
ENDBRANCH   1  28
TORSDOF 4
ENDMDL
MODEL 3
REMARK VINA RESULT: -7.696592009      2.828      6.444
REMARK  4 active torsions:
REMARK  status: ('A' for Active; 'I' for Inactive)
REMARK    1  A    between atoms: O1_1  and  C1_3 
REMARK    2  A    between atoms: C6_8  and  O2_9 
REMARK    3  A    between atoms: C11_19  and  O3_20 
REMARK    4  A    between atoms: C12_22  and  C13_23 
ROOT
HETATM    1  C1  UNL     1      14.007  15.782  34.879  1.00  0.00     0.140 A 
HETATM    2  C2  UNL     1      15.296  15.244  34.888  1.00  0.00     0.057 A 
HETATM    3  C3  UNL     1      15.919  14.964  36.080  1.00  0.00     0.018 A 
HETATM    4  C4  UNL     1      15.247  15.224  37.246  1.00  0.00    -0.006 A 
HETATM    5  C5  UNL     1      15.885  14.938  38.439  1.00  0.00     0.052 A 
HETATM    6  C6  UNL     1      15.235  15.189  39.624  1.00  0.00     0.093 A 
HETATM    7  C7  UNL     1      13.962  15.719  39.626  1.00  0.00     0.072 A 
HETATM    8  C8  UNL     1      13.293  16.019  38.440  1.00  0.00     0.024 A 
HETATM    9  C9  UNL     1      13.961  15.760  37.258  1.00  0.00     0.055 A 
HETATM   10  N1  UNL     1      13.410  16.011  36.054  1.00  0.00    -0.336 N 
ATOM     11  H1  UNL     1      12.468  16.404  36.037  1.00  0.00     0.168 HD
HETATM   12  C10 UNL     1      11.949  16.580  38.375  1.00  0.00     0.187 A 
HETATM   13  N2  UNL     1      11.001  15.564  37.923  1.00  0.00    -0.131 NA
HETATM   14  N3  UNL     1      10.272  15.806  39.092  1.00  0.00    -0.104 NA
HETATM   15  C11 UNL     1      11.230  16.753  39.632  1.00  0.00     0.194 A 
HETATM   16  C12 UNL     1      11.845  16.267  40.875  1.00  0.00     0.194 C 
HETATM   17  N4  UNL     1      13.246  15.998  40.817  1.00  0.00    -0.372 N 
ATOM     18  H4  UNL     1      13.767  16.007  41.693  1.00  0.00     0.160 HD
ENDROOT
BRANCH  16  19
HETATM   19  C13 UNL     1      11.645  17.313  41.944  1.00  0.00     0.079 A 
HETATM   20  C14 UNL     1      12.611  18.163  42.446  1.00  0.00     0.037 A 
HETATM   21  C15 UNL     1      12.002  18.947  43.396  1.00  0.00     0.027 A 
HETATM   22  C16 UNL     1      10.695  18.552  43.441  1.00  0.00     0.142 A 
HETATM   23  O4  UNL     1      10.528  17.594  42.576  1.00  0.00    -0.325 OA
ENDBRANCH  16  19
BRANCH  15  24
HETATM   24  O3  UNL     1      10.611  18.021  39.707  1.00  0.00    -0.369 OA
ATOM     25  H3  UNL     1      11.174  18.662  40.124  1.00  0.00     0.212 HD
ENDBRANCH  15  24
BRANCH   6  26
HETATM   26  O2  UNL     1      15.884  14.899  40.810  1.00  0.00    -0.358 OA
ATOM     27  H2  UNL     1      15.364  14.638  41.561  1.00  0.00     0.217 HD
ENDBRANCH   6  26
BRANCH   1  28
HETATM   28  O1  UNL     1      13.377  16.064  33.680  1.00  0.00    -0.346 OA
ATOM     29  H1  UNL     1      12.547  15.655  33.467  1.00  0.00     0.219 HD
ENDBRANCH   1  28
TORSDOF 4
ENDMDL
MODEL 4
REMARK VINA RESULT: -7.661175095      3.100      7.763
REMARK  4 active torsions:
REMARK  status: ('A' for Active; 'I' for Inactive)
REMARK    1  A    between atoms: O1_1  and  C1_3 
REMARK    2  A    between atoms: C6_8  and  O2_9 
REMARK    3  A    between atoms: C11_19  and  O3_20 
REMARK    4  A    between atoms: C12_22  and  C13_23 
ROOT
HETATM    1  C1  UNL     1      16.601  13.675  35.436  1.00  0.00     0.140 A 
HETATM    2  C2  UNL     1      16.507  14.157  34.130  1.00  0.00     0.057 A 
HETATM    3  C3  UNL     1      15.730  15.256  33.853  1.00  0.00     0.018 A 
HETATM    4  C4  UNL     1      15.057  15.857  34.886  1.00  0.00    -0.006 A 
HETATM    5  C5  UNL     1      14.277  16.961  34.594  1.00  0.00     0.052 A 
HETATM    6  C6  UNL     1      13.591  17.584  35.610  1.00  0.00     0.093 A 
HETATM    7  C7  UNL     1      13.677  17.116  36.903  1.00  0.00     0.072 A 
HETATM    8  C8  UNL     1      14.454  16.004  37.228  1.00  0.00     0.024 A 
HETATM    9  C9  UNL     1      15.137  15.390  36.196  1.00  0.00     0.055 A 
HETATM   10  N1  UNL     1      15.917  14.309  36.396  1.00  0.00    -0.336 N 
ATOM     11  H1  UNL     1      15.991  13.949  37.347  1.00  0.00     0.168 HD
HETATM   12  C10 UNL     1      14.587  15.461  38.575  1.00  0.00     0.187 A 
HETATM   13  N2  UNL     1      15.911  15.765  39.112  1.00  0.00    -0.131 NA
HETATM   14  N3  UNL     1      15.269  16.375  40.195  1.00  0.00    -0.104 NA
HETATM   15  C11 UNL     1      13.933  16.183  39.660  1.00  0.00     0.194 A 
HETATM   16  C12 UNL     1      13.269  17.461  39.365  1.00  0.00     0.194 C 
HETATM   17  N4  UNL     1      12.992  17.718  37.988  1.00  0.00    -0.372 N 
ATOM     18  H4  UNL     1      12.249  18.381  37.770  1.00  0.00     0.160 HD
ENDROOT
BRANCH  16  19
HETATM   19  C13 UNL     1      11.945  17.485  40.088  1.00  0.00     0.079 A 
HETATM   20  C14 UNL     1      11.631  18.256  41.190  1.00  0.00     0.037 A 
HETATM   21  C15 UNL     1      10.329  17.968  41.524  1.00  0.00     0.027 A 
HETATM   22  C16 UNL     1       9.897  17.038  40.621  1.00  0.00     0.142 A 
HETATM   23  O4  UNL     1      10.873  16.783  39.799  1.00  0.00    -0.325 OA
ENDBRANCH  16  19
BRANCH  15  24
HETATM   24  O3  UNL     1      13.231  15.308  40.519  1.00  0.00    -0.369 OA
ATOM     25  H3  UNL     1      13.240  14.416  40.193  1.00  0.00     0.212 HD
ENDBRANCH  15  24
BRANCH   6  26
HETATM   26  O2  UNL     1      12.815  18.687  35.305  1.00  0.00    -0.358 OA
ATOM     27  H2  UNL     1      13.175  19.352  34.730  1.00  0.00     0.217 HD
ENDBRANCH   6  26
BRANCH   1  28
HETATM   28  O1  UNL     1      17.384  12.568  35.718  1.00  0.00    -0.346 OA
ATOM     29  H1  UNL     1      18.162  12.656  36.255  1.00  0.00     0.219 HD
ENDBRANCH   1  28
TORSDOF 4
ENDMDL
MODEL 5
REMARK VINA RESULT: -7.555513824      1.073      1.174
REMARK  4 active torsions:
REMARK  status: ('A' for Active; 'I' for Inactive)
REMARK    1  A    between atoms: O1_1  and  C1_3 
REMARK    2  A    between atoms: C6_8  and  O2_9 
REMARK    3  A    between atoms: C11_19  and  O3_20 
REMARK    4  A    between atoms: C12_22  and  C13_23 
ROOT
HETATM    1  C1  UNL     1       6.610  14.048  40.930  1.00  0.00     0.140 A 
HETATM    2  C2  UNL     1       6.269  14.369  42.245  1.00  0.00     0.057 A 
HETATM    3  C3  UNL     1       7.167  15.027  43.051  1.00  0.00     0.018 A 
HETATM    4  C4  UNL     1       8.393  15.354  42.531  1.00  0.00    -0.006 A 
HETATM    5  C5  UNL     1       9.288  16.015  43.351  1.00  0.00     0.052 A 
HETATM    6  C6  UNL     1      10.525  16.357  42.856  1.00  0.00     0.093 A 
HETATM    7  C7  UNL     1      10.871  16.044  41.559  1.00  0.00     0.072 A 
HETATM    8  C8  UNL     1       9.990  15.377  40.708  1.00  0.00     0.024 A 
HETATM    9  C9  UNL     1       8.752  15.042  41.221  1.00  0.00     0.055 A 
HETATM   10  N1  UNL     1       7.823  14.397  40.488  1.00  0.00    -0.336 N 
ATOM     11  H1  UNL     1       8.063  14.157  39.526  1.00  0.00     0.168 HD
HETATM   12  C10 UNL     1      10.296  15.019  39.328  1.00  0.00     0.187 A 
HETATM   13  N2  UNL     1       9.551  15.877  38.409  1.00  0.00    -0.131 NA
HETATM   14  N3  UNL     1      10.777  16.228  37.835  1.00  0.00    -0.104 NA
HETATM   15  C11 UNL     1      11.571  15.467  38.782  1.00  0.00     0.194 A 
HETATM   16  C12 UNL     1      12.430  16.334  39.603  1.00  0.00     0.194 C 
HETATM   17  N4  UNL     1      12.131  16.370  40.998  1.00  0.00    -0.372 N 
ATOM     18  H4  UNL     1      12.875  16.651  41.635  1.00  0.00     0.160 HD
ENDROOT
BRANCH  16  19
HETATM   19  C13 UNL     1      13.853  15.849  39.474  1.00  0.00     0.079 A 
HETATM   20  C14 UNL     1      14.627  15.310  40.481  1.00  0.00     0.037 A 
HETATM   21  C15 UNL     1      15.849  15.006  39.932  1.00  0.00     0.027 A 
HETATM   22  C16 UNL     1      15.780  15.369  38.616  1.00  0.00     0.142 A 
HETATM   23  O4  UNL     1      14.595  15.857  38.389  1.00  0.00    -0.325 OA
ENDBRANCH  16  19
BRANCH  15  24
HETATM   24  O3  UNL     1      12.230  14.433  38.082  1.00  0.00    -0.369 OA
ATOM     25  H3  UNL     1      12.737  13.882  38.667  1.00  0.00     0.212 HD
ENDBRANCH  15  24
BRANCH   6  26
HETATM   26  O2  UNL     1      11.411  17.017  43.687  1.00  0.00    -0.358 OA
ATOM     27  H2  UNL     1      12.285  16.660  43.797  1.00  0.00     0.217 HD
ENDBRANCH   6  26
BRANCH   1  28
HETATM   28  O1  UNL     1       5.706  13.385  40.117  1.00  0.00    -0.346 OA
ATOM     29  H1  UNL     1       5.578  13.664  39.218  1.00  0.00     0.219 HD
ENDBRANCH   1  28
TORSDOF 4
ENDMDL
