MODEL 1
REMARK VINA RESULT: -10.429452839      0.000      0.000
REMARK  14 active torsions:
REMARK  status: ('A' for Active; 'I' for Inactive)
REMARK    1  A    between atoms: C4_4  and  N1_5 
REMARK    2  A    between atoms: N1_5  and  S1_7 
REMARK    3  A    between atoms: S1_7  and  C5_10 
REMARK    4  A    between atoms: C10_15  and  C11_16 
REMARK    5  A    between atoms: C11_16  and  N2_17 
REMARK    6  A    between atoms: C17_31  and  N6_32 
REMARK    7  A    between atoms: N6_32  and  C18_34 
REMARK    8  A    between atoms: C18_34  and  C19_35 
REMARK    9  A    between atoms: C19_35  and  C20_36 
REMARK   10  A    between atoms: C20_36  and  C21_37 
REMARK   11  A    between atoms: C21_37  and  C22_38 
REMARK   12  A    between atoms: C22_38  and  C23_39 
REMARK   13  A    between atoms: C23_39  and  N7_40 
REMARK   14  A    between atoms: C27_44  and  N8_45 
ROOT
HETATM    1  C1  UNL     1      -7.211  27.795  -5.761  1.00  0.00     0.069 C 
HETATM    2  C2  UNL     1      -7.333  26.601  -4.853  1.00  0.00     0.026 A 
HETATM    3  C3  UNL     1      -7.632  26.720  -3.565  1.00  0.00     0.074 A 
HETATM    4  C4  UNL     1      -7.745  25.569  -2.711  1.00  0.00     0.132 A 
HETATM    5  N5  UNL     1      -7.511  24.424  -3.377  1.00  0.00    -0.176 N 
ATOM      6  H5  UNL     1      -7.569  23.562  -2.836  1.00  0.00     0.186 HD
HETATM    7  C17 UNL     1      -7.208  24.298  -4.686  1.00  0.00     0.679 A 
HETATM    8  N9  UNL     1      -7.114  25.383  -5.443  1.00  0.00    -0.196 N 
ATOM      9  H9  UNL     1      -6.886  25.314  -6.435  1.00  0.00     0.184 HD
ENDROOT
BRANCH   4  10
HETATM   10  N1  UNL     1      -8.070  25.785  -1.546  1.00  0.00    -0.265 N 
ATOM     11  H1  UNL     1      -8.679  26.598  -1.454  1.00  0.00     0.180 HD
BRANCH  10  12
HETATM   12  S1  UNL     1      -7.744  25.053  -0.070  1.00  0.00     0.264 S 
HETATM   13  O1  UNL     1      -6.378  25.232   0.472  1.00  0.00    -0.200 OA
HETATM   14  O2  UNL     1      -7.990  23.552  -0.185  1.00  0.00    -0.200 OA
BRANCH  12  15
HETATM   15  C5  UNL     1      -8.992  25.684   1.032  1.00  0.00     0.080 A 
HETATM   16  C6  UNL     1      -9.840  26.669   0.644  1.00  0.00     0.026 A 
HETATM   17  C7  UNL     1     -10.731  27.266   1.550  1.00  0.00     0.009 A 
HETATM   18  C8  UNL     1     -10.762  26.857   2.860  1.00  0.00    -0.054 A 
HETATM   19  C9  UNL     1     -11.649  27.538   3.863  1.00  0.00     0.049 C 
HETATM   20  C10 UNL     1      -9.905  25.850   3.248  1.00  0.00    -0.033 A 
HETATM   21  C16 UNL     1      -9.018  25.257   2.344  1.00  0.00     0.034 A 
BRANCH  20  22
HETATM   22  C11 UNL     1      -9.871  25.475   4.695  1.00  0.00     0.160 C 
BRANCH  22  23
HETATM   23  N2  UNL     1      -8.752  24.605   4.911  1.00  0.00    -0.372 N 
HETATM   24  C12 UNL     1      -8.627  23.605   5.672  1.00  0.00     0.105 A 
HETATM   25  C13 UNL     1      -9.621  23.151   6.493  1.00  0.00     0.090 A 
HETATM   26  N4  UNL     1      -7.433  22.944   5.583  1.00  0.00    -0.339 N 
HETATM   27  C14 UNL     1      -9.402  22.005   7.236  1.00  0.00     0.107 A 
HETATM   28 CL1  UNL     1     -10.621  21.380   8.313  1.00  0.00    -0.064 Cl
HETATM   29  N3  UNL     1      -8.210  21.398   7.106  1.00  0.00    -0.343 N 
HETATM   30  C15 UNL     1      -7.211  21.825   6.303  1.00  0.00     0.183 A 
ATOM     31  H3  UNL     1      -8.048  20.554   7.653  1.00  0.00     0.167 HD
ATOM     32  H4  UNL     1      -6.703  23.301   4.966  1.00  0.00     0.168 HD
ATOM     33  H2  UNL     1      -7.923  24.830   4.361  1.00  0.00     0.161 HD
ENDBRANCH  22  23
ENDBRANCH  20  22
ENDBRANCH  12  15
ENDBRANCH  10  12
ENDBRANCH   4  10
BRANCH   7  34
HETATM   34  N6  UNL     1      -7.019  23.074  -5.165  1.00  0.00    -0.226 N 
ATOM     35  H6  UNL     1      -7.827  22.571  -5.533  1.00  0.00     0.177 HD
BRANCH  34  36
HETATM   36  C18 UNL     1      -5.763  22.427  -5.194  1.00  0.00     0.138 C 
BRANCH  36  37
HETATM   37  C19 UNL     1      -5.020  22.668  -6.474  1.00  0.00     0.020 C 
BRANCH  37  38
HETATM   38  C20 UNL     1      -3.549  22.680  -6.247  1.00  0.00     0.002 C 
BRANCH  38  39
HETATM   39  C21 UNL     1      -2.940  21.447  -6.947  1.00  0.00     0.002 C 
BRANCH  39  40
HETATM   40  C22 UNL     1      -1.707  21.884  -7.755  1.00  0.00     0.030 C 
BRANCH  40  41
HETATM   41  C23 UNL     1      -0.631  22.418  -6.867  1.00  0.00     0.272 C 
BRANCH  41  42
HETATM   42  N7  UNL     1       0.592  21.633  -6.960  1.00  0.00     0.090 N 
HETATM   43  C24 UNL     1       0.358  20.758  -8.127  1.00  0.00     0.272 C 
HETATM   44  C25 UNL     1       1.590  20.566  -8.951  1.00  0.00     0.032 C 
HETATM   45  C26 UNL     1       2.816  20.428  -8.089  1.00  0.00     0.036 C 
HETATM   46  C27 UNL     1       2.969  21.637  -7.216  1.00  0.00     0.211 C 
HETATM   47  C28 UNL     1       1.731  22.489  -7.330  1.00  0.00     0.305 C 
BRANCH  46  48
HETATM   48  N8  UNL     1       4.186  22.369  -7.537  1.00  0.00    -0.073 N 
ATOM     49  H83 UNL     1       4.879  22.288  -6.793  1.00  0.00     0.274 HD
ATOM     50  H82 UNL     1       4.708  21.917  -8.287  1.00  0.00     0.274 HD
ATOM     51  H81 UNL     1       3.984  23.345  -7.756  1.00  0.00     0.274 HD
ENDBRANCH  46  48
ENDBRANCH  41  42
ENDBRANCH  40  41
ENDBRANCH  39  40
ENDBRANCH  38  39
ENDBRANCH  37  38
ENDBRANCH  36  37
ENDBRANCH  34  36
ENDBRANCH   7  34
TORSDOF 14
ENDMDL
MODEL 2
REMARK VINA RESULT: -10.319175851      1.362      1.598
REMARK  14 active torsions:
REMARK  status: ('A' for Active; 'I' for Inactive)
REMARK    1  A    between atoms: C4_4  and  N1_5 
REMARK    2  A    between atoms: N1_5  and  S1_7 
REMARK    3  A    between atoms: S1_7  and  C5_10 
REMARK    4  A    between atoms: C10_15  and  C11_16 
REMARK    5  A    between atoms: C11_16  and  N2_17 
REMARK    6  A    between atoms: C17_31  and  N6_32 
REMARK    7  A    between atoms: N6_32  and  C18_34 
REMARK    8  A    between atoms: C18_34  and  C19_35 
REMARK    9  A    between atoms: C19_35  and  C20_36 
REMARK   10  A    between atoms: C20_36  and  C21_37 
REMARK   11  A    between atoms: C21_37  and  C22_38 
REMARK   12  A    between atoms: C22_38  and  C23_39 
REMARK   13  A    between atoms: C23_39  and  N7_40 
REMARK   14  A    between atoms: C27_44  and  N8_45 
ROOT
HETATM    1  C1  UNL     1      -7.332  27.648  -5.857  1.00  0.00     0.069 C 
HETATM    2  C2  UNL     1      -7.383  26.490  -4.898  1.00  0.00     0.026 A 
HETATM    3  C3  UNL     1      -7.763  26.635  -3.633  1.00  0.00     0.074 A 
HETATM    4  C4  UNL     1      -7.808  25.518  -2.730  1.00  0.00     0.132 A 
HETATM    5  N5  UNL     1      -7.423  24.375  -3.325  1.00  0.00    -0.176 N 
ATOM      6  H5  UNL     1      -7.423  23.536  -2.745  1.00  0.00     0.186 HD
HETATM    7  C17 UNL     1      -7.036  24.222  -4.609  1.00  0.00     0.679 A 
HETATM    8  N9  UNL     1      -7.011  25.276  -5.414  1.00  0.00    -0.196 N 
ATOM      9  H9  UNL     1      -6.722  25.186  -6.388  1.00  0.00     0.184 HD
ENDROOT
BRANCH   4  10
HETATM   10  N1  UNL     1      -8.216  25.751  -1.595  1.00  0.00    -0.265 N 
ATOM     11  H1  UNL     1      -9.234  25.749  -1.538  1.00  0.00     0.180 HD
BRANCH  10  12
HETATM   12  S1  UNL     1      -7.489  26.072  -0.116  1.00  0.00     0.264 S 
HETATM   13  O1  UNL     1      -6.883  27.413   0.049  1.00  0.00    -0.200 OA
HETATM   14  O2  UNL     1      -6.387  25.047   0.139  1.00  0.00    -0.200 OA
BRANCH  12  15
HETATM   15  C5  UNL     1      -8.759  25.756   1.091  1.00  0.00     0.080 A 
HETATM   16  C6  UNL     1      -9.973  26.354   1.006  1.00  0.00     0.026 A 
HETATM   17  C7  UNL     1     -10.928  26.218   2.026  1.00  0.00     0.009 A 
HETATM   18  C8  UNL     1     -10.646  25.467   3.140  1.00  0.00    -0.054 A 
HETATM   19  C9  UNL     1     -11.621  25.376   4.279  1.00  0.00     0.049 C 
HETATM   20  C10 UNL     1      -9.414  24.855   3.219  1.00  0.00    -0.033 A 
HETATM   21  C16 UNL     1      -8.465  24.992   2.201  1.00  0.00     0.034 A 
BRANCH  20  22
HETATM   22  C11 UNL     1      -9.074  24.120   4.476  1.00  0.00     0.160 C 
BRANCH  22  23
HETATM   23  N2  UNL     1      -7.736  24.469   4.856  1.00  0.00    -0.372 N 
HETATM   24  C12 UNL     1      -6.852  23.794   5.453  1.00  0.00     0.105 A 
HETATM   25  C13 UNL     1      -7.042  22.510   5.881  1.00  0.00     0.090 A 
HETATM   26  N4  UNL     1      -5.639  24.410   5.598  1.00  0.00    -0.339 N 
HETATM   27  C14 UNL     1      -5.984  21.837   6.466  1.00  0.00     0.107 A 
HETATM   28 CL1  UNL     1      -6.163  20.204   7.047  1.00  0.00    -0.064 Cl
HETATM   29  N3  UNL     1      -4.817  22.493   6.580  1.00  0.00    -0.343 N 
HETATM   30  C15 UNL     1      -4.602  23.761   6.165  1.00  0.00     0.183 A 
ATOM     31  H3  UNL     1      -4.037  21.998   7.010  1.00  0.00     0.167 HD
ATOM     32  H4  UNL     1      -5.519  25.369   5.274  1.00  0.00     0.168 HD
ATOM     33  H2  UNL     1      -7.452  25.415   4.602  1.00  0.00     0.161 HD
ENDBRANCH  22  23
ENDBRANCH  20  22
ENDBRANCH  12  15
ENDBRANCH  10  12
ENDBRANCH   4  10
BRANCH   7  34
HETATM   34  N6  UNL     1      -6.699  23.003  -5.016  1.00  0.00    -0.226 N 
ATOM     35  H6  UNL     1      -7.333  22.232  -4.804  1.00  0.00     0.177 HD
BRANCH  34  36
HETATM   36  C18 UNL     1      -5.512  22.713  -5.725  1.00  0.00     0.138 C 
BRANCH  36  37
HETATM   37  C19 UNL     1      -4.398  23.663  -5.398  1.00  0.00     0.020 C 
BRANCH  37  38
HETATM   38  C20 UNL     1      -3.080  23.102  -5.800  1.00  0.00     0.002 C 
BRANCH  38  39
HETATM   39  C21 UNL     1      -3.325  21.956  -6.803  1.00  0.00     0.002 C 
BRANCH  39  40
HETATM   40  C22 UNL     1      -1.996  21.587  -7.482  1.00  0.00     0.030 C 
BRANCH  40  41
HETATM   41  C23 UNL     1      -0.857  22.377  -6.925  1.00  0.00     0.272 C 
BRANCH  41  42
HETATM   42  N7  UNL     1       0.398  21.640  -6.983  1.00  0.00     0.090 N 
HETATM   43  C24 UNL     1       0.201  20.703  -8.108  1.00  0.00     0.272 C 
HETATM   44  C25 UNL     1       1.441  20.526  -8.925  1.00  0.00     0.032 C 
HETATM   45  C26 UNL     1       2.671  20.480  -8.059  1.00  0.00     0.036 C 
HETATM   46  C27 UNL     1       2.773  21.733  -7.243  1.00  0.00     0.211 C 
HETATM   47  C28 UNL     1       1.500  22.526  -7.394  1.00  0.00     0.305 C 
BRANCH  46  48
HETATM   48  N8  UNL     1       3.957  22.500  -7.599  1.00  0.00    -0.073 N 
ATOM     49  H83 UNL     1       4.424  22.873  -6.772  1.00  0.00     0.274 HD
ATOM     50  H82 UNL     1       4.705  21.898  -7.942  1.00  0.00     0.274 HD
ATOM     51  H81 UNL     1       3.734  23.238  -8.267  1.00  0.00     0.274 HD
ENDBRANCH  46  48
ENDBRANCH  41  42
ENDBRANCH  40  41
ENDBRANCH  39  40
ENDBRANCH  38  39
ENDBRANCH  37  38
ENDBRANCH  36  37
ENDBRANCH  34  36
ENDBRANCH   7  34
TORSDOF 14
ENDMDL
MODEL 3
REMARK VINA RESULT: -10.297152154      1.206      1.434
REMARK  14 active torsions:
REMARK  status: ('A' for Active; 'I' for Inactive)
REMARK    1  A    between atoms: C4_4  and  N1_5 
REMARK    2  A    between atoms: N1_5  and  S1_7 
REMARK    3  A    between atoms: S1_7  and  C5_10 
REMARK    4  A    between atoms: C10_15  and  C11_16 
REMARK    5  A    between atoms: C11_16  and  N2_17 
REMARK    6  A    between atoms: C17_31  and  N6_32 
REMARK    7  A    between atoms: N6_32  and  C18_34 
REMARK    8  A    between atoms: C18_34  and  C19_35 
REMARK    9  A    between atoms: C19_35  and  C20_36 
REMARK   10  A    between atoms: C20_36  and  C21_37 
REMARK   11  A    between atoms: C21_37  and  C22_38 
REMARK   12  A    between atoms: C22_38  and  C23_39 
REMARK   13  A    between atoms: C23_39  and  N7_40 
REMARK   14  A    between atoms: C27_44  and  N8_45 
ROOT
HETATM    1  C1  UNL     1      -6.824  27.569  -6.252  1.00  0.00     0.069 C 
HETATM    2  C2  UNL     1      -6.734  26.351  -5.374  1.00  0.00     0.026 A 
HETATM    3  C3  UNL     1      -7.284  26.307  -4.165  1.00  0.00     0.074 A 
HETATM    4  C4  UNL     1      -7.190  25.135  -3.339  1.00  0.00     0.132 A 
HETATM    5  N5  UNL     1      -6.496  24.151  -3.940  1.00  0.00    -0.176 N 
ATOM      6  H5  UNL     1      -6.382  23.286  -3.413  1.00  0.00     0.186 HD
HETATM    7  C17 UNL     1      -5.936  24.190  -5.167  1.00  0.00     0.679 A 
HETATM    8  N9  UNL     1      -6.047  25.289  -5.902  1.00  0.00    -0.196 N 
ATOM      9  H9  UNL     1      -5.632  25.342  -6.832  1.00  0.00     0.184 HD
ENDROOT
BRANCH   4  10
HETATM   10  N1  UNL     1      -7.771  25.182  -2.258  1.00  0.00    -0.265 N 
ATOM     11  H1  UNL     1      -8.781  25.276  -2.361  1.00  0.00     0.180 HD
BRANCH  10  12
HETATM   12  S1  UNL     1      -7.289  25.128  -0.650  1.00  0.00     0.264 S 
HETATM   13  O1  UNL     1      -6.139  25.981  -0.273  1.00  0.00    -0.200 OA
HETATM   14  O2  UNL     1      -6.926  23.694  -0.279  1.00  0.00    -0.200 OA
BRANCH  12  15
HETATM   15  C5  UNL     1      -8.756  25.531   0.275  1.00  0.00     0.080 A 
HETATM   16  C6  UNL     1      -9.707  26.351  -0.239  1.00  0.00     0.026 A 
HETATM   17  C7  UNL     1     -10.795  26.783   0.536  1.00  0.00     0.009 A 
HETATM   18  C8  UNL     1     -10.918  26.378   1.842  1.00  0.00    -0.054 A 
HETATM   19  C9  UNL     1     -12.029  26.894   2.712  1.00  0.00     0.049 C 
HETATM   20  C10 UNL     1      -9.953  25.540   2.358  1.00  0.00    -0.033 A 
HETATM   21  C16 UNL     1      -8.870  25.110   1.584  1.00  0.00     0.034 A 
BRANCH  20  22
HETATM   22  C11 UNL     1     -10.036  25.180   3.807  1.00  0.00     0.160 C 
BRANCH  22  23
HETATM   23  N2  UNL     1      -8.936  24.315   4.121  1.00  0.00    -0.372 N 
HETATM   24  C12 UNL     1      -8.796  23.476   5.054  1.00  0.00     0.105 A 
HETATM   25  C13 UNL     1      -9.747  23.237   6.006  1.00  0.00     0.090 A 
HETATM   26  N4  UNL     1      -7.635  22.753   5.024  1.00  0.00    -0.339 N 
HETATM   27  C14 UNL     1      -9.519  22.247   6.945  1.00  0.00     0.107 A 
HETATM   28 CL1  UNL     1     -10.684  21.901   8.194  1.00  0.00    -0.064 Cl
HETATM   29  N3  UNL     1      -8.361  21.570   6.865  1.00  0.00    -0.343 N 
HETATM   30  C15 UNL     1      -7.405  21.785   5.935  1.00  0.00     0.183 A 
ATOM     31  H3  UNL     1      -8.192  20.840   7.556  1.00  0.00     0.167 HD
ATOM     32  H4  UNL     1      -6.937  22.948   4.307  1.00  0.00     0.168 HD
ATOM     33  H2  UNL     1      -8.139  24.389   3.489  1.00  0.00     0.161 HD
ENDBRANCH  22  23
ENDBRANCH  20  22
ENDBRANCH  12  15
ENDBRANCH  10  12
ENDBRANCH   4  10
BRANCH   7  34
HETATM   34  N6  UNL     1      -5.295  23.107  -5.592  1.00  0.00    -0.226 N 
ATOM     35  H6  UNL     1      -5.836  22.255  -5.741  1.00  0.00     0.177 HD
BRANCH  34  36
HETATM   36  C18 UNL     1      -3.906  23.068  -5.849  1.00  0.00     0.138 C 
BRANCH  36  37
HETATM   37  C19 UNL     1      -3.525  21.961  -6.787  1.00  0.00     0.020 C 
BRANCH  37  38
HETATM   38  C20 UNL     1      -2.067  21.671  -6.710  1.00  0.00     0.002 C 
BRANCH  38  39
HETATM   39  C21 UNL     1      -1.586  21.222  -8.106  1.00  0.00     0.002 C 
BRANCH  39  40
HETATM   40  C22 UNL     1      -0.054  21.325  -8.168  1.00  0.00     0.030 C 
BRANCH  40  41
HETATM   41  C23 UNL     1       0.501  22.000  -6.957  1.00  0.00     0.272 C 
BRANCH  41  42
HETATM   42  N7  UNL     1       1.897  22.376  -7.133  1.00  0.00     0.090 N 
HETATM   43  C24 UNL     1       2.347  21.531  -8.258  1.00  0.00     0.272 C 
HETATM   44  C25 UNL     1       3.278  22.257  -9.176  1.00  0.00     0.032 C 
HETATM   45  C26 UNL     1       4.231  23.138  -8.415  1.00  0.00     0.036 C 
HETATM   46  C27 UNL     1       3.466  24.122  -7.582  1.00  0.00     0.211 C 
HETATM   47  C28 UNL     1       2.003  23.764  -7.612  1.00  0.00     0.305 C 
BRANCH  46  48
HETATM   48  N8  UNL     1       3.718  25.489  -8.016  1.00  0.00    -0.073 N 
ATOM     49  H83 UNL     1       4.717  25.680  -8.089  1.00  0.00     0.274 HD
ATOM     50  H82 UNL     1       3.461  25.625  -8.993  1.00  0.00     0.274 HD
ATOM     51  H81 UNL     1       3.251  26.163  -7.408  1.00  0.00     0.274 HD
ENDBRANCH  46  48
ENDBRANCH  41  42
ENDBRANCH  40  41
ENDBRANCH  39  40
ENDBRANCH  38  39
ENDBRANCH  37  38
ENDBRANCH  36  37
ENDBRANCH  34  36
ENDBRANCH   7  34
TORSDOF 14
ENDMDL
MODEL 4
REMARK VINA RESULT: -10.270005624      3.283      4.899
REMARK  14 active torsions:
REMARK  status: ('A' for Active; 'I' for Inactive)
REMARK    1  A    between atoms: C4_4  and  N1_5 
REMARK    2  A    between atoms: N1_5  and  S1_7 
REMARK    3  A    between atoms: S1_7  and  C5_10 
REMARK    4  A    between atoms: C10_15  and  C11_16 
REMARK    5  A    between atoms: C11_16  and  N2_17 
REMARK    6  A    between atoms: C17_31  and  N6_32 
REMARK    7  A    between atoms: N6_32  and  C18_34 
REMARK    8  A    between atoms: C18_34  and  C19_35 
REMARK    9  A    between atoms: C19_35  and  C20_36 
REMARK   10  A    between atoms: C20_36  and  C21_37 
REMARK   11  A    between atoms: C21_37  and  C22_38 
REMARK   12  A    between atoms: C22_38  and  C23_39 
REMARK   13  A    between atoms: C23_39  and  N7_40 
REMARK   14  A    between atoms: C27_44  and  N8_45 
ROOT
HETATM    1  C1  UNL     1      -7.217  28.155  -5.148  1.00  0.00     0.069 C 
HETATM    2  C2  UNL     1      -7.418  26.873  -4.387  1.00  0.00     0.026 A 
HETATM    3  C3  UNL     1      -7.751  26.858  -3.101  1.00  0.00     0.074 A 
HETATM    4  C4  UNL     1      -7.940  25.624  -2.388  1.00  0.00     0.132 A 
HETATM    5  N5  UNL     1      -7.734  24.553  -3.175  1.00  0.00    -0.176 N 
ATOM      6  H5  UNL     1      -7.845  23.638  -2.739  1.00  0.00     0.186 HD
HETATM    7  C17 UNL     1      -7.396  24.563  -4.482  1.00  0.00     0.679 A 
HETATM    8  N9  UNL     1      -7.234  25.721  -5.107  1.00  0.00    -0.196 N 
ATOM      9  H9  UNL     1      -6.978  25.754  -6.094  1.00  0.00     0.184 HD
ENDROOT
BRANCH   4  10
HETATM   10  N1  UNL     1      -8.290  25.721  -1.215  1.00  0.00    -0.265 N 
ATOM     11  H1  UNL     1      -9.300  25.633  -1.100  1.00  0.00     0.180 HD
BRANCH  10  12
HETATM   12  S1  UNL     1      -7.494  25.964   0.244  1.00  0.00     0.264 S 
HETATM   13  O1  UNL     1      -6.835  27.277   0.429  1.00  0.00    -0.200 OA
HETATM   14  O2  UNL     1      -6.422  24.894   0.419  1.00  0.00    -0.200 OA
BRANCH  12  15
HETATM   15  C5  UNL     1      -8.727  25.650   1.489  1.00  0.00     0.080 A 
HETATM   16  C6  UNL     1      -8.706  24.512   2.227  1.00  0.00     0.026 A 
HETATM   17  C7  UNL     1      -9.750  24.193   3.110  1.00  0.00     0.009 A 
HETATM   18  C8  UNL     1     -10.822  25.040   3.245  1.00  0.00    -0.054 A 
HETATM   19  C9  UNL     1     -11.987  24.679   4.123  1.00  0.00     0.049 C 
HETATM   20  C10 UNL     1     -10.836  26.199   2.500  1.00  0.00    -0.033 A 
HETATM   21  C16 UNL     1      -9.795  26.513   1.621  1.00  0.00     0.034 A 
BRANCH  20  22
HETATM   22  C11 UNL     1     -12.049  27.069   2.576  1.00  0.00     0.160 C 
BRANCH  22  23
HETATM   23  N2  UNL     1     -12.841  26.845   1.401  1.00  0.00    -0.372 N 
HETATM   24  C12 UNL     1     -13.439  27.664   0.649  1.00  0.00     0.105 A 
HETATM   25  C13 UNL     1     -13.438  29.016   0.851  1.00  0.00     0.090 A 
HETATM   26  N4  UNL     1     -14.053  27.118  -0.444  1.00  0.00    -0.339 N 
HETATM   27  C14 UNL     1     -14.069  29.829  -0.073  1.00  0.00     0.107 A 
HETATM   28 CL1  UNL     1     -14.118  31.560   0.132  1.00  0.00    -0.064 Cl
HETATM   29  N3  UNL     1     -14.653  29.236  -1.127  1.00  0.00    -0.343 N 
HETATM   30  C15 UNL     1     -14.669  27.903  -1.351  1.00  0.00     0.183 A 
ATOM     31  H3  UNL     1     -15.119  29.835  -1.808  1.00  0.00     0.167 HD
ATOM     32  H4  UNL     1     -14.044  26.106  -0.575  1.00  0.00     0.168 HD
ATOM     33  H2  UNL     1     -12.935  25.867   1.129  1.00  0.00     0.161 HD
ENDBRANCH  22  23
ENDBRANCH  20  22
ENDBRANCH  12  15
ENDBRANCH  10  12
ENDBRANCH   4  10
BRANCH   7  34
HETATM   34  N6  UNL     1      -7.246  23.393  -5.093  1.00  0.00    -0.226 N 
ATOM     35  H6  UNL     1      -8.061  22.975  -5.541  1.00  0.00     0.177 HD
BRANCH  34  36
HETATM   36  C18 UNL     1      -6.019  22.694  -5.158  1.00  0.00     0.138 C 
BRANCH  36  37
HETATM   37  C19 UNL     1      -5.277  22.950  -6.437  1.00  0.00     0.020 C 
BRANCH  37  38
HETATM   38  C20 UNL     1      -4.189  21.954  -6.634  1.00  0.00     0.002 C 
BRANCH  38  39
HETATM   39  C21 UNL     1      -2.849  22.617  -6.254  1.00  0.00     0.002 C 
BRANCH  39  40
HETATM   40  C22 UNL     1      -1.700  21.865  -6.945  1.00  0.00     0.030 C 
BRANCH  40  41
HETATM   41  C23 UNL     1      -0.439  22.664  -6.939  1.00  0.00     0.272 C 
BRANCH  41  42
HETATM   42  N7  UNL     1       0.745  21.817  -6.997  1.00  0.00     0.090 N 
HETATM   43  C24 UNL     1       0.415  20.828  -8.044  1.00  0.00     0.272 C 
HETATM   44  C25 UNL     1       1.596  20.488  -8.897  1.00  0.00     0.032 C 
HETATM   45  C26 UNL     1       2.857  20.391  -8.081  1.00  0.00     0.036 C 
HETATM   46  C27 UNL     1       3.104  21.681  -7.360  1.00  0.00     0.211 C 
HETATM   47  C28 UNL     1       1.898  22.572  -7.514  1.00  0.00     0.305 C 
BRANCH  46  48
HETATM   48  N8  UNL     1       4.332  22.315  -7.817  1.00  0.00    -0.073 N 
ATOM     49  H83 UNL     1       5.125  22.061  -7.229  1.00  0.00     0.274 HD
ATOM     50  H82 UNL     1       4.655  21.914  -8.698  1.00  0.00     0.274 HD
ATOM     51  H81 UNL     1       4.223  23.328  -7.884  1.00  0.00     0.274 HD
ENDBRANCH  46  48
ENDBRANCH  41  42
ENDBRANCH  40  41
ENDBRANCH  39  40
ENDBRANCH  38  39
ENDBRANCH  37  38
ENDBRANCH  36  37
ENDBRANCH  34  36
ENDBRANCH   7  34
TORSDOF 14
ENDMDL
MODEL 5
REMARK VINA RESULT: -10.195651165      1.151      1.558
REMARK  14 active torsions:
REMARK  status: ('A' for Active; 'I' for Inactive)
REMARK    1  A    between atoms: C4_4  and  N1_5 
REMARK    2  A    between atoms: N1_5  and  S1_7 
REMARK    3  A    between atoms: S1_7  and  C5_10 
REMARK    4  A    between atoms: C10_15  and  C11_16 
REMARK    5  A    between atoms: C11_16  and  N2_17 
REMARK    6  A    between atoms: C17_31  and  N6_32 
REMARK    7  A    between atoms: N6_32  and  C18_34 
REMARK    8  A    between atoms: C18_34  and  C19_35 
REMARK    9  A    between atoms: C19_35  and  C20_36 
REMARK   10  A    between atoms: C20_36  and  C21_37 
REMARK   11  A    between atoms: C21_37  and  C22_38 
REMARK   12  A    between atoms: C22_38  and  C23_39 
REMARK   13  A    between atoms: C23_39  and  N7_40 
REMARK   14  A    between atoms: C27_44  and  N8_45 
ROOT
HETATM    1  C1  UNL     1      -6.876  27.573  -6.205  1.00  0.00     0.069 C 
HETATM    2  C2  UNL     1      -6.765  26.343  -5.347  1.00  0.00     0.026 A 
HETATM    3  C3  UNL     1      -7.314  26.271  -4.139  1.00  0.00     0.074 A 
HETATM    4  C4  UNL     1      -7.199  25.087  -3.331  1.00  0.00     0.132 A 
HETATM    5  N5  UNL     1      -6.491  24.125  -3.948  1.00  0.00    -0.176 N 
ATOM      6  H5  UNL     1      -6.362  23.253  -3.435  1.00  0.00     0.186 HD
HETATM    7  C17 UNL     1      -5.933  24.192  -5.175  1.00  0.00     0.679 A 
HETATM    8  N9  UNL     1      -6.061  25.301  -5.892  1.00  0.00    -0.196 N 
ATOM      9  H9  UNL     1      -5.649  25.376  -6.822  1.00  0.00     0.184 HD
ENDROOT
BRANCH   4  10
HETATM   10  N1  UNL     1      -7.780  25.108  -2.249  1.00  0.00    -0.265 N 
ATOM     11  H1  UNL     1      -8.794  25.138  -2.350  1.00  0.00     0.180 HD
BRANCH  10  12
HETATM   12  S1  UNL     1      -7.293  25.098  -0.642  1.00  0.00     0.264 S 
HETATM   13  O1  UNL     1      -6.140  25.959  -0.292  1.00  0.00    -0.200 OA
HETATM   14  O2  UNL     1      -6.930  23.673  -0.233  1.00  0.00    -0.200 OA
BRANCH  12  15
HETATM   15  C5  UNL     1      -8.756  25.528   0.277  1.00  0.00     0.080 A 
HETATM   16  C6  UNL     1      -9.687  26.368  -0.239  1.00  0.00     0.026 A 
HETATM   17  C7  UNL     1     -10.770  26.821   0.532  1.00  0.00     0.009 A 
HETATM   18  C8  UNL     1     -10.908  26.414   1.836  1.00  0.00    -0.054 A 
HETATM   19  C9  UNL     1     -12.013  26.949   2.701  1.00  0.00     0.049 C 
HETATM   20  C10 UNL     1      -9.964  25.554   2.353  1.00  0.00    -0.033 A 
HETATM   21  C16 UNL     1      -8.886  25.105   1.583  1.00  0.00     0.034 A 
BRANCH  20  22
HETATM   22  C11 UNL     1     -10.062  25.191   3.800  1.00  0.00     0.160 C 
BRANCH  22  23
HETATM   23  N2  UNL     1      -8.960  24.333   4.127  1.00  0.00    -0.372 N 
HETATM   24  C12 UNL     1      -8.824  23.495   5.062  1.00  0.00     0.105 A 
HETATM   25  C13 UNL     1      -9.783  23.251   6.004  1.00  0.00     0.090 A 
HETATM   26  N4  UNL     1      -7.658  22.780   5.045  1.00  0.00    -0.339 N 
HETATM   27  C14 UNL     1      -9.558  22.264   6.946  1.00  0.00     0.107 A 
HETATM   28 CL1  UNL     1     -10.734  21.912   8.184  1.00  0.00    -0.064 Cl
HETATM   29  N3  UNL     1      -8.396  21.593   6.878  1.00  0.00    -0.343 N 
HETATM   30  C15 UNL     1      -7.431  21.814   5.958  1.00  0.00     0.183 A 
ATOM     31  H3  UNL     1      -8.229  20.865   7.572  1.00  0.00     0.167 HD
ATOM     32  H4  UNL     1      -6.954  22.979   4.334  1.00  0.00     0.168 HD
ATOM     33  H2  UNL     1      -8.157  24.411   3.503  1.00  0.00     0.161 HD
ENDBRANCH  22  23
ENDBRANCH  20  22
ENDBRANCH  12  15
ENDBRANCH  10  12
ENDBRANCH   4  10
BRANCH   7  34
HETATM   34  N6  UNL     1      -5.274  23.127  -5.617  1.00  0.00    -0.226 N 
ATOM     35  H6  UNL     1      -5.808  22.282  -5.824  1.00  0.00     0.177 HD
BRANCH  34  36
HETATM   36  C18 UNL     1      -3.876  23.096  -5.818  1.00  0.00     0.138 C 
BRANCH  36  37
HETATM   37  C19 UNL     1      -3.446  21.967  -6.707  1.00  0.00     0.020 C 
BRANCH  37  38
HETATM   38  C20 UNL     1      -1.962  21.858  -6.755  1.00  0.00     0.002 C 
BRANCH  38  39
HETATM   39  C21 UNL     1      -1.565  21.240  -8.112  1.00  0.00     0.002 C 
BRANCH  39  40
HETATM   40  C22 UNL     1      -0.071  20.879  -8.084  1.00  0.00     0.030 C 
BRANCH  40  41
HETATM   41  C23 UNL     1       0.762  22.026  -7.614  1.00  0.00     0.272 C 
BRANCH  41  42
HETATM   42  N7  UNL     1       2.047  22.084  -8.297  1.00  0.00     0.090 N 
HETATM   43  C24 UNL     1       2.556  23.431  -7.972  1.00  0.00     0.272 C 
HETATM   44  C25 UNL     1       4.033  23.439  -7.734  1.00  0.00     0.032 C 
HETATM   45  C26 UNL     1       4.752  22.529  -8.692  1.00  0.00     0.036 C 
HETATM   46  C27 UNL     1       4.223  21.132  -8.570  1.00  0.00     0.211 C 
HETATM   47  C28 UNL     1       3.000  21.142  -7.689  1.00  0.00     0.305 C 
BRANCH  46  48
HETATM   48  N8  UNL     1       5.251  20.218  -8.093  1.00  0.00    -0.073 N 
ATOM     49  H83 UNL     1       5.929  20.003  -8.824  1.00  0.00     0.274 HD
ATOM     50  H82 UNL     1       5.877  20.673  -7.428  1.00  0.00     0.274 HD
ATOM     51  H81 UNL     1       4.840  19.370  -7.701  1.00  0.00     0.274 HD
ENDBRANCH  46  48
ENDBRANCH  41  42
ENDBRANCH  40  41
ENDBRANCH  39  40
ENDBRANCH  38  39
ENDBRANCH  37  38
ENDBRANCH  36  37
ENDBRANCH  34  36
ENDBRANCH   7  34
TORSDOF 14
ENDMDL
