MODEL 1
REMARK VINA RESULT: -6.913952003      0.000      0.000
REMARK  12 active torsions:
REMARK  status: ('A' for Active; 'I' for Inactive)
REMARK    1  A    between atoms: C2_2  and  C3_3 
REMARK    2  A    between atoms: C3_3  and  C5_5 
REMARK    3  A    between atoms: C7_10  and  C8_11 
REMARK    4  A    between atoms: C8_11  and  C9_12 
REMARK    5  A    between atoms: C9_12  and  S1_13 
REMARK    6  A    between atoms: C11_17  and  O2_18 
REMARK    7  A    between atoms: C12_20  and  C13_21 
REMARK    8  A    between atoms: C13_21  and  C14_22 
REMARK    9  A    between atoms: C14_22  and  C15_23 
REMARK   10  A    between atoms: C15_23  and  N3_24 
REMARK   11  A    between atoms: C21_36  and  C22_37 
REMARK   12  A    between atoms: C22_37  and  C25_40 
ROOT
HETATM    1  C5  UNL     1      -6.390  25.203  -4.226  1.00  0.00     0.188 C 
HETATM    2  N1  UNL     1      -5.568  25.380  -3.077  1.00  0.00    -0.345 N 
ATOM      3  H1  UNL     1      -4.587  25.140  -3.220  1.00  0.00     0.163 HD
HETATM    4  C6  UNL     1      -5.870  25.823  -1.792  1.00  0.00     0.241 C 
HETATM    5  O1  UNL     1      -4.954  26.343  -1.105  1.00  0.00    -0.271 OA
HETATM    6  C7  UNL     1      -7.198  25.753  -1.097  1.00  0.00     0.176 C 
HETATM    7  N2  UNL     1      -7.816  27.011  -0.861  1.00  0.00    -0.356 N 
ATOM      8  H2  UNL     1      -8.212  27.374  -1.728  1.00  0.00     0.162 HD
HETATM    9  C11 UNL     1      -8.048  27.896   0.173  1.00  0.00     0.159 C 
HETATM   10  C12 UNL     1      -7.263  28.920   0.864  1.00  0.00     0.062 C 
HETATM   11  N6  UNL     1      -7.111  30.174   0.125  1.00  0.00    -0.327 N 
ATOM     12  H6  UNL     1      -7.436  31.011   0.609  1.00  0.00     0.168 HD
HETATM   13  C17 UNL     1      -6.587  30.383  -1.143  1.00  0.00     0.222 C 
HETATM   14  O3  UNL     1      -7.358  30.988  -1.977  1.00  0.00    -0.273 OA
HETATM   15  C18 UNL     1      -5.264  30.011  -1.678  1.00  0.00     0.103 C 
HETATM   16  C19 UNL     1      -5.160  29.939  -3.159  1.00  0.00     0.012 C 
HETATM   17  C20 UNL     1      -6.356  29.487  -3.915  1.00  0.00     0.034 C 
HETATM   18  C21 UNL     1      -6.032  28.536  -5.041  1.00  0.00     0.141 C 
HETATM   19  O4  UNL     1      -6.859  27.469  -5.177  1.00  0.00    -0.314 OA
HETATM   20  C26 UNL     1      -7.242  26.335  -4.624  1.00  0.00     0.282 C 
HETATM   21  O5  UNL     1      -8.501  26.183  -4.400  1.00  0.00    -0.263 OA
ENDROOT
BRANCH  10  22
HETATM   22  C13 UNL     1      -6.024  28.556   1.584  1.00  0.00     0.063 C 
BRANCH  22  23
HETATM   23  C14 UNL     1      -5.863  29.161   2.957  1.00  0.00     0.026 C 
BRANCH  23  24
HETATM   24  C15 UNL     1      -4.516  29.827   3.132  1.00  0.00     0.122 C 
BRANCH  24  25
HETATM   25  N3  UNL     1      -4.155  30.646   2.013  1.00  0.00    -0.367 N 
HETATM   26  C16 UNL     1      -2.888  30.669   1.668  1.00  0.00     0.196 C 
HETATM   27  N4  UNL     1      -2.530  31.482   0.557  1.00  0.00    -0.067 NA
HETATM   28  N5  UNL     1      -1.926  29.914   2.378  1.00  0.00    -0.067 NA
ATOM     29  H3  UNL     1      -4.854  31.189   1.505  1.00  0.00     0.161 HD
ENDBRANCH  24  25
ENDBRANCH  23  24
ENDBRANCH  22  23
ENDBRANCH  10  22
BRANCH   9  30
HETATM   30  O2  UNL     1      -9.263  27.817   0.662  1.00  0.00    -0.345 OA
ATOM     31  H2  UNL     1      -9.393  28.352   1.436  1.00  0.00     0.219 HD
ENDBRANCH   9  30
BRANCH   6  32
HETATM   32  C8  UNL     1      -7.123  24.788   0.070  1.00  0.00     0.045 C 
BRANCH  32  33
HETATM   33  C9  UNL     1      -8.521  24.332   0.458  1.00  0.00     0.076 C 
BRANCH  33  34
HETATM   34  S1  UNL     1      -8.692  24.443   2.268  1.00  0.00    -0.173 SA
HETATM   35  C10 UNL     1      -7.315  25.338   3.002  1.00  0.00     0.089 C 
ENDBRANCH  33  34
ENDBRANCH  32  33
ENDBRANCH   6  32
BRANCH   1  36
HETATM   36  C3  UNL     1      -5.607  24.761  -5.452  1.00  0.00     0.014 C 
HETATM   37  C4  UNL     1      -6.289  23.525  -5.993  1.00  0.00     0.012 C 
BRANCH  36  38
HETATM   38  C2  UNL     1      -4.192  24.384  -5.100  1.00  0.00     0.002 C 
HETATM   39  C1  UNL     1      -3.781  23.134  -5.850  1.00  0.00     0.005 C 
ENDBRANCH  36  38
ENDBRANCH   1  36
BRANCH  18  40
HETATM   40  C22 UNL     1      -6.169  29.334  -6.349  1.00  0.00    -0.008 C 
HETATM   41  C23 UNL     1      -7.217  30.403  -6.121  1.00  0.00     0.018 C 
HETATM   42  C24 UNL     1      -4.860  30.092  -6.614  1.00  0.00     0.018 C 
BRANCH  40  43
HETATM   43  C25 UNL     1      -6.555  28.512  -7.523  1.00  0.00     0.126 C 
HETATM   44 CL1  UNL     1      -5.155  28.402  -8.660  1.00  0.00    -0.130 Cl
ENDBRANCH  40  43
ENDBRANCH  18  40
TORSDOF 12
ENDMDL
MODEL 2
REMARK VINA RESULT: -6.878231823      1.561      1.942
REMARK  12 active torsions:
REMARK  status: ('A' for Active; 'I' for Inactive)
REMARK    1  A    between atoms: C2_2  and  C3_3 
REMARK    2  A    between atoms: C3_3  and  C5_5 
REMARK    3  A    between atoms: C7_10  and  C8_11 
REMARK    4  A    between atoms: C8_11  and  C9_12 
REMARK    5  A    between atoms: C9_12  and  S1_13 
REMARK    6  A    between atoms: C11_17  and  O2_18 
REMARK    7  A    between atoms: C12_20  and  C13_21 
REMARK    8  A    between atoms: C13_21  and  C14_22 
REMARK    9  A    between atoms: C14_22  and  C15_23 
REMARK   10  A    between atoms: C15_23  and  N3_24 
REMARK   11  A    between atoms: C21_36  and  C22_37 
REMARK   12  A    between atoms: C22_37  and  C25_40 
ROOT
HETATM    1  C5  UNL     1      -6.434  25.201  -4.169  1.00  0.00     0.188 C 
HETATM    2  N1  UNL     1      -5.614  25.357  -3.016  1.00  0.00    -0.345 N 
ATOM      3  H1  UNL     1      -4.634  25.114  -3.159  1.00  0.00     0.163 HD
HETATM    4  C6  UNL     1      -5.918  25.784  -1.725  1.00  0.00     0.241 C 
HETATM    5  O1  UNL     1      -5.001  26.289  -1.028  1.00  0.00    -0.271 OA
HETATM    6  C7  UNL     1      -7.248  25.712  -1.035  1.00  0.00     0.176 C 
HETATM    7  N2  UNL     1      -7.859  26.970  -0.784  1.00  0.00    -0.356 N 
ATOM      8  H2  UNL     1      -8.251  27.348  -1.647  1.00  0.00     0.162 HD
HETATM    9  C11 UNL     1      -8.090  27.842   0.262  1.00  0.00     0.159 C 
HETATM   10  C12 UNL     1      -7.302  28.852   0.970  1.00  0.00     0.062 C 
HETATM   11  N6  UNL     1      -7.141  30.115   0.248  1.00  0.00    -0.327 N 
ATOM     12  H6  UNL     1      -7.462  30.947   0.743  1.00  0.00     0.168 HD
HETATM   13  C17 UNL     1      -6.611  30.339  -1.015  1.00  0.00     0.222 C 
HETATM   14  O3  UNL     1      -7.377  30.960  -1.843  1.00  0.00    -0.273 OA
HETATM   15  C18 UNL     1      -5.289  29.967  -1.552  1.00  0.00     0.103 C 
HETATM   16  C19 UNL     1      -5.181  29.915  -3.033  1.00  0.00     0.012 C 
HETATM   17  C20 UNL     1      -6.377  29.480  -3.799  1.00  0.00     0.034 C 
HETATM   18  C21 UNL     1      -6.055  28.543  -4.937  1.00  0.00     0.141 C 
HETATM   19  O4  UNL     1      -6.887  27.483  -5.090  1.00  0.00    -0.314 OA
HETATM   20  C26 UNL     1      -7.279  26.343  -4.554  1.00  0.00     0.282 C 
HETATM   21  O5  UNL     1      -8.539  26.195  -4.336  1.00  0.00    -0.263 OA
ENDROOT
BRANCH  10  22
HETATM   22  C13 UNL     1      -6.067  28.471   1.688  1.00  0.00     0.063 C 
BRANCH  22  23
HETATM   23  C14 UNL     1      -5.912  29.047   3.074  1.00  0.00     0.026 C 
BRANCH  23  24
HETATM   24  C15 UNL     1      -5.961  27.979   4.144  1.00  0.00     0.122 C 
BRANCH  24  25
HETATM   25  N3  UNL     1      -4.656  27.548   4.554  1.00  0.00    -0.367 N 
HETATM   26  C16 UNL     1      -4.451  26.254   4.643  1.00  0.00     0.196 C 
HETATM   27  N4  UNL     1      -3.157  25.827   5.049  1.00  0.00    -0.067 NA
HETATM   28  N5  UNL     1      -5.480  25.330   4.345  1.00  0.00    -0.067 NA
ATOM     29  H3  UNL     1      -3.918  28.219   4.768  1.00  0.00     0.161 HD
ENDBRANCH  24  25
ENDBRANCH  23  24
ENDBRANCH  22  23
ENDBRANCH  10  22
BRANCH   9  30
HETATM   30  O2  UNL     1      -9.307  27.764   0.746  1.00  0.00    -0.345 OA
ATOM     31  H2  UNL     1      -9.412  28.214   1.575  1.00  0.00     0.219 HD
ENDBRANCH   9  30
BRANCH   6  32
HETATM   32  C8  UNL     1      -7.182  24.730   0.119  1.00  0.00     0.045 C 
BRANCH  32  33
HETATM   33  C9  UNL     1      -8.586  24.315   0.529  1.00  0.00     0.076 C 
BRANCH  33  34
HETATM   34  S1  UNL     1      -8.581  23.902   2.302  1.00  0.00    -0.173 SA
HETATM   35  C10 UNL     1      -8.949  25.344   3.312  1.00  0.00     0.089 C 
ENDBRANCH  33  34
ENDBRANCH  32  33
ENDBRANCH   6  32
BRANCH   1  36
HETATM   36  C3  UNL     1      -5.650  24.771  -5.399  1.00  0.00     0.014 C 
HETATM   37  C4  UNL     1      -6.296  23.508  -5.920  1.00  0.00     0.012 C 
BRANCH  36  38
HETATM   38  C2  UNL     1      -4.220  24.445  -5.058  1.00  0.00     0.002 C 
HETATM   39  C1  UNL     1      -3.768  23.215  -5.818  1.00  0.00     0.005 C 
ENDBRANCH  36  38
ENDBRANCH   1  36
BRANCH  18  40
HETATM   40  C22 UNL     1      -6.183  29.360  -6.234  1.00  0.00    -0.008 C 
HETATM   41  C23 UNL     1      -7.224  30.433  -5.993  1.00  0.00     0.018 C 
HETATM   42  C24 UNL     1      -4.869  30.112  -6.486  1.00  0.00     0.018 C 
BRANCH  40  43
HETATM   43  C25 UNL     1      -6.573  28.556  -7.420  1.00  0.00     0.126 C 
HETATM   44 CL1  UNL     1      -5.157  28.412  -8.533  1.00  0.00    -0.130 Cl
ENDBRANCH  40  43
ENDBRANCH  18  40
TORSDOF 12
ENDMDL
MODEL 3
REMARK VINA RESULT: -6.766418686      1.606      2.574
REMARK  12 active torsions:
REMARK  status: ('A' for Active; 'I' for Inactive)
REMARK    1  A    between atoms: C2_2  and  C3_3 
REMARK    2  A    between atoms: C3_3  and  C5_5 
REMARK    3  A    between atoms: C7_10  and  C8_11 
REMARK    4  A    between atoms: C8_11  and  C9_12 
REMARK    5  A    between atoms: C9_12  and  S1_13 
REMARK    6  A    between atoms: C11_17  and  O2_18 
REMARK    7  A    between atoms: C12_20  and  C13_21 
REMARK    8  A    between atoms: C13_21  and  C14_22 
REMARK    9  A    between atoms: C14_22  and  C15_23 
REMARK   10  A    between atoms: C15_23  and  N3_24 
REMARK   11  A    between atoms: C21_36  and  C22_37 
REMARK   12  A    between atoms: C22_37  and  C25_40 
ROOT
HETATM    1  C5  UNL     1      -6.241  25.112  -4.379  1.00  0.00     0.188 C 
HETATM    2  N1  UNL     1      -5.446  25.312  -3.214  1.00  0.00    -0.345 N 
ATOM      3  H1  UNL     1      -4.455  25.105  -3.338  1.00  0.00     0.163 HD
HETATM    4  C6  UNL     1      -5.788  25.741  -1.933  1.00  0.00     0.241 C 
HETATM    5  O1  UNL     1      -4.902  26.288  -1.227  1.00  0.00    -0.271 OA
HETATM    6  C7  UNL     1      -7.125  25.625  -1.263  1.00  0.00     0.176 C 
HETATM    7  N2  UNL     1      -7.788  26.861  -1.036  1.00  0.00    -0.356 N 
ATOM      8  H2  UNL     1      -8.180  27.214  -1.910  1.00  0.00     0.162 HD
HETATM    9  C11 UNL     1      -8.069  27.735  -0.005  1.00  0.00     0.159 C 
HETATM   10  C12 UNL     1      -7.332  28.782   0.704  1.00  0.00     0.062 C 
HETATM   11  N6  UNL     1      -7.207  30.042  -0.028  1.00  0.00    -0.327 N 
ATOM     12  H6  UNL     1      -7.568  30.867   0.451  1.00  0.00     0.168 HD
HETATM   13  C17 UNL     1      -6.665  30.273  -1.286  1.00  0.00     0.222 C 
HETATM   14  O3  UNL     1      -7.440  30.855  -2.133  1.00  0.00    -0.273 OA
HETATM   15  C18 UNL     1      -5.321  29.947  -1.797  1.00  0.00     0.103 C 
HETATM   16  C19 UNL     1      -5.187  29.883  -3.276  1.00  0.00     0.012 C 
HETATM   17  C20 UNL     1      -6.353  29.394  -4.055  1.00  0.00     0.034 C 
HETATM   18  C21 UNL     1      -5.977  28.458  -5.177  1.00  0.00     0.141 C 
HETATM   19  O4  UNL     1      -6.765  27.365  -5.332  1.00  0.00    -0.314 OA
HETATM   20  C26 UNL     1      -7.122  26.217  -4.789  1.00  0.00     0.282 C 
HETATM   21  O5  UNL     1      -8.379  26.023  -4.590  1.00  0.00    -0.263 OA
ENDROOT
BRANCH  10  22
HETATM   22  C13 UNL     1      -6.095  28.456   1.447  1.00  0.00     0.063 C 
BRANCH  22  23
HETATM   23  C14 UNL     1      -6.119  28.763   2.924  1.00  0.00     0.026 C 
BRANCH  23  24
HETATM   24  C15 UNL     1      -7.509  29.098   3.415  1.00  0.00     0.122 C 
BRANCH  24  25
HETATM   25  N3  UNL     1      -8.007  28.141   4.360  1.00  0.00    -0.367 N 
HETATM   26  C16 UNL     1      -9.256  27.758   4.227  1.00  0.00     0.196 C 
HETATM   27  N4  UNL     1      -9.750  26.809   5.163  1.00  0.00    -0.067 NA
HETATM   28  N5  UNL     1     -10.071  28.274   3.191  1.00  0.00    -0.067 NA
ATOM     29  H3  UNL     1      -7.415  27.772   5.104  1.00  0.00     0.161 HD
ENDBRANCH  24  25
ENDBRANCH  23  24
ENDBRANCH  22  23
ENDBRANCH  10  22
BRANCH   9  30
HETATM   30  O2  UNL     1      -9.290  27.615   0.461  1.00  0.00    -0.345 OA
ATOM     31  H2  UNL     1      -9.433  28.091   1.270  1.00  0.00     0.219 HD
ENDBRANCH   9  30
BRANCH   6  32
HETATM   32  C8  UNL     1      -7.041  24.659  -0.098  1.00  0.00     0.045 C 
BRANCH  32  33
HETATM   33  C9  UNL     1      -8.435  24.193   0.293  1.00  0.00     0.076 C 
BRANCH  33  34
HETATM   34  S1  UNL     1      -8.590  24.266   2.105  1.00  0.00    -0.173 SA
HETATM   35  C10 UNL     1      -7.114  24.962   2.862  1.00  0.00     0.089 C 
ENDBRANCH  33  34
ENDBRANCH  32  33
ENDBRANCH   6  32
BRANCH   1  36
HETATM   36  C3  UNL     1      -5.420  24.700  -5.590  1.00  0.00     0.014 C 
HETATM   37  C4  UNL     1      -6.108  23.503  -6.207  1.00  0.00     0.012 C 
BRANCH  36  38
HETATM   38  C2  UNL     1      -4.029  24.276  -5.200  1.00  0.00     0.002 C 
HETATM   39  C1  UNL     1      -3.642  23.010  -5.936  1.00  0.00     0.005 C 
ENDBRANCH  36  38
ENDBRANCH   1  36
BRANCH  18  40
HETATM   40  C22 UNL     1      -6.115  29.256  -6.486  1.00  0.00    -0.008 C 
HETATM   41  C23 UNL     1      -7.162  30.325  -6.256  1.00  0.00     0.018 C 
HETATM   42  C24 UNL     1      -4.806  30.013  -6.752  1.00  0.00     0.018 C 
BRANCH  40  43
HETATM   43  C25 UNL     1      -6.503  28.433  -7.659  1.00  0.00     0.126 C 
HETATM   44 CL1  UNL     1      -5.147  28.420  -8.853  1.00  0.00    -0.130 Cl
ENDBRANCH  40  43
ENDBRANCH  18  40
TORSDOF 12
ENDMDL
MODEL 4
REMARK VINA RESULT: -6.497471363      1.023      1.289
REMARK  12 active torsions:
REMARK  status: ('A' for Active; 'I' for Inactive)
REMARK    1  A    between atoms: C2_2  and  C3_3 
REMARK    2  A    between atoms: C3_3  and  C5_5 
REMARK    3  A    between atoms: C7_10  and  C8_11 
REMARK    4  A    between atoms: C8_11  and  C9_12 
REMARK    5  A    between atoms: C9_12  and  S1_13 
REMARK    6  A    between atoms: C11_17  and  O2_18 
REMARK    7  A    between atoms: C12_20  and  C13_21 
REMARK    8  A    between atoms: C13_21  and  C14_22 
REMARK    9  A    between atoms: C14_22  and  C15_23 
REMARK   10  A    between atoms: C15_23  and  N3_24 
REMARK   11  A    between atoms: C21_36  and  C22_37 
REMARK   12  A    between atoms: C22_37  and  C25_40 
ROOT
HETATM    1  C5  UNL     1      -6.466  25.198  -4.143  1.00  0.00     0.188 C 
HETATM    2  N1  UNL     1      -5.626  25.392  -3.010  1.00  0.00    -0.345 N 
ATOM      3  H1  UNL     1      -4.652  25.125  -3.155  1.00  0.00     0.163 HD
HETATM    4  C6  UNL     1      -5.903  25.882  -1.735  1.00  0.00     0.241 C 
HETATM    5  O1  UNL     1      -4.967  26.401  -1.075  1.00  0.00    -0.271 OA
HETATM    6  C7  UNL     1      -7.224  25.865  -1.024  1.00  0.00     0.176 C 
HETATM    7  N2  UNL     1      -7.809  27.144  -0.822  1.00  0.00    -0.356 N 
ATOM      8  H2  UNL     1      -8.207  27.489  -1.695  1.00  0.00     0.162 HD
HETATM    9  C11 UNL     1      -8.009  28.066   0.186  1.00  0.00     0.159 C 
HETATM   10  C12 UNL     1      -7.193  29.093   0.837  1.00  0.00     0.062 C 
HETATM   11  N6  UNL     1      -7.020  30.319   0.057  1.00  0.00    -0.327 N 
ATOM     12  H6  UNL     1      -7.320  31.178   0.517  1.00  0.00     0.168 HD
HETATM   13  C17 UNL     1      -6.506  30.476  -1.223  1.00  0.00     0.222 C 
HETATM   14  O3  UNL     1      -7.273  31.072  -2.067  1.00  0.00    -0.273 OA
HETATM   15  C18 UNL     1      -5.198  30.056  -1.761  1.00  0.00     0.103 C 
HETATM   16  C19 UNL     1      -5.113  29.936  -3.240  1.00  0.00     0.012 C 
HETATM   17  C20 UNL     1      -6.328  29.488  -3.968  1.00  0.00     0.034 C 
HETATM   18  C21 UNL     1      -6.039  28.495  -5.067  1.00  0.00     0.141 C 
HETATM   19  O4  UNL     1      -6.892  27.445  -5.160  1.00  0.00    -0.314 OA
HETATM   20  C26 UNL     1      -7.296  26.337  -4.567  1.00  0.00     0.282 C 
HETATM   21  O5  UNL     1      -8.555  26.222  -4.325  1.00  0.00    -0.263 OA
ENDROOT
BRANCH  10  22
HETATM   22  C13 UNL     1      -5.954  28.722   1.554  1.00  0.00     0.063 C 
BRANCH  22  23
HETATM   23  C14 UNL     1      -5.937  29.029   3.031  1.00  0.00     0.026 C 
BRANCH  23  24
HETATM   24  C15 UNL     1      -5.051  30.210   3.358  1.00  0.00     0.122 C 
BRANCH  24  25
HETATM   25  N3  UNL     1      -5.793  31.424   3.537  1.00  0.00    -0.367 N 
HETATM   26  C16 UNL     1      -5.646  32.358   2.626  1.00  0.00     0.196 C 
HETATM   27  N4  UNL     1      -6.382  33.562   2.802  1.00  0.00    -0.067 NA
HETATM   28  N5  UNL     1      -4.789  32.167   1.517  1.00  0.00    -0.067 NA
ATOM     29  H3  UNL     1      -6.409  31.556   4.339  1.00  0.00     0.161 HD
ENDBRANCH  24  25
ENDBRANCH  23  24
ENDBRANCH  22  23
ENDBRANCH  10  22
BRANCH   9  30
HETATM   30  O2  UNL     1      -9.220  28.032   0.691  1.00  0.00    -0.345 OA
ATOM     31  H2  UNL     1      -9.742  28.794   0.471  1.00  0.00     0.219 HD
ENDBRANCH   9  30
BRANCH   6  32
HETATM   32  C8  UNL     1      -7.157  24.935   0.172  1.00  0.00     0.045 C 
BRANCH  32  33
HETATM   33  C9  UNL     1      -8.561  24.519   0.585  1.00  0.00     0.076 C 
BRANCH  33  34
HETATM   34  S1  UNL     1      -8.476  23.711   2.214  1.00  0.00    -0.173 SA
HETATM   35  C10 UNL     1      -9.871  24.177   3.250  1.00  0.00     0.089 C 
ENDBRANCH  33  34
ENDBRANCH  32  33
ENDBRANCH   6  32
BRANCH   1  36
HETATM   36  C3  UNL     1      -5.707  24.700  -5.363  1.00  0.00     0.014 C 
HETATM   37  C4  UNL     1      -6.359  23.406  -5.794  1.00  0.00     0.012 C 
BRANCH  36  38
HETATM   38  C2  UNL     1      -4.268  24.399  -5.037  1.00  0.00     0.002 C 
HETATM   39  C1  UNL     1      -3.797  23.188  -5.815  1.00  0.00     0.005 C 
ENDBRANCH  36  38
ENDBRANCH   1  36
BRANCH  18  40
HETATM   40  C22 UNL     1      -6.173  29.255  -6.398  1.00  0.00    -0.008 C 
HETATM   41  C23 UNL     1      -7.193  30.354  -6.192  1.00  0.00     0.018 C 
HETATM   42  C24 UNL     1      -4.850  29.973  -6.700  1.00  0.00     0.018 C 
BRANCH  40  43
HETATM   43  C25 UNL     1      -6.592  28.406  -7.541  1.00  0.00     0.126 C 
HETATM   44 CL1  UNL     1      -5.264  28.357  -8.765  1.00  0.00    -0.130 Cl
ENDBRANCH  40  43
ENDBRANCH  18  40
TORSDOF 12
ENDMDL
MODEL 5
REMARK VINA RESULT: -6.378166190      3.840      7.596
REMARK  12 active torsions:
REMARK  status: ('A' for Active; 'I' for Inactive)
REMARK    1  A    between atoms: C2_2  and  C3_3 
REMARK    2  A    between atoms: C3_3  and  C5_5 
REMARK    3  A    between atoms: C7_10  and  C8_11 
REMARK    4  A    between atoms: C8_11  and  C9_12 
REMARK    5  A    between atoms: C9_12  and  S1_13 
REMARK    6  A    between atoms: C11_17  and  O2_18 
REMARK    7  A    between atoms: C12_20  and  C13_21 
REMARK    8  A    between atoms: C13_21  and  C14_22 
REMARK    9  A    between atoms: C14_22  and  C15_23 
REMARK   10  A    between atoms: C15_23  and  N3_24 
REMARK   11  A    between atoms: C21_36  and  C22_37 
REMARK   12  A    between atoms: C22_37  and  C25_40 
ROOT
HETATM    1  C5  UNL     1      -8.050  25.901  -0.709  1.00  0.00     0.188 C 
HETATM    2  N1  UNL     1      -8.653  26.219  -1.959  1.00  0.00    -0.345 N 
ATOM      3  H1  UNL     1      -9.623  26.525  -1.894  1.00  0.00     0.163 HD
HETATM    4  C6  UNL     1      -8.148  26.183  -3.257  1.00  0.00     0.241 C 
HETATM    5  O1  UNL     1      -8.666  26.932  -4.124  1.00  0.00    -0.271 OA
HETATM    6  C7  UNL     1      -7.024  25.331  -3.770  1.00  0.00     0.176 C 
HETATM    7  N2  UNL     1      -5.854  26.047  -4.141  1.00  0.00    -0.356 N 
ATOM      8  H2  UNL     1      -5.343  26.338  -3.307  1.00  0.00     0.162 HD
HETATM    9  C11 UNL     1      -5.190  26.472  -5.275  1.00  0.00     0.159 C 
HETATM   10  C12 UNL     1      -5.342  27.583  -6.216  1.00  0.00     0.062 C 
HETATM   11  N6  UNL     1      -4.854  28.871  -5.722  1.00  0.00    -0.327 N 
ATOM     12  H6  UNL     1      -4.144  29.322  -6.298  1.00  0.00     0.168 HD
HETATM   13  C17 UNL     1      -5.223  29.565  -4.577  1.00  0.00     0.222 C 
HETATM   14  O3  UNL     1      -4.266  29.870  -3.772  1.00  0.00    -0.273 OA
HETATM   15  C18 UNL     1      -6.562  30.007  -4.145  1.00  0.00     0.103 C 
HETATM   16  C19 UNL     1      -6.712  30.299  -2.695  1.00  0.00     0.012 C 
HETATM   17  C20 UNL     1      -5.919  29.484  -1.739  1.00  0.00     0.034 C 
HETATM   18  C21 UNL     1      -6.695  29.068  -0.515  1.00  0.00     0.141 C 
HETATM   19  O4  UNL     1      -6.520  27.787  -0.105  1.00  0.00    -0.314 OA
HETATM   20  C26 UNL     1      -6.751  26.524  -0.411  1.00  0.00     0.282 C 
HETATM   21  O5  UNL     1      -5.736  25.733  -0.457  1.00  0.00    -0.263 OA
ENDROOT
BRANCH  10  22
HETATM   22  C13 UNL     1      -6.584  27.734  -7.004  1.00  0.00     0.063 C 
BRANCH  22  23
HETATM   23  C14 UNL     1      -6.433  28.424  -8.337  1.00  0.00     0.026 C 
BRANCH  23  24
HETATM   24  C15 UNL     1      -6.761  29.898  -8.257  1.00  0.00     0.122 C 
BRANCH  24  25
HETATM   25  N3  UNL     1      -7.730  30.302  -9.234  1.00  0.00    -0.367 N 
HETATM   26  C16 UNL     1      -7.813  31.584  -9.504  1.00  0.00     0.196 C 
HETATM   27  N4  UNL     1      -8.773  31.985 -10.473  1.00  0.00    -0.067 NA
HETATM   28  N5  UNL     1      -6.978  32.522  -8.853  1.00  0.00    -0.067 NA
ATOM     29  H3  UNL     1      -8.330  29.621  -9.700  1.00  0.00     0.161 HD
ENDBRANCH  24  25
ENDBRANCH  23  24
ENDBRANCH  22  23
ENDBRANCH  10  22
BRANCH   9  30
HETATM   30  O2  UNL     1      -4.172  25.710  -5.598  1.00  0.00    -0.345 OA
ATOM     31  H2  UNL     1      -4.237  25.346  -6.473  1.00  0.00     0.219 HD
ENDBRANCH   9  30
BRANCH   6  32
HETATM   32  C8  UNL     1      -7.556  24.312  -4.759  1.00  0.00     0.045 C 
BRANCH  32  33
HETATM   33  C9  UNL     1      -6.630  23.106  -4.810  1.00  0.00     0.076 C 
BRANCH  33  34
HETATM   34  S1  UNL     1      -5.956  22.957  -6.495  1.00  0.00    -0.173 SA
HETATM   35  C10 UNL     1      -4.325  22.197  -6.483  1.00  0.00     0.089 C 
ENDBRANCH  33  34
ENDBRANCH  32  33
ENDBRANCH   6  32
BRANCH   1  36
HETATM   36  C3  UNL     1      -8.970  26.160   0.474  1.00  0.00     0.014 C 
HETATM   37  C4  UNL     1      -8.903  24.940   1.365  1.00  0.00     0.012 C 
BRANCH  36  38
HETATM   38  C2  UNL     1     -10.400  26.329   0.038  1.00  0.00     0.002 C 
HETATM   39  C1  UNL     1     -10.980  27.599   0.624  1.00  0.00     0.005 C 
ENDBRANCH  36  38
ENDBRANCH   1  36
BRANCH  18  40
HETATM   40  C22 UNL     1      -6.197  29.944   0.647  1.00  0.00    -0.008 C 
HETATM   41  C23 UNL     1      -6.374  29.149   1.923  1.00  0.00     0.018 C 
HETATM   42  C24 UNL     1      -4.683  30.155   0.502  1.00  0.00     0.018 C 
BRANCH  40  43
HETATM   43  C25 UNL     1      -6.906  31.242   0.774  1.00  0.00     0.126 C 
HETATM   44 CL1  UNL     1      -5.838  32.567   0.165  1.00  0.00    -0.130 Cl
ENDBRANCH  40  43
ENDBRANCH  18  40
TORSDOF 12
ENDMDL
