MODEL 1
REMARK VINA RESULT: -10.031909216      0.000      0.000
REMARK  14 active torsions:
REMARK  status: ('A' for Active; 'I' for Inactive)
REMARK    1  A    between atoms: N1_2  and  C2_3 
REMARK    2  A    between atoms: N1_2  and  C23_35 
REMARK    3  A    between atoms: C2_3  and  C3_4 
REMARK    4  A    between atoms: C3_4  and  O1_5 
REMARK    5  A    between atoms: C3_4  and  C4_7 
REMARK    6  A    between atoms: C4_7  and  O2_8 
REMARK    7  A    between atoms: O2_8  and  C5_9 
REMARK    8  A    between atoms: C9_14  and  C10_15 
REMARK    9  A    between atoms: N2_16  and  N3_18 
REMARK       I    between atoms: N3_18  and  C11_20 
REMARK       I    between atoms: C11_20  and  N4_22 
REMARK   10  A    between atoms: N4_22  and  C12_24 
REMARK   11  A    between atoms: C23_35  and  C24_36 
REMARK   12  A    between atoms: C24_36  and  O4_37 
REMARK   13  A    between atoms: O4_37  and  N5_38 
REMARK   14  A    between atoms: N7_43  and  O5_45 
ROOT
HETATM    1  C5  UNL     1      -6.844  24.946  -3.850  1.00  0.00     0.070 A 
HETATM    2  C6  UNL     1      -6.668  26.135  -4.546  1.00  0.00     0.055 A 
HETATM    3  C7  UNL     1      -5.955  26.164  -5.712  1.00  0.00     0.014 A 
HETATM    4 BR1  UNL     1      -5.755  27.824  -6.619  1.00  0.00    -0.051 Br
HETATM    5  C8  UNL     1      -5.404  24.989  -6.195  1.00  0.00     0.032 A 
HETATM    6  C9  UNL     1      -5.541  23.793  -5.561  1.00  0.00    -0.015 A 
HETATM    7  C22 UNL     1      -6.283  23.823  -4.370  1.00  0.00     0.049 A 
ENDROOT
BRANCH   1   8
HETATM    8  O2  UNL     1      -7.569  24.928  -2.669  1.00  0.00    -0.349 OA
BRANCH   8   9
HETATM    9  C4  UNL     1      -7.487  25.972  -1.732  1.00  0.00     0.208 C 
BRANCH   9  10
HETATM   10  C3  UNL     1      -6.765  25.401  -0.503  1.00  0.00     0.155 C 
BRANCH  10  11
HETATM   11  C2  UNL     1      -7.515  25.896   0.692  1.00  0.00     0.130 C 
BRANCH  11  12
HETATM   12  N1  UNL     1      -6.917  25.585   1.952  1.00  0.00    -0.271 NA
HETATM   13  C1  UNL     1      -6.762  26.787   2.741  1.00  0.00     0.118 C 
BRANCH  12  14
HETATM   14  C23 UNL     1      -7.559  24.586   2.697  1.00  0.00     0.105 C 
HETATM   15  N7  UNL     1      -8.353  23.779   2.062  1.00  0.00    -0.260 N 
ATOM     16  H7  UNL     1      -8.466  23.916   1.058  1.00  0.00     0.195 HD
BRANCH  14  17
HETATM   17  C24 UNL     1      -7.386  24.390   4.147  1.00  0.00     0.274 C 
BRANCH  17  18
HETATM   18  O4  UNL     1      -6.822  23.101   4.396  1.00  0.00    -0.258 OA
BRANCH  18  19
HETATM   19  N5  UNL     1      -7.515  22.145   5.094  1.00  0.00    -0.214 N 
HETATM   20  N6  UNL     1      -8.547  22.373   5.785  1.00  0.00    -0.326 N 
ATOM     21  H62 UNL     1      -8.874  23.339   5.816  1.00  0.00     0.178 HD
ATOM     22  H61 UNL     1      -9.063  21.662   6.304  1.00  0.00     0.178 HD
ATOM     23  H5  UNL     1      -7.175  21.185   5.051  1.00  0.00     0.215 HD
ENDBRANCH  18  19
ENDBRANCH  17  18
ENDBRANCH  14  17
BRANCH  15  24
HETATM   24  O5  UNL     1      -9.046  22.763   2.642  1.00  0.00    -0.289 OA
ATOM     25  H5  UNL     1      -9.467  22.056   2.166  1.00  0.00     0.244 HD
ENDBRANCH  15  24
ENDBRANCH  12  14
ENDBRANCH  11  12
ENDBRANCH  10  11
BRANCH  10  26
HETATM   26  O1  UNL     1      -6.784  24.026  -0.653  1.00  0.00    -0.392 OA
ATOM     27  H1  UNL     1      -6.245  23.706  -1.366  1.00  0.00     0.210 HD
ENDBRANCH  10  26
ENDBRANCH   9  10
ENDBRANCH   8   9
ENDBRANCH   1   8
BRANCH   6  28
HETATM   28  C10 UNL     1      -4.998  22.548  -6.029  1.00  0.00     0.118 C 
HETATM   29  N2  UNL     1      -3.831  22.227  -6.264  1.00  0.00    -0.307 N 
ATOM     30  H2  UNL     1      -3.746  21.262  -6.587  1.00  0.00     0.186 HD
BRANCH  29  31
HETATM   31  N3  UNL     1      -2.653  22.852  -6.193  1.00  0.00    -0.252 N 
HETATM   32  C11 UNL     1      -1.447  22.283  -6.777  1.00  0.00     0.335 C 
HETATM   33  O3  UNL     1      -1.610  21.179  -7.372  1.00  0.00    -0.246 OA
HETATM   34  N4  UNL     1      -0.265  22.953  -6.648  1.00  0.00    -0.334 N 
ATOM     35  H4  UNL     1      -0.323  23.819  -6.112  1.00  0.00     0.165 HD
ATOM     36  H3  UNL     1      -2.597  23.751  -5.716  1.00  0.00     0.191 HD
BRANCH  34  37
HETATM   37  C12 UNL     1       1.053  22.643  -7.143  1.00  0.00     0.109 C 
HETATM   38  C13 UNL     1       1.802  23.991  -7.318  1.00  0.00     0.029 C 
HETATM   39  C14 UNL     1       3.301  23.804  -7.315  1.00  0.00     0.002 C 
HETATM   40  C15 UNL     1       3.934  23.619  -8.655  1.00  0.00     0.000 C 
HETATM   41  C16 UNL     1       5.134  22.698  -8.504  1.00  0.00     0.000 C 
HETATM   42  C17 UNL     1       4.827  21.265  -8.886  1.00  0.00     0.000 C 
HETATM   43  C18 UNL     1       4.271  20.463  -7.781  1.00  0.00     0.004 C 
HETATM   44  C19 UNL     1       2.835  20.186  -7.670  1.00  0.00     0.027 C 
HETATM   45  C20 UNL     1       1.892  20.715  -8.649  1.00  0.00    -0.029 C 
HETATM   46  C21 UNL     1       1.005  21.851  -8.371  1.00  0.00    -0.006 C 
ENDBRANCH  34  37
ENDBRANCH  29  31
ENDBRANCH   6  28
TORSDOF 14
ENDMDL
MODEL 2
REMARK VINA RESULT: -9.782915010      1.142      1.288
REMARK  14 active torsions:
REMARK  status: ('A' for Active; 'I' for Inactive)
REMARK    1  A    between atoms: N1_2  and  C2_3 
REMARK    2  A    between atoms: N1_2  and  C23_35 
REMARK    3  A    between atoms: C2_3  and  C3_4 
REMARK    4  A    between atoms: C3_4  and  O1_5 
REMARK    5  A    between atoms: C3_4  and  C4_7 
REMARK    6  A    between atoms: C4_7  and  O2_8 
REMARK    7  A    between atoms: O2_8  and  C5_9 
REMARK    8  A    between atoms: C9_14  and  C10_15 
REMARK    9  A    between atoms: N2_16  and  N3_18 
REMARK       I    between atoms: N3_18  and  C11_20 
REMARK       I    between atoms: C11_20  and  N4_22 
REMARK   10  A    between atoms: N4_22  and  C12_24 
REMARK   11  A    between atoms: C23_35  and  C24_36 
REMARK   12  A    between atoms: C24_36  and  O4_37 
REMARK   13  A    between atoms: O4_37  and  N5_38 
REMARK   14  A    between atoms: N7_43  and  O5_45 
ROOT
HETATM    1  C5  UNL     1      -6.428  24.997  -3.538  1.00  0.00     0.070 A 
HETATM    2  C6  UNL     1      -6.522  26.157  -4.296  1.00  0.00     0.055 A 
HETATM    3  C7  UNL     1      -6.119  26.174  -5.603  1.00  0.00     0.014 A 
HETATM    4 BR1  UNL     1      -6.279  27.794  -6.586  1.00  0.00    -0.051 Br
HETATM    5  C8  UNL     1      -5.612  25.015  -6.167  1.00  0.00     0.032 A 
HETATM    6  C9  UNL     1      -5.495  23.848  -5.479  1.00  0.00    -0.015 A 
HETATM    7  C22 UNL     1      -5.924  23.889  -4.143  1.00  0.00     0.049 A 
ENDROOT
BRANCH   1   8
HETATM    8  O2  UNL     1      -6.839  24.991  -2.215  1.00  0.00    -0.349 OA
BRANCH   8   9
HETATM    9  C4  UNL     1      -7.557  26.062  -1.656  1.00  0.00     0.208 C 
BRANCH   9  10
HETATM   10  C3  UNL     1      -7.055  26.218  -0.214  1.00  0.00     0.155 C 
BRANCH  10  11
HETATM   11  C2  UNL     1      -8.266  26.460   0.628  1.00  0.00     0.130 C 
BRANCH  11  12
HETATM   12  N1  UNL     1      -8.125  26.110   2.007  1.00  0.00    -0.271 NA
HETATM   13  C1  UNL     1      -8.437  27.247   2.845  1.00  0.00     0.118 C 
BRANCH  12  14
HETATM   14  C23 UNL     1      -8.843  24.980   2.422  1.00  0.00     0.105 C 
HETATM   15  N7  UNL     1      -8.325  23.815   2.177  1.00  0.00    -0.260 N 
ATOM     16  H7  UNL     1      -7.425  23.787   1.698  1.00  0.00     0.195 HD
BRANCH  14  17
HETATM   17  C24 UNL     1     -10.140  25.029   3.120  1.00  0.00     0.274 C 
BRANCH  17  18
HETATM   18  O4  UNL     1     -10.066  24.269   4.327  1.00  0.00    -0.258 OA
BRANCH  18  19
HETATM   19  N5  UNL     1     -10.977  23.280   4.600  1.00  0.00    -0.214 N 
HETATM   20  N6  UNL     1     -11.826  22.843   3.773  1.00  0.00    -0.326 N 
ATOM     21  H62 UNL     1     -11.820  23.265   2.845  1.00  0.00     0.178 HD
ATOM     22  H61 UNL     1     -12.503  22.107   3.976  1.00  0.00     0.178 HD
ATOM     23  H5  UNL     1     -10.968  22.869   5.534  1.00  0.00     0.215 HD
ENDBRANCH  18  19
ENDBRANCH  17  18
ENDBRANCH  14  17
BRANCH  15  24
HETATM   24  O5  UNL     1      -8.898  22.630   2.516  1.00  0.00    -0.289 OA
ATOM     25  H5  UNL     1      -9.480  22.504   3.256  1.00  0.00     0.244 HD
ENDBRANCH  15  24
ENDBRANCH  12  14
ENDBRANCH  11  12
ENDBRANCH  10  11
BRANCH  10  26
HETATM   26  O1  UNL     1      -6.382  25.048   0.087  1.00  0.00    -0.392 OA
ATOM     27  H1  UNL     1      -6.408  24.812   1.007  1.00  0.00     0.210 HD
ENDBRANCH  10  26
ENDBRANCH   9  10
ENDBRANCH   8   9
ENDBRANCH   1   8
BRANCH   6  28
HETATM   28  C10 UNL     1      -4.986  22.620  -6.024  1.00  0.00     0.118 C 
HETATM   29  N2  UNL     1      -3.828  22.284  -6.285  1.00  0.00    -0.307 N 
ATOM     30  H2  UNL     1      -3.769  21.339  -6.666  1.00  0.00     0.186 HD
BRANCH  29  31
HETATM   31  N3  UNL     1      -2.634  22.874  -6.184  1.00  0.00    -0.252 N 
HETATM   32  C11 UNL     1      -1.443  22.304  -6.795  1.00  0.00     0.335 C 
HETATM   33  O3  UNL     1      -1.634  21.235  -7.443  1.00  0.00    -0.246 OA
HETATM   34  N4  UNL     1      -0.244  22.936  -6.634  1.00  0.00    -0.334 N 
ATOM     35  H4  UNL     1      -0.281  23.776  -6.056  1.00  0.00     0.165 HD
ATOM     36  H3  UNL     1      -2.555  23.748  -5.664  1.00  0.00     0.191 HD
BRANCH  34  37
HETATM   37  C12 UNL     1       1.066  22.617  -7.144  1.00  0.00     0.109 C 
HETATM   38  C13 UNL     1       1.815  23.961  -7.347  1.00  0.00     0.029 C 
HETATM   39  C14 UNL     1       3.314  23.770  -7.364  1.00  0.00     0.002 C 
HETATM   40  C15 UNL     1       3.927  23.566  -8.710  1.00  0.00     0.000 C 
HETATM   41  C16 UNL     1       5.127  22.644  -8.564  1.00  0.00     0.000 C 
HETATM   42  C17 UNL     1       4.811  21.207  -8.922  1.00  0.00     0.000 C 
HETATM   43  C18 UNL     1       4.269  20.421  -7.799  1.00  0.00     0.004 C 
HETATM   44  C19 UNL     1       2.835  20.149  -7.663  1.00  0.00     0.027 C 
HETATM   45  C20 UNL     1       1.879  20.666  -8.635  1.00  0.00    -0.029 C 
HETATM   46  C21 UNL     1       0.999  21.809  -8.360  1.00  0.00    -0.006 C 
ENDBRANCH  34  37
ENDBRANCH  29  31
ENDBRANCH   6  28
TORSDOF 14
ENDMDL
MODEL 3
REMARK VINA RESULT: -9.779437975      1.273      1.444
REMARK  14 active torsions:
REMARK  status: ('A' for Active; 'I' for Inactive)
REMARK    1  A    between atoms: N1_2  and  C2_3 
REMARK    2  A    between atoms: N1_2  and  C23_35 
REMARK    3  A    between atoms: C2_3  and  C3_4 
REMARK    4  A    between atoms: C3_4  and  O1_5 
REMARK    5  A    between atoms: C3_4  and  C4_7 
REMARK    6  A    between atoms: C4_7  and  O2_8 
REMARK    7  A    between atoms: O2_8  and  C5_9 
REMARK    8  A    between atoms: C9_14  and  C10_15 
REMARK    9  A    between atoms: N2_16  and  N3_18 
REMARK       I    between atoms: N3_18  and  C11_20 
REMARK       I    between atoms: C11_20  and  N4_22 
REMARK   10  A    between atoms: N4_22  and  C12_24 
REMARK   11  A    between atoms: C23_35  and  C24_36 
REMARK   12  A    between atoms: C24_36  and  O4_37 
REMARK   13  A    between atoms: O4_37  and  N5_38 
REMARK   14  A    between atoms: N7_43  and  O5_45 
ROOT
HETATM    1  C5  UNL     1      -5.994  25.212  -3.078  1.00  0.00     0.070 A 
HETATM    2  C6  UNL     1      -6.356  26.368  -3.758  1.00  0.00     0.055 A 
HETATM    3  C7  UNL     1      -6.300  26.424  -5.123  1.00  0.00     0.014 A 
HETATM    4 BR1  UNL     1      -6.814  28.036  -5.991  1.00  0.00    -0.051 Br
HETATM    5  C8  UNL     1      -5.875  25.309  -5.827  1.00  0.00     0.032 A 
HETATM    6  C9  UNL     1      -5.509  24.148  -5.221  1.00  0.00    -0.015 A 
HETATM    7  C22 UNL     1      -5.586  24.148  -3.819  1.00  0.00     0.049 A 
ENDROOT
BRANCH   1   8
HETATM    8  O2  UNL     1      -6.054  25.166  -1.695  1.00  0.00    -0.349 OA
BRANCH   8   9
HETATM    9  C4  UNL     1      -7.140  24.583  -1.019  1.00  0.00     0.208 C 
BRANCH   9  10
HETATM   10  C3  UNL     1      -7.315  25.371   0.288  1.00  0.00     0.155 C 
BRANCH  10  11
HETATM   11  C2  UNL     1      -8.682  25.044   0.795  1.00  0.00     0.130 C 
BRANCH  11  12
HETATM   12  N1  UNL     1      -8.920  25.392   2.161  1.00  0.00    -0.271 NA
HETATM   13  C1  UNL     1     -10.062  26.273   2.261  1.00  0.00     0.118 C 
BRANCH  12  14
HETATM   14  C23 UNL     1      -9.052  24.313   3.047  1.00  0.00     0.105 C 
HETATM   15  N7  UNL     1      -7.984  23.628   3.323  1.00  0.00    -0.260 N 
ATOM     16  H7  UNL     1      -7.110  23.912   2.881  1.00  0.00     0.195 HD
BRANCH  14  17
HETATM   17  C24 UNL     1     -10.317  23.912   3.687  1.00  0.00     0.274 C 
BRANCH  17  18
HETATM   18  O4  UNL     1     -10.147  23.869   5.105  1.00  0.00    -0.258 OA
BRANCH  18  19
HETATM   19  N5  UNL     1     -10.527  22.769   5.831  1.00  0.00    -0.214 N 
HETATM   20  N6  UNL     1      -9.746  22.082   6.548  1.00  0.00    -0.326 N 
ATOM     21  H62 UNL     1      -8.770  22.379   6.577  1.00  0.00     0.178 HD
ATOM     22  H61 UNL     1     -10.028  21.264   7.088  1.00  0.00     0.178 HD
ATOM     23  H5  UNL     1     -11.506  22.487   5.791  1.00  0.00     0.215 HD
ENDBRANCH  18  19
ENDBRANCH  17  18
ENDBRANCH  14  17
BRANCH  15  24
HETATM   24  O5  UNL     1      -7.949  22.557   4.160  1.00  0.00    -0.289 OA
ATOM     25  H5  UNL     1      -7.155  22.181   4.522  1.00  0.00     0.244 HD
ENDBRANCH  15  24
ENDBRANCH  12  14
ENDBRANCH  11  12
ENDBRANCH  10  11
BRANCH  10  26
HETATM   26  O1  UNL     1      -6.290  24.961   1.122  1.00  0.00    -0.392 OA
ATOM     27  H1  UNL     1      -5.661  24.383   0.708  1.00  0.00     0.210 HD
ENDBRANCH  10  26
ENDBRANCH   9  10
ENDBRANCH   8   9
ENDBRANCH   1   8
BRANCH   6  28
HETATM   28  C10 UNL     1      -5.073  22.965  -5.908  1.00  0.00     0.118 C 
HETATM   29  N2  UNL     1      -3.934  22.558  -6.149  1.00  0.00    -0.307 N 
ATOM     30  H2  UNL     1      -3.932  21.673  -6.659  1.00  0.00     0.186 HD
BRANCH  29  31
HETATM   31  N3  UNL     1      -2.703  23.009  -5.896  1.00  0.00    -0.252 N 
HETATM   32  C11 UNL     1      -1.544  22.529  -6.634  1.00  0.00     0.335 C 
HETATM   33  O3  UNL     1      -1.798  21.683  -7.538  1.00  0.00    -0.246 OA
HETATM   34  N4  UNL     1      -0.305  23.006  -6.312  1.00  0.00    -0.334 N 
ATOM     35  H4  UNL     1      -0.293  23.667  -5.535  1.00  0.00     0.165 HD
ATOM     36  H3  UNL     1      -2.572  23.709  -5.166  1.00  0.00     0.191 HD
BRANCH  34  37
HETATM   37  C12 UNL     1       0.988  22.731  -6.886  1.00  0.00     0.109 C 
HETATM   38  C13 UNL     1       1.739  24.086  -6.982  1.00  0.00     0.029 C 
HETATM   39  C14 UNL     1       3.236  23.894  -7.058  1.00  0.00     0.002 C 
HETATM   40  C15 UNL     1       3.811  23.816  -8.434  1.00  0.00     0.000 C 
HETATM   41  C16 UNL     1       5.009  22.881  -8.409  1.00  0.00     0.000 C 
HETATM   42  C17 UNL     1       4.675  21.485  -8.893  1.00  0.00     0.000 C 
HETATM   43  C18 UNL     1       4.160  20.598  -7.835  1.00  0.00     0.004 C 
HETATM   44  C19 UNL     1       2.728  20.318  -7.687  1.00  0.00     0.027 C 
HETATM   45  C20 UNL     1       1.749  20.929  -8.578  1.00  0.00    -0.029 C 
HETATM   46  C21 UNL     1       0.883  22.043  -8.171  1.00  0.00    -0.006 C 
ENDBRANCH  34  37
ENDBRANCH  29  31
ENDBRANCH   6  28
TORSDOF 14
ENDMDL
MODEL 4
REMARK VINA RESULT: -9.740168053      2.650      3.322
REMARK  14 active torsions:
REMARK  status: ('A' for Active; 'I' for Inactive)
REMARK    1  A    between atoms: N1_2  and  C2_3 
REMARK    2  A    between atoms: N1_2  and  C23_35 
REMARK    3  A    between atoms: C2_3  and  C3_4 
REMARK    4  A    between atoms: C3_4  and  O1_5 
REMARK    5  A    between atoms: C3_4  and  C4_7 
REMARK    6  A    between atoms: C4_7  and  O2_8 
REMARK    7  A    between atoms: O2_8  and  C5_9 
REMARK    8  A    between atoms: C9_14  and  C10_15 
REMARK    9  A    between atoms: N2_16  and  N3_18 
REMARK       I    between atoms: N3_18  and  C11_20 
REMARK       I    between atoms: C11_20  and  N4_22 
REMARK   10  A    between atoms: N4_22  and  C12_24 
REMARK   11  A    between atoms: C23_35  and  C24_36 
REMARK   12  A    between atoms: C24_36  and  O4_37 
REMARK   13  A    between atoms: O4_37  and  N5_38 
REMARK   14  A    between atoms: N7_43  and  O5_45 
ROOT
HETATM    1  C5  UNL     1      -6.602  24.750  -3.595  1.00  0.00     0.070 A 
HETATM    2  C6  UNL     1      -6.561  25.977  -4.245  1.00  0.00     0.055 A 
HETATM    3  C7  UNL     1      -6.014  26.090  -5.493  1.00  0.00     0.014 A 
HETATM    4 BR1  UNL     1      -5.993  27.798  -6.329  1.00  0.00    -0.051 Br
HETATM    5  C8  UNL     1      -5.496  24.961  -6.107  1.00  0.00     0.032 A 
HETATM    6  C9  UNL     1      -5.507  23.732  -5.524  1.00  0.00    -0.015 A 
HETATM    7  C22 UNL     1      -6.081  23.676  -4.244  1.00  0.00     0.049 A 
ENDROOT
BRANCH   1   8
HETATM    8  O2  UNL     1      -7.159  24.647  -2.330  1.00  0.00    -0.349 OA
BRANCH   8   9
HETATM    9  C4  UNL     1      -7.302  25.764  -1.489  1.00  0.00     0.208 C 
BRANCH   9  10
HETATM   10  C3  UNL     1      -8.030  25.272  -0.230  1.00  0.00     0.155 C 
BRANCH  10  11
HETATM   11  C2  UNL     1      -9.255  26.119  -0.096  1.00  0.00     0.130 C 
BRANCH  11  12
HETATM   12  N1  UNL     1      -9.808  26.178   1.220  1.00  0.00    -0.271 NA
HETATM   13  C1  UNL     1      -9.009  27.043   2.059  1.00  0.00     0.118 C 
BRANCH  12  14
HETATM   14  C23 UNL     1     -11.162  26.534   1.293  1.00  0.00     0.105 C 
HETATM   15  N7  UNL     1     -11.878  25.987   2.228  1.00  0.00    -0.260 N 
ATOM     16  H7  UNL     1     -11.416  25.330   2.857  1.00  0.00     0.195 HD
BRANCH  14  17
HETATM   17  C24 UNL     1     -11.821  27.490   0.386  1.00  0.00     0.274 C 
BRANCH  17  18
HETATM   18  O4  UNL     1     -12.958  26.874  -0.220  1.00  0.00    -0.258 OA
BRANCH  18  19
HETATM   19  N5  UNL     1     -14.138  27.556  -0.373  1.00  0.00    -0.214 N 
HETATM   20  N6  UNL     1     -15.214  27.264   0.222  1.00  0.00    -0.326 N 
ATOM     21  H62 UNL     1     -15.185  26.465   0.854  1.00  0.00     0.178 HD
ATOM     22  H61 UNL     1     -16.091  27.772   0.108  1.00  0.00     0.178 HD
ATOM     23  H5  UNL     1     -14.148  28.353  -1.009  1.00  0.00     0.215 HD
ENDBRANCH  18  19
ENDBRANCH  17  18
ENDBRANCH  14  17
BRANCH  15  24
HETATM   24  O5  UNL     1     -13.200  26.229   2.428  1.00  0.00    -0.289 OA
ATOM     25  H5  UNL     1     -13.886  26.026   1.802  1.00  0.00     0.244 HD
ENDBRANCH  15  24
ENDBRANCH  12  14
ENDBRANCH  11  12
ENDBRANCH  10  11
BRANCH  10  26
HETATM   26  O1  UNL     1      -8.291  23.930  -0.437  1.00  0.00    -0.392 OA
ATOM     27  H1  UNL     1      -7.613  23.474  -0.922  1.00  0.00     0.210 HD
ENDBRANCH  10  26
ENDBRANCH   9  10
ENDBRANCH   8   9
ENDBRANCH   1   8
BRANCH   6  28
HETATM   28  C10 UNL     1      -4.993  22.534  -6.125  1.00  0.00     0.118 C 
HETATM   29  N2  UNL     1      -3.829  22.187  -6.342  1.00  0.00    -0.307 N 
ATOM     30  H2  UNL     1      -3.767  21.270  -6.785  1.00  0.00     0.186 HD
BRANCH  29  31
HETATM   31  N3  UNL     1      -2.631  22.738  -6.129  1.00  0.00    -0.252 N 
HETATM   32  C11 UNL     1      -1.434  22.250  -6.797  1.00  0.00     0.335 C 
HETATM   33  O3  UNL     1      -1.623  21.295  -7.604  1.00  0.00    -0.246 OA
HETATM   34  N4  UNL     1      -0.231  22.833  -6.519  1.00  0.00    -0.334 N 
ATOM     35  H4  UNL     1      -0.270  23.576  -5.820  1.00  0.00     0.165 HD
ATOM     36  H3  UNL     1      -2.553  23.521  -5.481  1.00  0.00     0.191 HD
BRANCH  34  37
HETATM   37  C12 UNL     1       1.085  22.576  -7.046  1.00  0.00     0.109 C 
HETATM   38  C13 UNL     1       1.784  23.952  -7.217  1.00  0.00     0.029 C 
HETATM   39  C14 UNL     1       3.288  23.817  -7.249  1.00  0.00     0.002 C 
HETATM   40  C15 UNL     1       3.898  23.673  -8.605  1.00  0.00     0.000 C 
HETATM   41  C16 UNL     1       5.132  22.792  -8.493  1.00  0.00     0.000 C 
HETATM   42  C17 UNL     1       4.866  21.354  -8.889  1.00  0.00     0.000 C 
HETATM   43  C18 UNL     1       4.362  20.519  -7.784  1.00  0.00     0.004 C 
HETATM   44  C19 UNL     1       2.940  20.190  -7.647  1.00  0.00     0.027 C 
HETATM   45  C20 UNL     1       1.958  20.699  -8.597  1.00  0.00    -0.029 C 
HETATM   46  C21 UNL     1       1.038  21.800  -8.284  1.00  0.00    -0.006 C 
ENDBRANCH  34  37
ENDBRANCH  29  31
ENDBRANCH   6  28
TORSDOF 14
ENDMDL
MODEL 5
REMARK VINA RESULT: -9.690454773      1.295      2.118
REMARK  14 active torsions:
REMARK  status: ('A' for Active; 'I' for Inactive)
REMARK    1  A    between atoms: N1_2  and  C2_3 
REMARK    2  A    between atoms: N1_2  and  C23_35 
REMARK    3  A    between atoms: C2_3  and  C3_4 
REMARK    4  A    between atoms: C3_4  and  O1_5 
REMARK    5  A    between atoms: C3_4  and  C4_7 
REMARK    6  A    between atoms: C4_7  and  O2_8 
REMARK    7  A    between atoms: O2_8  and  C5_9 
REMARK    8  A    between atoms: C9_14  and  C10_15 
REMARK    9  A    between atoms: N2_16  and  N3_18 
REMARK       I    between atoms: N3_18  and  C11_20 
REMARK       I    between atoms: C11_20  and  N4_22 
REMARK   10  A    between atoms: N4_22  and  C12_24 
REMARK   11  A    between atoms: C23_35  and  C24_36 
REMARK   12  A    between atoms: C24_36  and  O4_37 
REMARK   13  A    between atoms: O4_37  and  N5_38 
REMARK   14  A    between atoms: N7_43  and  O5_45 
ROOT
HETATM    1  C5  UNL     1      -7.109  25.502  -3.472  1.00  0.00     0.070 A 
HETATM    2  C6  UNL     1      -7.033  26.652  -4.246  1.00  0.00     0.055 A 
HETATM    3  C7  UNL     1      -6.510  26.613  -5.509  1.00  0.00     0.014 A 
HETATM    4 BR1  UNL     1      -6.440  28.223  -6.518  1.00  0.00    -0.051 Br
HETATM    5  C8  UNL     1      -6.052  25.406  -6.011  1.00  0.00     0.032 A 
HETATM    6  C9  UNL     1      -6.099  24.245  -5.304  1.00  0.00    -0.015 A 
HETATM    7  C22 UNL     1      -6.646  24.346  -4.015  1.00  0.00     0.049 A 
ENDROOT
BRANCH   1   8
HETATM    8  O2  UNL     1      -7.641  25.553  -2.193  1.00  0.00    -0.349 OA
BRANCH   8   9
HETATM    9  C4  UNL     1      -6.828  25.710  -1.058  1.00  0.00     0.208 C 
BRANCH   9  10
HETATM   10  C3  UNL     1      -7.210  24.583  -0.088  1.00  0.00     0.155 C 
BRANCH  10  11
HETATM   11  C2  UNL     1      -7.597  25.246   1.195  1.00  0.00     0.130 C 
BRANCH  11  12
HETATM   12  N1  UNL     1      -6.996  24.692   2.368  1.00  0.00    -0.271 NA
HETATM   13  C1  UNL     1      -6.426  25.744   3.180  1.00  0.00     0.118 C 
BRANCH  12  14
HETATM   14  C23 UNL     1      -7.824  23.866   3.140  1.00  0.00     0.105 C 
HETATM   15  N7  UNL     1      -7.288  23.261   4.157  1.00  0.00    -0.260 N 
ATOM     16  H7  UNL     1      -6.297  23.420   4.336  1.00  0.00     0.195 HD
BRANCH  14  17
HETATM   17  C24 UNL     1      -9.257  23.646   2.879  1.00  0.00     0.274 C 
BRANCH  17  18
HETATM   18  O4  UNL     1     -10.026  24.101   3.994  1.00  0.00    -0.258 OA
BRANCH  18  19
HETATM   19  N5  UNL     1     -11.067  23.358   4.489  1.00  0.00    -0.214 N 
HETATM   20  N6  UNL     1     -11.924  22.765   3.775  1.00  0.00    -0.326 N 
ATOM     21  H62 UNL     1     -11.820  22.855   2.764  1.00  0.00     0.178 HD
ATOM     22  H61 UNL     1     -12.699  22.213   4.143  1.00  0.00     0.178 HD
ATOM     23  H5  UNL     1     -11.156  23.279   5.501  1.00  0.00     0.215 HD
ENDBRANCH  18  19
ENDBRANCH  17  18
ENDBRANCH  14  17
BRANCH  15  24
HETATM   24  O5  UNL     1      -7.956  22.429   4.999  1.00  0.00    -0.289 OA
ATOM     25  H5  UNL     1      -7.674  21.550   5.226  1.00  0.00     0.244 HD
ENDBRANCH  15  24
ENDBRANCH  12  14
ENDBRANCH  11  12
ENDBRANCH  10  11
BRANCH  10  26
HETATM   26  O1  UNL     1      -8.238  23.886  -0.696  1.00  0.00    -0.392 OA
ATOM     27  H1  UNL     1      -8.910  23.583  -0.096  1.00  0.00     0.210 HD
ENDBRANCH  10  26
ENDBRANCH   9  10
ENDBRANCH   8   9
ENDBRANCH   1   8
BRANCH   6  28
HETATM   28  C10 UNL     1      -5.647  22.971  -5.787  1.00  0.00     0.118 C 
HETATM   29  N2  UNL     1      -4.503  22.555  -5.987  1.00  0.00    -0.307 N 
ATOM     30  H2  UNL     1      -4.488  21.595  -6.333  1.00  0.00     0.186 HD
BRANCH  29  31
HETATM   31  N3  UNL     1      -3.279  23.073  -5.853  1.00  0.00    -0.252 N 
HETATM   32  C11 UNL     1      -2.134  22.527  -6.566  1.00  0.00     0.335 C 
HETATM   33  O3  UNL     1      -2.394  21.554  -7.330  1.00  0.00    -0.246 OA
HETATM   34  N4  UNL     1      -0.901  23.080  -6.369  1.00  0.00    -0.334 N 
ATOM     35  H4  UNL     1      -0.882  23.844  -5.693  1.00  0.00     0.165 HD
ATOM     36  H3  UNL     1      -3.144  23.873  -5.236  1.00  0.00     0.191 HD
BRANCH  34  37
HETATM   37  C12 UNL     1       0.377  22.764  -6.954  1.00  0.00     0.109 C 
HETATM   38  C13 UNL     1       0.459  21.218  -7.061  1.00  0.00     0.029 C 
HETATM   39  C14 UNL     1       1.465  20.780  -8.100  1.00  0.00     0.002 C 
HETATM   40  C15 UNL     1       2.847  20.522  -7.597  1.00  0.00     0.000 C 
HETATM   41  C16 UNL     1       3.839  20.889  -8.689  1.00  0.00     0.000 C 
HETATM   42  C17 UNL     1       4.446  22.263  -8.494  1.00  0.00     0.000 C 
HETATM   43  C18 UNL     1       3.643  23.353  -9.076  1.00  0.00     0.004 C 
HETATM   44  C19 UNL     1       2.774  24.200  -8.253  1.00  0.00     0.027 C 
HETATM   45  C20 UNL     1       2.656  23.980  -6.816  1.00  0.00    -0.029 C 
HETATM   46  C21 UNL     1       1.485  23.345  -6.198  1.00  0.00    -0.006 C 
ENDBRANCH  34  37
ENDBRANCH  29  31
ENDBRANCH   6  28
TORSDOF 14
ENDMDL
