MODEL 1
REMARK VINA RESULT: -7.207895408      0.000      0.000
REMARK  14 active torsions:
REMARK  status: ('A' for Active; 'I' for Inactive)
REMARK    1  A    between atoms: C2_2  and  C3_3 
REMARK    2  A    between atoms: C3_3  and  C4_4 
REMARK    3  A    between atoms: C4_4  and  C5_5 
REMARK    4  A    between atoms: C5_5  and  C6_6 
REMARK    5  A    between atoms: C6_6  and  C7_7 
REMARK    6  A    between atoms: C15_17  and  O3_18 
REMARK    7  A    between atoms: C16_22  and  C17_23 
REMARK    8  A    between atoms: C17_23  and  O4_24 
REMARK    9  A    between atoms: C19_27  and  C20_28 
REMARK   10  A    between atoms: C23_35  and  C24_36 
REMARK   11  A    between atoms: C24_36  and  C25_37 
REMARK   12  A    between atoms: C25_37  and  C26_38 
REMARK   13  A    between atoms: C26_38  and  N3_39 
REMARK   14  A    between atoms: C28_44  and  O6_45 
ROOT
HETATM    1  C7  UNL     1      -9.879  27.200   1.322  1.00  0.00     0.166 A 
HETATM    2  O1  UNL     1     -10.035  28.478   1.795  1.00  0.00    -0.307 OA
HETATM    3  C8  UNL     1      -8.916  29.262   1.424  1.00  0.00     0.295 A 
HETATM    4  O2  UNL     1      -8.738  30.449   1.780  1.00  0.00    -0.259 OA
HETATM    5  C9  UNL     1      -8.027  28.468   0.572  1.00  0.00     0.060 A 
HETATM    6  C10 UNL     1      -6.809  28.745  -0.127  1.00  0.00    -0.003 A 
HETATM    7  C11 UNL     1      -6.230  27.786  -0.934  1.00  0.00     0.029 A 
HETATM    8  C12 UNL     1      -6.847  26.571  -1.044  1.00  0.00     0.016 A 
HETATM    9  C13 UNL     1      -8.051  26.324  -0.333  1.00  0.00     0.026 A 
HETATM   10  C14 UNL     1      -8.654  27.251   0.474  1.00  0.00    -0.011 A 
HETATM   11  C15 UNL     1      -6.496  25.359  -1.828  1.00  0.00     0.146 C 
HETATM   12  N1  UNL     1      -6.170  25.220  -3.210  1.00  0.00    -0.364 N 
ATOM     13  H1  UNL     1      -5.263  24.803  -3.417  1.00  0.00     0.162 HD
HETATM   14  C16 UNL     1      -6.961  25.596  -4.339  1.00  0.00     0.107 C 
HETATM   15  C18 UNL     1      -7.263  27.065  -4.469  1.00  0.00     0.035 C 
HETATM   16  C19 UNL     1      -6.087  27.906  -4.852  1.00  0.00     0.025 C 
HETATM   17  C21 UNL     1      -6.327  29.370  -4.445  1.00  0.00     0.110 C 
HETATM   18  C22 UNL     1      -5.033  30.046  -4.189  1.00  0.00     0.222 C 
HETATM   19  O5  UNL     1      -4.255  30.037  -5.221  1.00  0.00    -0.273 OA
HETATM   20  N2  UNL     1      -4.563  30.659  -3.043  1.00  0.00    -0.327 N 
ATOM     21  H2  UNL     1      -3.708  30.237  -2.680  1.00  0.00     0.168 HD
HETATM   22  C23 UNL     1      -5.028  31.768  -2.256  1.00  0.00     0.063 C 
HETATM   23  C28 UNL     1      -4.711  31.643  -0.808  1.00  0.00     0.165 C 
HETATM   24  N6  UNL     1      -5.082  30.625   0.093  1.00  0.00    -0.340 N 
HETATM   25  C29 UNL     1      -3.967  30.086   0.955  1.00  0.00     0.158 C 
HETATM   26  C30 UNL     1      -6.388  30.125   0.212  1.00  0.00     0.105 C 
ENDROOT
BRANCH  22  27
HETATM   27  C24 UNL     1      -6.301  32.409  -2.611  1.00  0.00     0.063 C 
BRANCH  27  28
HETATM   28  C25 UNL     1      -6.233  33.444  -3.708  1.00  0.00     0.026 C 
BRANCH  28  29
HETATM   29  C26 UNL     1      -4.869  34.109  -3.754  1.00  0.00     0.122 C 
BRANCH  29  30
HETATM   30  N3  UNL     1      -4.321  33.776  -5.049  1.00  0.00    -0.367 N 
HETATM   31  C27 UNL     1      -3.195  33.199  -5.250  1.00  0.00     0.196 C 
HETATM   32  N4  UNL     1      -2.363  32.824  -4.163  1.00  0.00    -0.067 NA
HETATM   33  N5  UNL     1      -2.717  32.909  -6.572  1.00  0.00    -0.067 NA
ATOM     34  H3  UNL     1      -4.877  34.019  -5.869  1.00  0.00     0.161 HD
ENDBRANCH  29  30
ENDBRANCH  28  29
ENDBRANCH  27  28
ENDBRANCH  22  27
BRANCH  23  35
HETATM   35  O6  UNL     1      -3.986  32.591  -0.264  1.00  0.00    -0.344 OA
ATOM     36  H6  UNL     1      -3.510  32.378   0.530  1.00  0.00     0.219 HD
ENDBRANCH  23  35
BRANCH  16  37
HETATM   37  C20 UNL     1      -5.851  27.790  -6.328  1.00  0.00     0.227 C 
HETATM   38  F1  UNL     1      -7.049  27.587  -7.013  1.00  0.00    -0.255 F 
ENDBRANCH  16  37
BRANCH  14  39
HETATM   39  C17 UNL     1      -8.248  24.800  -4.509  1.00  0.00     0.189 C 
BRANCH  39  40
HETATM   40  O4  UNL     1      -7.957  23.444  -4.678  1.00  0.00    -0.399 OA
ATOM     41  H4  UNL     1      -8.598  22.913  -4.221  1.00  0.00     0.209 HD
ENDBRANCH  39  40
ENDBRANCH  14  39
BRANCH   1  42
HETATM   42  C6  UNL     1     -11.030  26.607   0.577  1.00  0.00     0.037 C 
BRANCH  42  43
HETATM   43  C5  UNL     1     -12.128  27.599   0.315  1.00  0.00     0.003 C 
BRANCH  43  44
HETATM   44  C4  UNL     1     -13.329  27.214   1.125  1.00  0.00     0.000 C 
BRANCH  44  45
HETATM   45  C3  UNL     1     -14.639  27.573   0.467  1.00  0.00    -0.000 C 
BRANCH  45  46
HETATM   46  C2  UNL     1     -14.340  28.135  -0.928  1.00  0.00    -0.005 C 
HETATM   47  C1  UNL     1     -14.715  29.598  -1.005  1.00  0.00     0.005 C 
ENDBRANCH  45  46
ENDBRANCH  44  45
ENDBRANCH  43  44
ENDBRANCH  42  43
ENDBRANCH   1  42
BRANCH  11  48
HETATM   48  O3  UNL     1      -6.465  24.195  -1.207  1.00  0.00    -0.346 OA
ATOM     49  H3  UNL     1      -5.651  23.921  -0.800  1.00  0.00     0.219 HD
ENDBRANCH  11  48
TORSDOF 14
ENDMDL
MODEL 2
REMARK VINA RESULT: -7.075151909      1.518      2.068
REMARK  14 active torsions:
REMARK  status: ('A' for Active; 'I' for Inactive)
REMARK    1  A    between atoms: C2_2  and  C3_3 
REMARK    2  A    between atoms: C3_3  and  C4_4 
REMARK    3  A    between atoms: C4_4  and  C5_5 
REMARK    4  A    between atoms: C5_5  and  C6_6 
REMARK    5  A    between atoms: C6_6  and  C7_7 
REMARK    6  A    between atoms: C15_17  and  O3_18 
REMARK    7  A    between atoms: C16_22  and  C17_23 
REMARK    8  A    between atoms: C17_23  and  O4_24 
REMARK    9  A    between atoms: C19_27  and  C20_28 
REMARK   10  A    between atoms: C23_35  and  C24_36 
REMARK   11  A    between atoms: C24_36  and  C25_37 
REMARK   12  A    between atoms: C25_37  and  C26_38 
REMARK   13  A    between atoms: C26_38  and  N3_39 
REMARK   14  A    between atoms: C28_44  and  O6_45 
ROOT
HETATM    1  C7  UNL     1      -9.881  27.200   1.317  1.00  0.00     0.166 A 
HETATM    2  O1  UNL     1     -10.049  28.474   1.798  1.00  0.00    -0.307 OA
HETATM    3  C8  UNL     1      -8.936  29.269   1.433  1.00  0.00     0.295 A 
HETATM    4  O2  UNL     1      -8.768  30.455   1.795  1.00  0.00    -0.259 OA
HETATM    5  C9  UNL     1      -8.040  28.488   0.576  1.00  0.00     0.060 A 
HETATM    6  C10 UNL     1      -6.824  28.779  -0.121  1.00  0.00    -0.003 A 
HETATM    7  C11 UNL     1      -6.237  27.830  -0.933  1.00  0.00     0.029 A 
HETATM    8  C12 UNL     1      -6.844  26.610  -1.051  1.00  0.00     0.016 A 
HETATM    9  C13 UNL     1      -8.046  26.349  -0.343  1.00  0.00     0.026 A 
HETATM   10  C14 UNL     1      -8.657  27.266   0.470  1.00  0.00    -0.011 A 
HETATM   11  C15 UNL     1      -6.482  25.407  -1.842  1.00  0.00     0.146 C 
HETATM   12  N1  UNL     1      -6.154  25.279  -3.225  1.00  0.00    -0.364 N 
ATOM     13  H1  UNL     1      -5.243  24.870  -3.434  1.00  0.00     0.162 HD
HETATM   14  C16 UNL     1      -6.947  25.655  -4.352  1.00  0.00     0.107 C 
HETATM   15  C18 UNL     1      -7.262  27.122  -4.473  1.00  0.00     0.035 C 
HETATM   16  C19 UNL     1      -6.093  27.976  -4.850  1.00  0.00     0.025 C 
HETATM   17  C21 UNL     1      -6.345  29.435  -4.435  1.00  0.00     0.110 C 
HETATM   18  C22 UNL     1      -5.057  30.120  -4.173  1.00  0.00     0.222 C 
HETATM   19  O5  UNL     1      -4.278  30.124  -5.205  1.00  0.00    -0.273 OA
HETATM   20  N2  UNL     1      -4.593  30.730  -3.023  1.00  0.00    -0.327 N 
ATOM     21  H2  UNL     1      -3.735  30.313  -2.663  1.00  0.00     0.168 HD
HETATM   22  C23 UNL     1      -5.067  31.830  -2.230  1.00  0.00     0.063 C 
HETATM   23  C28 UNL     1      -4.750  31.699  -0.782  1.00  0.00     0.165 C 
HETATM   24  N6  UNL     1      -5.113  30.672   0.112  1.00  0.00    -0.340 N 
HETATM   25  C29 UNL     1      -3.994  30.137   0.972  1.00  0.00     0.158 C 
HETATM   26  C30 UNL     1      -6.414  30.161   0.227  1.00  0.00     0.105 C 
ENDROOT
BRANCH  22  27
HETATM   27  C24 UNL     1      -6.345  32.462  -2.582  1.00  0.00     0.063 C 
BRANCH  27  28
HETATM   28  C25 UNL     1      -6.271  33.575  -3.600  1.00  0.00     0.026 C 
BRANCH  28  29
HETATM   29  C26 UNL     1      -6.969  33.187  -4.892  1.00  0.00     0.122 C 
BRANCH  29  30
HETATM   30  N3  UNL     1      -8.213  32.575  -4.488  1.00  0.00    -0.367 N 
HETATM   31  C27 UNL     1      -9.373  32.892  -4.931  1.00  0.00     0.196 C 
HETATM   32  N4  UNL     1      -9.527  33.917  -5.902  1.00  0.00    -0.067 NA
HETATM   33  N5  UNL     1     -10.565  32.238  -4.472  1.00  0.00    -0.067 NA
ATOM     34  H3  UNL     1      -8.164  31.828  -3.794  1.00  0.00     0.161 HD
ENDBRANCH  29  30
ENDBRANCH  28  29
ENDBRANCH  27  28
ENDBRANCH  22  27
BRANCH  23  35
HETATM   35  O6  UNL     1      -4.033  32.650  -0.232  1.00  0.00    -0.344 OA
ATOM     36  H6  UNL     1      -4.392  33.081   0.534  1.00  0.00     0.219 HD
ENDBRANCH  23  35
BRANCH  16  37
HETATM   37  C20 UNL     1      -5.855  27.870  -6.327  1.00  0.00     0.227 C 
HETATM   38  F1  UNL     1      -7.049  27.653  -7.013  1.00  0.00    -0.255 F 
ENDBRANCH  16  37
BRANCH  14  39
HETATM   39  C17 UNL     1      -8.227  24.849  -4.527  1.00  0.00     0.189 C 
BRANCH  39  40
HETATM   40  O4  UNL     1      -7.927  23.492  -4.664  1.00  0.00    -0.399 OA
ATOM     41  H4  UNL     1      -8.227  23.175  -5.508  1.00  0.00     0.209 HD
ENDBRANCH  39  40
ENDBRANCH  14  39
BRANCH   1  42
HETATM   42  C6  UNL     1     -11.027  26.601   0.567  1.00  0.00     0.037 C 
BRANCH  42  43
HETATM   43  C5  UNL     1     -12.124  27.591   0.292  1.00  0.00     0.003 C 
BRANCH  43  44
HETATM   44  C4  UNL     1     -13.321  27.228   1.119  1.00  0.00     0.000 C 
BRANCH  44  45
HETATM   45  C3  UNL     1     -14.633  27.618   0.483  1.00  0.00    -0.000 C 
BRANCH  45  46
HETATM   46  C2  UNL     1     -14.341  28.204  -0.904  1.00  0.00    -0.005 C 
HETATM   47  C1  UNL     1     -14.704  29.670  -0.949  1.00  0.00     0.005 C 
ENDBRANCH  45  46
ENDBRANCH  44  45
ENDBRANCH  43  44
ENDBRANCH  42  43
ENDBRANCH   1  42
BRANCH  11  48
HETATM   48  O3  UNL     1      -6.442  24.239  -1.228  1.00  0.00    -0.346 OA
ATOM     49  H3  UNL     1      -5.937  23.538  -1.624  1.00  0.00     0.219 HD
ENDBRANCH  11  48
TORSDOF 14
ENDMDL
MODEL 3
REMARK VINA RESULT: -7.046317770      1.065      1.305
REMARK  14 active torsions:
REMARK  status: ('A' for Active; 'I' for Inactive)
REMARK    1  A    between atoms: C2_2  and  C3_3 
REMARK    2  A    between atoms: C3_3  and  C4_4 
REMARK    3  A    between atoms: C4_4  and  C5_5 
REMARK    4  A    between atoms: C5_5  and  C6_6 
REMARK    5  A    between atoms: C6_6  and  C7_7 
REMARK    6  A    between atoms: C15_17  and  O3_18 
REMARK    7  A    between atoms: C16_22  and  C17_23 
REMARK    8  A    between atoms: C17_23  and  O4_24 
REMARK    9  A    between atoms: C19_27  and  C20_28 
REMARK   10  A    between atoms: C23_35  and  C24_36 
REMARK   11  A    between atoms: C24_36  and  C25_37 
REMARK   12  A    between atoms: C25_37  and  C26_38 
REMARK   13  A    between atoms: C26_38  and  N3_39 
REMARK   14  A    between atoms: C28_44  and  O6_45 
ROOT
HETATM    1  C7  UNL     1      -9.887  27.189   1.317  1.00  0.00     0.166 A 
HETATM    2  O1  UNL     1     -10.047  28.466   1.793  1.00  0.00    -0.307 OA
HETATM    3  C8  UNL     1      -8.929  29.253   1.425  1.00  0.00     0.295 A 
HETATM    4  O2  UNL     1      -8.754  30.439   1.783  1.00  0.00    -0.259 OA
HETATM    5  C9  UNL     1      -8.037  28.462   0.571  1.00  0.00     0.060 A 
HETATM    6  C10 UNL     1      -6.820  28.743  -0.125  1.00  0.00    -0.003 A 
HETATM    7  C11 UNL     1      -6.238  27.788  -0.934  1.00  0.00     0.029 A 
HETATM    8  C12 UNL     1      -6.852  26.571  -1.047  1.00  0.00     0.016 A 
HETATM    9  C13 UNL     1      -8.057  26.320  -0.338  1.00  0.00     0.026 A 
HETATM   10  C14 UNL     1      -8.662  27.244   0.470  1.00  0.00    -0.011 A 
HETATM   11  C15 UNL     1      -6.498  25.362  -1.833  1.00  0.00     0.146 C 
HETATM   12  N1  UNL     1      -6.170  25.227  -3.216  1.00  0.00    -0.364 N 
ATOM     13  H1  UNL     1      -5.262  24.811  -3.423  1.00  0.00     0.162 HD
HETATM   14  C16 UNL     1      -6.960  25.603  -4.344  1.00  0.00     0.107 C 
HETATM   15  C18 UNL     1      -7.266  27.072  -4.471  1.00  0.00     0.035 C 
HETATM   16  C19 UNL     1      -6.091  27.916  -4.851  1.00  0.00     0.025 C 
HETATM   17  C21 UNL     1      -6.335  29.379  -4.442  1.00  0.00     0.110 C 
HETATM   18  C22 UNL     1      -5.042  30.057  -4.183  1.00  0.00     0.222 C 
HETATM   19  O5  UNL     1      -4.263  30.052  -5.214  1.00  0.00    -0.273 OA
HETATM   20  N2  UNL     1      -4.575  30.668  -3.035  1.00  0.00    -0.327 N 
ATOM     21  H2  UNL     1      -3.720  30.248  -2.672  1.00  0.00     0.168 HD
HETATM   22  C23 UNL     1      -5.043  31.775  -2.246  1.00  0.00     0.063 C 
HETATM   23  C28 UNL     1      -4.727  31.647  -0.798  1.00  0.00     0.165 C 
HETATM   24  N6  UNL     1      -5.097  30.627   0.100  1.00  0.00    -0.340 N 
HETATM   25  C29 UNL     1      -3.982  30.088   0.963  1.00  0.00     0.158 C 
HETATM   26  C30 UNL     1      -6.402  30.124   0.217  1.00  0.00     0.105 C 
ENDROOT
BRANCH  22  27
HETATM   27  C24 UNL     1      -6.317  32.414  -2.601  1.00  0.00     0.063 C 
BRANCH  27  28
HETATM   28  C25 UNL     1      -6.242  33.489  -3.659  1.00  0.00     0.026 C 
BRANCH  28  29
HETATM   29  C26 UNL     1      -7.042  33.106  -4.891  1.00  0.00     0.122 C 
BRANCH  29  30
HETATM   30  N3  UNL     1      -6.063  32.824  -5.914  1.00  0.00    -0.367 N 
HETATM   31  C27 UNL     1      -6.292  32.190  -7.004  1.00  0.00     0.196 C 
HETATM   32  N4  UNL     1      -7.590  31.699  -7.303  1.00  0.00    -0.067 NA
HETATM   33  N5  UNL     1      -5.259  31.943  -7.969  1.00  0.00    -0.067 NA
ATOM     34  H3  UNL     1      -5.111  33.156  -5.756  1.00  0.00     0.161 HD
ENDBRANCH  29  30
ENDBRANCH  28  29
ENDBRANCH  27  28
ENDBRANCH  22  27
BRANCH  23  35
HETATM   35  O6  UNL     1      -4.005  32.596  -0.251  1.00  0.00    -0.344 OA
ATOM     36  H6  UNL     1      -4.459  33.374   0.049  1.00  0.00     0.219 HD
ENDBRANCH  23  35
BRANCH  16  37
HETATM   37  C20 UNL     1      -5.853  27.803  -6.327  1.00  0.00     0.227 C 
HETATM   38  F1  UNL     1      -7.050  27.599  -7.014  1.00  0.00    -0.255 F 
ENDBRANCH  16  37
BRANCH  14  39
HETATM   39  C17 UNL     1      -8.245  24.805  -4.517  1.00  0.00     0.189 C 
BRANCH  39  40
HETATM   40  O4  UNL     1      -7.952  23.449  -4.679  1.00  0.00    -0.399 OA
ATOM     41  H4  UNL     1      -8.753  22.954  -4.804  1.00  0.00     0.209 HD
ENDBRANCH  39  40
ENDBRANCH  14  39
BRANCH   1  42
HETATM   42  C6  UNL     1     -11.037  26.594   0.569  1.00  0.00     0.037 C 
BRANCH  42  43
HETATM   43  C5  UNL     1     -12.134  27.586   0.304  1.00  0.00     0.003 C 
BRANCH  43  44
HETATM   44  C4  UNL     1     -13.339  27.200   1.107  1.00  0.00     0.000 C 
BRANCH  44  45
HETATM   45  C3  UNL     1     -14.646  27.579   0.453  1.00  0.00    -0.000 C 
BRANCH  45  46
HETATM   46  C2  UNL     1     -14.340  28.169  -0.928  1.00  0.00    -0.005 C 
HETATM   47  C1  UNL     1     -14.715  29.633  -0.976  1.00  0.00     0.005 C 
ENDBRANCH  45  46
ENDBRANCH  44  45
ENDBRANCH  43  44
ENDBRANCH  42  43
ENDBRANCH   1  42
BRANCH  11  48
HETATM   48  O3  UNL     1      -6.465  24.197  -1.215  1.00  0.00    -0.346 OA
ATOM     49  H3  UNL     1      -5.636  23.736  -1.162  1.00  0.00     0.219 HD
ENDBRANCH  11  48
TORSDOF 14
ENDMDL
MODEL 4
REMARK VINA RESULT: -7.028041842      1.806      2.928
REMARK  14 active torsions:
REMARK  status: ('A' for Active; 'I' for Inactive)
REMARK    1  A    between atoms: C2_2  and  C3_3 
REMARK    2  A    between atoms: C3_3  and  C4_4 
REMARK    3  A    between atoms: C4_4  and  C5_5 
REMARK    4  A    between atoms: C5_5  and  C6_6 
REMARK    5  A    between atoms: C6_6  and  C7_7 
REMARK    6  A    between atoms: C15_17  and  O3_18 
REMARK    7  A    between atoms: C16_22  and  C17_23 
REMARK    8  A    between atoms: C17_23  and  O4_24 
REMARK    9  A    between atoms: C19_27  and  C20_28 
REMARK   10  A    between atoms: C23_35  and  C24_36 
REMARK   11  A    between atoms: C24_36  and  C25_37 
REMARK   12  A    between atoms: C25_37  and  C26_38 
REMARK   13  A    between atoms: C26_38  and  N3_39 
REMARK   14  A    between atoms: C28_44  and  O6_45 
ROOT
HETATM    1  C7  UNL     1      -9.872  27.179   1.304  1.00  0.00     0.166 A 
HETATM    2  O1  UNL     1     -10.046  28.447   1.795  1.00  0.00    -0.307 OA
HETATM    3  C8  UNL     1      -8.937  29.252   1.440  1.00  0.00     0.295 A 
HETATM    4  O2  UNL     1      -8.776  30.435   1.814  1.00  0.00    -0.259 OA
HETATM    5  C9  UNL     1      -8.035  28.483   0.577  1.00  0.00     0.060 A 
HETATM    6  C10 UNL     1      -6.820  28.787  -0.115  1.00  0.00    -0.003 A 
HETATM    7  C11 UNL     1      -6.227  27.848  -0.935  1.00  0.00     0.029 A 
HETATM    8  C12 UNL     1      -6.827  26.627  -1.065  1.00  0.00     0.016 A 
HETATM    9  C13 UNL     1      -8.029  26.353  -0.361  1.00  0.00     0.026 A 
HETATM   10  C14 UNL     1      -8.646  27.259   0.459  1.00  0.00    -0.011 A 
HETATM   11  C15 UNL     1      -6.458  25.432  -1.867  1.00  0.00     0.146 C 
HETATM   12  N1  UNL     1      -6.127  25.319  -3.251  1.00  0.00    -0.364 N 
ATOM     13  H1  UNL     1      -5.214  24.917  -3.462  1.00  0.00     0.162 HD
HETATM   14  C16 UNL     1      -6.921  25.701  -4.375  1.00  0.00     0.107 C 
HETATM   15  C18 UNL     1      -7.243  27.168  -4.483  1.00  0.00     0.035 C 
HETATM   16  C19 UNL     1      -6.077  28.031  -4.850  1.00  0.00     0.025 C 
HETATM   17  C21 UNL     1      -6.338  29.485  -4.421  1.00  0.00     0.110 C 
HETATM   18  C22 UNL     1      -5.053  30.174  -4.152  1.00  0.00     0.222 C 
HETATM   19  O5  UNL     1      -4.273  30.191  -5.182  1.00  0.00    -0.273 OA
HETATM   20  N2  UNL     1      -4.594  30.775  -2.996  1.00  0.00    -0.327 N 
ATOM     21  H2  UNL     1      -3.735  30.359  -2.638  1.00  0.00     0.168 HD
HETATM   22  C23 UNL     1      -5.076  31.866  -2.193  1.00  0.00     0.063 C 
HETATM   23  C28 UNL     1      -4.760  31.723  -0.746  1.00  0.00     0.165 C 
HETATM   24  N6  UNL     1      -5.119  30.686   0.138  1.00  0.00    -0.340 N 
HETATM   25  C29 UNL     1      -3.999  30.149   0.995  1.00  0.00     0.158 C 
HETATM   26  C30 UNL     1      -6.418  30.167   0.247  1.00  0.00     0.105 C 
ENDROOT
BRANCH  22  27
HETATM   27  C24 UNL     1      -6.356  32.495  -2.541  1.00  0.00     0.063 C 
BRANCH  27  28
HETATM   28  C25 UNL     1      -7.587  31.861  -1.937  1.00  0.00     0.026 C 
BRANCH  28  29
HETATM   29  C26 UNL     1      -8.521  32.911  -1.362  1.00  0.00     0.122 C 
BRANCH  29  30
HETATM   30  N3  UNL     1      -9.480  32.180  -0.567  1.00  0.00    -0.367 N 
HETATM   31  C27 UNL     1     -10.750  32.195  -0.740  1.00  0.00     0.196 C 
HETATM   32  N4  UNL     1     -11.336  32.966  -1.778  1.00  0.00    -0.067 NA
HETATM   33  N5  UNL     1     -11.638  31.444   0.101  1.00  0.00    -0.067 NA
ATOM     34  H3  UNL     1      -9.117  31.604   0.193  1.00  0.00     0.161 HD
ENDBRANCH  29  30
ENDBRANCH  28  29
ENDBRANCH  27  28
ENDBRANCH  22  27
BRANCH  23  35
HETATM   35  O6  UNL     1      -4.049  32.672  -0.185  1.00  0.00    -0.344 OA
ATOM     36  H6  UNL     1      -3.228  32.908  -0.600  1.00  0.00     0.219 HD
ENDBRANCH  23  35
BRANCH  16  37
HETATM   37  C20 UNL     1      -5.837  27.940  -6.327  1.00  0.00     0.227 C 
HETATM   38  F1  UNL     1      -7.035  27.780  -7.022  1.00  0.00    -0.255 F 
ENDBRANCH  16  37
BRANCH  14  39
HETATM   39  C17 UNL     1      -8.197  24.891  -4.560  1.00  0.00     0.189 C 
BRANCH  39  40
HETATM   40  O4  UNL     1      -7.921  23.526  -4.449  1.00  0.00    -0.399 OA
ATOM     41  H4  UNL     1      -7.193  23.293  -5.014  1.00  0.00     0.209 HD
ENDBRANCH  39  40
ENDBRANCH  14  39
BRANCH   1  42
HETATM   42  C6  UNL     1     -11.013  26.581   0.546  1.00  0.00     0.037 C 
BRANCH  42  43
HETATM   43  C5  UNL     1     -12.107  27.573   0.264  1.00  0.00     0.003 C 
BRANCH  43  44
HETATM   44  C4  UNL     1     -13.275  27.269   1.152  1.00  0.00     0.000 C 
BRANCH  44  45
HETATM   45  C3  UNL     1     -14.607  27.631   0.540  1.00  0.00    -0.000 C 
BRANCH  45  46
HETATM   46  C2  UNL     1     -14.350  28.272  -0.830  1.00  0.00    -0.005 C 
HETATM   47  C1  UNL     1     -14.725  29.736  -0.811  1.00  0.00     0.005 C 
ENDBRANCH  45  46
ENDBRANCH  44  45
ENDBRANCH  43  44
ENDBRANCH  42  43
ENDBRANCH   1  42
BRANCH  11  48
HETATM   48  O3  UNL     1      -6.413  24.259  -1.264  1.00  0.00    -0.346 OA
ATOM     49  H3  UNL     1      -5.590  23.785  -1.259  1.00  0.00     0.219 HD
ENDBRANCH  11  48
TORSDOF 14
ENDMDL
MODEL 5
REMARK VINA RESULT: -6.948242410      4.246      6.815
REMARK  14 active torsions:
REMARK  status: ('A' for Active; 'I' for Inactive)
REMARK    1  A    between atoms: C2_2  and  C3_3 
REMARK    2  A    between atoms: C3_3  and  C4_4 
REMARK    3  A    between atoms: C4_4  and  C5_5 
REMARK    4  A    between atoms: C5_5  and  C6_6 
REMARK    5  A    between atoms: C6_6  and  C7_7 
REMARK    6  A    between atoms: C15_17  and  O3_18 
REMARK    7  A    between atoms: C16_22  and  C17_23 
REMARK    8  A    between atoms: C17_23  and  O4_24 
REMARK    9  A    between atoms: C19_27  and  C20_28 
REMARK   10  A    between atoms: C23_35  and  C24_36 
REMARK   11  A    between atoms: C24_36  and  C25_37 
REMARK   12  A    between atoms: C25_37  and  C26_38 
REMARK   13  A    between atoms: C26_38  and  N3_39 
REMARK   14  A    between atoms: C28_44  and  O6_45 
ROOT
HETATM    1  C7  UNL     1     -13.587  30.409   2.903  1.00  0.00     0.166 A 
HETATM    2  O1  UNL     1     -13.199  31.243   1.886  1.00  0.00    -0.307 OA
HETATM    3  C8  UNL     1     -11.795  31.164   1.718  1.00  0.00     0.295 A 
HETATM    4  O2  UNL     1     -11.140  31.869   0.917  1.00  0.00    -0.259 OA
HETATM    5  C9  UNL     1     -11.254  30.139   2.615  1.00  0.00     0.060 A 
HETATM    6  C10 UNL     1      -9.948  29.597   2.834  1.00  0.00    -0.003 A 
HETATM    7  C11 UNL     1      -9.761  28.555   3.720  1.00  0.00     0.029 A 
HETATM    8  C12 UNL     1     -10.852  28.061   4.382  1.00  0.00     0.016 A 
HETATM    9  C13 UNL     1     -12.134  28.624   4.148  1.00  0.00     0.026 A 
HETATM   10  C14 UNL     1     -12.356  29.655   3.276  1.00  0.00    -0.011 A 
HETATM   11  C15 UNL     1     -10.985  26.957   5.366  1.00  0.00     0.146 C 
HETATM   12  N1  UNL     1     -10.521  25.609   5.306  1.00  0.00    -0.364 N 
ATOM     13  H1  UNL     1      -9.902  25.313   6.061  1.00  0.00     0.162 HD
HETATM   14  C16 UNL     1     -10.818  24.624   4.315  1.00  0.00     0.107 C 
HETATM   15  C18 UNL     1     -10.354  24.938   2.917  1.00  0.00     0.035 C 
HETATM   16  C19 UNL     1      -8.872  24.866   2.728  1.00  0.00     0.025 C 
HETATM   17  C21 UNL     1      -8.454  25.691   1.499  1.00  0.00     0.110 C 
HETATM   18  C22 UNL     1      -7.065  26.182   1.664  1.00  0.00     0.222 C 
HETATM   19  O5  UNL     1      -6.213  25.222   1.812  1.00  0.00    -0.273 OA
HETATM   20  N2  UNL     1      -6.576  27.474   1.680  1.00  0.00    -0.327 N 
ATOM     21  H2  UNL     1      -6.108  27.718   2.552  1.00  0.00     0.168 HD
HETATM   22  C23 UNL     1      -6.590  28.546   0.723  1.00  0.00     0.063 C 
HETATM   23  C28 UNL     1      -6.639  29.897   1.344  1.00  0.00     0.165 C 
HETATM   24  N6  UNL     1      -7.606  30.433   2.217  1.00  0.00    -0.340 N 
HETATM   25  C29 UNL     1      -7.060  31.125   3.442  1.00  0.00     0.158 C 
HETATM   26  C30 UNL     1      -8.989  30.353   1.994  1.00  0.00     0.105 C 
ENDROOT
BRANCH  22  27
HETATM   27  C24 UNL     1      -7.315  28.363  -0.541  1.00  0.00     0.063 C 
BRANCH  27  28
HETATM   28  C25 UNL     1      -6.485  28.471  -1.798  1.00  0.00     0.026 C 
BRANCH  28  29
HETATM   29  C26 UNL     1      -6.848  27.383  -2.793  1.00  0.00     0.122 C 
BRANCH  29  30
HETATM   30  N3  UNL     1      -7.099  26.203  -1.999  1.00  0.00    -0.367 N 
HETATM   31  C27 UNL     1      -6.433  25.110  -2.066  1.00  0.00     0.196 C 
HETATM   32  N4  UNL     1      -5.344  24.973  -2.967  1.00  0.00    -0.067 NA
HETATM   33  N5  UNL     1      -6.751  23.976  -1.246  1.00  0.00    -0.067 NA
ATOM     34  H3  UNL     1      -7.868  26.242  -1.331  1.00  0.00     0.161 HD
ENDBRANCH  29  30
ENDBRANCH  28  29
ENDBRANCH  27  28
ENDBRANCH  22  27
BRANCH  23  35
HETATM   35  O6  UNL     1      -5.662  30.727   1.065  1.00  0.00    -0.344 OA
ATOM     36  H6  UNL     1      -5.521  30.947   0.153  1.00  0.00     0.219 HD
ENDBRANCH  23  35
BRANCH  16  37
HETATM   37  C20 UNL     1      -8.457  23.433   2.580  1.00  0.00     0.227 C 
HETATM   38  F1  UNL     1      -7.653  23.031   3.646  1.00  0.00    -0.255 F 
ENDBRANCH  16  37
BRANCH  14  39
HETATM   39  C17 UNL     1     -12.273  24.179   4.274  1.00  0.00     0.189 C 
BRANCH  39  40
HETATM   40  O4  UNL     1     -12.948  24.835   3.242  1.00  0.00    -0.399 OA
ATOM     41  H4  UNL     1     -13.887  24.763   3.368  1.00  0.00     0.209 HD
ENDBRANCH  39  40
ENDBRANCH  14  39
BRANCH   1  42
HETATM   42  C6  UNL     1     -14.726  29.482   2.623  1.00  0.00     0.037 C 
BRANCH  42  43
HETATM   43  C5  UNL     1     -15.076  29.415   1.163  1.00  0.00     0.003 C 
BRANCH  43  44
HETATM   44  C4  UNL     1     -14.761  28.041   0.653  1.00  0.00     0.000 C 
BRANCH  44  45
HETATM   45  C3  UNL     1     -13.472  27.971  -0.130  1.00  0.00    -0.000 C 
BRANCH  45  46
HETATM   46  C2  UNL     1     -12.495  27.065   0.628  1.00  0.00    -0.005 C 
HETATM   47  C1  UNL     1     -11.067  27.399   0.263  1.00  0.00     0.005 C 
ENDBRANCH  45  46
ENDBRANCH  44  45
ENDBRANCH  43  44
ENDBRANCH  42  43
ENDBRANCH   1  42
BRANCH  11  48
HETATM   48  O3  UNL     1     -11.626  27.195   6.495  1.00  0.00    -0.346 OA
ATOM     49  H3  UNL     1     -12.560  27.365   6.458  1.00  0.00     0.219 HD
ENDBRANCH  11  48
TORSDOF 14
ENDMDL
