MODEL 1
REMARK VINA RESULT: -8.193500752      0.000      0.000
REMARK  6 active torsions:
REMARK  status: ('A' for Active; 'I' for Inactive)
REMARK       I    between atoms: N1_2  and  C2_4 
REMARK    1  A    between atoms: C2_4  and  C3_6 
REMARK    2  A    between atoms: C8_13  and  O2_14 
REMARK    3  A    between atoms: N3_16  and  C9_17 
REMARK    4  A    between atoms: C15_24  and  O3_25 
REMARK    5  A    between atoms: C18_31  and  N6_32 
REMARK    6  A    between atoms: N6_32  and  C19_34 
ROOT
HETATM    1  C3  UNL     1      32.703   5.577   8.335  1.00  0.00     0.074 C 
HETATM    2  C4  UNL     1      31.435   5.203   7.642  1.00  0.00     0.029 C 
HETATM    3  C5  UNL     1      33.934   5.120   7.555  1.00  0.00     0.167 C 
HETATM    4  N2  UNL     1      34.112   6.002   6.411  1.00  0.00    -0.373 N 
ATOM      5  H2  UNL     1      34.959   5.902   5.852  1.00  0.00     0.160 HD
HETATM    6  C6  UNL     1      33.174   6.993   6.032  1.00  0.00     0.092 A 
HETATM    7  C7  UNL     1      32.443   7.590   7.059  1.00  0.00     0.031 A 
HETATM    8  C8  UNL     1      31.604   8.495   6.504  1.00  0.00     0.158 A 
HETATM    9  N3  UNL     1      31.807   8.465   5.155  1.00  0.00    -0.268 N 
HETATM   10  C15 UNL     1      32.754   7.561   4.850  1.00  0.00     0.177 A 
HETATM   11  C16 UNL     1      32.784   7.085   8.433  1.00  0.00     0.063 C 
HETATM   12  C17 UNL     1      34.170   7.554   8.807  1.00  0.00     0.132 C 
HETATM   13  N5  UNL     1      35.122   6.514   9.024  1.00  0.00    -0.377 N 
ATOM     14  H5  UNL     1      35.896   6.704   9.661  1.00  0.00     0.160 HD
HETATM   15  C18 UNL     1      35.073   5.346   8.470  1.00  0.00     0.103 C 
ENDROOT
BRANCH  15  16
HETATM   16  N6  UNL     1      36.033   4.383   8.766  1.00  0.00    -0.328 N 
ATOM     17  H6  UNL     1      36.285   3.766   7.994  1.00  0.00     0.169 HD
BRANCH  16  18
HETATM   18  C19 UNL     1      36.701   4.140   9.968  1.00  0.00     0.139 A 
HETATM   19  C20 UNL     1      36.297   3.678  11.189  1.00  0.00     0.161 A 
HETATM   20  N7  UNL     1      37.363   3.627  12.029  1.00  0.00    -0.290 N 
HETATM   21  C21 UNL     1      37.256   3.176  13.406  1.00  0.00     0.178 C 
HETATM   22  N8  UNL     1      38.408   4.041  11.366  1.00  0.00    -0.240 N 
HETATM   23  N9  UNL     1      38.050   4.353  10.142  1.00  0.00    -0.270 N 
ATOM     24  H8  UNL     1      39.355   4.112  11.741  1.00  0.00     0.208 HD
ATOM     25  H9  UNL     1      38.682   4.703   9.421  1.00  0.00     0.190 HD
ENDBRANCH  16  18
ENDBRANCH  15  16
BRANCH   1  26
HETATM   26  C2  UNL     1      32.668   5.023   9.692  1.00  0.00     0.229 C 
HETATM   27  N1  UNL     1      32.095   5.695  10.806  1.00  0.00    -0.365 N 
HETATM   28  C1  UNL     1      32.088   5.105  12.123  1.00  0.00     0.149 C 
ATOM     29  H1  UNL     1      31.679   6.617  10.672  1.00  0.00     0.161 HD
HETATM   30  O1  UNL     1      33.167   3.891   9.909  1.00  0.00    -0.273 OA
ENDBRANCH   1  26
BRANCH  10  31
HETATM   31  O3  UNL     1      33.273   7.206   3.601  1.00  0.00    -0.344 OA
ATOM     32  H3  UNL     1      32.784   7.288   2.792  1.00  0.00     0.219 HD
ENDBRANCH  10  31
BRANCH   8  33
HETATM   33  O2  UNL     1      30.719   9.285   7.223  1.00  0.00    -0.345 OA
ATOM     34  H2  UNL     1      29.779   9.151   7.245  1.00  0.00     0.219 HD
ENDBRANCH   8  33
BRANCH   9  35
HETATM   35  C9  UNL     1      31.110   9.281   4.214  1.00  0.00     0.068 A 
HETATM   36  C10 UNL     1      31.497  10.597   3.969  1.00  0.00     0.032 A 
HETATM   37  C11 UNL     1      30.823  11.391   3.059  1.00  0.00     0.002 A 
HETATM   38  C12 UNL     1      29.743  10.878   2.373  1.00  0.00     0.002 A 
HETATM   39  C13 UNL     1      29.339   9.587   2.592  1.00  0.00     0.029 A 
HETATM   40  C14 UNL     1      30.017   8.802   3.503  1.00  0.00     0.073 A 
HETATM   41  N4  UNL     1      29.568   7.465   3.705  1.00  0.00    -0.100 NA
ENDBRANCH   9  35
TORSDOF 6
ENDMDL
MODEL 2
REMARK VINA RESULT: -7.757766267      1.620      1.865
REMARK  6 active torsions:
REMARK  status: ('A' for Active; 'I' for Inactive)
REMARK       I    between atoms: N1_2  and  C2_4 
REMARK    1  A    between atoms: C2_4  and  C3_6 
REMARK    2  A    between atoms: C8_13  and  O2_14 
REMARK    3  A    between atoms: N3_16  and  C9_17 
REMARK    4  A    between atoms: C15_24  and  O3_25 
REMARK    5  A    between atoms: C18_31  and  N6_32 
REMARK    6  A    between atoms: N6_32  and  C19_34 
ROOT
HETATM    1  C3  UNL     1      32.564   5.889   8.357  1.00  0.00     0.074 C 
HETATM    2  C4  UNL     1      31.223   5.659   7.746  1.00  0.00     0.029 C 
HETATM    3  C5  UNL     1      33.580   4.838   7.915  1.00  0.00     0.167 C 
HETATM    4  N2  UNL     1      33.978   5.126   6.544  1.00  0.00    -0.373 N 
ATOM      5  H2  UNL     1      34.740   4.583   6.139  1.00  0.00     0.160 HD
HETATM    6  C6  UNL     1      33.366   6.121   5.743  1.00  0.00     0.092 A 
HETATM    7  C7  UNL     1      32.877   7.246   6.406  1.00  0.00     0.031 A 
HETATM    8  C8  UNL     1      32.329   8.070   5.483  1.00  0.00     0.158 A 
HETATM    9  N3  UNL     1      32.473   7.471   4.265  1.00  0.00    -0.268 N 
HETATM   10  C15 UNL     1      33.099   6.290   4.403  1.00  0.00     0.177 A 
HETATM   11  C16 UNL     1      33.093   7.229   7.893  1.00  0.00     0.063 C 
HETATM   12  C17 UNL     1      34.567   7.387   8.185  1.00  0.00     0.132 C 
HETATM   13  N5  UNL     1      35.172   6.284   8.856  1.00  0.00    -0.377 N 
ATOM     14  H5  UNL     1      35.986   6.473   9.440  1.00  0.00     0.160 HD
HETATM   15  C18 UNL     1      34.761   5.060   8.775  1.00  0.00     0.103 C 
ENDROOT
BRANCH  15  16
HETATM   16  N6  UNL     1      35.400   4.051   9.490  1.00  0.00    -0.328 N 
ATOM     17  H6  UNL     1      35.227   3.103   9.158  1.00  0.00     0.169 HD
BRANCH  16  18
HETATM   18  C19 UNL     1      36.245   4.153  10.598  1.00  0.00     0.139 A 
HETATM   19  C20 UNL     1      36.048   4.527  11.897  1.00  0.00     0.161 A 
HETATM   20  N7  UNL     1      37.222   4.446  12.574  1.00  0.00    -0.290 N 
HETATM   21  C21 UNL     1      37.340   4.781  13.984  1.00  0.00     0.178 C 
HETATM   22  N8  UNL     1      38.134   4.035  11.737  1.00  0.00    -0.240 N 
HETATM   23  N9  UNL     1      37.588   3.851  10.557  1.00  0.00    -0.270 N 
ATOM     24  H8  UNL     1      39.117   3.879  11.963  1.00  0.00     0.208 HD
ATOM     25  H9  UNL     1      38.088   3.531   9.727  1.00  0.00     0.190 HD
ENDBRANCH  16  18
ENDBRANCH  15  16
BRANCH   1  26
HETATM   26  C2  UNL     1      32.407   5.930   9.815  1.00  0.00     0.229 C 
HETATM   27  N1  UNL     1      31.838   4.876  10.579  1.00  0.00    -0.365 N 
HETATM   28  C1  UNL     1      31.706   4.969  12.014  1.00  0.00     0.149 C 
ATOM     29  H1  UNL     1      31.515   4.034  10.103  1.00  0.00     0.161 HD
HETATM   30  O1  UNL     1      32.790   6.947  10.447  1.00  0.00    -0.273 OA
ENDBRANCH   1  26
BRANCH  10  31
HETATM   31  O3  UNL     1      33.451   5.353   3.427  1.00  0.00    -0.344 OA
ATOM     32  H3  UNL     1      33.809   5.592   2.580  1.00  0.00     0.219 HD
ENDBRANCH  10  31
BRANCH   8  33
HETATM   33  O2  UNL     1      31.740   9.292   5.776  1.00  0.00    -0.345 OA
ATOM     34  H2  UNL     1      30.984   9.644   5.322  1.00  0.00     0.219 HD
ENDBRANCH   8  33
BRANCH   9  35
HETATM   35  C9  UNL     1      32.022   8.029   3.031  1.00  0.00     0.068 A 
HETATM   36  C10 UNL     1      30.665   8.217   2.775  1.00  0.00     0.032 A 
HETATM   37  C11 UNL     1      30.222   8.756   1.581  1.00  0.00     0.002 A 
HETATM   38  C12 UNL     1      31.138   9.120   0.616  1.00  0.00     0.002 A 
HETATM   39  C13 UNL     1      32.478   8.947   0.838  1.00  0.00     0.029 A 
HETATM   40  C14 UNL     1      32.911   8.408   2.033  1.00  0.00     0.073 A 
HETATM   41  N4  UNL     1      34.312   8.242   2.230  1.00  0.00    -0.100 NA
ENDBRANCH   9  35
TORSDOF 6
ENDMDL
MODEL 3
REMARK VINA RESULT: -7.735652479      2.464      8.383
REMARK  6 active torsions:
REMARK  status: ('A' for Active; 'I' for Inactive)
REMARK       I    between atoms: N1_2  and  C2_4 
REMARK    1  A    between atoms: C2_4  and  C3_6 
REMARK    2  A    between atoms: C8_13  and  O2_14 
REMARK    3  A    between atoms: N3_16  and  C9_17 
REMARK    4  A    between atoms: C15_24  and  O3_25 
REMARK    5  A    between atoms: C18_31  and  N6_32 
REMARK    6  A    between atoms: N6_32  and  C19_34 
ROOT
HETATM    1  C3  UNL     1      32.349   6.482   7.178  1.00  0.00     0.074 C 
HETATM    2  C4  UNL     1      32.944   7.469   8.125  1.00  0.00     0.029 C 
HETATM    3  C5  UNL     1      33.293   6.160   6.022  1.00  0.00     0.167 C 
HETATM    4  N2  UNL     1      34.351   5.290   6.515  1.00  0.00    -0.373 N 
ATOM      5  H2  UNL     1      35.001   4.889   5.839  1.00  0.00     0.160 HD
HETATM    6  C6  UNL     1      34.526   4.968   7.884  1.00  0.00     0.092 A 
HETATM    7  C7  UNL     1      33.373   4.905   8.665  1.00  0.00     0.031 A 
HETATM    8  C8  UNL     1      33.741   4.593   9.930  1.00  0.00     0.158 A 
HETATM    9  N3  UNL     1      35.099   4.463   9.938  1.00  0.00    -0.268 N 
HETATM   10  C15 UNL     1      35.592   4.686   8.708  1.00  0.00     0.177 A 
HETATM   11  C16 UNL     1      32.101   5.182   7.913  1.00  0.00     0.063 C 
HETATM   12  C17 UNL     1      31.824   4.040   6.965  1.00  0.00     0.132 C 
HETATM   13  N5  UNL     1      31.815   4.391   5.582  1.00  0.00    -0.377 N 
ATOM     14  H5  UNL     1      31.244   3.826   4.953  1.00  0.00     0.160 HD
HETATM   15  C18 UNL     1      32.481   5.374   5.070  1.00  0.00     0.103 C 
ENDROOT
BRANCH  15  16
HETATM   16  N6  UNL     1      32.388   5.659   3.711  1.00  0.00    -0.328 N 
ATOM     17  H6  UNL     1      32.118   4.875   3.118  1.00  0.00     0.169 HD
BRANCH  16  18
HETATM   18  C19 UNL     1      32.611   6.865   3.043  1.00  0.00     0.139 A 
HETATM   19  C20 UNL     1      33.588   7.301   2.192  1.00  0.00     0.161 A 
HETATM   20  N7  UNL     1      33.327   8.580   1.821  1.00  0.00    -0.290 N 
HETATM   21  C21 UNL     1      34.187   9.326   0.917  1.00  0.00     0.178 C 
HETATM   22  N8  UNL     1      32.223   8.947   2.413  1.00  0.00    -0.240 N 
HETATM   23  N9  UNL     1      31.773   7.953   3.145  1.00  0.00    -0.270 N 
ATOM     24  H8  UNL     1      31.779   9.861   2.322  1.00  0.00     0.208 HD
ATOM     25  H9  UNL     1      30.923   7.984   3.709  1.00  0.00     0.190 HD
ENDBRANCH  16  18
ENDBRANCH  15  16
BRANCH   1  26
HETATM   26  C2  UNL     1      31.060   7.006   6.713  1.00  0.00     0.229 C 
HETATM   27  N1  UNL     1      29.802   6.539   7.179  1.00  0.00    -0.365 N 
HETATM   28  C1  UNL     1      28.561   7.089   6.687  1.00  0.00     0.149 C 
ATOM     29  H1  UNL     1      29.774   5.795   7.877  1.00  0.00     0.161 HD
HETATM   30  O1  UNL     1      31.042   7.922   5.854  1.00  0.00    -0.273 OA
ENDBRANCH   1  26
BRANCH  10  31
HETATM   31  O3  UNL     1      36.918   4.658   8.264  1.00  0.00    -0.344 OA
ATOM     32  H3  UNL     1      37.662   4.599   8.851  1.00  0.00     0.219 HD
ENDBRANCH  10  31
BRANCH   8  33
HETATM   33  O2  UNL     1      32.856   4.445  10.988  1.00  0.00    -0.345 OA
ATOM     34  H2  UNL     1      31.986   4.823  11.015  1.00  0.00     0.219 HD
ENDBRANCH   8  33
BRANCH   9  35
HETATM   35  C9  UNL     1      35.873   4.137  11.092  1.00  0.00     0.068 A 
HETATM   36  C10 UNL     1      36.633   2.970  11.149  1.00  0.00     0.032 A 
HETATM   37  C11 UNL     1      37.384   2.649  12.265  1.00  0.00     0.002 A 
HETATM   38  C12 UNL     1      37.387   3.498  13.352  1.00  0.00     0.002 A 
HETATM   39  C13 UNL     1      36.649   4.652  13.327  1.00  0.00     0.029 A 
HETATM   40  C14 UNL     1      35.903   4.964  12.208  1.00  0.00     0.073 A 
HETATM   41  N4  UNL     1      35.148   6.172  12.217  1.00  0.00    -0.100 NA
ENDBRANCH   9  35
TORSDOF 6
ENDMDL
MODEL 4
REMARK VINA RESULT: -7.603469265      2.862      8.401
REMARK  6 active torsions:
REMARK  status: ('A' for Active; 'I' for Inactive)
REMARK       I    between atoms: N1_2  and  C2_4 
REMARK    1  A    between atoms: C2_4  and  C3_6 
REMARK    2  A    between atoms: C8_13  and  O2_14 
REMARK    3  A    between atoms: N3_16  and  C9_17 
REMARK    4  A    between atoms: C15_24  and  O3_25 
REMARK    5  A    between atoms: C18_31  and  N6_32 
REMARK    6  A    between atoms: N6_32  and  C19_34 
ROOT
HETATM    1  C3  UNL     1      32.336   6.445   7.178  1.00  0.00     0.074 C 
HETATM    2  C4  UNL     1      32.912   7.431   8.138  1.00  0.00     0.029 C 
HETATM    3  C5  UNL     1      33.291   6.150   6.023  1.00  0.00     0.167 C 
HETATM    4  N2  UNL     1      34.359   5.291   6.512  1.00  0.00    -0.373 N 
ATOM      5  H2  UNL     1      35.018   4.908   5.835  1.00  0.00     0.160 HD
HETATM    6  C6  UNL     1      34.533   4.958   7.878  1.00  0.00     0.092 A 
HETATM    7  C7  UNL     1      33.378   4.868   8.654  1.00  0.00     0.031 A 
HETATM    8  C8  UNL     1      33.745   4.550   9.917  1.00  0.00     0.158 A 
HETATM    9  N3  UNL     1      35.106   4.441   9.930  1.00  0.00    -0.268 N 
HETATM   10  C15 UNL     1      35.600   4.684   8.704  1.00  0.00     0.177 A 
HETATM   11  C16 UNL     1      32.105   5.134   7.898  1.00  0.00     0.063 C 
HETATM   12  C17 UNL     1      31.850   3.997   6.937  1.00  0.00     0.132 C 
HETATM   13  N5  UNL     1      31.842   4.362   5.558  1.00  0.00    -0.377 N 
ATOM     14  H5  UNL     1      31.283   3.795   4.921  1.00  0.00     0.160 HD
HETATM   15  C18 UNL     1      32.495   5.361   5.059  1.00  0.00     0.103 C 
ENDROOT
BRANCH  15  16
HETATM   16  N6  UNL     1      32.403   5.658   3.702  1.00  0.00    -0.328 N 
ATOM     17  H6  UNL     1      32.223   6.637   3.481  1.00  0.00     0.169 HD
BRANCH  16  18
HETATM   18  C19 UNL     1      32.523   4.807   2.602  1.00  0.00     0.139 A 
HETATM   19  C20 UNL     1      33.109   4.938   1.374  1.00  0.00     0.161 A 
HETATM   20  N7  UNL     1      32.937   3.791   0.667  1.00  0.00    -0.290 N 
HETATM   21  C21 UNL     1      33.448   3.618  -0.683  1.00  0.00     0.178 C 
HETATM   22  N8  UNL     1      32.266   2.960   1.417  1.00  0.00    -0.240 N 
HETATM   23  N9  UNL     1      32.005   3.532   2.570  1.00  0.00    -0.270 N 
ATOM     24  H8  UNL     1      31.989   2.016   1.149  1.00  0.00     0.208 HD
ATOM     25  H9  UNL     1      31.492   3.093   3.335  1.00  0.00     0.190 HD
ENDBRANCH  16  18
ENDBRANCH  15  16
BRANCH   1  26
HETATM   26  C2  UNL     1      31.042   6.954   6.713  1.00  0.00     0.229 C 
HETATM   27  N1  UNL     1      29.791   6.540   7.245  1.00  0.00    -0.365 N 
HETATM   28  C1  UNL     1      28.544   7.072   6.750  1.00  0.00     0.149 C 
ATOM     29  H1  UNL     1      29.774   5.848   7.995  1.00  0.00     0.161 HD
HETATM   30  O1  UNL     1      31.011   7.807   5.791  1.00  0.00    -0.273 OA
ENDBRANCH   1  26
BRANCH  10  31
HETATM   31  O3  UNL     1      36.928   4.681   8.266  1.00  0.00    -0.344 OA
ATOM     32  H3  UNL     1      37.652   4.990   8.797  1.00  0.00     0.219 HD
ENDBRANCH  10  31
BRANCH   8  33
HETATM   33  O2  UNL     1      32.858   4.376  10.969  1.00  0.00    -0.345 OA
ATOM     34  H2  UNL     1      33.070   4.542  11.880  1.00  0.00     0.219 HD
ENDBRANCH   8  33
BRANCH   9  35
HETATM   35  C9  UNL     1      35.879   4.114  11.084  1.00  0.00     0.068 A 
HETATM   36  C10 UNL     1      36.662   2.962  11.129  1.00  0.00     0.032 A 
HETATM   37  C11 UNL     1      37.413   2.641  12.245  1.00  0.00     0.002 A 
HETATM   38  C12 UNL     1      37.393   3.475  13.343  1.00  0.00     0.002 A 
HETATM   39  C13 UNL     1      36.634   4.615  13.329  1.00  0.00     0.029 A 
HETATM   40  C14 UNL     1      35.887   4.927  12.210  1.00  0.00     0.073 A 
HETATM   41  N4  UNL     1      35.109   6.120  12.230  1.00  0.00    -0.100 NA
ENDBRANCH   9  35
TORSDOF 6
ENDMDL
MODEL 5
REMARK VINA RESULT: -7.418518411      1.762      2.235
REMARK  6 active torsions:
REMARK  status: ('A' for Active; 'I' for Inactive)
REMARK       I    between atoms: N1_2  and  C2_4 
REMARK    1  A    between atoms: C2_4  and  C3_6 
REMARK    2  A    between atoms: C8_13  and  O2_14 
REMARK    3  A    between atoms: N3_16  and  C9_17 
REMARK    4  A    between atoms: C15_24  and  O3_25 
REMARK    5  A    between atoms: C18_31  and  N6_32 
REMARK    6  A    between atoms: N6_32  and  C19_34 
ROOT
HETATM    1  C3  UNL     1      32.686   4.919   8.128  1.00  0.00     0.074 C 
HETATM    2  C4  UNL     1      31.796   3.933   7.446  1.00  0.00     0.029 C 
HETATM    3  C5  UNL     1      34.133   4.802   7.656  1.00  0.00     0.167 C 
HETATM    4  N2  UNL     1      34.236   5.388   6.327  1.00  0.00    -0.373 N 
ATOM      5  H2  UNL     1      35.163   5.493   5.916  1.00  0.00     0.160 HD
HETATM    6  C6  UNL     1      33.117   5.820   5.573  1.00  0.00     0.092 A 
HETATM    7  C7  UNL     1      32.029   6.313   6.292  1.00  0.00     0.031 A 
HETATM    8  C8  UNL     1      31.068   6.667   5.407  1.00  0.00     0.158 A 
HETATM    9  N3  UNL     1      31.547   6.400   4.157  1.00  0.00    -0.268 N 
HETATM   10  C15 UNL     1      32.787   5.887   4.238  1.00  0.00     0.177 A 
HETATM   11  C16 UNL     1      32.226   6.319   7.782  1.00  0.00     0.063 C 
HETATM   12  C17 UNL     1      33.258   7.359   8.145  1.00  0.00     0.132 C 
HETATM   13  N5  UNL     1      34.439   6.850   8.762  1.00  0.00    -0.377 N 
ATOM     14  H5  UNL     1      34.950   7.469   9.392  1.00  0.00     0.160 HD
HETATM   15  C18 UNL     1      34.908   5.659   8.578  1.00  0.00     0.103 C 
ENDROOT
BRANCH  15  16
HETATM   16  N6  UNL     1      36.054   5.239   9.247  1.00  0.00    -0.328 N 
ATOM     17  H6  UNL     1      36.904   5.214   8.684  1.00  0.00     0.169 HD
BRANCH  16  18
HETATM   18  C19 UNL     1      36.207   4.849  10.579  1.00  0.00     0.139 A 
HETATM   19  C20 UNL     1      36.976   3.904  11.198  1.00  0.00     0.161 A 
HETATM   20  N7  UNL     1      36.744   3.936  12.535  1.00  0.00    -0.290 N 
HETATM   21  C21 UNL     1      37.413   3.048  13.470  1.00  0.00     0.178 C 
HETATM   22  N8  UNL     1      35.858   4.868  12.760  1.00  0.00    -0.240 N 
HETATM   23  N9  UNL     1      35.519   5.428  11.622  1.00  0.00    -0.270 N 
ATOM     24  H8  UNL     1      35.487   5.121  13.677  1.00  0.00     0.208 HD
ATOM     25  H9  UNL     1      34.842   6.185  11.524  1.00  0.00     0.190 HD
ENDBRANCH  16  18
ENDBRANCH  15  16
BRANCH   1  26
HETATM   26  C2  UNL     1      32.558   4.732   9.577  1.00  0.00     0.229 C 
HETATM   27  N1  UNL     1      31.623   5.433  10.386  1.00  0.00    -0.365 N 
HETATM   28  C1  UNL     1      31.539   5.212  11.810  1.00  0.00     0.149 C 
ATOM     29  H1  UNL     1      30.997   6.110   9.950  1.00  0.00     0.161 HD
HETATM   30  O1  UNL     1      33.307   3.909  10.161  1.00  0.00    -0.273 OA
ENDBRANCH   1  26
BRANCH  10  31
HETATM   31  O3  UNL     1      33.645   5.475   3.214  1.00  0.00    -0.344 OA
ATOM     32  H3  UNL     1      34.525   5.153   3.369  1.00  0.00     0.219 HD
ENDBRANCH  10  31
BRANCH   8  33
HETATM   33  O2  UNL     1      29.836   7.199   5.760  1.00  0.00    -0.345 OA
ATOM     34  H2  UNL     1      29.055   6.683   5.914  1.00  0.00     0.219 HD
ENDBRANCH   8  33
BRANCH   9  35
HETATM   35  C9  UNL     1      30.827   6.637   2.948  1.00  0.00     0.068 A 
HETATM   36  C10 UNL     1      30.014   5.655   2.385  1.00  0.00     0.032 A 
HETATM   37  C11 UNL     1      29.315   5.879   1.214  1.00  0.00     0.002 A 
HETATM   38  C12 UNL     1      29.417   7.099   0.581  1.00  0.00     0.002 A 
HETATM   39  C13 UNL     1      30.208   8.085   1.109  1.00  0.00     0.029 A 
HETATM   40  C14 UNL     1      30.903   7.852   2.279  1.00  0.00     0.073 A 
HETATM   41  N4  UNL     1      31.717   8.899   2.800  1.00  0.00    -0.100 NA
ENDBRANCH   9  35
TORSDOF 6
ENDMDL
