MODEL 1
REMARK VINA RESULT: -8.526256406      0.000      0.000
REMARK  5 active torsions:
REMARK  status: ('A' for Active; 'I' for Inactive)
REMARK    1  A    between atoms: C2_2  and  O1_4 
REMARK    2  A    between atoms: O1_4  and  C4_5 
REMARK    3  A    between atoms: C11_12  and  C12_13 
REMARK       I    between atoms: C12_13  and  N1_15 
REMARK    4  A    between atoms: N1_15  and  C13_17 
REMARK    5  A    between atoms: C13_17  and  C14_18 
ROOT
HETATM    1  C4  UNL     1      21.371  -2.214  11.275  1.00  0.00     0.161 C 
HETATM    2  C5  UNL     1      22.434  -3.297  11.479  1.00  0.00     0.112 C 
HETATM    3  C6  UNL     1      23.220  -3.225  12.725  1.00  0.00     0.028 C 
HETATM    4  C7  UNL     1      22.592  -2.603  13.915  1.00  0.00     0.007 C 
HETATM    5  C8  UNL     1      21.286  -1.901  13.697  1.00  0.00    -0.006 C 
HETATM    6  C9  UNL     1      20.457  -1.963  14.971  1.00  0.00     0.011 C 
HETATM    7  C10 UNL     1      20.501  -2.511  12.538  1.00  0.00     0.076 C 
HETATM    8  C11 UNL     1      20.616  -3.954  12.655  1.00  0.00     0.081 C 
HETATM    9  N2  UNL     1      21.537  -4.500  11.659  1.00  0.00    -0.381 N 
ATOM     10  H2  UNL     1      21.566  -5.419  11.216  1.00  0.00     0.160 HD
ENDROOT
BRANCH   8  11
HETATM   11  C12 UNL     1      19.417  -4.750  12.842  1.00  0.00     0.264 C 
HETATM   12  O2  UNL     1      18.824  -4.819  13.957  1.00  0.00    -0.266 OA
HETATM   13  N1  UNL     1      18.891  -5.499  11.699  1.00  0.00    -0.356 N 
ATOM     14  H1  UNL     1      19.324  -5.500  10.776  1.00  0.00     0.162 HD
BRANCH  13  15
HETATM   15  C13 UNL     1      17.692  -6.235  12.024  1.00  0.00     0.127 C 
BRANCH  15  16
HETATM   16  C14 UNL     1      17.212  -7.210  11.011  1.00  0.00     0.003 C 
HETATM   17  C15 UNL     1      17.617  -8.584  11.488  1.00  0.00     0.006 C 
HETATM   18  C16 UNL     1      17.155  -9.663  10.548  1.00  0.00     0.000 C 
HETATM   19  C17 UNL     1      15.661  -9.570  10.311  1.00  0.00     0.000 C 
HETATM   20  C18 UNL     1      15.065  -8.360  10.965  1.00  0.00     0.000 C 
HETATM   21  C19 UNL     1      15.831  -7.136  10.511  1.00  0.00     0.006 C 
ENDBRANCH  15  16
ENDBRANCH  13  15
ENDBRANCH   8  11
BRANCH   1  22
HETATM   22  O1  UNL     1      21.720  -0.996  11.064  1.00  0.00    -0.349 OA
BRANCH  22  23
HETATM   23  C2  UNL     1      21.839   0.275  10.862  1.00  0.00     0.034 C 
HETATM   24  C1  UNL     1      21.741   0.945   9.727  1.00  0.00     0.045 C 
HETATM   25  C3  UNL     1      22.125   1.263  12.034  1.00  0.00     0.075 C 
ENDBRANCH  22  23
ENDBRANCH   1  22
TORSDOF 5
ENDMDL
MODEL 2
REMARK VINA RESULT: -8.512896443      2.017      3.095
REMARK  5 active torsions:
REMARK  status: ('A' for Active; 'I' for Inactive)
REMARK    1  A    between atoms: C2_2  and  O1_4 
REMARK    2  A    between atoms: O1_4  and  C4_5 
REMARK    3  A    between atoms: C11_12  and  C12_13 
REMARK       I    between atoms: C12_13  and  N1_15 
REMARK    4  A    between atoms: N1_15  and  C13_17 
REMARK    5  A    between atoms: C13_17  and  C14_18 
ROOT
HETATM    1  C4  UNL     1      22.922  -1.030  12.498  1.00  0.00     0.161 C 
HETATM    2  C5  UNL     1      21.629  -0.268  12.799  1.00  0.00     0.112 C 
HETATM    3  C6  UNL     1      20.957   0.374  11.654  1.00  0.00     0.028 C 
HETATM    4  C7  UNL     1      21.141  -0.222  10.310  1.00  0.00     0.007 C 
HETATM    5  C8  UNL     1      22.171  -1.304  10.189  1.00  0.00    -0.006 C 
HETATM    6  C9  UNL     1      21.776  -2.259   9.071  1.00  0.00     0.011 C 
HETATM    7  C10 UNL     1      22.339  -2.076  11.495  1.00  0.00     0.076 C 
HETATM    8  C11 UNL     1      21.009  -2.304  12.032  1.00  0.00     0.081 C 
HETATM    9  N2  UNL     1      20.734  -1.428  13.170  1.00  0.00    -0.381 N 
ATOM     10  H2  UNL     1      20.122  -1.560  13.975  1.00  0.00     0.160 HD
ENDROOT
BRANCH   8  11
HETATM   11  C12 UNL     1      20.539  -3.665  12.214  1.00  0.00     0.264 C 
HETATM   12  O2  UNL     1      21.284  -4.667  12.005  1.00  0.00    -0.266 OA
HETATM   13  N1  UNL     1      19.156  -3.874  12.646  1.00  0.00    -0.356 N 
ATOM     14  H1  UNL     1      18.497  -3.116  12.820  1.00  0.00     0.162 HD
BRANCH  13  15
HETATM   15  C13 UNL     1      18.829  -5.272  12.798  1.00  0.00     0.127 C 
BRANCH  15  16
HETATM   16  C14 UNL     1      17.995  -5.882  11.731  1.00  0.00     0.003 C 
HETATM   17  C15 UNL     1      17.988  -7.373  11.966  1.00  0.00     0.006 C 
HETATM   18  C16 UNL     1      17.144  -8.098  10.955  1.00  0.00     0.000 C 
HETATM   19  C17 UNL     1      15.740  -7.531  10.918  1.00  0.00     0.000 C 
HETATM   20  C18 UNL     1      15.600  -6.324  11.796  1.00  0.00     0.000 C 
HETATM   21  C19 UNL     1      16.671  -5.323  11.418  1.00  0.00     0.006 C 
ENDBRANCH  15  16
ENDBRANCH  13  15
ENDBRANCH   8  11
BRANCH   1  22
HETATM   22  O1  UNL     1      23.981  -0.393  12.146  1.00  0.00    -0.349 OA
BRANCH  22  23
HETATM   23  C2  UNL     1      24.895   0.409  11.708  1.00  0.00     0.034 C 
HETATM   24  C1  UNL     1      25.934   0.911  12.352  1.00  0.00     0.045 C 
HETATM   25  C3  UNL     1      24.892   0.921  10.235  1.00  0.00     0.075 C 
ENDBRANCH  22  23
ENDBRANCH   1  22
TORSDOF 5
ENDMDL
MODEL 3
REMARK VINA RESULT: -8.491509698      2.138      2.747
REMARK  5 active torsions:
REMARK  status: ('A' for Active; 'I' for Inactive)
REMARK    1  A    between atoms: C2_2  and  O1_4 
REMARK    2  A    between atoms: O1_4  and  C4_5 
REMARK    3  A    between atoms: C11_12  and  C12_13 
REMARK       I    between atoms: C12_13  and  N1_15 
REMARK    4  A    between atoms: N1_15  and  C13_17 
REMARK    5  A    between atoms: C13_17  and  C14_18 
ROOT
HETATM    1  C4  UNL     1      22.142  -3.310  11.509  1.00  0.00     0.161 C 
HETATM    2  C5  UNL     1      22.346  -3.804  10.075  1.00  0.00     0.112 C 
HETATM    3  C6  UNL     1      23.572  -4.580   9.811  1.00  0.00     0.028 C 
HETATM    4  C7  UNL     1      24.166  -5.353  10.927  1.00  0.00     0.007 C 
HETATM    5  C8  UNL     1      23.594  -5.112  12.291  1.00  0.00    -0.006 C 
HETATM    6  C9  UNL     1      23.738  -6.373  13.132  1.00  0.00     0.011 C 
HETATM    7  C10 UNL     1      22.127  -4.698  12.226  1.00  0.00     0.076 C 
HETATM    8  C11 UNL     1      21.485  -5.544  11.236  1.00  0.00     0.081 C 
HETATM    9  N2  UNL     1      21.225  -4.815   9.995  1.00  0.00    -0.381 N 
ATOM     10  H2  UNL     1      20.504  -4.949   9.288  1.00  0.00     0.160 HD
ENDROOT
BRANCH   8  11
HETATM   11  C12 UNL     1      20.397  -6.415  11.643  1.00  0.00     0.264 C 
HETATM   12  O2  UNL     1      20.596  -7.604  12.028  1.00  0.00    -0.266 OA
HETATM   13  N1  UNL     1      19.030  -5.893  11.593  1.00  0.00    -0.356 N 
ATOM     14  H1  UNL     1      18.795  -4.951  11.281  1.00  0.00     0.162 HD
BRANCH  13  15
HETATM   15  C13 UNL     1      18.052  -6.859  12.035  1.00  0.00     0.127 C 
BRANCH  15  16
HETATM   16  C14 UNL     1      17.284  -7.562  10.977  1.00  0.00     0.003 C 
HETATM   17  C15 UNL     1      17.499  -9.043  11.177  1.00  0.00     0.006 C 
HETATM   18  C16 UNL     1      16.738  -9.863  10.172  1.00  0.00     0.000 C 
HETATM   19  C17 UNL     1      15.267  -9.505  10.186  1.00  0.00     0.000 C 
HETATM   20  C18 UNL     1      14.981  -8.348  11.096  1.00  0.00     0.000 C 
HETATM   21  C19 UNL     1      15.884  -7.195  10.713  1.00  0.00     0.006 C 
ENDBRANCH  15  16
ENDBRANCH  13  15
ENDBRANCH   8  11
BRANCH   1  22
HETATM   22  O1  UNL     1      22.905  -2.397  11.994  1.00  0.00    -0.349 OA
BRANCH  22  23
HETATM   23  C2  UNL     1      23.841  -1.579  12.347  1.00  0.00     0.034 C 
HETATM   24  C1  UNL     1      23.868  -0.744  13.372  1.00  0.00     0.045 C 
HETATM   25  C3  UNL     1      25.175  -1.472  11.547  1.00  0.00     0.075 C 
ENDBRANCH  22  23
ENDBRANCH   1  22
TORSDOF 5
ENDMDL
MODEL 4
REMARK VINA RESULT: -8.415443142      1.768      2.409
REMARK  5 active torsions:
REMARK  status: ('A' for Active; 'I' for Inactive)
REMARK    1  A    between atoms: C2_2  and  O1_4 
REMARK    2  A    between atoms: O1_4  and  C4_5 
REMARK    3  A    between atoms: C11_12  and  C12_13 
REMARK       I    between atoms: C12_13  and  N1_15 
REMARK    4  A    between atoms: N1_15  and  C13_17 
REMARK    5  A    between atoms: C13_17  and  C14_18 
ROOT
HETATM    1  C4  UNL     1      21.771  -2.414  10.395  1.00  0.00     0.161 C 
HETATM    2  C5  UNL     1      22.896  -2.988   9.531  1.00  0.00     0.112 C 
HETATM    3  C6  UNL     1      24.258  -2.932  10.095  1.00  0.00     0.028 C 
HETATM    4  C7  UNL     1      24.406  -2.950  11.570  1.00  0.00     0.007 C 
HETATM    5  C8  UNL     1      23.150  -2.806  12.374  1.00  0.00    -0.006 C 
HETATM    6  C9  UNL     1      23.312  -3.527  13.704  1.00  0.00     0.011 C 
HETATM    7  C10 UNL     1      21.935  -3.355  11.632  1.00  0.00     0.076 C 
HETATM    8  C11 UNL     1      22.340  -4.604  11.012  1.00  0.00     0.081 C 
HETATM    9  N2  UNL     1      22.523  -4.452   9.569  1.00  0.00    -0.381 N 
ATOM     10  H2  UNL     1      22.427  -5.130   8.814  1.00  0.00     0.160 HD
ENDROOT
BRANCH   8  11
HETATM   11  C12 UNL     1      21.670  -5.836  11.390  1.00  0.00     0.264 C 
HETATM   12  O2  UNL     1      22.310  -6.896  11.649  1.00  0.00    -0.266 OA
HETATM   13  N1  UNL     1      20.208  -5.841  11.462  1.00  0.00    -0.356 N 
ATOM     14  H1  UNL     1      19.628  -5.028  11.254  1.00  0.00     0.162 HD
BRANCH  13  15
HETATM   15  C13 UNL     1      19.678  -7.124  11.860  1.00  0.00     0.127 C 
BRANCH  15  16
HETATM   16  C14 UNL     1      18.204  -7.217  12.020  1.00  0.00     0.003 C 
HETATM   17  C15 UNL     1      17.624  -5.891  11.589  1.00  0.00     0.006 C 
HETATM   18  C16 UNL     1      16.123  -5.879  11.681  1.00  0.00     0.000 C 
HETATM   19  C17 UNL     1      15.525  -7.031  10.901  1.00  0.00     0.000 C 
HETATM   20  C18 UNL     1      16.580  -7.947  10.357  1.00  0.00     0.000 C 
HETATM   21  C19 UNL     1      17.477  -8.383  11.496  1.00  0.00     0.006 C 
ENDBRANCH  15  16
ENDBRANCH  13  15
ENDBRANCH   8  11
BRANCH   1  22
HETATM   22  O1  UNL     1      21.702  -1.150  10.613  1.00  0.00    -0.349 OA
BRANCH  22  23
HETATM   23  C2  UNL     1      21.774   0.140  10.644  1.00  0.00     0.034 C 
HETATM   24  C1  UNL     1      21.679   0.998   9.643  1.00  0.00     0.045 C 
HETATM   25  C3  UNL     1      21.991   0.913  11.980  1.00  0.00     0.075 C 
ENDBRANCH  22  23
ENDBRANCH   1  22
TORSDOF 5
ENDMDL
MODEL 5
REMARK VINA RESULT: -8.392302889      3.022      3.958
REMARK  5 active torsions:
REMARK  status: ('A' for Active; 'I' for Inactive)
REMARK    1  A    between atoms: C2_2  and  O1_4 
REMARK    2  A    between atoms: O1_4  and  C4_5 
REMARK    3  A    between atoms: C11_12  and  C12_13 
REMARK       I    between atoms: C12_13  and  N1_15 
REMARK    4  A    between atoms: N1_15  and  C13_17 
REMARK    5  A    between atoms: C13_17  and  C14_18 
ROOT
HETATM    1  C4  UNL     1      23.336  -1.814  10.624  1.00  0.00     0.161 C 
HETATM    2  C5  UNL     1      24.852  -1.684  10.457  1.00  0.00     0.112 C 
HETATM    3  C6  UNL     1      25.585  -1.032  11.557  1.00  0.00     0.028 C 
HETATM    4  C7  UNL     1      25.019  -1.119  12.925  1.00  0.00     0.007 C 
HETATM    5  C8  UNL     1      23.635  -1.680  13.045  1.00  0.00    -0.006 C 
HETATM    6  C9  UNL     1      23.478  -2.358  14.399  1.00  0.00     0.011 C 
HETATM    7  C10 UNL     1      23.326  -2.674  11.929  1.00  0.00     0.076 C 
HETATM    8  C11 UNL     1      24.505  -3.503  11.755  1.00  0.00     0.081 C 
HETATM    9  N2  UNL     1      25.242  -3.142  10.545  1.00  0.00    -0.381 N 
ATOM     10  H2  UNL     1      25.839  -3.705   9.940  1.00  0.00     0.160 HD
ENDROOT
BRANCH   8  11
HETATM   11  C12 UNL     1      24.405  -4.935  11.974  1.00  0.00     0.264 C 
HETATM   12  O2  UNL     1      25.264  -5.746  11.518  1.00  0.00    -0.266 OA
HETATM   13  N1  UNL     1      23.268  -5.446  12.741  1.00  0.00    -0.356 N 
ATOM     14  H1  UNL     1      22.533  -4.854  13.126  1.00  0.00     0.162 HD
BRANCH  13  15
HETATM   15  C13 UNL     1      23.302  -6.882  12.891  1.00  0.00     0.127 C 
BRANCH  15  16
HETATM   16  C14 UNL     1      22.288  -7.657  12.132  1.00  0.00     0.003 C 
HETATM   17  C15 UNL     1      22.035  -8.933  12.897  1.00  0.00     0.006 C 
HETATM   18  C16 UNL     1      20.994  -9.790  12.231  1.00  0.00     0.000 C 
HETATM   19  C17 UNL     1      19.715  -9.010  12.006  1.00  0.00     0.000 C 
HETATM   20  C18 UNL     1      19.866  -7.567  12.382  1.00  0.00     0.000 C 
HETATM   21  C19 UNL     1      21.064  -6.998  11.651  1.00  0.00     0.006 C 
ENDBRANCH  15  16
ENDBRANCH  13  15
ENDBRANCH   8  11
BRANCH   1  22
HETATM   22  O1  UNL     1      22.589  -0.770  10.593  1.00  0.00    -0.349 OA
BRANCH  22  23
HETATM   23  C2  UNL     1      22.040   0.400  10.597  1.00  0.00     0.034 C 
HETATM   24  C1  UNL     1      21.500   1.065   9.590  1.00  0.00     0.045 C 
HETATM   25  C3  UNL     1      21.926   1.242  11.905  1.00  0.00     0.075 C 
ENDBRANCH  22  23
ENDBRANCH   1  22
TORSDOF 5
ENDMDL
