MODEL 1
REMARK VINA RESULT: -7.678759280      0.000      0.000
REMARK  7 active torsions:
REMARK  status: ('A' for Active; 'I' for Inactive)
REMARK    1  A    between atoms: C2_2  and  C3_3 
REMARK    2  A    between atoms: C3_3  and  C4_4 
REMARK    3  A    between atoms: C4_4  and  O1_5 
REMARK    4  A    between atoms: O1_5  and  C5_6 
REMARK       I    between atoms: C5_6  and  N1_8 
REMARK    5  A    between atoms: C8_11  and  C9_12 
REMARK    6  A    between atoms: C9_12  and  N2_13 
REMARK       I    between atoms: N2_13  and  C10_15 
REMARK       I    between atoms: C10_15  and  N3_17 
REMARK    7  A    between atoms: N3_17  and  C11_19 
ROOT
HETATM    1  C5  UNL     1      17.006  -5.899  11.538  1.00  0.00     0.362 C 
HETATM    2  O2  UNL     1      16.479  -4.795  11.265  1.00  0.00    -0.238 OA
HETATM    3  N1  UNL     1      18.381  -5.957  11.883  1.00  0.00    -0.328 N 
HETATM    4  C6  UNL     1      19.000  -7.219  12.200  1.00  0.00     0.128 C 
HETATM    5  C7  UNL     1      20.474  -7.159  12.391  1.00  0.00     0.026 C 
HETATM    6  C8  UNL     1      21.202  -6.148  11.564  1.00  0.00     0.006 C 
HETATM    7  C15 UNL     1      20.367  -5.047  11.021  1.00  0.00     0.026 C 
HETATM    8  C16 UNL     1      19.181  -4.744  11.919  1.00  0.00     0.128 C 
ENDROOT
BRANCH   6   9
HETATM    9  C9  UNL     1      22.386  -5.668  12.386  1.00  0.00     0.129 C 
BRANCH   9  10
HETATM   10  N2  UNL     1      22.832  -4.370  12.052  1.00  0.00    -0.343 N 
HETATM   11  C10 UNL     1      22.704  -3.327  12.993  1.00  0.00     0.316 C 
HETATM   12  O3  UNL     1      22.192  -3.527  14.145  1.00  0.00    -0.247 OA
HETATM   13  N3  UNL     1      23.133  -1.997  12.724  1.00  0.00    -0.335 N 
ATOM     14  H3  UNL     1      23.546  -1.804  11.812  1.00  0.00     0.165 HD
ATOM     15  H2  UNL     1      23.245  -4.189  11.137  1.00  0.00     0.164 HD
BRANCH  13  16
HETATM   16  C11 UNL     1      23.018  -0.918  13.651  1.00  0.00     0.023 C 
HETATM   17  C12 UNL     1      21.577  -0.829  14.137  1.00  0.00     0.037 C 
HETATM   18  C13 UNL     1      23.333   0.426  13.030  1.00  0.00     0.037 C 
HETATM   19  C14 UNL     1      23.967  -1.118  14.794  1.00  0.00     0.037 C 
ENDBRANCH  13  16
ENDBRANCH   9  10
ENDBRANCH   6   9
BRANCH   1  20
HETATM   20  O1  UNL     1      16.210  -7.027  11.491  1.00  0.00    -0.304 OA
BRANCH  20  21
HETATM   21  C4  UNL     1      15.527  -7.502  10.375  1.00  0.00     0.180 C 
BRANCH  21  22
HETATM   22  C3  UNL     1      15.157  -8.960  10.447  1.00  0.00     0.026 C 
BRANCH  22  23
HETATM   23  C2  UNL     1      16.328  -9.742   9.844  1.00  0.00    -0.002 C 
HETATM   24  C1  UNL     1      17.314 -10.134  10.936  1.00  0.00     0.005 C 
ENDBRANCH  22  23
ENDBRANCH  21  22
ENDBRANCH  20  21
ENDBRANCH   1  20
TORSDOF 7
ENDMDL
MODEL 2
REMARK VINA RESULT: -7.659979036      0.335      1.018
REMARK  7 active torsions:
REMARK  status: ('A' for Active; 'I' for Inactive)
REMARK    1  A    between atoms: C2_2  and  C3_3 
REMARK    2  A    between atoms: C3_3  and  C4_4 
REMARK    3  A    between atoms: C4_4  and  O1_5 
REMARK    4  A    between atoms: O1_5  and  C5_6 
REMARK       I    between atoms: C5_6  and  N1_8 
REMARK    5  A    between atoms: C8_11  and  C9_12 
REMARK    6  A    between atoms: C9_12  and  N2_13 
REMARK       I    between atoms: N2_13  and  C10_15 
REMARK       I    between atoms: C10_15  and  N3_17 
REMARK    7  A    between atoms: N3_17  and  C11_19 
ROOT
HETATM    1  C5  UNL     1      16.978  -5.891  11.549  1.00  0.00     0.362 C 
HETATM    2  O2  UNL     1      16.466  -4.777  11.290  1.00  0.00    -0.238 OA
HETATM    3  N1  UNL     1      18.350  -5.971  11.903  1.00  0.00    -0.328 N 
HETATM    4  C6  UNL     1      18.952  -7.245  12.204  1.00  0.00     0.128 C 
HETATM    5  C7  UNL     1      20.425  -7.206  12.405  1.00  0.00     0.026 C 
HETATM    6  C8  UNL     1      21.170  -6.190  11.600  1.00  0.00     0.006 C 
HETATM    7  C15 UNL     1      20.353  -5.071  11.069  1.00  0.00     0.026 C 
HETATM    8  C16 UNL     1      19.163  -4.768  11.964  1.00  0.00     0.128 C 
ENDROOT
BRANCH   6   9
HETATM    9  C9  UNL     1      22.354  -5.737  12.438  1.00  0.00     0.129 C 
BRANCH   9  10
HETATM   10  N2  UNL     1      22.924  -4.515  12.018  1.00  0.00    -0.343 N 
HETATM   11  C10 UNL     1      22.906  -3.404  12.888  1.00  0.00     0.316 C 
HETATM   12  O3  UNL     1      22.384  -3.476  14.051  1.00  0.00    -0.247 OA
HETATM   13  N3  UNL     1      23.462  -2.144  12.531  1.00  0.00    -0.335 N 
ATOM     14  H3  UNL     1      23.887  -2.053  11.608  1.00  0.00     0.165 HD
ATOM     15  H2  UNL     1      23.347  -4.437  11.093  1.00  0.00     0.164 HD
BRANCH  13  16
HETATM   16  C11 UNL     1      23.461  -1.000  13.385  1.00  0.00     0.023 C 
HETATM   17  C12 UNL     1      24.337   0.083  12.767  1.00  0.00     0.037 C 
HETATM   18  C13 UNL     1      24.051  -1.286  14.749  1.00  0.00     0.037 C 
HETATM   19  C14 UNL     1      22.059  -0.514  13.593  1.00  0.00     0.037 C 
ENDBRANCH  13  16
ENDBRANCH   9  10
ENDBRANCH   6   9
BRANCH   1  20
HETATM   20  O1  UNL     1      16.169  -7.009  11.479  1.00  0.00    -0.304 OA
BRANCH  20  21
HETATM   21  C4  UNL     1      15.540  -7.494  10.336  1.00  0.00     0.180 C 
BRANCH  21  22
HETATM   22  C3  UNL     1      15.154  -8.948  10.408  1.00  0.00     0.026 C 
BRANCH  22  23
HETATM   23  C2  UNL     1      16.329  -9.745   9.835  1.00  0.00    -0.002 C 
HETATM   24  C1  UNL     1      17.295 -10.128  10.946  1.00  0.00     0.005 C 
ENDBRANCH  22  23
ENDBRANCH  21  22
ENDBRANCH  20  21
ENDBRANCH   1  20
TORSDOF 7
ENDMDL
MODEL 3
REMARK VINA RESULT: -7.515041631      1.354      1.777
REMARK  7 active torsions:
REMARK  status: ('A' for Active; 'I' for Inactive)
REMARK    1  A    between atoms: C2_2  and  C3_3 
REMARK    2  A    between atoms: C3_3  and  C4_4 
REMARK    3  A    between atoms: C4_4  and  O1_5 
REMARK    4  A    between atoms: O1_5  and  C5_6 
REMARK       I    between atoms: C5_6  and  N1_8 
REMARK    5  A    between atoms: C8_11  and  C9_12 
REMARK    6  A    between atoms: C9_12  and  N2_13 
REMARK       I    between atoms: N2_13  and  C10_15 
REMARK       I    between atoms: C10_15  and  N3_17 
REMARK    7  A    between atoms: N3_17  and  C11_19 
ROOT
HETATM    1  C5  UNL     1      16.795  -5.914  11.488  1.00  0.00     0.362 C 
HETATM    2  O2  UNL     1      16.340  -4.774  11.235  1.00  0.00    -0.238 OA
HETATM    3  N1  UNL     1      18.159  -6.065  11.847  1.00  0.00    -0.328 N 
HETATM    4  C6  UNL     1      18.696  -7.371  12.141  1.00  0.00     0.128 C 
HETATM    5  C7  UNL     1      20.168  -7.406  12.349  1.00  0.00     0.026 C 
HETATM    6  C8  UNL     1      20.967  -6.423  11.554  1.00  0.00     0.006 C 
HETATM    7  C15 UNL     1      20.209  -5.261  11.028  1.00  0.00     0.026 C 
HETATM    8  C16 UNL     1      19.032  -4.906  11.920  1.00  0.00     0.128 C 
ENDROOT
BRANCH   6   9
HETATM    9  C9  UNL     1      22.168  -6.037  12.400  1.00  0.00     0.129 C 
BRANCH   9  10
HETATM   10  N2  UNL     1      22.236  -4.661  12.710  1.00  0.00    -0.343 N 
HETATM   11  C10 UNL     1      21.761  -4.204  13.958  1.00  0.00     0.316 C 
HETATM   12  O3  UNL     1      21.269  -5.008  14.819  1.00  0.00    -0.247 OA
HETATM   13  N3  UNL     1      21.800  -2.833  14.336  1.00  0.00    -0.335 N 
ATOM     14  H3  UNL     1      22.188  -2.164  13.671  1.00  0.00     0.165 HD
ATOM     15  H2  UNL     1      22.627  -4.002  12.037  1.00  0.00     0.164 HD
BRANCH  13  16
HETATM   16  C11 UNL     1      21.329  -2.336  15.589  1.00  0.00     0.023 C 
HETATM   17  C12 UNL     1      22.080  -3.035  16.715  1.00  0.00     0.037 C 
HETATM   18  C13 UNL     1      19.862  -2.628  15.822  1.00  0.00     0.037 C 
HETATM   19  C14 UNL     1      21.508  -0.850  15.654  1.00  0.00     0.037 C 
ENDBRANCH  13  16
ENDBRANCH   9  10
ENDBRANCH   6   9
BRANCH   1  20
HETATM   20  O1  UNL     1      15.932  -6.990  11.406  1.00  0.00    -0.304 OA
BRANCH  20  21
HETATM   21  C4  UNL     1      15.482  -7.592  10.234  1.00  0.00     0.180 C 
BRANCH  21  22
HETATM   22  C3  UNL     1      15.175  -9.060  10.368  1.00  0.00     0.026 C 
BRANCH  22  23
HETATM   23  C2  UNL     1      16.388  -9.816   9.819  1.00  0.00    -0.002 C 
HETATM   24  C1  UNL     1      17.340 -10.172  10.952  1.00  0.00     0.005 C 
ENDBRANCH  22  23
ENDBRANCH  21  22
ENDBRANCH  20  21
ENDBRANCH   1  20
TORSDOF 7
ENDMDL
MODEL 4
REMARK VINA RESULT: -7.426309312      2.079      2.675
REMARK  7 active torsions:
REMARK  status: ('A' for Active; 'I' for Inactive)
REMARK    1  A    between atoms: C2_2  and  C3_3 
REMARK    2  A    between atoms: C3_3  and  C4_4 
REMARK    3  A    between atoms: C4_4  and  O1_5 
REMARK    4  A    between atoms: O1_5  and  C5_6 
REMARK       I    between atoms: C5_6  and  N1_8 
REMARK    5  A    between atoms: C8_11  and  C9_12 
REMARK    6  A    between atoms: C9_12  and  N2_13 
REMARK       I    between atoms: N2_13  and  C10_15 
REMARK       I    between atoms: C10_15  and  N3_17 
REMARK    7  A    between atoms: N3_17  and  C11_19 
ROOT
HETATM    1  C5  UNL     1      19.567  -6.062  11.855  1.00  0.00     0.362 C 
HETATM    2  O2  UNL     1      18.590  -5.319  11.600  1.00  0.00    -0.238 OA
HETATM    3  N1  UNL     1      20.881  -5.633  11.538  1.00  0.00    -0.328 N 
HETATM    4  C6  UNL     1      22.013  -6.478  11.826  1.00  0.00     0.128 C 
HETATM    5  C7  UNL     1      23.312  -5.977  11.303  1.00  0.00     0.026 C 
HETATM    6  C8  UNL     1      23.252  -5.206  10.023  1.00  0.00     0.006 C 
HETATM    7  C15 UNL     1      21.921  -4.647   9.677  1.00  0.00     0.026 C 
HETATM    8  C16 UNL     1      21.101  -4.338  10.917  1.00  0.00     0.128 C 
ENDROOT
BRANCH   6   9
HETATM    9  C9  UNL     1      24.357  -4.166  10.075  1.00  0.00     0.129 C 
BRANCH   9  10
HETATM   10  N2  UNL     1      24.529  -3.570  11.344  1.00  0.00    -0.343 N 
HETATM   11  C10 UNL     1      24.298  -2.187  11.500  1.00  0.00     0.316 C 
HETATM   12  O3  UNL     1      23.935  -1.457  10.517  1.00  0.00    -0.247 OA
HETATM   13  N3  UNL     1      24.452  -1.522  12.748  1.00  0.00    -0.335 N 
ATOM     14  H3  UNL     1      24.741  -2.076  13.553  1.00  0.00     0.165 HD
ATOM     15  H2  UNL     1      24.818  -4.136  12.142  1.00  0.00     0.164 HD
BRANCH  13  16
HETATM   16  C11 UNL     1      24.226  -0.125  12.941  1.00  0.00     0.023 C 
HETATM   17  C12 UNL     1      24.141   0.163  14.435  1.00  0.00     0.037 C 
HETATM   18  C13 UNL     1      22.915   0.345  12.350  1.00  0.00     0.037 C 
HETATM   19  C14 UNL     1      25.321   0.668  12.295  1.00  0.00     0.037 C 
ENDBRANCH  13  16
ENDBRANCH   9  10
ENDBRANCH   6   9
BRANCH   1  20
HETATM   20  O1  UNL     1      19.314  -7.286  12.444  1.00  0.00    -0.304 OA
BRANCH  20  21
HETATM   21  C4  UNL     1      18.917  -8.447  11.785  1.00  0.00     0.180 C 
BRANCH  21  22
HETATM   22  C3  UNL     1      17.482  -8.443  11.329  1.00  0.00     0.026 C 
BRANCH  22  23
HETATM   23  C2  UNL     1      17.166  -9.866  10.860  1.00  0.00    -0.002 C 
HETATM   24  C1  UNL     1      15.868  -9.879  10.065  1.00  0.00     0.005 C 
ENDBRANCH  22  23
ENDBRANCH  21  22
ENDBRANCH  20  21
ENDBRANCH   1  20
TORSDOF 7
ENDMDL
MODEL 5
REMARK VINA RESULT: -7.385123194      2.170      3.080
REMARK  7 active torsions:
REMARK  status: ('A' for Active; 'I' for Inactive)
REMARK    1  A    between atoms: C2_2  and  C3_3 
REMARK    2  A    between atoms: C3_3  and  C4_4 
REMARK    3  A    between atoms: C4_4  and  O1_5 
REMARK    4  A    between atoms: O1_5  and  C5_6 
REMARK       I    between atoms: C5_6  and  N1_8 
REMARK    5  A    between atoms: C8_11  and  C9_12 
REMARK    6  A    between atoms: C9_12  and  N2_13 
REMARK       I    between atoms: N2_13  and  C10_15 
REMARK       I    between atoms: C10_15  and  N3_17 
REMARK    7  A    between atoms: N3_17  and  C11_19 
ROOT
HETATM    1  C5  UNL     1      19.344  -8.289  12.004  1.00  0.00     0.362 C 
HETATM    2  O2  UNL     1      20.258  -9.147  12.012  1.00  0.00    -0.238 OA
HETATM    3  N1  UNL     1      19.619  -6.962  12.423  1.00  0.00    -0.328 N 
HETATM    4  C6  UNL     1      18.577  -5.966  12.419  1.00  0.00     0.128 C 
HETATM    5  C7  UNL     1      18.960  -4.664  13.027  1.00  0.00     0.026 C 
HETATM    6  C8  UNL     1      19.938  -4.728  14.156  1.00  0.00     0.006 C 
HETATM    7  C15 UNL     1      20.742  -5.974  14.234  1.00  0.00     0.026 C 
HETATM    8  C16 UNL     1      20.954  -6.593  12.863  1.00  0.00     0.128 C 
ENDROOT
BRANCH   6   9
HETATM    9  C9  UNL     1      20.776  -3.463  14.093  1.00  0.00     0.129 C 
BRANCH   9  10
HETATM   10  N2  UNL     1      20.467  -2.619  13.004  1.00  0.00    -0.343 N 
HETATM   11  C10 UNL     1      21.395  -1.636  12.599  1.00  0.00     0.316 C 
HETATM   12  O3  UNL     1      22.514  -1.491  13.196  1.00  0.00    -0.247 OA
HETATM   13  N3  UNL     1      21.149  -0.754  11.511  1.00  0.00    -0.335 N 
ATOM     14  H3  UNL     1      20.264  -0.844  11.013  1.00  0.00     0.165 HD
ATOM     15  H2  UNL     1      19.578  -2.720  12.513  1.00  0.00     0.164 HD
BRANCH  13  16
HETATM   16  C11 UNL     1      22.064   0.251  11.075  1.00  0.00     0.023 C 
HETATM   17  C12 UNL     1      21.523   0.902   9.809  1.00  0.00     0.037 C 
HETATM   18  C13 UNL     1      23.421  -0.312  10.707  1.00  0.00     0.037 C 
HETATM   19  C14 UNL     1      22.276   1.262  12.160  1.00  0.00     0.037 C 
ENDBRANCH  13  16
ENDBRANCH   9  10
ENDBRANCH   6   9
BRANCH   1  20
HETATM   20  O1  UNL     1      18.089  -8.682  11.579  1.00  0.00    -0.304 OA
BRANCH  20  21
HETATM   21  C4  UNL     1      17.756  -9.925  11.048  1.00  0.00     0.180 C 
BRANCH  21  22
HETATM   22  C3  UNL     1      16.537  -9.917  10.163  1.00  0.00     0.026 C 
BRANCH  22  23
HETATM   23  C2  UNL     1      16.001  -8.482  10.166  1.00  0.00    -0.002 C 
HETATM   24  C1  UNL     1      14.719  -8.404  10.982  1.00  0.00     0.005 C 
ENDBRANCH  22  23
ENDBRANCH  21  22
ENDBRANCH  20  21
ENDBRANCH   1  20
TORSDOF 7
ENDMDL
