MODEL 1
REMARK VINA RESULT: -6.696997239      0.000      0.000
REMARK  9 active torsions:
REMARK  status: ('A' for Active; 'I' for Inactive)
REMARK    1  A    between atoms: N1_1  and  C1_5 
REMARK    2  A    between atoms: C1_5  and  N2_6 
REMARK    3  A    between atoms: C1_5  and  C2_10 
REMARK    4  A    between atoms: C2_10  and  C3_11 
REMARK    5  A    between atoms: C3_11  and  C4_12 
REMARK    6  A    between atoms: C4_12  and  C5_13 
REMARK    7  A    between atoms: C5_13  and  C6_14 
REMARK    8  A    between atoms: C6_14  and  N3_15 
REMARK    9  A    between atoms: C8_17  and  O1_18 
ROOT
HETATM    1  N3  UNL     1      24.776 -10.940  16.649  1.00  0.00    -0.363 N 
HETATM    2  C7  UNL     1      24.029 -10.098  17.380  1.00  0.00     0.127 A 
HETATM    3  C8  UNL     1      22.814  -9.633  16.923  1.00  0.00     0.088 A 
HETATM    4  C9  UNL     1      22.337 -10.035  15.681  1.00  0.00    -0.007 A 
HETATM    5  C10 UNL     1      23.098 -10.889  14.941  1.00  0.00     0.001 A 
HETATM    6  C11 UNL     1      24.304 -11.321  15.450  1.00  0.00     0.103 A 
HETATM    7  C12 UNL     1      22.393 -11.166  13.682  1.00  0.00    -0.001 A 
HETATM    8  C13 UNL     1      22.429 -11.851  12.473  1.00  0.00     0.100 A 
HETATM    9  N4  UNL     1      21.309 -11.577  11.773  1.00  0.00    -0.374 N 
ATOM     10  H4  UNL     1      21.083 -11.951  10.852  1.00  0.00     0.164 HD
HETATM   11  C14 UNL     1      20.540 -10.734  12.480  1.00  0.00     0.096 A 
HETATM   12  C15 UNL     1      21.207 -10.468  13.681  1.00  0.00    -0.026 A 
HETATM   13  C16 UNL     1      21.108  -9.719  14.938  1.00  0.00     0.083 A 
ENDROOT
BRANCH   1  14
HETATM   14  C6  UNL     1      26.071 -11.432  17.144  1.00  0.00     0.128 C 
BRANCH  14  15
HETATM   15  C5  UNL     1      26.602 -12.423  16.163  1.00  0.00     0.020 C 
BRANCH  15  16
HETATM   16  C4  UNL     1      27.938 -12.003  15.561  1.00  0.00     0.002 C 
BRANCH  16  17
HETATM   17  C3  UNL     1      28.301 -10.611  15.932  1.00  0.00     0.004 C 
BRANCH  17  18
HETATM   18  C2  UNL     1      28.235  -9.572  14.874  1.00  0.00     0.062 C 
BRANCH  18  19
HETATM   19  C1  UNL     1      27.124  -8.589  14.923  1.00  0.00     0.378 C 
BRANCH  19  20
HETATM   20  N1  UNL     1      27.147  -7.515  14.000  1.00  0.00    -0.051 N 
ATOM     21  H13 UNL     1      27.327  -6.610  14.436  1.00  0.00     0.276 HD
ATOM     22  H12 UNL     1      27.963  -7.523  13.388  1.00  0.00     0.276 HD
ATOM     23  H11 UNL     1      26.262  -7.552  13.496  1.00  0.00     0.276 HD
ENDBRANCH  19  20
BRANCH  19  24
HETATM   24  N2  UNL     1      27.118  -7.979  16.269  1.00  0.00    -0.051 N 
ATOM     25  H23 UNL     1      27.696  -7.141  16.337  1.00  0.00     0.276 HD
ATOM     26  H22 UNL     1      26.231  -7.539  16.511  1.00  0.00     0.276 HD
ATOM     27  H21 UNL     1      27.396  -8.716  16.918  1.00  0.00     0.276 HD
ENDBRANCH  19  24
ENDBRANCH  18  19
ENDBRANCH  17  18
ENDBRANCH  16  17
ENDBRANCH  15  16
ENDBRANCH  14  15
ENDBRANCH   1  14
BRANCH   3  28
HETATM   28  O1  UNL     1      22.042  -8.769  17.668  1.00  0.00    -0.359 OA
ATOM     29  H1  UNL     1      21.356  -8.242  17.272  1.00  0.00     0.217 HD
ENDBRANCH   3  28
TORSDOF 9
ENDMDL
MODEL 2
REMARK VINA RESULT: -6.648066376      1.465      2.157
REMARK  9 active torsions:
REMARK  status: ('A' for Active; 'I' for Inactive)
REMARK    1  A    between atoms: N1_1  and  C1_5 
REMARK    2  A    between atoms: C1_5  and  N2_6 
REMARK    3  A    between atoms: C1_5  and  C2_10 
REMARK    4  A    between atoms: C2_10  and  C3_11 
REMARK    5  A    between atoms: C3_11  and  C4_12 
REMARK    6  A    between atoms: C4_12  and  C5_13 
REMARK    7  A    between atoms: C5_13  and  C6_14 
REMARK    8  A    between atoms: C6_14  and  N3_15 
REMARK    9  A    between atoms: C8_17  and  O1_18 
ROOT
HETATM    1  N3  UNL     1      26.193 -11.942  16.388  1.00  0.00    -0.363 N 
HETATM    2  C7  UNL     1      26.220 -11.276  17.552  1.00  0.00     0.127 A 
HETATM    3  C8  UNL     1      25.169 -10.478  17.949  1.00  0.00     0.088 A 
HETATM    4  C9  UNL     1      24.048 -10.350  17.138  1.00  0.00    -0.007 A 
HETATM    5  C10 UNL     1      24.022 -11.027  15.956  1.00  0.00     0.001 A 
HETATM    6  C11 UNL     1      25.104 -11.810  15.613  1.00  0.00     0.103 A 
HETATM    7  C12 UNL     1      22.750 -10.738  15.282  1.00  0.00    -0.001 A 
HETATM    8  C13 UNL     1      21.966 -10.973  14.158  1.00  0.00     0.100 A 
HETATM    9  N4  UNL     1      20.810 -10.287  14.270  1.00  0.00    -0.374 N 
ATOM     10  H4  UNL     1      20.056 -10.285  13.583  1.00  0.00     0.164 HD
HETATM   11  C14 UNL     1      20.808  -9.608  15.428  1.00  0.00     0.096 A 
HETATM   12  C15 UNL     1      22.019  -9.882  16.074  1.00  0.00    -0.026 A 
HETATM   13  C16 UNL     1      22.796  -9.592  17.284  1.00  0.00     0.083 A 
ENDROOT
BRANCH   1  14
HETATM   14  C6  UNL     1      27.320 -12.792  15.971  1.00  0.00     0.128 C 
BRANCH  14  15
HETATM   15  C5  UNL     1      28.572 -11.986  16.062  1.00  0.00     0.020 C 
BRANCH  15  16
HETATM   16  C4  UNL     1      28.591 -10.810  15.091  1.00  0.00     0.002 C 
BRANCH  16  17
HETATM   17  C3  UNL     1      28.748  -9.512  15.795  1.00  0.00     0.004 C 
BRANCH  17  18
HETATM   18  C2  UNL     1      27.600  -8.572  15.781  1.00  0.00     0.062 C 
BRANCH  18  19
HETATM   19  C1  UNL     1      26.851  -8.395  14.513  1.00  0.00     0.378 C 
BRANCH  19  20
HETATM   20  N1  UNL     1      27.170  -7.278  13.702  1.00  0.00    -0.051 N 
ATOM     21  H13 UNL     1      27.427  -7.530  12.748  1.00  0.00     0.276 HD
ATOM     22  H12 UNL     1      26.360  -6.705  13.466  1.00  0.00     0.276 HD
ATOM     23  H11 UNL     1      27.899  -6.765  14.196  1.00  0.00     0.276 HD
ENDBRANCH  19  20
BRANCH  19  24
HETATM   24  N2  UNL     1      25.417  -8.268  14.848  1.00  0.00    -0.051 N 
ATOM     25  H23 UNL     1      24.816  -8.886  14.302  1.00  0.00     0.276 HD
ATOM     26  H22 UNL     1      25.181  -8.643  15.767  1.00  0.00     0.276 HD
ATOM     27  H21 UNL     1      25.184  -7.280  14.742  1.00  0.00     0.276 HD
ENDBRANCH  19  24
ENDBRANCH  18  19
ENDBRANCH  17  18
ENDBRANCH  16  17
ENDBRANCH  15  16
ENDBRANCH  14  15
ENDBRANCH   1  14
BRANCH   3  28
HETATM   28  O1  UNL     1      25.190  -9.791  19.143  1.00  0.00    -0.359 OA
ATOM     29  H1  UNL     1      24.484  -9.866  19.776  1.00  0.00     0.217 HD
ENDBRANCH   3  28
TORSDOF 9
ENDMDL
MODEL 3
REMARK VINA RESULT: -6.455755884      2.193      2.586
REMARK  9 active torsions:
REMARK  status: ('A' for Active; 'I' for Inactive)
REMARK    1  A    between atoms: N1_1  and  C1_5 
REMARK    2  A    between atoms: C1_5  and  N2_6 
REMARK    3  A    between atoms: C1_5  and  C2_10 
REMARK    4  A    between atoms: C2_10  and  C3_11 
REMARK    5  A    between atoms: C3_11  and  C4_12 
REMARK    6  A    between atoms: C4_12  and  C5_13 
REMARK    7  A    between atoms: C5_13  and  C6_14 
REMARK    8  A    between atoms: C6_14  and  N3_15 
REMARK    9  A    between atoms: C8_17  and  O1_18 
ROOT
HETATM    1  N3  UNL     1      23.735  -9.944  16.863  1.00  0.00    -0.363 N 
HETATM    2  C7  UNL     1      22.402 -10.092  16.895  1.00  0.00     0.127 A 
HETATM    3  C8  UNL     1      21.630  -9.900  15.769  1.00  0.00     0.088 A 
HETATM    4  C9  UNL     1      22.230  -9.547  14.566  1.00  0.00    -0.007 A 
HETATM    5  C10 UNL     1      23.584  -9.397  14.537  1.00  0.00     0.001 A 
HETATM    6  C11 UNL     1      24.302  -9.602  15.695  1.00  0.00     0.103 A 
HETATM    7  C12 UNL     1      23.980  -9.025  13.172  1.00  0.00    -0.001 A 
HETATM    8  C13 UNL     1      25.041  -8.710  12.330  1.00  0.00     0.100 A 
HETATM    9  N4  UNL     1      24.567  -8.461  11.092  1.00  0.00    -0.374 N 
ATOM     10  H4  UNL     1      25.134  -8.207  10.283  1.00  0.00     0.164 HD
HETATM   11  C14 UNL     1      23.232  -8.601  11.092  1.00  0.00     0.096 A 
HETATM   12  C15 UNL     1      22.850  -8.956  12.390  1.00  0.00    -0.026 A 
HETATM   13  C16 UNL     1      21.688  -9.280  13.225  1.00  0.00     0.083 A 
ENDROOT
BRANCH   1  14
HETATM   14  C6  UNL     1      24.552 -10.150  18.070  1.00  0.00     0.128 C 
BRANCH  14  15
HETATM   15  C5  UNL     1      25.984 -10.224  17.660  1.00  0.00     0.020 C 
BRANCH  15  16
HETATM   16  C4  UNL     1      26.440 -11.648  17.359  1.00  0.00     0.002 C 
BRANCH  16  17
HETATM   17  C3  UNL     1      27.837 -11.688  16.858  1.00  0.00     0.004 C 
BRANCH  17  18
HETATM   18  C2  UNL     1      28.100 -11.166  15.494  1.00  0.00     0.062 C 
BRANCH  18  19
HETATM   19  C1  UNL     1      28.820  -9.875  15.362  1.00  0.00     0.378 C 
BRANCH  19  20
HETATM   20  N1  UNL     1      29.849  -9.784  14.393  1.00  0.00    -0.051 N 
ATOM     21  H13 UNL     1      30.288  -8.865  14.352  1.00  0.00     0.276 HD
ATOM     22  H12 UNL     1      30.687 -10.312  14.640  1.00  0.00     0.276 HD
ATOM     23  H11 UNL     1      29.434 -10.074  13.507  1.00  0.00     0.276 HD
ENDBRANCH  19  20
BRANCH  19  24
HETATM   24  N2  UNL     1      29.450  -9.573  16.665  1.00  0.00    -0.051 N 
ATOM     25  H23 UNL     1      30.453  -9.763  16.684  1.00  0.00     0.276 HD
ATOM     26  H22 UNL     1      29.507  -8.575  16.865  1.00  0.00     0.276 HD
ATOM     27  H21 UNL     1      28.926 -10.098  17.365  1.00  0.00     0.276 HD
ENDBRANCH  19  24
ENDBRANCH  18  19
ENDBRANCH  17  18
ENDBRANCH  16  17
ENDBRANCH  15  16
ENDBRANCH  14  15
ENDBRANCH   1  14
BRANCH   3  28
HETATM   28  O1  UNL     1      20.261 -10.051  15.793  1.00  0.00    -0.359 OA
ATOM     29  H1  UNL     1      19.848 -10.807  16.196  1.00  0.00     0.217 HD
ENDBRANCH   3  28
TORSDOF 9
ENDMDL
MODEL 4
REMARK VINA RESULT: -6.412230055      1.938      4.929
REMARK  9 active torsions:
REMARK  status: ('A' for Active; 'I' for Inactive)
REMARK    1  A    between atoms: N1_1  and  C1_5 
REMARK    2  A    between atoms: C1_5  and  N2_6 
REMARK    3  A    between atoms: C1_5  and  C2_10 
REMARK    4  A    between atoms: C2_10  and  C3_11 
REMARK    5  A    between atoms: C3_11  and  C4_12 
REMARK    6  A    between atoms: C4_12  and  C5_13 
REMARK    7  A    between atoms: C5_13  and  C6_14 
REMARK    8  A    between atoms: C6_14  and  N3_15 
REMARK    9  A    between atoms: C8_17  and  O1_18 
ROOT
HETATM    1  N3  UNL     1      22.545 -10.646  14.679  1.00  0.00    -0.363 N 
HETATM    2  C7  UNL     1      22.121 -10.005  15.780  1.00  0.00     0.127 A 
HETATM    3  C8  UNL     1      22.926  -9.876  16.892  1.00  0.00     0.088 A 
HETATM    4  C9  UNL     1      24.207 -10.414  16.889  1.00  0.00    -0.007 A 
HETATM    5  C10 UNL     1      24.635 -11.064  15.771  1.00  0.00     0.001 A 
HETATM    6  C11 UNL     1      23.785 -11.161  14.690  1.00  0.00     0.103 A 
HETATM    7  C12 UNL     1      26.005 -11.540  16.005  1.00  0.00    -0.001 A 
HETATM    8  C13 UNL     1      27.091 -12.222  15.469  1.00  0.00     0.100 A 
HETATM    9  N4  UNL     1      28.087 -12.256  16.378  1.00  0.00    -0.374 N 
ATOM     10  H4  UNL     1      28.997 -12.695  16.239  1.00  0.00     0.164 HD
HETATM   11  C14 UNL     1      27.692 -11.622  17.493  1.00  0.00     0.096 A 
HETATM   12  C15 UNL     1      26.387 -11.166  17.273  1.00  0.00    -0.026 A 
HETATM   13  C16 UNL     1      25.277 -10.438  17.897  1.00  0.00     0.083 A 
ENDROOT
BRANCH   1  14
HETATM   14  C6  UNL     1      21.679 -10.780  13.497  1.00  0.00     0.128 C 
BRANCH  14  15
HETATM   15  C5  UNL     1      21.342  -9.412  13.006  1.00  0.00     0.020 C 
BRANCH  15  16
HETATM   16  C4  UNL     1      22.402  -8.842  12.069  1.00  0.00     0.002 C 
BRANCH  16  17
HETATM   17  C3  UNL     1      23.265  -7.844  12.750  1.00  0.00     0.004 C 
BRANCH  17  18
HETATM   18  C2  UNL     1      24.682  -8.208  13.000  1.00  0.00     0.062 C 
BRANCH  18  19
HETATM   19  C1  UNL     1      25.734  -7.224  12.646  1.00  0.00     0.378 C 
BRANCH  19  20
HETATM   20  N1  UNL     1      26.884  -7.154  13.471  1.00  0.00    -0.051 N 
ATOM     21  H13 UNL     1      27.103  -6.208  13.782  1.00  0.00     0.276 HD
ATOM     22  H12 UNL     1      26.745  -7.562  14.396  1.00  0.00     0.276 HD
ATOM     23  H11 UNL     1      27.640  -7.592  12.945  1.00  0.00     0.276 HD
ENDBRANCH  19  20
BRANCH  19  24
HETATM   24  N2  UNL     1      25.123  -5.878  12.673  1.00  0.00    -0.051 N 
ATOM     25  H23 UNL     1      24.160  -5.864  12.337  1.00  0.00     0.276 HD
ATOM     26  H22 UNL     1      24.932  -5.539  13.615  1.00  0.00     0.276 HD
ATOM     27  H21 UNL     1      25.747  -5.270  12.141  1.00  0.00     0.276 HD
ENDBRANCH  19  24
ENDBRANCH  18  19
ENDBRANCH  17  18
ENDBRANCH  16  17
ENDBRANCH  15  16
ENDBRANCH  14  15
ENDBRANCH   1  14
BRANCH   3  28
HETATM   28  O1  UNL     1      22.498  -9.220  18.025  1.00  0.00    -0.359 OA
ATOM     29  H1  UNL     1      21.622  -9.341  18.372  1.00  0.00     0.217 HD
ENDBRANCH   3  28
TORSDOF 9
ENDMDL
MODEL 5
REMARK VINA RESULT: -6.407436006      1.715      2.110
REMARK  9 active torsions:
REMARK  status: ('A' for Active; 'I' for Inactive)
REMARK    1  A    between atoms: N1_1  and  C1_5 
REMARK    2  A    between atoms: C1_5  and  N2_6 
REMARK    3  A    between atoms: C1_5  and  C2_10 
REMARK    4  A    between atoms: C2_10  and  C3_11 
REMARK    5  A    between atoms: C3_11  and  C4_12 
REMARK    6  A    between atoms: C4_12  and  C5_13 
REMARK    7  A    between atoms: C5_13  and  C6_14 
REMARK    8  A    between atoms: C6_14  and  N3_15 
REMARK    9  A    between atoms: C8_17  and  O1_18 
ROOT
HETATM    1  N3  UNL     1      23.714 -10.075  16.899  1.00  0.00    -0.363 N 
HETATM    2  C7  UNL     1      22.497  -9.520  17.008  1.00  0.00     0.127 A 
HETATM    3  C8  UNL     1      21.666  -9.389  15.915  1.00  0.00     0.088 A 
HETATM    4  C9  UNL     1      22.082  -9.837  14.667  1.00  0.00    -0.007 A 
HETATM    5  C10 UNL     1      23.319 -10.399  14.560  1.00  0.00     0.001 A 
HETATM    6  C11 UNL     1      24.104 -10.503  15.688  1.00  0.00     0.103 A 
HETATM    7  C12 UNL     1      23.531 -10.790  13.160  1.00  0.00    -0.001 A 
HETATM    8  C13 UNL     1      24.410 -11.367  12.250  1.00  0.00     0.100 A 
HETATM    9  N4  UNL     1      23.839 -11.378  11.028  1.00  0.00    -0.374 N 
ATOM     10  H4  UNL     1      24.268 -11.748  10.179  1.00  0.00     0.164 HD
HETATM   11  C14 UNL     1      22.617 -10.828  11.104  1.00  0.00     0.096 A 
HETATM   12  C15 UNL     1      22.410 -10.455  12.437  1.00  0.00    -0.026 A 
HETATM   13  C16 UNL     1      21.438  -9.837  13.346  1.00  0.00     0.083 A 
ENDROOT
BRANCH   1  14
HETATM   14  C6  UNL     1      24.594 -10.210  18.071  1.00  0.00     0.128 C 
BRANCH  14  15
HETATM   15  C5  UNL     1      26.009 -10.172  17.600  1.00  0.00     0.020 C 
BRANCH  15  16
HETATM   16  C4  UNL     1      26.714 -11.518  17.735  1.00  0.00     0.002 C 
BRANCH  16  17
HETATM   17  C3  UNL     1      27.795 -11.681  16.730  1.00  0.00     0.004 C 
BRANCH  17  18
HETATM   18  C2  UNL     1      27.833 -10.729  15.592  1.00  0.00     0.062 C 
BRANCH  18  19
HETATM   19  C1  UNL     1      29.021  -9.851  15.450  1.00  0.00     0.378 C 
BRANCH  19  20
HETATM   20  N1  UNL     1      30.150 -10.366  14.768  1.00  0.00    -0.051 N 
ATOM     21  H13 UNL     1      30.534 -11.208  15.197  1.00  0.00     0.276 HD
ATOM     22  H12 UNL     1      29.923 -10.779  13.863  1.00  0.00     0.276 HD
ATOM     23  H11 UNL     1      30.821  -9.600  14.707  1.00  0.00     0.276 HD
ENDBRANCH  19  20
BRANCH  19  24
HETATM   24  N2  UNL     1      29.484  -9.492  16.807  1.00  0.00    -0.051 N 
ATOM     25  H23 UNL     1      29.009  -8.677  17.195  1.00  0.00     0.276 HD
ATOM     26  H22 UNL     1      29.194 -10.158  17.523  1.00  0.00     0.276 HD
ATOM     27  H21 UNL     1      30.496  -9.380  16.744  1.00  0.00     0.276 HD
ENDBRANCH  19  24
ENDBRANCH  18  19
ENDBRANCH  17  18
ENDBRANCH  16  17
ENDBRANCH  15  16
ENDBRANCH  14  15
ENDBRANCH   1  14
BRANCH   3  28
HETATM   28  O1  UNL     1      20.416  -8.821  16.019  1.00  0.00    -0.359 OA
ATOM     29  H1  UNL     1      19.669  -9.163  15.539  1.00  0.00     0.217 HD
ENDBRANCH   3  28
TORSDOF 9
ENDMDL
