MODEL 1
REMARK VINA RESULT: -7.021994783      0.000      0.000
REMARK  6 active torsions:
REMARK  status: ('A' for Active; 'I' for Inactive)
REMARK    1  A    between atoms: C2_3  and  N2_4 
REMARK       I    between atoms: N2_4  and  C3_6 
REMARK    2  A    between atoms: N4_8  and  C4_10 
REMARK    3  A    between atoms: C4_10  and  C5_11 
REMARK    4  A    between atoms: C5_11  and  C6_12 
REMARK    5  A    between atoms: C11_17  and  N5_18 
REMARK    6  A    between atoms: N5_18  and  C12_20 
ROOT
HETATM    1  N1  UNL     1      12.097  22.386  15.702  1.00  0.00    -0.196 NA
HETATM    2  C1  UNL     1      11.231  23.126  15.514  1.00  0.00     0.078 C 
HETATM    3  C2  UNL     1      10.126  24.062  15.251  1.00  0.00     0.246 C 
ENDROOT
BRANCH   3   4
HETATM    4  N2  UNL     1      10.488  25.404  15.630  1.00  0.00    -0.352 N 
HETATM    5  C3  UNL     1      11.287  25.727  16.743  1.00  0.00     0.184 C 
HETATM    6  N3  UNL     1      10.884  25.360  18.055  1.00  0.00    -0.064 NA
HETATM    7  N4  UNL     1      12.390  26.356  16.589  1.00  0.00    -0.364 N 
ATOM      8  H4  UNL     1      12.971  26.590  17.394  1.00  0.00     0.162 HD
ATOM      9  H2  UNL     1      10.143  26.171  15.052  1.00  0.00     0.163 HD
BRANCH   7  10
HETATM   10  C4  UNL     1      12.803  26.733  15.234  1.00  0.00     0.127 C 
BRANCH  10  11
HETATM   11  C5  UNL     1      14.316  26.825  15.262  1.00  0.00     0.060 C 
BRANCH  11  12
HETATM   12  C6  UNL     1      14.888  26.846  13.892  1.00  0.00    -0.030 A 
HETATM   13  C7  UNL     1      14.763  27.926  13.043  1.00  0.00     0.009 A 
HETATM   14  C8  UNL     1      15.295  27.943  11.777  1.00  0.00     0.001 A 
HETATM   15  C9  UNL     1      15.988  26.842  11.317  1.00  0.00     0.002 A 
HETATM   16  C10 UNL     1      16.138  25.732  12.140  1.00  0.00     0.030 A 
HETATM   17  C11 UNL     1      15.591  25.756  13.399  1.00  0.00     0.038 A 
BRANCH  17  18
HETATM   18  N5  UNL     1      15.715  24.644  14.272  1.00  0.00    -0.356 N 
ATOM     19  H5  UNL     1      16.217  24.746  15.154  1.00  0.00     0.166 HD
BRANCH  18  20
HETATM   20  C12 UNL     1      15.197  23.505  13.958  1.00  0.00     0.035 A 
HETATM   21  C13 UNL     1      14.213  23.386  13.001  1.00  0.00     0.046 A 
HETATM   22  C14 UNL     1      13.723  22.125  12.741  1.00  0.00     0.090 A 
HETATM   23  N6  UNL     1      14.174  21.038  13.386  1.00  0.00    -0.375 N 
HETATM   24  C15 UNL     1      15.134  21.137  14.322  1.00  0.00     0.090 A 
ATOM     25  H6  UNL     1      13.783  20.122  13.161  1.00  0.00     0.164 HD
HETATM   26  C16 UNL     1      15.647  22.381  14.608  1.00  0.00     0.046 A 
ENDBRANCH  18  20
ENDBRANCH  17  18
ENDBRANCH  11  12
ENDBRANCH  10  11
ENDBRANCH   7  10
ENDBRANCH   3   4
TORSDOF 6
ENDMDL
MODEL 2
REMARK VINA RESULT: -6.980427764      1.865      4.588
REMARK  6 active torsions:
REMARK  status: ('A' for Active; 'I' for Inactive)
REMARK    1  A    between atoms: C2_3  and  N2_4 
REMARK       I    between atoms: N2_4  and  C3_6 
REMARK    2  A    between atoms: N4_8  and  C4_10 
REMARK    3  A    between atoms: C4_10  and  C5_11 
REMARK    4  A    between atoms: C5_11  and  C6_12 
REMARK    5  A    between atoms: C11_17  and  N5_18 
REMARK    6  A    between atoms: N5_18  and  C12_20 
ROOT
HETATM    1  N1  UNL     1       7.342  26.149  18.561  1.00  0.00    -0.196 NA
HETATM    2  C1  UNL     1       7.743  25.269  17.930  1.00  0.00     0.078 C 
HETATM    3  C2  UNL     1       8.253  24.133  17.146  1.00  0.00     0.246 C 
ENDROOT
BRANCH   3   4
HETATM    4  N2  UNL     1       9.473  24.484  16.467  1.00  0.00    -0.352 N 
HETATM    5  C3  UNL     1      10.752  24.436  17.055  1.00  0.00     0.184 C 
HETATM    6  N3  UNL     1      11.050  25.216  18.204  1.00  0.00    -0.064 NA
HETATM    7  N4  UNL     1      11.665  23.687  16.564  1.00  0.00    -0.364 N 
ATOM      8  H4  UNL     1      12.591  23.649  16.989  1.00  0.00     0.162 HD
ATOM      9  H2  UNL     1       9.408  24.787  15.495  1.00  0.00     0.163 HD
BRANCH   7  10
HETATM   10  C4  UNL     1      11.353  22.883  15.378  1.00  0.00     0.127 C 
BRANCH  10  11
HETATM   11  C5  UNL     1      12.154  23.481  14.238  1.00  0.00     0.060 C 
BRANCH  11  12
HETATM   12  C6  UNL     1      13.580  23.071  14.299  1.00  0.00    -0.030 A 
HETATM   13  C7  UNL     1      13.989  21.847  14.786  1.00  0.00     0.009 A 
HETATM   14  C8  UNL     1      15.308  21.469  14.840  1.00  0.00     0.001 A 
HETATM   15  C9  UNL     1      16.282  22.338  14.389  1.00  0.00     0.002 A 
HETATM   16  C10 UNL     1      15.914  23.582  13.890  1.00  0.00     0.030 A 
HETATM   17  C11 UNL     1      14.584  23.920  13.855  1.00  0.00     0.038 A 
BRANCH  17  18
HETATM   18  N5  UNL     1      14.162  25.181  13.358  1.00  0.00    -0.356 N 
ATOM     19  H5  UNL     1      13.227  25.283  12.963  1.00  0.00     0.166 HD
BRANCH  18  20
HETATM   20  C12 UNL     1      14.954  26.199  13.402  1.00  0.00     0.035 A 
HETATM   21  C13 UNL     1      15.759  26.547  12.340  1.00  0.00     0.046 A 
HETATM   22  C14 UNL     1      16.572  27.650  12.488  1.00  0.00     0.090 A 
HETATM   23  N6  UNL     1      16.592  28.373  13.619  1.00  0.00    -0.375 N 
HETATM   24  C15 UNL     1      15.812  28.046  14.663  1.00  0.00     0.090 A 
ATOM     25  H6  UNL     1      17.209  29.183  13.686  1.00  0.00     0.164 HD
HETATM   26  C16 UNL     1      14.987  26.951  14.551  1.00  0.00     0.046 A 
ENDBRANCH  18  20
ENDBRANCH  17  18
ENDBRANCH  11  12
ENDBRANCH  10  11
ENDBRANCH   7  10
ENDBRANCH   3   4
TORSDOF 6
ENDMDL
MODEL 3
REMARK VINA RESULT: -6.928911027      2.730      5.445
REMARK  6 active torsions:
REMARK  status: ('A' for Active; 'I' for Inactive)
REMARK    1  A    between atoms: C2_3  and  N2_4 
REMARK       I    between atoms: N2_4  and  C3_6 
REMARK    2  A    between atoms: N4_8  and  C4_10 
REMARK    3  A    between atoms: C4_10  and  C5_11 
REMARK    4  A    between atoms: C5_11  and  C6_12 
REMARK    5  A    between atoms: C11_17  and  N5_18 
REMARK    6  A    between atoms: N5_18  and  C12_20 
ROOT
HETATM    1  N1  UNL     1      11.795  20.129  14.559  1.00  0.00    -0.196 NA
HETATM    2  C1  UNL     1      11.533  21.035  13.893  1.00  0.00     0.078 C 
HETATM    3  C2  UNL     1      11.177  22.193  13.057  1.00  0.00     0.246 C 
ENDROOT
BRANCH   3   4
HETATM    4  N2  UNL     1      11.373  21.897  11.661  1.00  0.00    -0.352 N 
HETATM    5  C3  UNL     1      11.531  22.872  10.657  1.00  0.00     0.184 C 
HETATM    6  N3  UNL     1      10.513  23.832  10.413  1.00  0.00    -0.064 NA
HETATM    7  N4  UNL     1      12.596  22.908   9.950  1.00  0.00    -0.364 N 
ATOM      8  H4  UNL     1      12.714  23.614   9.223  1.00  0.00     0.162 HD
ATOM      9  H2  UNL     1      11.399  20.916  11.381  1.00  0.00     0.163 HD
BRANCH   7  10
HETATM   10  C4  UNL     1      13.646  21.916  10.206  1.00  0.00     0.127 C 
BRANCH  10  11
HETATM   11  C5  UNL     1      14.807  22.676  10.815  1.00  0.00     0.060 C 
BRANCH  11  12
HETATM   12  C6  UNL     1      14.875  22.481  12.286  1.00  0.00    -0.030 A 
HETATM   13  C7  UNL     1      15.185  21.270  12.869  1.00  0.00     0.009 A 
HETATM   14  C8  UNL     1      15.250  21.093  14.230  1.00  0.00     0.001 A 
HETATM   15  C9  UNL     1      14.996  22.161  15.066  1.00  0.00     0.002 A 
HETATM   16  C10 UNL     1      14.679  23.400  14.521  1.00  0.00     0.030 A 
HETATM   17  C11 UNL     1      14.626  23.534  13.155  1.00  0.00     0.038 A 
BRANCH  17  18
HETATM   18  N5  UNL     1      14.303  24.778  12.554  1.00  0.00    -0.356 N 
ATOM     19  H5  UNL     1      13.445  24.870  12.009  1.00  0.00     0.166 HD
BRANCH  18  20
HETATM   20  C12 UNL     1      15.087  25.794  12.690  1.00  0.00     0.035 A 
HETATM   21  C13 UNL     1      16.055  26.102  11.761  1.00  0.00     0.046 A 
HETATM   22  C14 UNL     1      16.844  27.206  12.001  1.00  0.00     0.090 A 
HETATM   23  N6  UNL     1      16.690  27.967  13.096  1.00  0.00    -0.375 N 
HETATM   24  C15 UNL     1      15.749  27.680  14.012  1.00  0.00     0.090 A 
ATOM     25  H6  UNL     1      17.295  28.777  13.234  1.00  0.00     0.164 HD
HETATM   26  C16 UNL     1      14.942  26.585  13.805  1.00  0.00     0.046 A 
ENDBRANCH  18  20
ENDBRANCH  17  18
ENDBRANCH  11  12
ENDBRANCH  10  11
ENDBRANCH   7  10
ENDBRANCH   3   4
TORSDOF 6
ENDMDL
MODEL 4
REMARK VINA RESULT: -6.912442750      1.482      2.218
REMARK  6 active torsions:
REMARK  status: ('A' for Active; 'I' for Inactive)
REMARK    1  A    between atoms: C2_3  and  N2_4 
REMARK       I    between atoms: N2_4  and  C3_6 
REMARK    2  A    between atoms: N4_8  and  C4_10 
REMARK    3  A    between atoms: C4_10  and  C5_11 
REMARK    4  A    between atoms: C5_11  and  C6_12 
REMARK    5  A    between atoms: C11_17  and  N5_18 
REMARK    6  A    between atoms: N5_18  and  C12_20 
ROOT
HETATM    1  N1  UNL     1      12.333  25.911  12.304  1.00  0.00    -0.196 NA
HETATM    2  C1  UNL     1      11.844  26.620  13.073  1.00  0.00     0.078 C 
HETATM    3  C2  UNL     1      11.220  27.542  14.035  1.00  0.00     0.246 C 
ENDROOT
BRANCH   3   4
HETATM    4  N2  UNL     1      12.018  27.657  15.229  1.00  0.00    -0.352 N 
HETATM    5  C3  UNL     1      12.594  26.565  15.907  1.00  0.00     0.184 C 
HETATM    6  N3  UNL     1      11.779  25.527  16.432  1.00  0.00    -0.064 NA
HETATM    7  N4  UNL     1      13.861  26.492  16.059  1.00  0.00    -0.364 N 
ATOM      8  H4  UNL     1      14.282  25.702  16.549  1.00  0.00     0.162 HD
ATOM      9  H2  UNL     1      12.176  28.591  15.607  1.00  0.00     0.163 HD
BRANCH   7  10
HETATM   10  C4  UNL     1      14.700  27.565  15.515  1.00  0.00     0.127 C 
BRANCH  10  11
HETATM   11  C5  UNL     1      15.960  26.899  15.000  1.00  0.00     0.060 C 
BRANCH  11  12
HETATM   12  C6  UNL     1      15.843  26.546  13.563  1.00  0.00    -0.030 A 
HETATM   13  C7  UNL     1      15.713  27.491  12.566  1.00  0.00     0.009 A 
HETATM   14  C8  UNL     1      15.607  27.163  11.237  1.00  0.00     0.001 A 
HETATM   15  C9  UNL     1      15.631  25.834  10.862  1.00  0.00     0.002 A 
HETATM   16  C10 UNL     1      15.760  24.849  11.834  1.00  0.00     0.030 A 
HETATM   17  C11 UNL     1      15.863  25.221  13.152  1.00  0.00     0.038 A 
BRANCH  17  18
HETATM   18  N5  UNL     1      15.993  24.249  14.178  1.00  0.00    -0.356 N 
ATOM     19  H5  UNL     1      16.673  24.390  14.926  1.00  0.00     0.166 HD
BRANCH  18  20
HETATM   20  C12 UNL     1      15.257  23.190  14.173  1.00  0.00     0.035 A 
HETATM   21  C13 UNL     1      15.782  21.934  13.963  1.00  0.00     0.046 A 
HETATM   22  C14 UNL     1      14.912  20.866  13.972  1.00  0.00     0.090 A 
HETATM   23  N6  UNL     1      13.594  21.023  14.177  1.00  0.00    -0.375 N 
HETATM   24  C15 UNL     1      13.066  22.242  14.383  1.00  0.00     0.090 A 
ATOM     25  H6  UNL     1      12.985  20.205  14.176  1.00  0.00     0.164 HD
HETATM   26  C16 UNL     1      13.906  23.332  14.381  1.00  0.00     0.046 A 
ENDBRANCH  18  20
ENDBRANCH  17  18
ENDBRANCH  11  12
ENDBRANCH  10  11
ENDBRANCH   7  10
ENDBRANCH   3   4
TORSDOF 6
ENDMDL
MODEL 5
REMARK VINA RESULT: -6.896319699      1.860      4.399
REMARK  6 active torsions:
REMARK  status: ('A' for Active; 'I' for Inactive)
REMARK    1  A    between atoms: C2_3  and  N2_4 
REMARK       I    between atoms: N2_4  and  C3_6 
REMARK    2  A    between atoms: N4_8  and  C4_10 
REMARK    3  A    between atoms: C4_10  and  C5_11 
REMARK    4  A    between atoms: C5_11  and  C6_12 
REMARK    5  A    between atoms: C11_17  and  N5_18 
REMARK    6  A    between atoms: N5_18  and  C12_20 
ROOT
HETATM    1  N1  UNL     1       9.830  28.781  15.317  1.00  0.00    -0.196 NA
HETATM    2  C1  UNL     1       9.829  27.631  15.221  1.00  0.00     0.078 C 
HETATM    3  C2  UNL     1       9.807  26.163  15.111  1.00  0.00     0.246 C 
ENDROOT
BRANCH   3   4
HETATM    4  N2  UNL     1      11.066  25.598  15.524  1.00  0.00    -0.352 N 
HETATM    5  C3  UNL     1      11.247  24.826  16.688  1.00  0.00     0.184 C 
HETATM    6  N3  UNL     1      10.957  25.367  17.968  1.00  0.00    -0.064 NA
HETATM    7  N4  UNL     1      11.674  23.623  16.608  1.00  0.00    -0.364 N 
ATOM      8  H4  UNL     1      11.805  23.061  17.449  1.00  0.00     0.162 HD
ATOM      9  H2  UNL     1      11.880  25.769  14.934  1.00  0.00     0.163 HD
BRANCH   7  10
HETATM   10  C4  UNL     1      11.972  23.067  15.284  1.00  0.00     0.127 C 
BRANCH  10  11
HETATM   11  C5  UNL     1      13.483  22.993  15.187  1.00  0.00     0.060 C 
BRANCH  11  12
HETATM   12  C6  UNL     1      13.956  23.269  13.807  1.00  0.00    -0.030 A 
HETATM   13  C7  UNL     1      13.782  22.384  12.763  1.00  0.00     0.009 A 
HETATM   14  C8  UNL     1      14.218  22.643  11.486  1.00  0.00     0.001 A 
HETATM   15  C9  UNL     1      14.859  23.836  11.216  1.00  0.00     0.002 A 
HETATM   16  C10 UNL     1      15.055  24.756  12.239  1.00  0.00     0.030 A 
HETATM   17  C11 UNL     1      14.603  24.458  13.501  1.00  0.00     0.038 A 
BRANCH  17  18
HETATM   18  N5  UNL     1      14.785  25.366  14.577  1.00  0.00    -0.356 N 
ATOM     19  H5  UNL     1      14.987  25.010  15.512  1.00  0.00     0.166 HD
BRANCH  18  20
HETATM   20  C12 UNL     1      14.695  26.638  14.382  1.00  0.00     0.035 A 
HETATM   21  C13 UNL     1      13.606  27.208  13.760  1.00  0.00     0.046 A 
HETATM   22  C14 UNL     1      13.607  28.576  13.596  1.00  0.00     0.090 A 
HETATM   23  N6  UNL     1      14.624  29.344  14.019  1.00  0.00    -0.375 N 
HETATM   24  C15 UNL     1      15.694  28.802  14.627  1.00  0.00     0.090 A 
ATOM     25  H6  UNL     1      14.585  30.353  13.877  1.00  0.00     0.164 HD
HETATM   26  C16 UNL     1      15.726  27.439  14.808  1.00  0.00     0.046 A 
ENDBRANCH  18  20
ENDBRANCH  17  18
ENDBRANCH  11  12
ENDBRANCH  10  11
ENDBRANCH   7  10
ENDBRANCH   3   4
TORSDOF 6
ENDMDL
