MODEL 1
REMARK VINA RESULT: -7.862620734      0.000      0.000
REMARK  8 active torsions:
REMARK  status: ('A' for Active; 'I' for Inactive)
REMARK    1  A    between atoms: C2_2  and  O2_4 
REMARK    2  A    between atoms: O2_4  and  C3_5 
REMARK    3  A    between atoms: C9_11  and  O3_12 
REMARK    4  A    between atoms: C10_14  and  O4_15 
REMARK    5  A    between atoms: C11_17  and  O5_18 
REMARK    6  A    between atoms: O5_18  and  C12_19 
REMARK    7  A    between atoms: C14_22  and  O7_23 
REMARK    8  A    between atoms: O7_23  and  C15_24 
ROOT
HETATM    1  C3  UNL     1      25.649  12.853  20.663  1.00  0.00     0.144 C 
HETATM    2  C4  UNL     1      24.344  13.570  20.719  1.00  0.00     0.026 C 
HETATM    3  C5  UNL     1      23.795  12.666  19.734  1.00  0.00     0.003 C 
HETATM    4  C6  UNL     1      22.940  11.549  20.107  1.00  0.00     0.006 C 
HETATM    5  C7  UNL     1      23.253  10.704  21.263  1.00  0.00     0.009 C 
HETATM    6  C8  UNL     1      23.386  11.244  22.602  1.00  0.00     0.029 C 
HETATM    7  C9  UNL     1      22.300  10.691  23.542  1.00  0.00     0.160 C 
HETATM    8  C10 UNL     1      21.706  11.933  24.240  1.00  0.00     0.117 C 
HETATM    9  C11 UNL     1      22.745  12.344  25.237  1.00  0.00     0.199 C 
HETATM   10  C14 UNL     1      23.857  12.817  24.337  1.00  0.00     0.174 C 
HETATM   11  C17 UNL     1      23.361  12.670  22.896  1.00  0.00     0.006 C 
HETATM   12  C18 UNL     1      23.801  13.723  22.079  1.00  0.00     0.005 C 
HETATM   13  C19 UNL     1      22.672  14.774  22.138  1.00  0.00     0.006 C 
HETATM   14  C20 UNL     1      21.777  14.308  23.299  1.00  0.00     0.009 C 
HETATM   15  C21 UNL     1      21.850  12.883  23.133  1.00  0.00     0.037 C 
HETATM   16  C22 UNL     1      25.212  12.384  19.266  1.00  0.00    -0.016 C 
HETATM   17  C23 UNL     1      25.583  10.998  18.913  1.00  0.00     0.018 C 
HETATM   18  C24 UNL     1      25.707  13.347  18.174  1.00  0.00     0.018 C 
ENDROOT
BRANCH   1  19
HETATM   19  O2  UNL     1      26.840  13.463  20.781  1.00  0.00    -0.315 OA
BRANCH  19  20
HETATM   20  C2  UNL     1      28.098  12.972  20.992  1.00  0.00     0.255 C 
HETATM   21  C1  UNL     1      28.395  11.598  21.451  1.00  0.00     0.126 C 
HETATM   22  O1  UNL     1      29.022  13.782  20.766  1.00  0.00    -0.266 OA
ENDBRANCH  19  20
ENDBRANCH   1  19
BRANCH  10  23
HETATM   23  O7  UNL     1      24.345  14.068  24.660  1.00  0.00    -0.313 OA
BRANCH  23  24
HETATM   24  C15 UNL     1      25.580  14.244  25.210  1.00  0.00     0.255 C 
HETATM   25  C16 UNL     1      26.783  13.909  24.368  1.00  0.00     0.126 C 
HETATM   26  O8  UNL     1      25.759  14.671  26.379  1.00  0.00    -0.266 OA
ENDBRANCH  23  24
ENDBRANCH  10  23
BRANCH   7  27
HETATM   27  O3  UNL     1      22.766   9.769  24.437  1.00  0.00    -0.392 OA
ATOM     28  H3  UNL     1      22.081   9.249  24.841  1.00  0.00     0.210 HD
ENDBRANCH   7  27
BRANCH   9  29
HETATM   29  O5  UNL     1      22.322  13.282  26.162  1.00  0.00    -0.310 OA
BRANCH  29  30
HETATM   30  C12 UNL     1      22.380  13.040  27.527  1.00  0.00     0.255 C 
HETATM   31  C13 UNL     1      21.410  12.184  28.255  1.00  0.00     0.126 C 
HETATM   32  O6  UNL     1      23.302  13.569  28.200  1.00  0.00    -0.266 OA
ENDBRANCH  29  30
ENDBRANCH   9  29
BRANCH   8  33
HETATM   33  O4  UNL     1      20.468  11.711  24.731  1.00  0.00    -0.384 OA
ATOM     34  H4  UNL     1      19.807  11.666  24.051  1.00  0.00     0.210 HD
ENDBRANCH   8  33
TORSDOF 8
ENDMDL
MODEL 2
REMARK VINA RESULT: -7.759224847      2.021      2.717
REMARK  8 active torsions:
REMARK  status: ('A' for Active; 'I' for Inactive)
REMARK    1  A    between atoms: C2_2  and  O2_4 
REMARK    2  A    between atoms: O2_4  and  C3_5 
REMARK    3  A    between atoms: C9_11  and  O3_12 
REMARK    4  A    between atoms: C10_14  and  O4_15 
REMARK    5  A    between atoms: C11_17  and  O5_18 
REMARK    6  A    between atoms: O5_18  and  C12_19 
REMARK    7  A    between atoms: C14_22  and  O7_23 
REMARK    8  A    between atoms: O7_23  and  C15_24 
ROOT
HETATM    1  C3  UNL     1      23.739  12.295  22.145  1.00  0.00     0.144 C 
HETATM    2  C4  UNL     1      22.456  13.051  22.073  1.00  0.00     0.026 C 
HETATM    3  C5  UNL     1      21.853  11.972  21.323  1.00  0.00     0.003 C 
HETATM    4  C6  UNL     1      20.979  10.993  21.952  1.00  0.00     0.006 C 
HETATM    5  C7  UNL     1      21.303  10.411  23.257  1.00  0.00     0.009 C 
HETATM    6  C8  UNL     1      21.491  11.226  24.442  1.00  0.00     0.029 C 
HETATM    7  C9  UNL     1      20.418  10.929  25.505  1.00  0.00     0.160 C 
HETATM    8  C10 UNL     1      19.880  12.312  25.927  1.00  0.00     0.117 C 
HETATM    9  C11 UNL     1      20.960  12.896  26.785  1.00  0.00     0.199 C 
HETATM   10  C14 UNL     1      22.057  13.123  25.778  1.00  0.00     0.174 C 
HETATM   11  C17 UNL     1      21.514  12.681  24.416  1.00  0.00     0.006 C 
HETATM   12  C18 UNL     1      21.958  13.515  23.378  1.00  0.00     0.005 C 
HETATM   13  C19 UNL     1      20.862  14.591  23.231  1.00  0.00     0.006 C 
HETATM   14  C20 UNL     1      19.989  14.421  24.486  1.00  0.00     0.009 C 
HETATM   15  C21 UNL     1      20.018  12.991  24.635  1.00  0.00     0.037 C 
HETATM   16  C22 UNL     1      23.247  11.547  20.895  1.00  0.00    -0.016 C 
HETATM   17  C23 UNL     1      23.569  10.106  20.847  1.00  0.00     0.018 C 
HETATM   18  C24 UNL     1      23.736  12.230  19.608  1.00  0.00     0.018 C 
ENDROOT
BRANCH   1  19
HETATM   19  O2  UNL     1      24.949  12.875  22.099  1.00  0.00    -0.315 OA
BRANCH  19  20
HETATM   20  C2  UNL     1      25.486  13.920  22.798  1.00  0.00     0.255 C 
HETATM   21  C1  UNL     1      25.384  15.339  22.394  1.00  0.00     0.126 C 
HETATM   22  O1  UNL     1      26.091  13.596  23.842  1.00  0.00    -0.266 OA
ENDBRANCH  19  20
ENDBRANCH   1  19
BRANCH  10  23
HETATM   23  O7  UNL     1      22.589  14.398  25.807  1.00  0.00    -0.313 OA
BRANCH  23  24
HETATM   24  C15 UNL     1      23.758  14.680  26.449  1.00  0.00     0.255 C 
HETATM   25  C16 UNL     1      24.591  15.822  25.929  1.00  0.00     0.126 C 
HETATM   26  O8  UNL     1      24.168  14.036  27.449  1.00  0.00    -0.266 OA
ENDBRANCH  23  24
ENDBRANCH  10  23
BRANCH   7  27
HETATM   27  O3  UNL     1      20.885  10.210  26.570  1.00  0.00    -0.392 OA
ATOM     28  H3  UNL     1      20.614  10.555  27.412  1.00  0.00     0.210 HD
ENDBRANCH   7  27
BRANCH   9  29
HETATM   29  O5  UNL     1      20.591  14.028  27.492  1.00  0.00    -0.310 OA
BRANCH  29  30
HETATM   30  C12 UNL     1      20.690  14.090  28.874  1.00  0.00     0.255 C 
HETATM   31  C13 UNL     1      19.877  13.259  29.798  1.00  0.00     0.126 C 
HETATM   32  O6  UNL     1      21.510  14.892  29.389  1.00  0.00    -0.266 OA
ENDBRANCH  29  30
ENDBRANCH   9  29
BRANCH   8  33
HETATM   33  O4  UNL     1      18.652  12.245  26.483  1.00  0.00    -0.384 OA
ATOM     34  H4  UNL     1      18.012  12.776  26.024  1.00  0.00     0.210 HD
ENDBRANCH   8  33
TORSDOF 8
ENDMDL
MODEL 3
REMARK VINA RESULT: -7.715267831      3.151      6.082
REMARK  8 active torsions:
REMARK  status: ('A' for Active; 'I' for Inactive)
REMARK    1  A    between atoms: C2_2  and  O2_4 
REMARK    2  A    between atoms: O2_4  and  C3_5 
REMARK    3  A    between atoms: C9_11  and  O3_12 
REMARK    4  A    between atoms: C10_14  and  O4_15 
REMARK    5  A    between atoms: C11_17  and  O5_18 
REMARK    6  A    between atoms: O5_18  and  C12_19 
REMARK    7  A    between atoms: C14_22  and  O7_23 
REMARK    8  A    between atoms: O7_23  and  C15_24 
ROOT
HETATM    1  C3  UNL     1      18.879  11.288  20.717  1.00  0.00     0.144 C 
HETATM    2  C4  UNL     1      19.562  10.500  21.783  1.00  0.00     0.026 C 
HETATM    3  C5  UNL     1      20.334   9.800  20.781  1.00  0.00     0.003 C 
HETATM    4  C6  UNL     1      21.712  10.161  20.481  1.00  0.00     0.006 C 
HETATM    5  C7  UNL     1      22.123  11.563  20.364  1.00  0.00     0.009 C 
HETATM    6  C8  UNL     1      21.953  12.511  21.448  1.00  0.00     0.029 C 
HETATM    7  C9  UNL     1      23.309  13.022  21.967  1.00  0.00     0.160 C 
HETATM    8  C10 UNL     1      23.234  12.866  23.500  1.00  0.00     0.117 C 
HETATM    9  C11 UNL     1      22.334  13.974  23.953  1.00  0.00     0.199 C 
HETATM   10  C14 UNL     1      21.008  13.537  23.387  1.00  0.00     0.174 C 
HETATM   11  C17 UNL     1      21.241  12.199  22.679  1.00  0.00     0.006 C 
HETATM   12  C18 UNL     1      20.160  11.320  22.848  1.00  0.00     0.005 C 
HETATM   13  C19 UNL     1      20.515  10.483  24.094  1.00  0.00     0.006 C 
HETATM   14  C20 UNL     1      21.706  11.224  24.726  1.00  0.00     0.009 C 
HETATM   15  C21 UNL     1      22.400  11.661  23.546  1.00  0.00     0.037 C 
HETATM   16  C22 UNL     1      19.249  10.135  19.772  1.00  0.00    -0.016 C 
HETATM   17  C23 UNL     1      19.645  10.532  18.405  1.00  0.00     0.018 C 
HETATM   18  C24 UNL     1      18.124   9.089  19.701  1.00  0.00     0.018 C 
ENDROOT
BRANCH   1  19
HETATM   19  O2  UNL     1      17.592  11.668  20.780  1.00  0.00    -0.315 OA
BRANCH  19  20
HETATM   20  C2  UNL     1      16.673  11.609  21.790  1.00  0.00     0.255 C 
HETATM   21  C1  UNL     1      16.703  12.458  23.000  1.00  0.00     0.126 C 
HETATM   22  O1  UNL     1      15.768  10.763  21.625  1.00  0.00    -0.266 OA
ENDBRANCH  19  20
ENDBRANCH   1  19
BRANCH  10  23
HETATM   23  O7  UNL     1      19.979  13.537  24.308  1.00  0.00    -0.313 OA
BRANCH  23  24
HETATM   24  C15 UNL     1      19.200  14.635  24.524  1.00  0.00     0.255 C 
HETATM   25  C16 UNL     1      18.259  14.613  25.700  1.00  0.00     0.126 C 
HETATM   26  O8  UNL     1      19.232  15.657  23.793  1.00  0.00    -0.266 OA
ENDBRANCH  23  24
ENDBRANCH  10  23
BRANCH   7  27
HETATM   27  O3  UNL     1      23.592  14.306  21.591  1.00  0.00    -0.392 OA
ATOM     28  H3  UNL     1      23.599  14.435  20.650  1.00  0.00     0.210 HD
ENDBRANCH   7  27
BRANCH   9  29
HETATM   29  O5  UNL     1      22.327  14.193  25.320  1.00  0.00    -0.310 OA
BRANCH  29  30
HETATM   30  C12 UNL     1      22.780  15.382  25.872  1.00  0.00     0.255 C 
HETATM   31  C13 UNL     1      22.045  16.669  25.776  1.00  0.00     0.126 C 
HETATM   32  O6  UNL     1      23.875  15.387  26.491  1.00  0.00    -0.266 OA
ENDBRANCH  29  30
ENDBRANCH   9  29
BRANCH   8  33
HETATM   33  O4  UNL     1      24.454  12.819  24.078  1.00  0.00    -0.384 OA
ATOM     34  H4  UNL     1      24.408  12.739  25.023  1.00  0.00     0.210 HD
ENDBRANCH   8  33
TORSDOF 8
ENDMDL
MODEL 4
REMARK VINA RESULT: -7.690044552      1.297      1.368
REMARK  8 active torsions:
REMARK  status: ('A' for Active; 'I' for Inactive)
REMARK    1  A    between atoms: C2_2  and  O2_4 
REMARK    2  A    between atoms: O2_4  and  C3_5 
REMARK    3  A    between atoms: C9_11  and  O3_12 
REMARK    4  A    between atoms: C10_14  and  O4_15 
REMARK    5  A    between atoms: C11_17  and  O5_18 
REMARK    6  A    between atoms: O5_18  and  C12_19 
REMARK    7  A    between atoms: C14_22  and  O7_23 
REMARK    8  A    between atoms: O7_23  and  C15_24 
ROOT
HETATM    1  C3  UNL     1      25.649  13.080  21.830  1.00  0.00     0.144 C 
HETATM    2  C4  UNL     1      24.437  13.916  21.598  1.00  0.00     0.026 C 
HETATM    3  C5  UNL     1      24.004  13.013  20.555  1.00  0.00     0.003 C 
HETATM    4  C6  UNL     1      22.985  12.000  20.787  1.00  0.00     0.006 C 
HETATM    5  C7  UNL     1      22.978  11.194  22.011  1.00  0.00     0.009 C 
HETATM    6  C8  UNL     1      22.898  11.793  23.330  1.00  0.00     0.029 C 
HETATM    7  C9  UNL     1      21.599  11.394  24.051  1.00  0.00     0.160 C 
HETATM    8  C10 UNL     1      21.007  12.720  24.571  1.00  0.00     0.117 C 
HETATM    9  C11 UNL     1      21.866  13.088  25.742  1.00  0.00     0.199 C 
HETATM   10  C14 UNL     1      23.175  13.408  25.068  1.00  0.00     0.174 C 
HETATM   11  C17 UNL     1      22.960  13.229  23.562  1.00  0.00     0.006 C 
HETATM   12  C18 UNL     1      23.655  14.191  22.814  1.00  0.00     0.005 C 
HETATM   13  C19 UNL     1      22.649  15.342  22.608  1.00  0.00     0.006 C 
HETATM   14  C20 UNL     1      21.500  15.025  23.581  1.00  0.00     0.009 C 
HETATM   15  C21 UNL     1      21.461  13.591  23.484  1.00  0.00     0.037 C 
HETATM   16  C22 UNL     1      25.450  12.578  20.391  1.00  0.00    -0.016 C 
HETATM   17  C23 UNL     1      25.742  11.146  20.169  1.00  0.00     0.018 C 
HETATM   18  C24 UNL     1      26.245  13.430  19.388  1.00  0.00     0.018 C 
ENDROOT
BRANCH   1  19
HETATM   19  O2  UNL     1      26.849  13.583  22.164  1.00  0.00    -0.315 OA
BRANCH  19  20
HETATM   20  C2  UNL     1      28.002  12.985  22.588  1.00  0.00     0.255 C 
HETATM   21  C1  UNL     1      28.830  12.083  21.760  1.00  0.00     0.126 C 
HETATM   22  O1  UNL     1      28.332  13.256  23.762  1.00  0.00    -0.266 OA
ENDBRANCH  19  20
ENDBRANCH   1  19
BRANCH  10  23
HETATM   23  O7  UNL     1      23.713  14.625  25.438  1.00  0.00    -0.313 OA
BRANCH  23  24
HETATM   24  C15 UNL     1      24.736  14.722  26.335  1.00  0.00     0.255 C 
HETATM   25  C16 UNL     1      26.046  15.286  25.853  1.00  0.00     0.126 C 
HETATM   26  O8  UNL     1      24.634  14.366  27.537  1.00  0.00    -0.266 OA
ENDBRANCH  23  24
ENDBRANCH  10  23
BRANCH   7  27
HETATM   27  O3  UNL     1      21.785  10.483  25.054  1.00  0.00    -0.392 OA
ATOM     28  H3  UNL     1      21.013  10.342  25.589  1.00  0.00     0.210 HD
ENDBRANCH   7  27
BRANCH   9  29
HETATM   29  O5  UNL     1      21.365  14.110  26.530  1.00  0.00    -0.310 OA
BRANCH  29  30
HETATM   30  C12 UNL     1      21.261  13.986  27.908  1.00  0.00     0.255 C 
HETATM   31  C13 UNL     1      21.276  12.685  28.622  1.00  0.00     0.126 C 
HETATM   32  O6  UNL     1      21.148  15.027  28.605  1.00  0.00    -0.266 OA
ENDBRANCH  29  30
ENDBRANCH   9  29
BRANCH   8  33
HETATM   33  O4  UNL     1      19.681  12.640  24.811  1.00  0.00    -0.384 OA
ATOM     34  H4  UNL     1      19.390  11.748  24.963  1.00  0.00     0.210 HD
ENDBRANCH   8  33
TORSDOF 8
ENDMDL
MODEL 5
REMARK VINA RESULT: -7.666038758      1.486      1.831
REMARK  8 active torsions:
REMARK  status: ('A' for Active; 'I' for Inactive)
REMARK    1  A    between atoms: C2_2  and  O2_4 
REMARK    2  A    between atoms: O2_4  and  C3_5 
REMARK    3  A    between atoms: C9_11  and  O3_12 
REMARK    4  A    between atoms: C10_14  and  O4_15 
REMARK    5  A    between atoms: C11_17  and  O5_18 
REMARK    6  A    between atoms: O5_18  and  C12_19 
REMARK    7  A    between atoms: C14_22  and  O7_23 
REMARK    8  A    between atoms: O7_23  and  C15_24 
ROOT
HETATM    1  C3  UNL     1      25.077  13.450  22.118  1.00  0.00     0.144 C 
HETATM    2  C4  UNL     1      23.668  13.886  21.900  1.00  0.00     0.026 C 
HETATM    3  C5  UNL     1      23.569  13.016  20.750  1.00  0.00     0.003 C 
HETATM    4  C6  UNL     1      22.918  11.717  20.822  1.00  0.00     0.006 C 
HETATM    5  C7  UNL     1      23.137  10.817  21.958  1.00  0.00     0.009 C 
HETATM    6  C8  UNL     1      22.841  11.209  23.323  1.00  0.00     0.029 C 
HETATM    7  C9  UNL     1      21.718  10.346  23.924  1.00  0.00     0.160 C 
HETATM    8  C10 UNL     1      20.724  11.354  24.538  1.00  0.00     0.117 C 
HETATM    9  C11 UNL     1      21.395  11.838  25.787  1.00  0.00     0.199 C 
HETATM   10  C14 UNL     1      22.551  12.624  25.225  1.00  0.00     0.174 C 
HETATM   11  C17 UNL     1      22.439  12.556  23.699  1.00  0.00     0.006 C 
HETATM   12  C18 UNL     1      22.811  13.765  23.091  1.00  0.00     0.005 C 
HETATM   13  C19 UNL     1      21.497  14.560  22.942  1.00  0.00     0.006 C 
HETATM   14  C20 UNL     1      20.485  13.793  23.811  1.00  0.00     0.009 C 
HETATM   15  C21 UNL     1      20.905  12.439  23.570  1.00  0.00     0.037 C 
HETATM   16  C22 UNL     1      25.081  13.075  20.628  1.00  0.00    -0.016 C 
HETATM   17  C23 UNL     1      25.817  11.841  20.283  1.00  0.00     0.018 C 
HETATM   18  C24 UNL     1      25.589  14.240  19.762  1.00  0.00     0.018 C 
ENDROOT
BRANCH   1  19
HETATM   19  O2  UNL     1      26.047  14.262  22.570  1.00  0.00    -0.315 OA
BRANCH  19  20
HETATM   20  C2  UNL     1      27.335  14.017  22.956  1.00  0.00     0.255 C 
HETATM   21  C1  UNL     1      28.519  14.210  22.092  1.00  0.00     0.126 C 
HETATM   22  O1  UNL     1      27.461  13.605  24.128  1.00  0.00    -0.266 OA
ENDBRANCH  19  20
ENDBRANCH   1  19
BRANCH  10  23
HETATM   23  O7  UNL     1      22.667  13.899  25.744  1.00  0.00    -0.313 OA
BRANCH  23  24
HETATM   24  C15 UNL     1      23.732  14.276  26.507  1.00  0.00     0.255 C 
HETATM   25  C16 UNL     1      24.811  15.100  25.855  1.00  0.00     0.126 C 
HETATM   26  O8  UNL     1      23.853  13.970  27.721  1.00  0.00    -0.266 OA
ENDBRANCH  23  24
ENDBRANCH  10  23
BRANCH   7  27
HETATM   27  O3  UNL     1      22.159   9.432  24.841  1.00  0.00    -0.392 OA
ATOM     28  H3  UNL     1      21.951   8.533  24.614  1.00  0.00     0.210 HD
ENDBRANCH   7  27
BRANCH   9  29
HETATM   29  O5  UNL     1      20.578  12.558  26.642  1.00  0.00    -0.310 OA
BRANCH  29  30
HETATM   30  C12 UNL     1      20.476  12.246  27.990  1.00  0.00     0.255 C 
HETATM   31  C13 UNL     1      19.187  12.158  28.721  1.00  0.00     0.126 C 
HETATM   32  O6  UNL     1      21.528  12.024  28.644  1.00  0.00    -0.266 OA
ENDBRANCH  29  30
ENDBRANCH   9  29
BRANCH   8  33
HETATM   33  O4  UNL     1      19.487  10.837  24.692  1.00  0.00    -0.384 OA
ATOM     34  H4  UNL     1      18.938  10.966  23.927  1.00  0.00     0.210 HD
ENDBRANCH   8  33
TORSDOF 8
ENDMDL
