MODEL 1
REMARK VINA RESULT: -6.366909037      0.000      0.000
REMARK  5 active torsions:
REMARK  status: ('A' for Active; 'I' for Inactive)
REMARK    1  A    between atoms: C2_2  and  C3_3 
REMARK    2  A    between atoms: C4_5  and  O2_6 
REMARK    3  A    between atoms: O2_6  and  C5_7 
REMARK    4  A    between atoms: C7_9  and  O3_10 
REMARK    5  A    between atoms: C8_12  and  O4_13 
ROOT
HETATM    1  C5  UNL     1     -28.438 -16.556  10.281  1.00  0.00     0.293 C 
HETATM    2  C6  UNL     1     -28.832 -17.618  11.278  1.00  0.00     0.099 C 
HETATM    3  C7  UNL     1     -30.209 -18.182  11.010  1.00  0.00     0.173 C 
HETATM    4  C8  UNL     1     -30.265 -18.582   9.565  1.00  0.00     0.267 C 
HETATM    5  N1  UNL     1     -29.816 -17.512   8.732  1.00  0.00    -0.268 N 
ATOM      6  H1  UNL     1     -30.386 -17.150   7.969  1.00  0.00     0.190 HD
HETATM    7  O5  UNL     1     -28.633 -17.021   9.000  1.00  0.00    -0.250 OA
ENDROOT
BRANCH   1   8
HETATM    8  O2  UNL     1     -29.016 -15.330  10.522  1.00  0.00    -0.328 OA
BRANCH   8   9
HETATM    9  C4  UNL     1     -28.974 -14.942  11.856  1.00  0.00     0.273 C 
HETATM   10  O1  UNL     1     -30.160 -14.385  12.270  1.00  0.00    -0.354 OA
HETATM   11  C3  UNL     1     -29.463 -13.444  13.027  1.00  0.00     0.137 C 
HETATM   12  C9  UNL     1     -28.266 -13.668  12.153  1.00  0.00     0.029 C 
HETATM   13  C10 UNL     1     -26.959 -13.797  12.903  1.00  0.00     0.022 C 
HETATM   14  C11 UNL     1     -28.197 -12.771  10.950  1.00  0.00     0.022 C 
BRANCH  11  15
HETATM   15  C2  UNL     1     -29.299 -13.880  14.473  1.00  0.00     0.028 C 
HETATM   16  C1  UNL     1     -30.170 -12.950  15.320  1.00  0.00     0.007 C 
ENDBRANCH  11  15
ENDBRANCH   8   9
ENDBRANCH   1   8
BRANCH   3  17
HETATM   17  O3  UNL     1     -30.362 -19.289  11.849  1.00  0.00    -0.391 OA
ATOM     18  H3  UNL     1     -30.531 -20.037  11.288  1.00  0.00     0.210 HD
ENDBRANCH   3  17
BRANCH   4  19
HETATM   19  O4  UNL     1     -31.566 -18.908   9.250  1.00  0.00    -0.372 OA
ATOM     20  H4  UNL     1     -31.944 -19.384   9.981  1.00  0.00     0.212 HD
ENDBRANCH   4  19
TORSDOF 5
ENDMDL
MODEL 2
REMARK VINA RESULT: -6.347841177      1.052      2.325
REMARK  5 active torsions:
REMARK  status: ('A' for Active; 'I' for Inactive)
REMARK    1  A    between atoms: C2_2  and  C3_3 
REMARK    2  A    between atoms: C4_5  and  O2_6 
REMARK    3  A    between atoms: O2_6  and  C5_7 
REMARK    4  A    between atoms: C7_9  and  O3_10 
REMARK    5  A    between atoms: C8_12  and  O4_13 
ROOT
HETATM    1  C5  UNL     1     -28.926 -16.953  11.207  1.00  0.00     0.293 C 
HETATM    2  C6  UNL     1     -29.340 -18.304  11.734  1.00  0.00     0.099 C 
HETATM    3  C7  UNL     1     -30.635 -18.791  11.125  1.00  0.00     0.173 C 
HETATM    4  C8  UNL     1     -30.508 -18.677   9.634  1.00  0.00     0.267 C 
HETATM    5  N1  UNL     1     -30.056 -17.372   9.269  1.00  0.00    -0.268 N 
ATOM      6  H1  UNL     1     -30.570 -16.792   8.606  1.00  0.00     0.190 HD
HETATM    7  O5  UNL     1     -28.949 -16.960   9.830  1.00  0.00    -0.250 OA
ENDROOT
BRANCH   1   8
HETATM    8  O2  UNL     1     -29.616 -15.903  11.770  1.00  0.00    -0.328 OA
BRANCH   8   9
HETATM    9  C4  UNL     1     -29.067 -14.657  11.492  1.00  0.00     0.273 C 
HETATM   10  O1  UNL     1     -27.695 -14.698  11.432  1.00  0.00    -0.354 OA
HETATM   11  C3  UNL     1     -27.622 -13.461  12.071  1.00  0.00     0.137 C 
HETATM   12  C9  UNL     1     -28.995 -13.698  12.626  1.00  0.00     0.029 C 
HETATM   13  C10 UNL     1     -29.918 -12.503  12.541  1.00  0.00     0.022 C 
HETATM   14  C11 UNL     1     -29.016 -14.397  13.954  1.00  0.00     0.022 C 
BRANCH  11  15
HETATM   15  C2  UNL     1     -27.512 -12.312  11.083  1.00  0.00     0.028 C 
HETATM   16  C1  UNL     1     -26.250 -11.529  11.449  1.00  0.00     0.007 C 
ENDBRANCH  11  15
ENDBRANCH   8   9
ENDBRANCH   1   8
BRANCH   3  17
HETATM   17  O3  UNL     1     -30.791 -20.122  11.519  1.00  0.00    -0.391 OA
ATOM     18  H3  UNL     1     -31.176 -20.108  12.388  1.00  0.00     0.210 HD
ENDBRANCH   3  17
BRANCH   4  19
HETATM   19  O4  UNL     1     -31.741 -18.922   9.069  1.00  0.00    -0.372 OA
ATOM     20  H4  UNL     1     -32.370 -19.068   9.767  1.00  0.00     0.212 HD
ENDBRANCH   4  19
TORSDOF 5
ENDMDL
MODEL 3
REMARK VINA RESULT: -6.262605068      2.743      4.280
REMARK  5 active torsions:
REMARK  status: ('A' for Active; 'I' for Inactive)
REMARK    1  A    between atoms: C2_2  and  C3_3 
REMARK    2  A    between atoms: C4_5  and  O2_6 
REMARK    3  A    between atoms: O2_6  and  C5_7 
REMARK    4  A    between atoms: C7_9  and  O3_10 
REMARK    5  A    between atoms: C8_12  and  O4_13 
ROOT
HETATM    1  C5  UNL     1     -28.827 -16.157  10.813  1.00  0.00     0.293 C 
HETATM    2  C6  UNL     1     -29.140 -17.001   9.603  1.00  0.00     0.099 C 
HETATM    3  C7  UNL     1     -29.325 -18.461   9.947  1.00  0.00     0.173 C 
HETATM    4  C8  UNL     1     -30.309 -18.542  11.077  1.00  0.00     0.267 C 
HETATM    5  N1  UNL     1     -29.930 -17.657  12.133  1.00  0.00    -0.268 N 
ATOM      6  H1  UNL     1     -29.809 -17.985  13.091  1.00  0.00     0.190 HD
HETATM    7  O5  UNL     1     -29.748 -16.403  11.806  1.00  0.00    -0.250 OA
ENDROOT
BRANCH   1   8
HETATM    8  O2  UNL     1     -27.519 -16.252  11.231  1.00  0.00    -0.328 OA
BRANCH   8   9
HETATM    9  C4  UNL     1     -26.619 -15.576  10.416  1.00  0.00     0.273 C 
HETATM   10  O1  UNL     1     -25.596 -16.388   9.989  1.00  0.00    -0.354 OA
HETATM   11  C3  UNL     1     -24.690 -15.339  10.138  1.00  0.00     0.137 C 
HETATM   12  C9  UNL     1     -25.639 -14.692  11.102  1.00  0.00     0.029 C 
HETATM   13  C10 UNL     1     -25.828 -13.207  10.892  1.00  0.00     0.022 C 
HETATM   14  C11 UNL     1     -25.435 -15.088  12.536  1.00  0.00     0.022 C 
BRANCH  11  15
HETATM   15  C2  UNL     1     -24.472 -14.582   8.838  1.00  0.00     0.028 C 
HETATM   16  C1  UNL     1     -23.045 -14.887   8.380  1.00  0.00     0.007 C 
ENDBRANCH  11  15
ENDBRANCH   8   9
ENDBRANCH   1   8
BRANCH   3  17
HETATM   17  O3  UNL     1     -29.820 -19.087   8.800  1.00  0.00    -0.391 OA
ATOM     18  H3  UNL     1     -30.205 -19.909   9.080  1.00  0.00     0.210 HD
ENDBRANCH   3  17
BRANCH   4  19
HETATM   19  O4  UNL     1     -30.340 -19.839  11.540  1.00  0.00    -0.372 OA
ATOM     20  H4  UNL     1     -29.951 -20.404  10.883  1.00  0.00     0.212 HD
ENDBRANCH   4  19
TORSDOF 5
ENDMDL
MODEL 4
REMARK VINA RESULT: -6.245733976      1.360      2.280
REMARK  5 active torsions:
REMARK  status: ('A' for Active; 'I' for Inactive)
REMARK    1  A    between atoms: C2_2  and  C3_3 
REMARK    2  A    between atoms: C4_5  and  O2_6 
REMARK    3  A    between atoms: O2_6  and  C5_7 
REMARK    4  A    between atoms: C7_9  and  O3_10 
REMARK    5  A    between atoms: C8_12  and  O4_13 
ROOT
HETATM    1  C5  UNL     1     -28.421 -17.422  10.884  1.00  0.00     0.293 C 
HETATM    2  C6  UNL     1     -29.263 -18.649  11.134  1.00  0.00     0.099 C 
HETATM    3  C7  UNL     1     -30.569 -18.619  10.375  1.00  0.00     0.173 C 
HETATM    4  C8  UNL     1     -30.256 -18.318   8.940  1.00  0.00     0.267 C 
HETATM    5  N1  UNL     1     -29.409 -17.171   8.842  1.00  0.00    -0.268 N 
ATOM      6  H1  UNL     1     -29.659 -16.367   8.267  1.00  0.00     0.190 HD
HETATM    7  O5  UNL     1     -28.297 -17.207   9.530  1.00  0.00    -0.250 OA
ENDROOT
BRANCH   1   8
HETATM    8  O2  UNL     1     -28.835 -16.314  11.588  1.00  0.00    -0.328 OA
BRANCH   8   9
HETATM    9  C4  UNL     1     -27.955 -15.241  11.514  1.00  0.00     0.273 C 
HETATM   10  O1  UNL     1     -27.192 -15.118  12.651  1.00  0.00    -0.354 OA
HETATM   11  C3  UNL     1     -27.296 -13.730  12.581  1.00  0.00     0.137 C 
HETATM   12  C9  UNL     1     -28.534 -13.892  11.751  1.00  0.00     0.029 C 
HETATM   13  C10 UNL     1     -28.603 -12.981  10.546  1.00  0.00     0.022 C 
HETATM   14  C11 UNL     1     -29.808 -13.960  12.543  1.00  0.00     0.022 C 
BRANCH  11  15
HETATM   15  C2  UNL     1     -26.113 -13.103  11.862  1.00  0.00     0.028 C 
HETATM   16  C1  UNL     1     -25.575 -11.997  12.772  1.00  0.00     0.007 C 
ENDBRANCH  11  15
ENDBRANCH   8   9
ENDBRANCH   1   8
BRANCH   3  17
HETATM   17  O3  UNL     1     -31.145 -19.885  10.513  1.00  0.00    -0.391 OA
ATOM     18  H3  UNL     1     -31.411 -20.161   9.644  1.00  0.00     0.210 HD
ENDBRANCH   3  17
BRANCH   4  19
HETATM   19  O4  UNL     1     -31.438 -18.087   8.271  1.00  0.00    -0.372 OA
ATOM     20  H4  UNL     1     -32.031 -17.629   8.855  1.00  0.00     0.212 HD
ENDBRANCH   4  19
TORSDOF 5
ENDMDL
MODEL 5
REMARK VINA RESULT: -6.138471711      1.914      2.221
REMARK  5 active torsions:
REMARK  status: ('A' for Active; 'I' for Inactive)
REMARK    1  A    between atoms: C2_2  and  C3_3 
REMARK    2  A    between atoms: C4_5  and  O2_6 
REMARK    3  A    between atoms: O2_6  and  C5_7 
REMARK    4  A    between atoms: C7_9  and  O3_10 
REMARK    5  A    between atoms: C8_12  and  O4_13 
ROOT
HETATM    1  C5  UNL     1     -27.349 -16.520  10.387  1.00  0.00     0.293 C 
HETATM    2  C6  UNL     1     -28.283 -16.939  11.495  1.00  0.00     0.099 C 
HETATM    3  C7  UNL     1     -29.625 -17.403  10.977  1.00  0.00     0.173 C 
HETATM    4  C8  UNL     1     -29.372 -18.426   9.909  1.00  0.00     0.267 C 
HETATM    5  N1  UNL     1     -28.431 -17.930   8.955  1.00  0.00    -0.268 N 
ATOM      6  H1  UNL     1     -28.639 -17.908   7.957  1.00  0.00     0.190 HD
HETATM    7  O5  UNL     1     -27.287 -17.508   9.429  1.00  0.00    -0.250 OA
ENDROOT
BRANCH   1   8
HETATM    8  O2  UNL     1     -27.616 -15.269   9.880  1.00  0.00    -0.328 OA
BRANCH   8   9
HETATM    9  C4  UNL     1     -27.680 -14.274  10.848  1.00  0.00     0.273 C 
HETATM   10  O1  UNL     1     -28.018 -13.053  10.314  1.00  0.00    -0.354 OA
HETATM   11  C3  UNL     1     -27.120 -12.419  11.171  1.00  0.00     0.137 C 
HETATM   12  C9  UNL     1     -26.381 -13.716  11.311  1.00  0.00     0.029 C 
HETATM   13  C10 UNL     1     -25.982 -14.059  12.729  1.00  0.00     0.022 C 
HETATM   14  C11 UNL     1     -25.290 -13.922  10.300  1.00  0.00     0.022 C 
BRANCH  11  15
HETATM   15  C2  UNL     1     -27.795 -11.919  12.438  1.00  0.00     0.028 C 
HETATM   16  C1  UNL     1     -27.306 -10.487  12.666  1.00  0.00     0.007 C 
ENDBRANCH  11  15
ENDBRANCH   8   9
ENDBRANCH   1   8
BRANCH   3  17
HETATM   17  O3  UNL     1     -30.306 -17.962  12.062  1.00  0.00    -0.391 OA
ATOM     18  H3  UNL     1     -29.740 -18.632  12.425  1.00  0.00     0.210 HD
ENDBRANCH   3  17
BRANCH   4  19
HETATM   19  O4  UNL     1     -30.566 -18.713   9.284  1.00  0.00    -0.372 OA
ATOM     20  H4  UNL     1     -31.201 -18.964   9.946  1.00  0.00     0.212 HD
ENDBRANCH   4  19
TORSDOF 5
ENDMDL
