MODEL 1
REMARK VINA RESULT: -6.834007229      0.000      0.000
REMARK  7 active torsions:
REMARK  status: ('A' for Active; 'I' for Inactive)
REMARK    1  A    between atoms: C2_2  and  N2_7 
REMARK    2  A    between atoms: N1_3  and  O1_5 
REMARK    3  A    between atoms: N2_7  and  C3_8 
REMARK    4  A    between atoms: N2_7  and  C5_12 
REMARK    5  A    between atoms: C3_8  and  O2_10 
REMARK    6  A    between atoms: C8_16  and  C9_17 
REMARK    7  A    between atoms: C9_17  and  O4_18 
ROOT
HETATM    1  C5  UNL     1     -29.136 -16.541  10.918  1.00  0.00     0.255 C 
HETATM    2  O3  UNL     1     -28.755 -17.479  10.008  1.00  0.00    -0.356 OA
HETATM    3  C6  UNL     1     -29.618 -18.518   9.835  1.00  0.00     0.151 C 
HETATM    4  C7  UNL     1     -30.593 -18.143   8.738  1.00  0.00     0.042 C 
HETATM    5  C8  UNL     1     -30.280 -19.019  11.067  1.00  0.00     0.174 C 
HETATM    6  O5  UNL     1     -30.521 -18.036  12.035  1.00  0.00    -0.372 OA
HETATM    7  C10 UNL     1     -29.375 -17.288  12.242  1.00  0.00     0.167 C 
HETATM    8  C11 UNL     1     -28.199 -18.162  12.586  1.00  0.00     0.044 C 
ENDROOT
BRANCH   1   9
HETATM    9  N2  UNL     1     -28.253 -15.449  11.075  1.00  0.00    -0.314 N 
BRANCH   9  10
HETATM   10  C2  UNL     1     -28.658 -14.268  11.804  1.00  0.00     0.099 C 
HETATM   11  C1  UNL     1     -28.589 -14.190  13.280  1.00  0.00     0.091 C 
HETATM   12  N1  UNL     1     -29.090 -13.261  11.147  1.00  0.00    -0.257 N 
ATOM     13  H1  UNL     1     -29.133 -13.328  10.130  1.00  0.00     0.195 HD
BRANCH  12  14
HETATM   14  O1  UNL     1     -29.494 -12.106  11.738  1.00  0.00    -0.288 OA
ATOM     15  H1  UNL     1     -30.356 -11.728  11.605  1.00  0.00     0.244 HD
ENDBRANCH  12  14
ENDBRANCH   9  10
BRANCH   9  16
HETATM   16  C3  UNL     1     -26.924 -15.467  10.520  1.00  0.00     0.219 C 
HETATM   17  C4  UNL     1     -25.864 -15.509  11.603  1.00  0.00     0.063 C 
BRANCH  16  18
HETATM   18  O2  UNL     1     -26.624 -14.396   9.698  1.00  0.00    -0.377 OA
ATOM     19  H2  UNL     1     -25.696 -14.212   9.605  1.00  0.00     0.212 HD
ENDBRANCH  16  18
ENDBRANCH   9  16
ENDBRANCH   1   9
BRANCH   5  20
HETATM   20  C9  UNL     1     -31.579 -19.733  10.836  1.00  0.00     0.198 C 
BRANCH  20  21
HETATM   21  O4  UNL     1     -31.737 -20.836  11.674  1.00  0.00    -0.398 OA
ATOM     22  H4  UNL     1     -32.237 -21.532  11.266  1.00  0.00     0.209 HD
ENDBRANCH  20  21
ENDBRANCH   5  20
TORSDOF 7
ENDMDL
MODEL 2
REMARK VINA RESULT: -6.802276151      1.093      2.472
REMARK  7 active torsions:
REMARK  status: ('A' for Active; 'I' for Inactive)
REMARK    1  A    between atoms: C2_2  and  N2_7 
REMARK    2  A    between atoms: N1_3  and  O1_5 
REMARK    3  A    between atoms: N2_7  and  C3_8 
REMARK    4  A    between atoms: N2_7  and  C5_12 
REMARK    5  A    between atoms: C3_8  and  O2_10 
REMARK    6  A    between atoms: C8_16  and  C9_17 
REMARK    7  A    between atoms: C9_17  and  O4_18 
ROOT
HETATM    1  C5  UNL     1     -28.882 -16.268  10.791  1.00  0.00     0.255 C 
HETATM    2  O3  UNL     1     -28.519 -17.251   9.923  1.00  0.00    -0.356 OA
HETATM    3  C6  UNL     1     -29.390 -18.292   9.813  1.00  0.00     0.151 C 
HETATM    4  C7  UNL     1     -30.379 -17.965   8.713  1.00  0.00     0.042 C 
HETATM    5  C8  UNL     1     -30.037 -18.729  11.078  1.00  0.00     0.174 C 
HETATM    6  O5  UNL     1     -30.259 -17.698  11.999  1.00  0.00    -0.372 OA
HETATM    7  C10 UNL     1     -29.106 -16.948  12.153  1.00  0.00     0.167 C 
HETATM    8  C11 UNL     1     -27.930 -17.811  12.523  1.00  0.00     0.044 C 
ENDROOT
BRANCH   1   9
HETATM    9  N2  UNL     1     -27.991 -15.175  10.882  1.00  0.00    -0.314 N 
BRANCH   9  10
HETATM   10  C2  UNL     1     -26.566 -15.368  10.740  1.00  0.00     0.099 C 
HETATM   11  C1  UNL     1     -25.616 -15.060  11.832  1.00  0.00     0.091 C 
HETATM   12  N1  UNL     1     -26.116 -15.818   9.633  1.00  0.00    -0.257 N 
ATOM     13  H1  UNL     1     -26.781 -16.026   8.888  1.00  0.00     0.195 HD
BRANCH  12  14
HETATM   14  O1  UNL     1     -24.795 -16.034   9.400  1.00  0.00    -0.288 OA
ATOM     15  H1  UNL     1     -24.326 -15.647   8.670  1.00  0.00     0.244 HD
ENDBRANCH  12  14
ENDBRANCH   9  10
BRANCH   9  16
HETATM   16  C3  UNL     1     -28.462 -13.834  11.119  1.00  0.00     0.219 C 
HETATM   17  C4  UNL     1     -29.620 -13.813  12.098  1.00  0.00     0.063 C 
BRANCH  16  18
HETATM   18  O2  UNL     1     -28.873 -13.154   9.987  1.00  0.00    -0.377 OA
ATOM     19  H2  UNL     1     -28.177 -12.932   9.380  1.00  0.00     0.212 HD
ENDBRANCH  16  18
ENDBRANCH   9  16
ENDBRANCH   1   9
BRANCH   5  20
HETATM   20  C9  UNL     1     -31.344 -19.445  10.899  1.00  0.00     0.198 C 
BRANCH  20  21
HETATM   21  O4  UNL     1     -31.431 -20.594  11.683  1.00  0.00    -0.398 OA
ATOM     22  H4  UNL     1     -31.184 -21.377  11.206  1.00  0.00     0.209 HD
ENDBRANCH  20  21
ENDBRANCH   5  20
TORSDOF 7
ENDMDL
MODEL 3
REMARK VINA RESULT: -5.998781026      1.300      1.520
REMARK  7 active torsions:
REMARK  status: ('A' for Active; 'I' for Inactive)
REMARK    1  A    between atoms: C2_2  and  N2_7 
REMARK    2  A    between atoms: N1_3  and  O1_5 
REMARK    3  A    between atoms: N2_7  and  C3_8 
REMARK    4  A    between atoms: N2_7  and  C5_12 
REMARK    5  A    between atoms: C3_8  and  O2_10 
REMARK    6  A    between atoms: C8_16  and  C9_17 
REMARK    7  A    between atoms: C9_17  and  O4_18 
ROOT
HETATM    1  C5  UNL     1     -29.207 -15.949  11.366  1.00  0.00     0.255 C 
HETATM    2  O3  UNL     1     -28.483 -16.601  10.416  1.00  0.00    -0.356 OA
HETATM    3  C6  UNL     1     -29.000 -17.786   9.990  1.00  0.00     0.151 C 
HETATM    4  C7  UNL     1     -29.913 -17.506   8.814  1.00  0.00     0.042 C 
HETATM    5  C8  UNL     1     -29.631 -18.629  11.039  1.00  0.00     0.174 C 
HETATM    6  O5  UNL     1     -30.240 -17.907  12.073  1.00  0.00    -0.372 OA
HETATM    7  C10 UNL     1     -29.375 -16.932  12.538  1.00  0.00     0.167 C 
HETATM    8  C11 UNL     1     -28.049 -17.517  12.945  1.00  0.00     0.044 C 
ENDROOT
BRANCH   1   9
HETATM    9  N2  UNL     1     -28.682 -14.705  11.786  1.00  0.00    -0.314 N 
BRANCH   9  10
HETATM   10  C2  UNL     1     -29.176 -14.059  12.980  1.00  0.00     0.099 C 
HETATM   11  C1  UNL     1     -28.299 -13.756  14.133  1.00  0.00     0.091 C 
HETATM   12  N1  UNL     1     -30.412 -13.740  13.038  1.00  0.00    -0.257 N 
ATOM     13  H1  UNL     1     -31.006 -13.954  12.237  1.00  0.00     0.195 HD
BRANCH  12  14
HETATM   14  O1  UNL     1     -30.973 -13.130  14.115  1.00  0.00    -0.288 OA
ATOM     15  H1  UNL     1     -31.790 -13.414  14.506  1.00  0.00     0.244 HD
ENDBRANCH  12  14
ENDBRANCH   9  10
BRANCH   9  16
HETATM   16  C3  UNL     1     -27.643 -14.036  11.046  1.00  0.00     0.219 C 
HETATM   17  C4  UNL     1     -27.892 -12.544  10.954  1.00  0.00     0.063 C 
BRANCH  16  18
HETATM   18  O2  UNL     1     -27.459 -14.498   9.755  1.00  0.00    -0.377 OA
ATOM     19  H2  UNL     1     -27.721 -15.401   9.614  1.00  0.00     0.212 HD
ENDBRANCH  16  18
ENDBRANCH   9  16
ENDBRANCH   1   9
BRANCH   5  20
HETATM   20  C9  UNL     1     -30.649 -19.607  10.530  1.00  0.00     0.198 C 
BRANCH  20  21
HETATM   21  O4  UNL     1     -31.264 -20.318  11.559  1.00  0.00    -0.398 OA
ATOM     22  H4  UNL     1     -31.752 -21.068  11.240  1.00  0.00     0.209 HD
ENDBRANCH  20  21
ENDBRANCH   5  20
TORSDOF 7
ENDMDL
MODEL 4
REMARK VINA RESULT: -5.975719298      1.397      2.266
REMARK  7 active torsions:
REMARK  status: ('A' for Active; 'I' for Inactive)
REMARK    1  A    between atoms: C2_2  and  N2_7 
REMARK    2  A    between atoms: N1_3  and  O1_5 
REMARK    3  A    between atoms: N2_7  and  C3_8 
REMARK    4  A    between atoms: N2_7  and  C5_12 
REMARK    5  A    between atoms: C3_8  and  O2_10 
REMARK    6  A    between atoms: C8_16  and  C9_17 
REMARK    7  A    between atoms: C9_17  and  O4_18 
ROOT
HETATM    1  C5  UNL     1     -28.859 -16.342  11.412  1.00  0.00     0.255 C 
HETATM    2  O3  UNL     1     -28.377 -17.143  10.423  1.00  0.00    -0.356 OA
HETATM    3  C6  UNL     1     -29.196 -18.159  10.034  1.00  0.00     0.151 C 
HETATM    4  C7  UNL     1     -30.079 -17.649   8.913  1.00  0.00     0.042 C 
HETATM    5  C8  UNL     1     -29.953 -18.830  11.122  1.00  0.00     0.174 C 
HETATM    6  O5  UNL     1     -30.303 -17.990  12.187  1.00  0.00    -0.372 OA
HETATM    7  C10 UNL     1     -29.197 -17.264  12.596  1.00  0.00     0.167 C 
HETATM    8  C11 UNL     1     -28.037 -18.164  12.926  1.00  0.00     0.044 C 
ENDROOT
BRANCH   1   9
HETATM    9  N2  UNL     1     -28.020 -15.271  11.795  1.00  0.00    -0.314 N 
BRANCH   9  10
HETATM   10  C2  UNL     1     -27.312 -14.495  10.803  1.00  0.00     0.099 C 
HETATM   11  C1  UNL     1     -27.714 -13.116  10.446  1.00  0.00     0.091 C 
HETATM   12  N1  UNL     1     -26.306 -15.020  10.217  1.00  0.00    -0.257 N 
ATOM     13  H1  UNL     1     -26.039 -15.971  10.471  1.00  0.00     0.195 HD
BRANCH  12  14
HETATM   14  O1  UNL     1     -25.575 -14.374   9.271  1.00  0.00    -0.288 OA
ATOM     15  H1  UNL     1     -25.885 -14.228   8.385  1.00  0.00     0.244 HD
ENDBRANCH  12  14
ENDBRANCH   9  10
BRANCH   9  16
HETATM   16  C3  UNL     1     -27.835 -14.914  13.178  1.00  0.00     0.219 C 
HETATM   17  C4  UNL     1     -28.835 -13.865  13.624  1.00  0.00     0.063 C 
BRANCH  16  18
HETATM   18  O2  UNL     1     -26.576 -14.436  13.492  1.00  0.00    -0.377 OA
ATOM     19  H2  UNL     1     -25.964 -14.418  12.765  1.00  0.00     0.212 HD
ENDBRANCH  16  18
ENDBRANCH   9  16
ENDBRANCH   1   9
BRANCH   5  20
HETATM   20  C9  UNL     1     -31.210 -19.520  10.679  1.00  0.00     0.198 C 
BRANCH  20  21
HETATM   21  O4  UNL     1     -31.585 -20.548  11.543  1.00  0.00    -0.398 OA
ATOM     22  H4  UNL     1     -31.790 -20.232  12.415  1.00  0.00     0.209 HD
ENDBRANCH  20  21
ENDBRANCH   5  20
TORSDOF 7
ENDMDL
MODEL 5
REMARK VINA RESULT: -5.955809036      2.928      5.065
REMARK  7 active torsions:
REMARK  status: ('A' for Active; 'I' for Inactive)
REMARK    1  A    between atoms: C2_2  and  N2_7 
REMARK    2  A    between atoms: N1_3  and  O1_5 
REMARK    3  A    between atoms: N2_7  and  C3_8 
REMARK    4  A    between atoms: N2_7  and  C5_12 
REMARK    5  A    between atoms: C3_8  and  O2_10 
REMARK    6  A    between atoms: C8_16  and  C9_17 
REMARK    7  A    between atoms: C9_17  and  O4_18 
ROOT
HETATM    1  C5  UNL     1     -27.367 -16.592  12.283  1.00  0.00     0.255 C 
HETATM    2  O3  UNL     1     -27.477 -15.624  13.234  1.00  0.00    -0.356 OA
HETATM    3  C6  UNL     1     -26.729 -15.812  14.356  1.00  0.00     0.151 C 
HETATM    4  C7  UNL     1     -25.379 -15.161  14.138  1.00  0.00     0.042 C 
HETATM    5  C8  UNL     1     -26.637 -17.214  14.843  1.00  0.00     0.174 C 
HETATM    6  O5  UNL     1     -26.673 -18.181  13.830  1.00  0.00    -0.372 OA
HETATM    7  C10 UNL     1     -27.725 -17.921  12.969  1.00  0.00     0.167 C 
HETATM    8  C11 UNL     1     -29.031 -17.810  13.710  1.00  0.00     0.044 C 
ENDROOT
BRANCH   1   9
HETATM    9  N2  UNL     1     -28.122 -16.380  11.107  1.00  0.00    -0.314 N 
BRANCH   9  10
HETATM   10  C2  UNL     1     -27.944 -17.227   9.950  1.00  0.00     0.099 C 
HETATM   11  C1  UNL     1     -29.023 -18.102   9.440  1.00  0.00     0.091 C 
HETATM   12  N1  UNL     1     -26.815 -17.217   9.352  1.00  0.00    -0.257 N 
ATOM     13  H1  UNL     1     -26.080 -16.610   9.713  1.00  0.00     0.195 HD
BRANCH  12  14
HETATM   14  O1  UNL     1     -26.548 -17.976   8.257  1.00  0.00    -0.288 OA
ATOM     15  H1  UNL     1     -26.642 -18.921   8.244  1.00  0.00     0.244 HD
ENDBRANCH  12  14
ENDBRANCH   9  10
BRANCH   9  16
HETATM   16  C3  UNL     1     -29.092 -15.318  11.014  1.00  0.00     0.219 C 
HETATM   17  C4  UNL     1     -28.433 -13.978  10.752  1.00  0.00     0.063 C 
BRANCH  16  18
HETATM   18  O2  UNL     1     -29.895 -15.166  12.130  1.00  0.00    -0.377 OA
ATOM     19  H2  UNL     1     -30.475 -15.898  12.307  1.00  0.00     0.212 HD
ENDBRANCH  16  18
ENDBRANCH   9  16
ENDBRANCH   1   9
BRANCH   5  20
HETATM   20  C9  UNL     1     -25.430 -17.507  15.685  1.00  0.00     0.198 C 
BRANCH  20  21
HETATM   21  O4  UNL     1     -25.058 -18.850  15.631  1.00  0.00    -0.398 OA
ATOM     22  H4  UNL     1     -24.770 -19.180  16.474  1.00  0.00     0.209 HD
ENDBRANCH  20  21
ENDBRANCH   5  20
TORSDOF 7
ENDMDL
