MODEL 1
REMARK VINA RESULT: -5.921622380      0.000      0.000
REMARK  3 active torsions:
REMARK  status: ('A' for Active; 'I' for Inactive)
REMARK    1  A    between atoms: C3_3  and  C4_4 
REMARK    2  A    between atoms: C4_4  and  C5_5 
REMARK    3  A    between atoms: C5_5  and  C6_6 
ROOT
HETATM    1  C1  UNL     1      -9.941 -33.348  20.446  1.00  0.00     0.012 C 
HETATM    2  C2  UNL     1     -10.042 -32.449  19.657  1.00  0.00    -0.117 C 
HETATM    3  C3  UNL     1     -10.178 -31.356  18.687  1.00  0.00     0.093 C 
ENDROOT
BRANCH   3   4
HETATM    4  C4  UNL     1     -11.424 -31.591  17.909  1.00  0.00     0.020 C 
BRANCH   4   5
HETATM    5  C5  UNL     1     -11.265 -32.620  16.812  1.00  0.00     0.076 C 
BRANCH   5   6
HETATM    6  C6  UNL     1     -10.014 -32.365  16.052  1.00  0.00     0.072 C 
HETATM    7  N1  UNL     1      -9.707 -31.329  15.358  1.00  0.00    -0.378 N 
HETATM    8  C7  UNL     1      -8.418 -31.399  14.750  1.00  0.00     0.140 C 
ATOM      9  H1  UNL     1     -10.329 -30.527  15.252  1.00  0.00     0.160 HD
HETATM   10  C8  UNL     1      -7.751 -32.547  15.476  1.00  0.00     0.140 C 
HETATM   11  N2  UNL     1      -8.914 -33.267  15.974  1.00  0.00    -0.378 N 
ATOM     12  H2  UNL     1      -8.937 -34.255  16.226  1.00  0.00     0.160 HD
ENDBRANCH   5   6
ENDBRANCH   4   5
ENDBRANCH   3   4
TORSDOF 3
ENDMDL
MODEL 2
REMARK VINA RESULT: -5.884831850      0.283      1.220
REMARK  3 active torsions:
REMARK  status: ('A' for Active; 'I' for Inactive)
REMARK    1  A    between atoms: C3_3  and  C4_4 
REMARK    2  A    between atoms: C4_4  and  C5_5 
REMARK    3  A    between atoms: C5_5  and  C6_6 
ROOT
HETATM    1  C1  UNL     1     -10.004 -33.302  20.496  1.00  0.00     0.012 C 
HETATM    2  C2  UNL     1     -10.058 -32.428  19.675  1.00  0.00    -0.117 C 
HETATM    3  C3  UNL     1     -10.139 -31.367  18.664  1.00  0.00     0.093 C 
ENDROOT
BRANCH   3   4
HETATM    4  C4  UNL     1     -11.341 -31.625  17.827  1.00  0.00     0.020 C 
BRANCH   4   5
HETATM    5  C5  UNL     1     -11.098 -32.622  16.717  1.00  0.00     0.076 C 
BRANCH   5   6
HETATM    6  C6  UNL     1      -9.869 -32.260  15.966  1.00  0.00     0.072 C 
HETATM    7  N1  UNL     1      -8.787 -32.941  15.842  1.00  0.00    -0.378 N 
HETATM    8  C7  UNL     1      -7.788 -32.304  15.047  1.00  0.00     0.140 C 
ATOM      9  H1  UNL     1      -8.654 -33.856  16.273  1.00  0.00     0.160 HD
HETATM   10  C8  UNL     1      -8.551 -31.203  14.344  1.00  0.00     0.140 C 
HETATM   11  N2  UNL     1      -9.692 -31.050  15.233  1.00  0.00    -0.378 N 
ATOM     12  H2  UNL     1     -10.271 -30.214  15.318  1.00  0.00     0.160 HD
ENDBRANCH   5   6
ENDBRANCH   4   5
ENDBRANCH   3   4
TORSDOF 3
ENDMDL
MODEL 3
REMARK VINA RESULT: -5.604830870      1.280      1.905
REMARK  3 active torsions:
REMARK  status: ('A' for Active; 'I' for Inactive)
REMARK    1  A    between atoms: C3_3  and  C4_4 
REMARK    2  A    between atoms: C4_4  and  C5_5 
REMARK    3  A    between atoms: C5_5  and  C6_6 
ROOT
HETATM    1  C1  UNL     1     -10.345 -30.620  19.103  1.00  0.00     0.012 C 
HETATM    2  C2  UNL     1      -9.893 -31.728  19.195  1.00  0.00    -0.117 C 
HETATM    3  C3  UNL     1      -9.333 -33.082  19.292  1.00  0.00     0.093 C 
ENDROOT
BRANCH   3   4
HETATM    4  C4  UNL     1      -8.615 -33.370  18.021  1.00  0.00     0.020 C 
BRANCH   4   5
HETATM    5  C5  UNL     1      -9.522 -33.405  16.812  1.00  0.00     0.076 C 
BRANCH   5   6
HETATM    6  C6  UNL     1      -9.071 -32.408  15.807  1.00  0.00     0.072 C 
HETATM    7  N1  UNL     1      -9.633 -31.299  15.485  1.00  0.00    -0.378 N 
HETATM    8  C7  UNL     1      -8.938 -30.567  14.476  1.00  0.00     0.140 C 
ATOM      9  H1  UNL     1     -10.499 -30.971  15.912  1.00  0.00     0.160 HD
HETATM   10  C8  UNL     1      -7.579 -31.233  14.436  1.00  0.00     0.140 C 
HETATM   11  N2  UNL     1      -7.894 -32.531  15.013  1.00  0.00    -0.378 N 
ATOM     12  H2  UNL     1      -7.359 -33.388  14.872  1.00  0.00     0.160 HD
ENDBRANCH   5   6
ENDBRANCH   4   5
ENDBRANCH   3   4
TORSDOF 3
ENDMDL
MODEL 4
REMARK VINA RESULT: -5.571352359      1.257      2.165
REMARK  3 active torsions:
REMARK  status: ('A' for Active; 'I' for Inactive)
REMARK    1  A    between atoms: C3_3  and  C4_4 
REMARK    2  A    between atoms: C4_4  and  C5_5 
REMARK    3  A    between atoms: C5_5  and  C6_6 
ROOT
HETATM    1  C1  UNL     1     -10.287 -30.476  19.074  1.00  0.00     0.012 C 
HETATM    2  C2  UNL     1      -9.918 -31.608  19.219  1.00  0.00    -0.117 C 
HETATM    3  C3  UNL     1      -9.460 -32.993  19.381  1.00  0.00     0.093 C 
ENDROOT
BRANCH   3   4
HETATM    4  C4  UNL     1      -8.699 -33.367  18.159  1.00  0.00     0.020 C 
BRANCH   4   5
HETATM    5  C5  UNL     1      -9.542 -33.375  16.903  1.00  0.00     0.076 C 
BRANCH   5   6
HETATM    6  C6  UNL     1      -8.938 -32.488  15.877  1.00  0.00     0.072 C 
HETATM    7  N1  UNL     1      -7.979 -32.755  15.065  1.00  0.00    -0.378 N 
HETATM    8  C7  UNL     1      -7.633 -31.675  14.200  1.00  0.00     0.140 C 
ATOM      9  H1  UNL     1      -7.507 -33.659  15.042  1.00  0.00     0.160 HD
HETATM   10  C8  UNL     1      -8.806 -30.729  14.336  1.00  0.00     0.140 C 
HETATM   11  N2  UNL     1      -9.346 -31.147  15.621  1.00  0.00    -0.378 N 
ATOM     12  H2  UNL     1      -9.921 -30.573  16.238  1.00  0.00     0.160 HD
ENDBRANCH   5   6
ENDBRANCH   4   5
ENDBRANCH   3   4
TORSDOF 3
ENDMDL
MODEL 5
REMARK VINA RESULT: -5.538548835      1.700      4.599
REMARK  3 active torsions:
REMARK  status: ('A' for Active; 'I' for Inactive)
REMARK    1  A    between atoms: C3_3  and  C4_4 
REMARK    2  A    between atoms: C4_4  and  C5_5 
REMARK    3  A    between atoms: C5_5  and  C6_6 
ROOT
HETATM    1  C1  UNL     1      -8.240 -29.549  14.283  1.00  0.00     0.012 C 
HETATM    2  C2  UNL     1      -8.035 -30.730  14.336  1.00  0.00    -0.117 C 
HETATM    3  C3  UNL     1      -7.784 -32.174  14.418  1.00  0.00     0.093 C 
ENDROOT
BRANCH   3   4
HETATM    4  C4  UNL     1      -7.725 -32.545  15.857  1.00  0.00     0.020 C 
BRANCH   4   5
HETATM    5  C5  UNL     1      -8.886 -33.405  16.305  1.00  0.00     0.076 C 
BRANCH   5   6
HETATM    6  C6  UNL     1      -9.300 -33.027  17.680  1.00  0.00     0.072 C 
HETATM    7  N1  UNL     1     -10.244 -32.230  18.032  1.00  0.00    -0.378 N 
HETATM    8  C7  UNL     1     -10.382 -32.080  19.444  1.00  0.00     0.140 C 
ATOM      9  H1  UNL     1     -10.841 -31.746  17.361  1.00  0.00     0.160 HD
HETATM   10  C8  UNL     1      -9.572 -33.232  19.998  1.00  0.00     0.140 C 
HETATM   11  N2  UNL     1      -8.690 -33.511  18.874  1.00  0.00    -0.378 N 
ATOM     12  H2  UNL     1      -7.784 -33.976  18.932  1.00  0.00     0.160 HD
ENDBRANCH   5   6
ENDBRANCH   4   5
ENDBRANCH   3   4
TORSDOF 3
ENDMDL
