MODEL 1
REMARK VINA RESULT: -7.192740723      0.000      0.000
REMARK  5 active torsions:
REMARK  status: ('A' for Active; 'I' for Inactive)
REMARK    1  A    between atoms: C2_2  and  O2_4 
REMARK    2  A    between atoms: O2_4  and  C3_5 
REMARK    3  A    between atoms: C10_12  and  O3_13 
REMARK    4  A    between atoms: C16_21  and  C18_23 
REMARK    5  A    between atoms: C18_23  and  O5_24 
ROOT
HETATM    1  C3  UNL     1      28.223   9.759  20.774  1.00  0.00     0.132 C 
HETATM    2  C4  UNL     1      28.381   9.992  19.277  1.00  0.00     0.033 C 
HETATM    3  C5  UNL     1      27.141  10.635  18.700  1.00  0.00     0.012 C 
HETATM    4  C6  UNL     1      26.997  12.074  19.214  1.00  0.00    -0.034 C 
HETATM    5  C7  UNL     1      27.931  12.868  18.329  1.00  0.00     0.016 C 
HETATM    6  C8  UNL     1      27.541  12.088  20.599  1.00  0.00     0.025 C 
HETATM    7  C9  UNL     1      27.186  10.763  21.254  1.00  0.00     0.040 C 
HETATM    8  C10 UNL     1      27.125  13.225  21.448  1.00  0.00     0.123 C 
HETATM    9  C11 UNL     1      26.156  14.179  20.835  1.00  0.00     0.040 C 
HETATM   10  C12 UNL     1      25.069  13.375  20.157  1.00  0.00     0.029 C 
HETATM   11  C13 UNL     1      25.570  12.475  19.088  1.00  0.00     0.003 C 
HETATM   12  C14 UNL     1      25.357  13.011  17.685  1.00  0.00     0.032 C 
HETATM   13  C15 UNL     1      24.031  13.741  17.563  1.00  0.00     0.169 C 
HETATM   14  O4  UNL     1      24.111  14.808  18.464  1.00  0.00    -0.378 OA
HETATM   15  C16 UNL     1      23.969  14.305  19.747  1.00  0.00     0.082 C 
HETATM   16  C17 UNL     1      22.619  13.592  19.802  1.00  0.00     0.049 C 
ENDROOT
BRANCH   1  17
HETATM   17  O2  UNL     1      29.431  10.123  21.457  1.00  0.00    -0.316 OA
BRANCH  17  18
HETATM   18  C2  UNL     1      29.517  10.168  22.835  1.00  0.00     0.255 C 
HETATM   19  C1  UNL     1      29.814   8.933  23.617  1.00  0.00     0.126 C 
HETATM   20  O1  UNL     1      29.335  11.284  23.383  1.00  0.00    -0.266 OA
ENDBRANCH  17  18
ENDBRANCH   1  17
BRANCH   8  21
HETATM   21  O3  UNL     1      26.532  12.745  22.640  1.00  0.00    -0.395 OA
ATOM     22  H3  UNL     1      26.013  13.431  23.042  1.00  0.00     0.210 HD
ENDBRANCH   8  21
BRANCH  15  23
HETATM   23  C18 UNL     1      23.853  15.498  20.676  1.00  0.00     0.202 C 
BRANCH  23  24
HETATM   24  O5  UNL     1      22.465  15.722  20.834  1.00  0.00    -0.398 OA
ATOM     25  H5  UNL     1      22.240  15.346  21.677  1.00  0.00     0.209 HD
ENDBRANCH  23  24
ENDBRANCH  15  23
TORSDOF 5
ENDMDL
MODEL 2
REMARK VINA RESULT: -7.081863829      2.563      5.732
REMARK  5 active torsions:
REMARK  status: ('A' for Active; 'I' for Inactive)
REMARK    1  A    between atoms: C2_2  and  O2_4 
REMARK    2  A    between atoms: O2_4  and  C3_5 
REMARK    3  A    between atoms: C10_12  and  O3_13 
REMARK    4  A    between atoms: C16_21  and  C18_23 
REMARK    5  A    between atoms: C18_23  and  O5_24 
ROOT
HETATM    1  C3  UNL     1      22.456  12.234  19.979  1.00  0.00     0.132 C 
HETATM    2  C4  UNL     1      22.959  13.141  18.862  1.00  0.00     0.033 C 
HETATM    3  C5  UNL     1      24.330  13.687  19.190  1.00  0.00     0.012 C 
HETATM    4  C6  UNL     1      25.374  12.562  19.157  1.00  0.00    -0.034 C 
HETATM    5  C7  UNL     1      25.688  12.405  17.688  1.00  0.00     0.016 C 
HETATM    6  C8  UNL     1      24.686  11.328  19.624  1.00  0.00     0.025 C 
HETATM    7  C9  UNL     1      23.694  11.726  20.704  1.00  0.00     0.040 C 
HETATM    8  C10 UNL     1      25.564  10.233  20.091  1.00  0.00     0.123 C 
HETATM    9  C11 UNL     1      27.025  10.527  20.103  1.00  0.00     0.040 C 
HETATM   10  C12 UNL     1      27.226  11.895  20.716  1.00  0.00     0.029 C 
HETATM   11  C13 UNL     1      26.542  12.986  19.976  1.00  0.00     0.003 C 
HETATM   12  C14 UNL     1      27.466  13.797  19.088  1.00  0.00     0.032 C 
HETATM   13  C15 UNL     1      28.827  13.995  19.732  1.00  0.00     0.169 C 
HETATM   14  O4  UNL     1      29.349  12.708  19.898  1.00  0.00    -0.378 OA
HETATM   15  C16 UNL     1      28.689  12.104  20.955  1.00  0.00     0.082 C 
HETATM   16  C17 UNL     1      28.908  12.987  22.183  1.00  0.00     0.049 C 
ENDROOT
BRANCH   1  17
HETATM   17  O2  UNL     1      21.847  11.061  19.423  1.00  0.00    -0.316 OA
BRANCH  17  18
HETATM   18  C2  UNL     1      21.566   9.943  20.182  1.00  0.00     0.255 C 
HETATM   19  C1  UNL     1      20.639  10.032  21.348  1.00  0.00     0.126 C 
HETATM   20  O1  UNL     1      22.120   8.867  19.846  1.00  0.00    -0.266 OA
ENDBRANCH  17  18
ENDBRANCH   1  17
BRANCH   8  21
HETATM   21  O3  UNL     1      25.207   9.859  21.408  1.00  0.00    -0.395 OA
ATOM     22  H3  UNL     1      25.143   8.913  21.469  1.00  0.00     0.210 HD
ENDBRANCH   8  21
BRANCH  15  23
HETATM   23  C18 UNL     1      29.413  10.802  21.240  1.00  0.00     0.202 C 
BRANCH  23  24
HETATM   24  O5  UNL     1      30.634  11.173  21.851  1.00  0.00    -0.398 OA
ATOM     25  H5  UNL     1      31.316  10.833  21.284  1.00  0.00     0.209 HD
ENDBRANCH  23  24
ENDBRANCH  15  23
TORSDOF 5
ENDMDL
MODEL 3
REMARK VINA RESULT: -7.049850469      3.373      4.736
REMARK  5 active torsions:
REMARK  status: ('A' for Active; 'I' for Inactive)
REMARK    1  A    between atoms: C2_2  and  O2_4 
REMARK    2  A    between atoms: O2_4  and  C3_5 
REMARK    3  A    between atoms: C10_12  and  O3_13 
REMARK    4  A    between atoms: C16_21  and  C18_23 
REMARK    5  A    between atoms: C18_23  and  O5_24 
ROOT
HETATM    1  C3  UNL     1      26.077  10.584  18.709  1.00  0.00     0.132 C 
HETATM    2  C4  UNL     1      24.722  10.479  18.018  1.00  0.00     0.033 C 
HETATM    3  C5  UNL     1      23.651  10.063  18.999  1.00  0.00     0.012 C 
HETATM    4  C6  UNL     1      23.386  11.187  20.010  1.00  0.00    -0.034 C 
HETATM    5  C7  UNL     1      22.468  12.131  19.268  1.00  0.00     0.016 C 
HETATM    6  C8  UNL     1      24.687  11.876  20.231  1.00  0.00     0.025 C 
HETATM    7  C9  UNL     1      25.785  10.827  20.182  1.00  0.00     0.040 C 
HETATM    8  C10 UNL     1      24.789  12.691  21.461  1.00  0.00     0.123 C 
HETATM    9  C11 UNL     1      23.602  12.665  22.363  1.00  0.00     0.040 C 
HETATM   10  C12 UNL     1      23.153  11.228  22.510  1.00  0.00     0.029 C 
HETATM   11  C13 UNL     1      22.772  10.587  21.225  1.00  0.00     0.003 C 
HETATM   12  C14 UNL     1      21.273  10.510  21.001  1.00  0.00     0.032 C 
HETATM   13  C15 UNL     1      20.530  10.220  22.294  1.00  0.00     0.169 C 
HETATM   14  O4  UNL     1      20.821  11.298  23.137  1.00  0.00    -0.378 OA
HETATM   15  C16 UNL     1      22.121  11.155  23.592  1.00  0.00     0.082 C 
HETATM   16  C17 UNL     1      22.199   9.810  24.313  1.00  0.00     0.049 C 
ENDROOT
BRANCH   1  17
HETATM   17  O2  UNL     1      26.762  11.764  18.269  1.00  0.00    -0.316 OA
BRANCH  17  18
HETATM   18  C2  UNL     1      28.133  11.901  18.362  1.00  0.00     0.255 C 
HETATM   19  C1  UNL     1      28.735  13.160  18.893  1.00  0.00     0.126 C 
HETATM   20  O1  UNL     1      28.833  10.929  17.984  1.00  0.00    -0.266 OA
ENDBRANCH  17  18
ENDBRANCH   1  17
BRANCH   8  21
HETATM   21  O3  UNL     1      25.899  12.267  22.228  1.00  0.00    -0.395 OA
ATOM     22  H3  UNL     1      26.343  13.021  22.598  1.00  0.00     0.210 HD
ENDBRANCH   8  21
BRANCH  15  23
HETATM   23  C18 UNL     1      22.334  12.214  24.656  1.00  0.00     0.202 C 
BRANCH  23  24
HETATM   24  O5  UNL     1      23.181  11.619  25.620  1.00  0.00    -0.398 OA
ATOM     25  H5  UNL     1      23.464  12.329  26.184  1.00  0.00     0.209 HD
ENDBRANCH  23  24
ENDBRANCH  15  23
TORSDOF 5
ENDMDL
MODEL 4
REMARK VINA RESULT: -7.026149020      4.860      6.869
REMARK  5 active torsions:
REMARK  status: ('A' for Active; 'I' for Inactive)
REMARK    1  A    between atoms: C2_2  and  O2_4 
REMARK    2  A    between atoms: O2_4  and  C3_5 
REMARK    3  A    between atoms: C10_12  and  O3_13 
REMARK    4  A    between atoms: C16_21  and  C18_23 
REMARK    5  A    between atoms: C18_23  and  O5_24 
ROOT
HETATM    1  C3  UNL     1      22.634  14.467  25.949  1.00  0.00     0.132 C 
HETATM    2  C4  UNL     1      21.687  15.084  24.926  1.00  0.00     0.033 C 
HETATM    3  C5  UNL     1      22.106  14.722  23.520  1.00  0.00     0.012 C 
HETATM    4  C6  UNL     1      21.887  13.223  23.267  1.00  0.00    -0.034 C 
HETATM    5  C7  UNL     1      20.412  13.123  22.951  1.00  0.00     0.016 C 
HETATM    6  C8  UNL     1      22.137  12.532  24.561  1.00  0.00     0.025 C 
HETATM    7  C9  UNL     1      23.266  13.261  25.270  1.00  0.00     0.040 C 
HETATM    8  C10 UNL     1      22.415  11.082  24.478  1.00  0.00     0.123 C 
HETATM    9  C11 UNL     1      22.480  10.506  23.105  1.00  0.00     0.040 C 
HETATM   10  C12 UNL     1      23.316  11.429  22.246  1.00  0.00     0.029 C 
HETATM   11  C13 UNL     1      22.769  12.806  22.144  1.00  0.00     0.003 C 
HETATM   12  C14 UNL     1      22.032  13.078  20.845  1.00  0.00     0.032 C 
HETATM   13  C15 UNL     1      22.704  12.393  19.668  1.00  0.00     0.169 C 
HETATM   14  O4  UNL     1      22.652  11.025  19.958  1.00  0.00    -0.378 OA
HETATM   15  C16 UNL     1      23.591  10.752  20.939  1.00  0.00     0.082 C 
HETATM   16  C17 UNL     1      24.950  11.183  20.391  1.00  0.00     0.049 C 
ENDROOT
BRANCH   1  17
HETATM   17  O2  UNL     1      21.886  13.924  27.045  1.00  0.00    -0.316 OA
BRANCH  17  18
HETATM   18  C2  UNL     1      22.493  13.300  28.117  1.00  0.00     0.255 C 
HETATM   19  C1  UNL     1      21.835  12.143  28.793  1.00  0.00     0.126 C 
HETATM   20  O1  UNL     1      23.607  13.749  28.486  1.00  0.00    -0.266 OA
ENDBRANCH  17  18
ENDBRANCH   1  17
BRANCH   8  21
HETATM   21  O3  UNL     1      23.649  10.792  25.106  1.00  0.00    -0.395 OA
ATOM     22  H3  UNL     1      24.014   9.991  24.748  1.00  0.00     0.210 HD
ENDBRANCH   8  21
BRANCH  15  23
HETATM   23  C18 UNL     1      23.654   9.243  21.080  1.00  0.00     0.202 C 
BRANCH  23  24
HETATM   24  O5  UNL     1      22.705   8.737  20.161  1.00  0.00    -0.398 OA
ATOM     25  H5  UNL     1      22.819   7.794  20.171  1.00  0.00     0.209 HD
ENDBRANCH  23  24
ENDBRANCH  15  23
TORSDOF 5
ENDMDL
MODEL 5
REMARK VINA RESULT: -6.990877232      2.860      4.355
REMARK  5 active torsions:
REMARK  status: ('A' for Active; 'I' for Inactive)
REMARK    1  A    between atoms: C2_2  and  O2_4 
REMARK    2  A    between atoms: O2_4  and  C3_5 
REMARK    3  A    between atoms: C10_12  and  O3_13 
REMARK    4  A    between atoms: C16_21  and  C18_23 
REMARK    5  A    between atoms: C18_23  and  O5_24 
ROOT
HETATM    1  C3  UNL     1      26.453  11.839  18.258  1.00  0.00     0.132 C 
HETATM    2  C4  UNL     1      25.099  12.146  17.630  1.00  0.00     0.033 C 
HETATM    3  C5  UNL     1      23.975  11.636  18.502  1.00  0.00     0.012 C 
HETATM    4  C6  UNL     1      23.895  12.449  19.801  1.00  0.00    -0.034 C 
HETATM    5  C7  UNL     1      23.140  13.696  19.399  1.00  0.00     0.016 C 
HETATM    6  C8  UNL     1      25.289  12.837  20.147  1.00  0.00     0.025 C 
HETATM    7  C9  UNL     1      26.205  11.691  19.752  1.00  0.00     0.040 C 
HETATM    8  C10 UNL     1      25.521  13.239  21.551  1.00  0.00     0.123 C 
HETATM    9  C11 UNL     1      24.346  13.138  22.463  1.00  0.00     0.040 C 
HETATM   10  C12 UNL     1      23.672  11.806  22.218  1.00  0.00     0.029 C 
HETATM   11  C13 UNL     1      23.192  11.628  20.823  1.00  0.00     0.003 C 
HETATM   12  C14 UNL     1      21.700  11.849  20.656  1.00  0.00     0.032 C 
HETATM   13  C15 UNL     1      20.921  11.319  21.847  1.00  0.00     0.169 C 
HETATM   14  O4  UNL     1      21.381  12.051  22.946  1.00  0.00    -0.378 OA
HETATM   15  C16 UNL     1      22.642  11.585  23.282  1.00  0.00     0.082 C 
HETATM   16  C17 UNL     1      22.503  10.095  23.588  1.00  0.00     0.049 C 
ENDROOT
BRANCH   1  17
HETATM   17  O2  UNL     1      27.319  12.975  18.139  1.00  0.00    -0.316 OA
BRANCH  17  18
HETATM   18  C2  UNL     1      28.607  12.980  18.638  1.00  0.00     0.255 C 
HETATM   19  C1  UNL     1      29.605  11.975  18.168  1.00  0.00     0.126 C 
HETATM   20  O1  UNL     1      28.888  13.858  19.491  1.00  0.00    -0.266 OA
ENDBRANCH  17  18
ENDBRANCH   1  17
BRANCH   8  21
HETATM   21  O3  UNL     1      26.549  12.447  22.115  1.00  0.00    -0.395 OA
ATOM     22  H3  UNL     1      26.658  12.664  23.033  1.00  0.00     0.210 HD
ENDBRANCH   8  21
BRANCH  15  23
HETATM   23  C18 UNL     1      23.023  12.249  24.591  1.00  0.00     0.202 C 
BRANCH  23  24
HETATM   24  O5  UNL     1      23.628  11.234  25.369  1.00  0.00    -0.398 OA
ATOM     25  H5  UNL     1      23.415  11.442  26.271  1.00  0.00     0.209 HD
ENDBRANCH  23  24
ENDBRANCH  15  23
TORSDOF 5
ENDMDL
