MODEL 1
REMARK VINA RESULT: -6.496308339      0.000      0.000
REMARK  8 active torsions:
REMARK  status: ('A' for Active; 'I' for Inactive)
REMARK    1  A    between atoms: C2_2  and  C3_3 
REMARK    2  A    between atoms: C3_3  and  C4_4 
REMARK    3  A    between atoms: C4_4  and  N1_5 
REMARK    4  A    between atoms: N1_5  and  C6_7 
REMARK    5  A    between atoms: N1_5  and  C11_12 
REMARK    6  A    between atoms: C6_7  and  C7_8 
REMARK    7  A    between atoms: C12_14  and  C13_15 
REMARK    8  A    between atoms: C17_26  and  C18_27 
ROOT
HETATM    1  C11 UNL     1      18.312  14.415  16.279  1.00  0.00     0.290 C 
HETATM    2  S1  UNL     1      16.859  13.843  17.160  1.00  0.00    -0.094 SA
HETATM    3  C12 UNL     1      17.783  12.841  18.392  1.00  0.00     0.301 C 
HETATM    4  N3  UNL     1      19.097  12.824  17.868  1.00  0.00    -0.043 N 
ATOM      5  H31 UNL     1      19.249  12.006  17.277  1.00  0.00     0.280 HD
ATOM      6  H32 UNL     1      19.783  12.626  18.596  1.00  0.00     0.280 HD
HETATM    7  C17 UNL     1      19.408  14.025  17.177  1.00  0.00     0.289 C 
ENDROOT
BRANCH   1   8
HETATM    8  N1  UNL     1      18.248  15.808  15.884  1.00  0.00    -0.055 N 
HETATM    9  C5  UNL     1      19.224  16.565  16.655  1.00  0.00     0.274 C 
BRANCH   8  10
HETATM   10  C4  UNL     1      16.988  16.337  16.400  1.00  0.00     0.238 C 
BRANCH  10  11
HETATM   11  C3  UNL     1      17.071  17.148  17.633  1.00  0.00     0.028 C 
BRANCH  11  12
HETATM   12  C2  UNL     1      15.721  17.875  17.797  1.00  0.00    -0.003 C 
HETATM   13  C1  UNL     1      14.575  16.907  17.629  1.00  0.00     0.005 C 
ENDBRANCH  11  12
ENDBRANCH  10  11
ENDBRANCH   8  10
BRANCH   8  14
HETATM   14  C6  UNL     1      18.380  15.886  14.494  1.00  0.00     0.246 C 
BRANCH  14  15
HETATM   15  C7  UNL     1      19.524  16.471  13.800  1.00  0.00    -0.027 C 
HETATM   16  C8  UNL     1      20.000  17.828  14.157  1.00  0.00     0.016 C 
HETATM   17  C9  UNL     1      19.021  16.593  12.331  1.00  0.00     0.016 C 
HETATM   18  C10 UNL     1      20.749  15.577  13.646  1.00  0.00     0.016 C 
ENDBRANCH  14  15
ENDBRANCH   8  14
ENDBRANCH   1   8
BRANCH   7  19
HETATM   19  C18 UNL     1      20.649  13.800  16.415  1.00  0.00     0.267 C 
HETATM   20  O1  UNL     1      21.416  12.930  16.759  1.00  0.00    -0.305 OA
ENDBRANCH   7  19
BRANCH   3  21
HETATM   21  C13 UNL     1      17.239  11.483  18.454  1.00  0.00     0.069 A 
HETATM   22  N2  UNL     1      16.225  11.122  19.295  1.00  0.00    -0.347 N 
HETATM   23  C14 UNL     1      15.936   9.805  19.117  1.00  0.00     0.105 A 
ATOM     24  H2  UNL     1      15.757  11.743  19.955  1.00  0.00     0.167 HD
HETATM   25 CL1  UNL     1      14.709   8.878  19.965  1.00  0.00    -0.065 Cl
HETATM   26  C15 UNL     1      16.765   9.299  18.152  1.00  0.00     0.063 A 
HETATM   27  C16 UNL     1      17.565  10.354  17.753  1.00  0.00     0.039 A 
HETATM   28 BR1  UNL     1      18.921  10.166  16.410  1.00  0.00    -0.049 Br
ENDBRANCH   3  21
TORSDOF 8
ENDMDL
MODEL 2
REMARK VINA RESULT: -6.490710978      2.622      4.083
REMARK  8 active torsions:
REMARK  status: ('A' for Active; 'I' for Inactive)
REMARK    1  A    between atoms: C2_2  and  C3_3 
REMARK    2  A    between atoms: C3_3  and  C4_4 
REMARK    3  A    between atoms: C4_4  and  N1_5 
REMARK    4  A    between atoms: N1_5  and  C6_7 
REMARK    5  A    between atoms: N1_5  and  C11_12 
REMARK    6  A    between atoms: C6_7  and  C7_8 
REMARK    7  A    between atoms: C12_14  and  C13_15 
REMARK    8  A    between atoms: C17_26  and  C18_27 
ROOT
HETATM    1  C11 UNL     1      20.271  13.012  14.733  1.00  0.00     0.290 C 
HETATM    2  S1  UNL     1      18.611  13.254  15.362  1.00  0.00    -0.094 SA
HETATM    3  C12 UNL     1      19.135  13.781  17.043  1.00  0.00     0.301 C 
HETATM    4  N3  UNL     1      20.516  13.478  17.055  1.00  0.00    -0.043 N 
ATOM      5  H31 UNL     1      20.689  12.546  17.432  1.00  0.00     0.280 HD
ATOM      6  H32 UNL     1      21.010  14.029  17.758  1.00  0.00     0.280 HD
HETATM    7  C17 UNL     1      21.105  13.633  15.772  1.00  0.00     0.289 C 
ENDROOT
BRANCH   1   8
HETATM    8  N1  UNL     1      20.457  13.478  13.373  1.00  0.00    -0.055 N 
HETATM    9  C5  UNL     1      21.566  12.752  12.771  1.00  0.00     0.274 C 
BRANCH   8  10
HETATM   10  C4  UNL     1      21.002  14.831  13.461  1.00  0.00     0.238 C 
BRANCH  10  11
HETATM   11  C3  UNL     1      20.891  15.665  12.246  1.00  0.00     0.028 C 
BRANCH  11  12
HETATM   12  C2  UNL     1      19.954  16.843  12.581  1.00  0.00    -0.003 C 
HETATM   13  C1  UNL     1      19.895  17.065  14.073  1.00  0.00     0.005 C 
ENDBRANCH  11  12
ENDBRANCH  10  11
ENDBRANCH   8  10
BRANCH   8  14
HETATM   14  C6  UNL     1      19.236  13.391  12.698  1.00  0.00     0.246 C 
BRANCH  14  15
HETATM   15  C7  UNL     1      18.954  12.459  11.609  1.00  0.00    -0.027 C 
HETATM   16  C8  UNL     1      19.601  12.637  10.287  1.00  0.00     0.016 C 
HETATM   17  C9  UNL     1      17.435  12.674  11.346  1.00  0.00     0.016 C 
HETATM   18  C10 UNL     1      19.014  10.977  11.957  1.00  0.00     0.016 C 
ENDBRANCH  14  15
ENDBRANCH   8  14
ENDBRANCH   1   8
BRANCH   7  19
HETATM   19  C18 UNL     1      22.440  13.011  15.809  1.00  0.00     0.267 C 
HETATM   20  O1  UNL     1      23.097  13.057  16.823  1.00  0.00    -0.305 OA
ENDBRANCH   7  19
BRANCH   3  21
HETATM   21  C13 UNL     1      18.432  13.000  18.063  1.00  0.00     0.069 A 
HETATM   22  N2  UNL     1      17.759  13.569  19.107  1.00  0.00    -0.347 N 
HETATM   23  C14 UNL     1      17.206  12.593  19.875  1.00  0.00     0.105 A 
ATOM     24  H2  UNL     1      17.684  14.571  19.284  1.00  0.00     0.167 HD
HETATM   25 CL1  UNL     1      16.247  12.821  21.329  1.00  0.00    -0.065 Cl
HETATM   26  C15 UNL     1      17.516  11.375  19.331  1.00  0.00     0.063 A 
HETATM   27  C16 UNL     1      18.276  11.649  18.208  1.00  0.00     0.039 A 
HETATM   28 BR1  UNL     1      18.980  10.266  17.082  1.00  0.00    -0.049 Br
ENDBRANCH   3  21
TORSDOF 8
ENDMDL
MODEL 3
REMARK VINA RESULT: -6.483573392      2.926      3.347
REMARK  8 active torsions:
REMARK  status: ('A' for Active; 'I' for Inactive)
REMARK    1  A    between atoms: C2_2  and  C3_3 
REMARK    2  A    between atoms: C3_3  and  C4_4 
REMARK    3  A    between atoms: C4_4  and  N1_5 
REMARK    4  A    between atoms: N1_5  and  C6_7 
REMARK    5  A    between atoms: N1_5  and  C11_12 
REMARK    6  A    between atoms: C6_7  and  C7_8 
REMARK    7  A    between atoms: C12_14  and  C13_15 
REMARK    8  A    between atoms: C17_26  and  C18_27 
ROOT
HETATM    1  C11 UNL     1      18.264  13.832  15.835  1.00  0.00     0.290 C 
HETATM    2  S1  UNL     1      19.804  13.250  16.545  1.00  0.00    -0.094 SA
HETATM    3  C12 UNL     1      19.956  11.778  15.456  1.00  0.00     0.301 C 
HETATM    4  N3  UNL     1      18.692  11.718  14.824  1.00  0.00    -0.043 N 
ATOM      5  H31 UNL     1      18.049  11.114  15.337  1.00  0.00     0.280 HD
ATOM      6  H32 UNL     1      18.740  11.195  13.949  1.00  0.00     0.280 HD
HETATM    7  C17 UNL     1      18.137  13.009  14.622  1.00  0.00     0.289 C 
ENDROOT
BRANCH   1   8
HETATM    8  N1  UNL     1      18.202  15.269  15.665  1.00  0.00    -0.055 N 
HETATM    9  C5  UNL     1      19.094  15.899  16.628  1.00  0.00     0.274 C 
BRANCH   8  10
HETATM   10  C4  UNL     1      16.892  15.695  16.153  1.00  0.00     0.238 C 
BRANCH  10  11
HETATM   11  C3  UNL     1      16.788  15.973  17.601  1.00  0.00     0.028 C 
BRANCH  11  12
HETATM   12  C2  UNL     1      16.098  17.344  17.758  1.00  0.00    -0.003 C 
HETATM   13  C1  UNL     1      14.597  17.188  17.725  1.00  0.00     0.005 C 
ENDBRANCH  11  12
ENDBRANCH  10  11
ENDBRANCH   8  10
BRANCH   8  14
HETATM   14  C6  UNL     1      18.444  15.574  14.323  1.00  0.00     0.246 C 
BRANCH  14  15
HETATM   15  C7  UNL     1      19.613  16.301  13.834  1.00  0.00    -0.027 C 
HETATM   16  C8  UNL     1      19.905  17.667  14.331  1.00  0.00     0.016 C 
HETATM   17  C9  UNL     1      19.309  16.481  12.318  1.00  0.00     0.016 C 
HETATM   18  C10 UNL     1      20.927  15.528  13.808  1.00  0.00     0.016 C 
ENDBRANCH  14  15
ENDBRANCH   8  14
ENDBRANCH   1   8
BRANCH   7  19
HETATM   19  C18 UNL     1      16.720  12.841  14.255  1.00  0.00     0.267 C 
HETATM   20  O1  UNL     1      16.424  12.542  13.121  1.00  0.00    -0.305 OA
ENDBRANCH   7  19
BRANCH   3  21
HETATM   21  C13 UNL     1      20.185  10.574  16.257  1.00  0.00     0.069 A 
HETATM   22  N2  UNL     1      21.332   9.837  16.186  1.00  0.00    -0.347 N 
HETATM   23  C14 UNL     1      21.253   8.790  17.050  1.00  0.00     0.105 A 
ATOM     24  H2  UNL     1      22.127  10.040  15.580  1.00  0.00     0.167 HD
HETATM   25 CL1  UNL     1      22.477   7.560  17.322  1.00  0.00    -0.065 Cl
HETATM   26  C15 UNL     1      20.045   8.841  17.693  1.00  0.00     0.063 A 
HETATM   27  C16 UNL     1      19.398   9.954  17.187  1.00  0.00     0.039 A 
HETATM   28 BR1  UNL     1      17.642  10.470  17.760  1.00  0.00    -0.049 Br
ENDBRANCH   3  21
TORSDOF 8
ENDMDL
MODEL 4
REMARK VINA RESULT: -6.337118011      3.088      4.258
REMARK  8 active torsions:
REMARK  status: ('A' for Active; 'I' for Inactive)
REMARK    1  A    between atoms: C2_2  and  C3_3 
REMARK    2  A    between atoms: C3_3  and  C4_4 
REMARK    3  A    between atoms: C4_4  and  N1_5 
REMARK    4  A    between atoms: N1_5  and  C6_7 
REMARK    5  A    between atoms: N1_5  and  C11_12 
REMARK    6  A    between atoms: C6_7  and  C7_8 
REMARK    7  A    between atoms: C12_14  and  C13_15 
REMARK    8  A    between atoms: C17_26  and  C18_27 
ROOT
HETATM    1  C11 UNL     1      19.307  12.287  14.185  1.00  0.00     0.290 C 
HETATM    2  S1  UNL     1      18.112  13.107  15.240  1.00  0.00    -0.094 SA
HETATM    3  C12 UNL     1      19.140  13.033  16.761  1.00  0.00     0.301 C 
HETATM    4  N3  UNL     1      20.193  12.164  16.392  1.00  0.00    -0.043 N 
ATOM      5  H31 UNL     1      19.981  11.198  16.642  1.00  0.00     0.280 HD
ATOM      6  H32 UNL     1      21.014  12.306  16.981  1.00  0.00     0.280 HD
HETATM    7  C17 UNL     1      20.520  12.280  15.015  1.00  0.00     0.289 C 
ENDROOT
BRANCH   1   8
HETATM    8  N1  UNL     1      19.417  12.866  12.861  1.00  0.00    -0.055 N 
HETATM    9  C5  UNL     1      20.771  13.367  12.674  1.00  0.00     0.274 C 
BRANCH   8  10
HETATM   10  C4  UNL     1      18.643  14.104  12.877  1.00  0.00     0.238 C 
BRANCH  10  11
HETATM   11  C3  UNL     1      19.328  15.315  12.377  1.00  0.00     0.028 C 
BRANCH  11  12
HETATM   12  C2  UNL     1      18.851  16.502  13.239  1.00  0.00    -0.003 C 
HETATM   13  C1  UNL     1      20.031  17.251  13.810  1.00  0.00     0.005 C 
ENDBRANCH  11  12
ENDBRANCH  10  11
ENDBRANCH   8  10
BRANCH   8  14
HETATM   14  C6  UNL     1      18.982  11.926  11.922  1.00  0.00     0.246 C 
BRANCH  14  15
HETATM   15  C7  UNL     1      17.860  12.122  11.008  1.00  0.00    -0.027 C 
HETATM   16  C8  UNL     1      16.509  12.425  11.537  1.00  0.00     0.016 C 
HETATM   17  C9  UNL     1      17.720  10.733  10.318  1.00  0.00     0.016 C 
HETATM   18  C10 UNL     1      18.110  13.045   9.822  1.00  0.00     0.016 C 
ENDBRANCH  14  15
ENDBRANCH   8  14
ENDBRANCH   1   8
BRANCH   7  19
HETATM   19  C18 UNL     1      21.388  11.144  14.658  1.00  0.00     0.267 C 
HETATM   20  O1  UNL     1      20.898  10.060  14.438  1.00  0.00    -0.305 OA
ENDBRANCH   7  19
BRANCH   3  21
HETATM   21  C13 UNL     1      18.371  12.464  17.869  1.00  0.00     0.069 A 
HETATM   22  N2  UNL     1      17.893  13.211  18.908  1.00  0.00    -0.347 N 
HETATM   23  C14 UNL     1      17.215  12.406  19.770  1.00  0.00     0.105 A 
ATOM     24  H2  UNL     1      18.024  14.216  19.020  1.00  0.00     0.167 HD
HETATM   25 CL1  UNL     1      16.418  12.899  21.255  1.00  0.00    -0.065 Cl
HETATM   26  C15 UNL     1      17.248  11.123  19.292  1.00  0.00     0.063 A 
HETATM   27  C16 UNL     1      17.968  11.180  18.113  1.00  0.00     0.039 A 
HETATM   28 BR1  UNL     1      18.315   9.626  17.045  1.00  0.00    -0.049 Br
ENDBRANCH   3  21
TORSDOF 8
ENDMDL
MODEL 5
REMARK VINA RESULT: -6.243601710      2.665      3.067
REMARK  8 active torsions:
REMARK  status: ('A' for Active; 'I' for Inactive)
REMARK    1  A    between atoms: C2_2  and  C3_3 
REMARK    2  A    between atoms: C3_3  and  C4_4 
REMARK    3  A    between atoms: C4_4  and  N1_5 
REMARK    4  A    between atoms: N1_5  and  C6_7 
REMARK    5  A    between atoms: N1_5  and  C11_12 
REMARK    6  A    between atoms: C6_7  and  C7_8 
REMARK    7  A    between atoms: C12_14  and  C13_15 
REMARK    8  A    between atoms: C17_26  and  C18_27 
ROOT
HETATM    1  C11 UNL     1      18.800  13.561  16.256  1.00  0.00     0.290 C 
HETATM    2  S1  UNL     1      19.228  12.244  15.117  1.00  0.00    -0.094 SA
HETATM    3  C12 UNL     1      18.381  10.913  16.060  1.00  0.00     0.301 C 
HETATM    4  N3  UNL     1      18.067  11.543  17.287  1.00  0.00    -0.043 N 
ATOM      5  H31 UNL     1      18.801  11.391  17.980  1.00  0.00     0.280 HD
ATOM      6  H32 UNL     1      17.299  11.068  17.761  1.00  0.00     0.280 HD
HETATM    7  C17 UNL     1      17.794  12.926  17.120  1.00  0.00     0.289 C 
ENDROOT
BRANCH   1   8
HETATM    8  N1  UNL     1      18.423  14.800  15.605  1.00  0.00    -0.055 N 
HETATM    9  C5  UNL     1      18.813  15.918  16.453  1.00  0.00     0.274 C 
BRANCH   8  10
HETATM   10  C4  UNL     1      16.965  14.880  15.662  1.00  0.00     0.238 C 
BRANCH  10  11
HETATM   11  C3  UNL     1      16.388  16.224  15.873  1.00  0.00     0.028 C 
BRANCH  11  12
HETATM   12  C2  UNL     1      15.168  16.060  16.802  1.00  0.00    -0.003 C 
HETATM   13  C1  UNL     1      14.962  17.305  17.630  1.00  0.00     0.005 C 
ENDBRANCH  11  12
ENDBRANCH  10  11
ENDBRANCH   8  10
BRANCH   8  14
HETATM   14  C6  UNL     1      18.951  14.805  14.311  1.00  0.00     0.246 C 
BRANCH  14  15
HETATM   15  C7  UNL     1      20.033  15.677  13.860  1.00  0.00    -0.027 C 
HETATM   16  C8  UNL     1      19.887  17.150  13.935  1.00  0.00     0.016 C 
HETATM   17  C9  UNL     1      20.131  15.359  12.338  1.00  0.00     0.016 C 
HETATM   18  C10 UNL     1      21.432  15.325  14.351  1.00  0.00     0.016 C 
ENDBRANCH  14  15
ENDBRANCH   8  14
ENDBRANCH   1   8
BRANCH   7  19
HETATM   19  C18 UNL     1      17.786  13.551  18.454  1.00  0.00     0.267 C 
HETATM   20  O1  UNL     1      17.663  12.861  19.440  1.00  0.00    -0.305 OA
ENDBRANCH   7  19
BRANCH   3  21
HETATM   21  C13 UNL     1      19.291   9.788  16.280  1.00  0.00     0.069 A 
HETATM   22  N2  UNL     1      19.821   9.484  17.502  1.00  0.00    -0.347 N 
HETATM   23  C14 UNL     1      20.617   8.387  17.390  1.00  0.00     0.105 A 
ATOM     24  H2  UNL     1      19.647  10.000  18.365  1.00  0.00     0.167 HD
HETATM   25 CL1  UNL     1      21.519   7.611  18.682  1.00  0.00    -0.065 Cl
HETATM   26  C15 UNL     1      20.609   7.968  16.087  1.00  0.00     0.063 A 
HETATM   27  C16 UNL     1      19.781   8.849  15.415  1.00  0.00     0.039 A 
HETATM   28 BR1  UNL     1      19.437   8.704  13.534  1.00  0.00    -0.049 Br
ENDBRANCH   3  21
TORSDOF 8
ENDMDL
