MODEL 1
REMARK VINA RESULT: -9.224650365      0.000      0.000
REMARK  13 active torsions:
REMARK  status: ('A' for Active; 'I' for Inactive)
REMARK    1  A    between atoms: C2_2  and  O1_3 
REMARK    2  A    between atoms: O1_3  and  C3_4 
REMARK       I    between atoms: C3_4  and  N1_6 
REMARK       I    between atoms: N2_9  and  C6_10 
REMARK    3  A    between atoms: C6_10  and  C7_12 
REMARK    4  A    between atoms: C7_12  and  C8_13 
REMARK    5  A    between atoms: C8_13  and  C9_14 
REMARK    6  A    between atoms: C12_17  and  O4_18 
REMARK    7  A    between atoms: O4_18  and  C13_19 
REMARK    8  A    between atoms: C13_19  and  C14_20 
REMARK    9  A    between atoms: C14_20  and  C15_21 
REMARK   10  A    between atoms: C15_21  and  N3_22 
REMARK   11  A    between atoms: N4_25  and  C18_26 
REMARK   12  A    between atoms: C26_34  and  C27_35 
REMARK   13  A    between atoms: N7_41  and  O5_43 
ROOT
HETATM    1  C9  UNL     1      20.287  24.927  19.986  1.00  0.00    -0.051 A 
HETATM    2  C10 UNL     1      20.312  24.996  18.625  1.00  0.00     0.010 A 
HETATM    3  C11 UNL     1      19.704  23.995  17.878  1.00  0.00     0.038 A 
HETATM    4  C12 UNL     1      19.066  22.910  18.467  1.00  0.00     0.082 A 
HETATM    5  C26 UNL     1      19.031  22.818  19.859  1.00  0.00     0.038 A 
HETATM    6  C28 UNL     1      19.651  23.845  20.576  1.00  0.00     0.025 A 
ENDROOT
BRANCH   1   7
HETATM    7  C8  UNL     1      20.911  25.978  20.853  1.00  0.00     0.103 C 
BRANCH   7   8
HETATM    8  C7  UNL     1      22.357  25.762  21.076  1.00  0.00     0.104 C 
HETATM    9  N7  UNL     1      22.881  26.478  22.049  1.00  0.00    -0.266 N 
ATOM     10  H7  UNL     1      23.880  26.385  22.231  1.00  0.00     0.194 HD
BRANCH   8  11
HETATM   11  C6  UNL     1      23.203  24.895  20.324  1.00  0.00     0.268 C 
HETATM   12  N2  UNL     1      23.759  25.206  19.072  1.00  0.00    -0.344 N 
HETATM   13  C5  UNL     1      23.543  26.418  18.320  1.00  0.00     0.146 C 
HETATM   14  C30 UNL     1      24.681  24.225  18.434  1.00  0.00     0.146 C 
HETATM   15  C4  UNL     1      24.235  26.365  16.945  1.00  0.00     0.148 C 
HETATM   16  N1  UNL     1      25.630  25.980  17.123  1.00  0.00    -0.325 N 
HETATM   17  C3  UNL     1      26.668  26.456  16.282  1.00  0.00     0.362 C 
HETATM   18  C31 UNL     1      25.963  25.050  18.206  1.00  0.00     0.148 C 
HETATM   19  O2  UNL     1      27.853  26.108  16.496  1.00  0.00    -0.238 OA
HETATM   20  O3  UNL     1      23.499  23.741  20.792  1.00  0.00    -0.266 OA
BRANCH  17  21
HETATM   21  O1  UNL     1      26.395  27.316  15.207  1.00  0.00    -0.304 OA
BRANCH  21  22
HETATM   22  C2  UNL     1      26.868  28.655  15.347  1.00  0.00     0.176 C 
HETATM   23  C1  UNL     1      25.701  29.539  15.700  1.00  0.00     0.034 C 
ENDBRANCH  21  22
ENDBRANCH  17  21
ENDBRANCH   8  11
BRANCH   9  24
HETATM   24  O5  UNL     1      22.163  27.335  22.825  1.00  0.00    -0.285 OA
HETATM   25  C29 UNL     1      22.000  27.178  24.225  1.00  0.00     0.237 C 
ENDBRANCH   9  24
ENDBRANCH   7   8
ENDBRANCH   1   7
BRANCH   5  26
HETATM   26  C27 UNL     1      18.402  21.725  20.560  1.00  0.00     0.123 C 
HETATM   27  N5  UNL     1      17.254  21.310  20.406  1.00  0.00    -0.387 N 
ATOM     28  H52 UNL     1      16.682  21.791  19.712  1.00  0.00     0.157 HD
ATOM     29  H51 UNL     1      16.809  20.537  20.903  1.00  0.00     0.157 HD
HETATM   30  N6  UNL     1      19.212  21.043  21.545  1.00  0.00    -0.082 NA
ENDBRANCH   5  26
BRANCH   4  31
HETATM   31  O4  UNL     1      18.478  21.945  17.737  1.00  0.00    -0.350 OA
BRANCH  31  32
HETATM   32  C13 UNL     1      18.103  21.730  16.455  1.00  0.00     0.177 C 
BRANCH  32  33
HETATM   33  C14 UNL     1      17.389  22.807  15.724  1.00  0.00     0.057 C 
BRANCH  33  34
HETATM   34  C15 UNL     1      16.101  22.423  15.063  1.00  0.00     0.275 C 
BRANCH  34  35
HETATM   35  N3  UNL     1      14.909  22.897  15.713  1.00  0.00     0.097 N 
HETATM   36  C16 UNL     1      15.194  23.276  17.067  1.00  0.00     0.317 C 
HETATM   37  C17 UNL     1      14.536  22.416  18.107  1.00  0.00     0.093 C 
HETATM   38  N4  UNL     1      14.385  21.050  17.812  1.00  0.00    -0.366 N 
HETATM   39  C24 UNL     1      14.242  20.724  16.452  1.00  0.00     0.093 C 
HETATM   40  C25 UNL     1      13.850  21.955  15.655  1.00  0.00     0.317 C 
BRANCH  38  41
HETATM   41  C18 UNL     1      13.627  20.299  18.750  1.00  0.00     0.088 C 
HETATM   42  C19 UNL     1      14.429  19.239  19.458  1.00  0.00     0.026 C 
HETATM   43  C20 UNL     1      13.691  18.855  20.726  1.00  0.00     0.002 C 
HETATM   44  C21 UNL     1      12.251  18.561  20.411  1.00  0.00     0.000 C 
HETATM   45  C22 UNL     1      12.006  18.438  18.929  1.00  0.00     0.002 C 
HETATM   46  C23 UNL     1      12.400  19.656  18.155  1.00  0.00     0.026 C 
ENDBRANCH  38  41
ENDBRANCH  34  35
ENDBRANCH  33  34
ENDBRANCH  32  33
ENDBRANCH  31  32
ENDBRANCH   4  31
TORSDOF 13
ENDMDL
MODEL 2
REMARK VINA RESULT: -9.108822915      4.225     12.387
REMARK  13 active torsions:
REMARK  status: ('A' for Active; 'I' for Inactive)
REMARK    1  A    between atoms: C2_2  and  O1_3 
REMARK    2  A    between atoms: O1_3  and  C3_4 
REMARK       I    between atoms: C3_4  and  N1_6 
REMARK       I    between atoms: N2_9  and  C6_10 
REMARK    3  A    between atoms: C6_10  and  C7_12 
REMARK    4  A    between atoms: C7_12  and  C8_13 
REMARK    5  A    between atoms: C8_13  and  C9_14 
REMARK    6  A    between atoms: C12_17  and  O4_18 
REMARK    7  A    between atoms: O4_18  and  C13_19 
REMARK    8  A    between atoms: C13_19  and  C14_20 
REMARK    9  A    between atoms: C14_20  and  C15_21 
REMARK   10  A    between atoms: C15_21  and  N3_22 
REMARK   11  A    between atoms: N4_25  and  C18_26 
REMARK   12  A    between atoms: C26_34  and  C27_35 
REMARK   13  A    between atoms: N7_41  and  O5_43 
ROOT
HETATM    1  C9  UNL     1      15.363  21.032  16.814  1.00  0.00    -0.051 A 
HETATM    2  C10 UNL     1      16.038  20.240  17.694  1.00  0.00     0.010 A 
HETATM    3  C11 UNL     1      16.850  20.825  18.657  1.00  0.00     0.038 A 
HETATM    4  C12 UNL     1      17.008  22.202  18.760  1.00  0.00     0.082 A 
HETATM    5  C26 UNL     1      16.328  23.031  17.868  1.00  0.00     0.038 A 
HETATM    6  C28 UNL     1      15.519  22.406  16.915  1.00  0.00     0.025 A 
ENDROOT
BRANCH   1   7
HETATM    7  C8  UNL     1      14.460  20.469  15.759  1.00  0.00     0.103 C 
BRANCH   7   8
HETATM    8  C7  UNL     1      13.030  20.514  16.135  1.00  0.00     0.104 C 
HETATM    9  N7  UNL     1      12.326  21.447  15.529  1.00  0.00    -0.266 N 
ATOM     10  H7  UNL     1      11.339  21.537  15.768  1.00  0.00     0.194 HD
BRANCH   8  11
HETATM   11  C6  UNL     1      12.385  19.675  17.091  1.00  0.00     0.268 C 
HETATM   12  N2  UNL     1      11.527  18.610  16.771  1.00  0.00    -0.344 N 
HETATM   13  C5  UNL     1      11.119  18.210  15.446  1.00  0.00     0.146 C 
HETATM   14  C30 UNL     1      10.978  17.775  17.877  1.00  0.00     0.146 C 
HETATM   15  C4  UNL     1      10.092  17.063  15.489  1.00  0.00     0.148 C 
HETATM   16  N1  UNL     1      10.602  15.992  16.336  1.00  0.00    -0.325 N 
HETATM   17  C3  UNL     1      10.319  14.624  16.092  1.00  0.00     0.362 C 
HETATM   18  C31 UNL     1      11.425  16.351  17.494  1.00  0.00     0.148 C 
HETATM   19  O2  UNL     1      10.802  13.744  16.842  1.00  0.00    -0.238 OA
HETATM   20  O3  UNL     1      12.579  19.876  18.339  1.00  0.00    -0.266 OA
BRANCH  17  21
HETATM   21  O1  UNL     1       9.502  14.231  15.021  1.00  0.00    -0.304 OA
BRANCH  21  22
HETATM   22  C2  UNL     1      10.137  13.447  14.011  1.00  0.00     0.176 C 
HETATM   23  C1  UNL     1      10.832  14.376  13.051  1.00  0.00     0.034 C 
ENDBRANCH  21  22
ENDBRANCH  17  21
ENDBRANCH   8  11
BRANCH   9  24
HETATM   24  O5  UNL     1      12.844  22.299  14.602  1.00  0.00    -0.285 OA
HETATM   25  C29 UNL     1      13.132  23.662  14.862  1.00  0.00     0.237 C 
ENDBRANCH   9  24
ENDBRANCH   7   8
ENDBRANCH   1   7
BRANCH   5  26
HETATM   26  C27 UNL     1      16.438  24.470  17.891  1.00  0.00     0.123 C 
HETATM   27  N5  UNL     1      15.978  25.234  18.739  1.00  0.00    -0.387 N 
ATOM     28  H52 UNL     1      15.461  24.808  19.508  1.00  0.00     0.157 HD
ATOM     29  H51 UNL     1      16.055  26.252  18.755  1.00  0.00     0.157 HD
HETATM   30  N6  UNL     1      17.170  25.075  16.801  1.00  0.00    -0.082 NA
ENDBRANCH   5  26
BRANCH   4  31
HETATM   31  O4  UNL     1      17.796  22.761  19.697  1.00  0.00    -0.350 OA
BRANCH  31  32
HETATM   32  C13 UNL     1      18.665  22.370  20.656  1.00  0.00     0.177 C 
BRANCH  32  33
HETATM   33  C14 UNL     1      20.036  22.941  20.661  1.00  0.00     0.057 C 
BRANCH  33  34
HETATM   34  C15 UNL     1      20.136  24.433  20.591  1.00  0.00     0.275 C 
BRANCH  34  35
HETATM   35  N3  UNL     1      21.366  24.945  20.047  1.00  0.00     0.097 N 
HETATM   36  C16 UNL     1      21.403  26.374  20.152  1.00  0.00     0.317 C 
HETATM   37  C17 UNL     1      21.377  27.097  18.836  1.00  0.00     0.093 C 
HETATM   38  N4  UNL     1      20.620  26.522  17.801  1.00  0.00    -0.366 N 
HETATM   39  C24 UNL     1      20.507  25.120  17.823  1.00  0.00     0.093 C 
HETATM   40  C25 UNL     1      21.583  24.521  18.710  1.00  0.00     0.317 C 
BRANCH  38  41
HETATM   41  C18 UNL     1      20.739  27.150  16.532  1.00  0.00     0.088 C 
HETATM   42  C19 UNL     1      20.466  26.223  15.376  1.00  0.00     0.026 C 
HETATM   43  C20 UNL     1      20.144  27.067  14.158  1.00  0.00     0.002 C 
HETATM   44  C21 UNL     1      21.190  28.130  13.980  1.00  0.00     0.000 C 
HETATM   45  C22 UNL     1      22.397  27.893  14.852  1.00  0.00     0.002 C 
HETATM   46  C23 UNL     1      22.075  27.812  16.310  1.00  0.00     0.026 C 
ENDBRANCH  38  41
ENDBRANCH  34  35
ENDBRANCH  33  34
ENDBRANCH  32  33
ENDBRANCH  31  32
ENDBRANCH   4  31
TORSDOF 13
ENDMDL
MODEL 3
REMARK VINA RESULT: -8.960535685      2.493     10.190
REMARK  13 active torsions:
REMARK  status: ('A' for Active; 'I' for Inactive)
REMARK    1  A    between atoms: C2_2  and  O1_3 
REMARK    2  A    between atoms: O1_3  and  C3_4 
REMARK       I    between atoms: C3_4  and  N1_6 
REMARK       I    between atoms: N2_9  and  C6_10 
REMARK    3  A    between atoms: C6_10  and  C7_12 
REMARK    4  A    between atoms: C7_12  and  C8_13 
REMARK    5  A    between atoms: C8_13  and  C9_14 
REMARK    6  A    between atoms: C12_17  and  O4_18 
REMARK    7  A    between atoms: O4_18  and  C13_19 
REMARK    8  A    between atoms: C13_19  and  C14_20 
REMARK    9  A    between atoms: C14_20  and  C15_21 
REMARK   10  A    between atoms: C15_21  and  N3_22 
REMARK   11  A    between atoms: N4_25  and  C18_26 
REMARK   12  A    between atoms: C26_34  and  C27_35 
REMARK   13  A    between atoms: N7_41  and  O5_43 
ROOT
HETATM    1  C9  UNL     1      22.862  23.902  20.331  1.00  0.00    -0.051 A 
HETATM    2  C10 UNL     1      23.299  23.378  19.152  1.00  0.00     0.010 A 
HETATM    3  C11 UNL     1      24.650  23.437  18.837  1.00  0.00     0.038 A 
HETATM    4  C12 UNL     1      25.587  24.018  19.683  1.00  0.00     0.082 A 
HETATM    5  C26 UNL     1      25.161  24.563  20.894  1.00  0.00     0.038 A 
HETATM    6  C28 UNL     1      23.795  24.483  21.177  1.00  0.00     0.025 A 
ENDROOT
BRANCH   1   7
HETATM    7  C8  UNL     1      21.421  23.862  20.741  1.00  0.00     0.103 C 
BRANCH   7   8
HETATM    8  C7  UNL     1      20.520  24.499  19.756  1.00  0.00     0.104 C 
HETATM    9  N7  UNL     1      20.329  25.790  19.933  1.00  0.00    -0.266 N 
ATOM     10  H7  UNL     1      19.699  26.275  19.295  1.00  0.00     0.194 HD
BRANCH   8  11
HETATM   11  C6  UNL     1      19.841  23.841  18.689  1.00  0.00     0.268 C 
HETATM   12  N2  UNL     1      18.841  22.869  18.855  1.00  0.00    -0.344 N 
HETATM   13  C5  UNL     1      18.361  22.344  20.110  1.00  0.00     0.146 C 
HETATM   14  C30 UNL     1      18.171  22.315  17.644  1.00  0.00     0.146 C 
HETATM   15  C4  UNL     1      17.330  21.220  19.899  1.00  0.00     0.148 C 
HETATM   16  N1  UNL     1      16.297  21.680  18.979  1.00  0.00    -0.325 N 
HETATM   17  C3  UNL     1      14.947  21.256  19.071  1.00  0.00     0.362 C 
HETATM   18  C31 UNL     1      16.680  22.604  17.908  1.00  0.00     0.148 C 
HETATM   19  O2  UNL     1      14.097  21.702  18.264  1.00  0.00    -0.238 OA
HETATM   20  O3  UNL     1      20.138  24.130  17.478  1.00  0.00    -0.266 OA
BRANCH  17  21
HETATM   21  O1  UNL     1      14.538  20.341  20.052  1.00  0.00    -0.304 OA
BRANCH  21  22
HETATM   22  C2  UNL     1      13.753  19.243  19.589  1.00  0.00     0.176 C 
HETATM   23  C1  UNL     1      13.092  18.593  20.776  1.00  0.00     0.034 C 
ENDBRANCH  21  22
ENDBRANCH  17  21
ENDBRANCH   8  11
BRANCH   9  24
HETATM   24  O5  UNL     1      20.928  26.512  20.920  1.00  0.00    -0.285 OA
HETATM   25  C29 UNL     1      21.781  27.618  20.676  1.00  0.00     0.237 C 
ENDBRANCH   9  24
ENDBRANCH   7   8
ENDBRANCH   1   7
BRANCH   5  26
HETATM   26  C27 UNL     1      26.057  25.196  21.832  1.00  0.00     0.123 C 
HETATM   27  N5  UNL     1      26.965  24.659  22.467  1.00  0.00    -0.387 N 
ATOM     28  H52 UNL     1      27.097  23.658  22.319  1.00  0.00     0.157 HD
ATOM     29  H51 UNL     1      27.598  25.107  23.130  1.00  0.00     0.157 HD
HETATM   30  N6  UNL     1      25.869  26.614  22.043  1.00  0.00    -0.082 NA
ENDBRANCH   5  26
BRANCH   4  31
HETATM   31  O4  UNL     1      26.895  24.070  19.371  1.00  0.00    -0.350 OA
BRANCH  31  32
HETATM   32  C13 UNL     1      27.700  24.680  18.472  1.00  0.00     0.177 C 
BRANCH  32  33
HETATM   33  C14 UNL     1      27.957  26.136  18.607  1.00  0.00     0.057 C 
BRANCH  33  34
HETATM   34  C15 UNL     1      27.600  26.987  17.428  1.00  0.00     0.275 C 
BRANCH  34  35
HETATM   35  N3  UNL     1      26.588  27.981  17.668  1.00  0.00     0.097 N 
HETATM   36  C16 UNL     1      25.514  27.425  18.439  1.00  0.00     0.317 C 
HETATM   37  C17 UNL     1      24.206  27.328  17.709  1.00  0.00     0.093 C 
HETATM   38  N4  UNL     1      24.257  27.048  16.333  1.00  0.00    -0.366 N 
HETATM   39  C24 UNL     1      25.399  27.503  15.650  1.00  0.00     0.093 C 
HETATM   40  C25 UNL     1      26.110  28.567  16.468  1.00  0.00     0.317 C 
BRANCH  38  41
HETATM   41  C18 UNL     1      23.015  27.112  15.647  1.00  0.00     0.088 C 
HETATM   42  C19 UNL     1      22.780  28.429  14.954  1.00  0.00     0.026 C 
HETATM   43  C20 UNL     1      21.714  28.224  13.895  1.00  0.00     0.002 C 
HETATM   44  C21 UNL     1      20.529  27.516  14.490  1.00  0.00     0.000 C 
HETATM   45  C22 UNL     1      20.591  27.470  15.996  1.00  0.00     0.002 C 
HETATM   46  C23 UNL     1      21.825  26.812  16.524  1.00  0.00     0.026 C 
ENDBRANCH  38  41
ENDBRANCH  34  35
ENDBRANCH  33  34
ENDBRANCH  32  33
ENDBRANCH  31  32
ENDBRANCH   4  31
TORSDOF 13
ENDMDL
MODEL 4
REMARK VINA RESULT: -8.942539924      4.227     11.684
REMARK  13 active torsions:
REMARK  status: ('A' for Active; 'I' for Inactive)
REMARK    1  A    between atoms: C2_2  and  O1_3 
REMARK    2  A    between atoms: O1_3  and  C3_4 
REMARK       I    between atoms: C3_4  and  N1_6 
REMARK       I    between atoms: N2_9  and  C6_10 
REMARK    3  A    between atoms: C6_10  and  C7_12 
REMARK    4  A    between atoms: C7_12  and  C8_13 
REMARK    5  A    between atoms: C8_13  and  C9_14 
REMARK    6  A    between atoms: C12_17  and  O4_18 
REMARK    7  A    between atoms: O4_18  and  C13_19 
REMARK    8  A    between atoms: C13_19  and  C14_20 
REMARK    9  A    between atoms: C14_20  and  C15_21 
REMARK   10  A    between atoms: C15_21  and  N3_22 
REMARK   11  A    between atoms: N4_25  and  C18_26 
REMARK   12  A    between atoms: C26_34  and  C27_35 
REMARK   13  A    between atoms: N7_41  and  O5_43 
ROOT
HETATM    1  C9  UNL     1      15.439  19.804  17.594  1.00  0.00    -0.051 A 
HETATM    2  C10 UNL     1      16.701  20.284  17.776  1.00  0.00     0.010 A 
HETATM    3  C11 UNL     1      17.063  21.494  17.200  1.00  0.00     0.038 A 
HETATM    4  C12 UNL     1      16.181  22.246  16.432  1.00  0.00     0.082 A 
HETATM    5  C26 UNL     1      14.884  21.772  16.231  1.00  0.00     0.038 A 
HETATM    6  C28 UNL     1      14.557  20.552  16.828  1.00  0.00     0.025 A 
ENDROOT
BRANCH   1   7
HETATM    7  C8  UNL     1      14.977  18.512  18.197  1.00  0.00     0.103 C 
BRANCH   7   8
HETATM    8  C7  UNL     1      13.546  18.524  18.569  1.00  0.00     0.104 C 
HETATM    9  N7  UNL     1      13.261  19.207  19.658  1.00  0.00    -0.266 N 
ATOM     10  H7  UNL     1      12.292  19.230  19.972  1.00  0.00     0.194 HD
BRANCH   8  11
HETATM   11  C6  UNL     1      12.493  17.851  17.882  1.00  0.00     0.268 C 
HETATM   12  N2  UNL     1      11.499  18.487  17.122  1.00  0.00    -0.344 N 
HETATM   13  C5  UNL     1      11.343  19.910  16.939  1.00  0.00     0.146 C 
HETATM   14  C30 UNL     1      10.499  17.648  16.402  1.00  0.00     0.146 C 
HETATM   15  C4  UNL     1      10.080  20.244  16.123  1.00  0.00     0.148 C 
HETATM   16  N1  UNL     1      10.075  19.452  14.899  1.00  0.00    -0.325 N 
HETATM   17  C3  UNL     1       9.521  19.929  13.683  1.00  0.00     0.362 C 
HETATM   18  C31 UNL     1      10.649  18.105  14.938  1.00  0.00     0.148 C 
HETATM   19  O2  UNL     1       9.564  19.211  12.656  1.00  0.00    -0.238 OA
HETATM   20  O3  UNL     1      12.417  16.575  17.939  1.00  0.00    -0.266 OA
BRANCH  17  21
HETATM   21  O1  UNL     1       8.923  21.195  13.604  1.00  0.00    -0.304 OA
BRANCH  21  22
HETATM   22  C2  UNL     1       8.283  21.503  12.366  1.00  0.00     0.176 C 
HETATM   23  C1  UNL     1       7.801  22.929  12.418  1.00  0.00     0.034 C 
ENDBRANCH  21  22
ENDBRANCH  17  21
ENDBRANCH   8  11
BRANCH   9  24
HETATM   24  O5  UNL     1      14.190  19.885  20.386  1.00  0.00    -0.285 OA
HETATM   25  C29 UNL     1      14.528  19.561  21.725  1.00  0.00     0.237 C 
ENDBRANCH   9  24
ENDBRANCH   7   8
ENDBRANCH   1   7
BRANCH   5  26
HETATM   26  C27 UNL     1      13.902  22.476  15.441  1.00  0.00     0.123 C 
HETATM   27  N5  UNL     1      13.497  23.625  15.616  1.00  0.00    -0.387 N 
ATOM     28  H52 UNL     1      13.893  24.135  16.406  1.00  0.00     0.157 HD
ATOM     29  H51 UNL     1      12.802  24.122  15.058  1.00  0.00     0.157 HD
HETATM   30  N6  UNL     1      13.341  21.753  14.322  1.00  0.00    -0.082 NA
ENDBRANCH   5  26
BRANCH   4  31
HETATM   31  O4  UNL     1      16.538  23.419  15.879  1.00  0.00    -0.350 OA
BRANCH  31  32
HETATM   32  C13 UNL     1      17.621  23.974  15.289  1.00  0.00     0.177 C 
BRANCH  32  33
HETATM   33  C14 UNL     1      18.128  25.275  15.793  1.00  0.00     0.057 C 
BRANCH  33  34
HETATM   34  C15 UNL     1      18.376  25.367  17.267  1.00  0.00     0.275 C 
BRANCH  34  35
HETATM   35  N3  UNL     1      19.174  24.308  17.826  1.00  0.00     0.097 N 
HETATM   36  C16 UNL     1      18.831  24.097  19.202  1.00  0.00     0.317 C 
HETATM   37  C17 UNL     1      19.921  24.437  20.176  1.00  0.00     0.093 C 
HETATM   38  N4  UNL     1      20.757  25.520  19.854  1.00  0.00    -0.366 N 
HETATM   39  C24 UNL     1      20.953  25.763  18.483  1.00  0.00     0.093 C 
HETATM   40  C25 UNL     1      20.565  24.540  17.672  1.00  0.00     0.317 C 
BRANCH  38  41
HETATM   41  C18 UNL     1      21.866  25.718  20.719  1.00  0.00     0.088 C 
HETATM   42  C19 UNL     1      22.364  24.448  21.357  1.00  0.00     0.026 C 
HETATM   43  C20 UNL     1      23.782  24.685  21.840  1.00  0.00     0.002 C 
HETATM   44  C21 UNL     1      23.845  25.953  22.645  1.00  0.00     0.000 C 
HETATM   45  C22 UNL     1      22.474  26.471  22.997  1.00  0.00     0.002 C 
HETATM   46  C23 UNL     1      21.608  26.732  21.806  1.00  0.00     0.026 C 
ENDBRANCH  38  41
ENDBRANCH  34  35
ENDBRANCH  33  34
ENDBRANCH  32  33
ENDBRANCH  31  32
ENDBRANCH   4  31
TORSDOF 13
ENDMDL
MODEL 5
REMARK VINA RESULT: -8.848583508      2.192      3.714
REMARK  13 active torsions:
REMARK  status: ('A' for Active; 'I' for Inactive)
REMARK    1  A    between atoms: C2_2  and  O1_3 
REMARK    2  A    between atoms: O1_3  and  C3_4 
REMARK       I    between atoms: C3_4  and  N1_6 
REMARK       I    between atoms: N2_9  and  C6_10 
REMARK    3  A    between atoms: C6_10  and  C7_12 
REMARK    4  A    between atoms: C7_12  and  C8_13 
REMARK    5  A    between atoms: C8_13  and  C9_14 
REMARK    6  A    between atoms: C12_17  and  O4_18 
REMARK    7  A    between atoms: O4_18  and  C13_19 
REMARK    8  A    between atoms: C13_19  and  C14_20 
REMARK    9  A    between atoms: C14_20  and  C15_21 
REMARK   10  A    between atoms: C15_21  and  N3_22 
REMARK   11  A    between atoms: N4_25  and  C18_26 
REMARK   12  A    between atoms: C26_34  and  C27_35 
REMARK   13  A    between atoms: N7_41  and  O5_43 
ROOT
HETATM    1  C9  UNL     1      20.525  26.014  18.212  1.00  0.00    -0.051 A 
HETATM    2  C10 UNL     1      20.469  25.634  16.905  1.00  0.00     0.010 A 
HETATM    3  C11 UNL     1      19.782  24.477  16.559  1.00  0.00     0.038 A 
HETATM    4  C12 UNL     1      19.144  23.680  17.501  1.00  0.00     0.082 A 
HETATM    5  C26 UNL     1      19.192  24.049  18.845  1.00  0.00     0.038 A 
HETATM    6  C28 UNL     1      19.890  25.220  19.155  1.00  0.00     0.025 A 
ENDROOT
BRANCH   1   7
HETATM    7  C8  UNL     1      21.237  27.256  18.656  1.00  0.00     0.103 C 
BRANCH   7   8
HETATM    8  C7  UNL     1      22.695  27.063  18.815  1.00  0.00     0.104 C 
HETATM    9  N7  UNL     1      23.429  27.561  17.842  1.00  0.00    -0.266 N 
ATOM     10  H7  UNL     1      24.440  27.437  17.890  1.00  0.00     0.194 HD
BRANCH   8  11
HETATM   11  C6  UNL     1      23.340  26.377  19.885  1.00  0.00     0.268 C 
HETATM   12  N2  UNL     1      23.816  25.057  19.818  1.00  0.00    -0.344 N 
HETATM   13  C5  UNL     1      23.700  24.164  18.691  1.00  0.00     0.146 C 
HETATM   14  C30 UNL     1      24.531  24.492  20.997  1.00  0.00     0.146 C 
HETATM   15  C4  UNL     1      24.249  22.763  19.017  1.00  0.00     0.148 C 
HETATM   16  N1  UNL     1      25.588  22.889  19.580  1.00  0.00    -0.325 N 
HETATM   17  C3  UNL     1      26.599  21.917  19.372  1.00  0.00     0.362 C 
HETATM   18  C31 UNL     1      25.888  24.060  20.407  1.00  0.00     0.148 C 
HETATM   19  O2  UNL     1      27.740  22.088  19.864  1.00  0.00    -0.238 OA
HETATM   20  O3  UNL     1      23.516  26.974  21.003  1.00  0.00    -0.266 OA
BRANCH  17  21
HETATM   21  O1  UNL     1      26.350  20.757  18.622  1.00  0.00    -0.304 OA
BRANCH  21  22
HETATM   22  C2  UNL     1      26.667  19.522  19.264  1.00  0.00     0.176 C 
HETATM   23  C1  UNL     1      26.458  18.404  18.277  1.00  0.00     0.034 C 
ENDBRANCH  21  22
ENDBRANCH  17  21
ENDBRANCH   8  11
BRANCH   9  24
HETATM   24  O5  UNL     1      22.914  28.233  16.776  1.00  0.00    -0.285 OA
HETATM   25  C29 UNL     1      23.128  27.850  15.428  1.00  0.00     0.237 C 
ENDBRANCH   9  24
ENDBRANCH   7   8
ENDBRANCH   1   7
BRANCH   5  26
HETATM   26  C27 UNL     1      18.570  23.280  19.896  1.00  0.00     0.123 C 
HETATM   27  N5  UNL     1      17.364  23.121  20.083  1.00  0.00    -0.387 N 
ATOM     28  H52 UNL     1      16.734  23.586  19.429  1.00  0.00     0.157 HD
ATOM     29  H51 UNL     1      16.924  22.578  20.826  1.00  0.00     0.157 HD
HETATM   30  N6  UNL     1      19.462  22.621  20.824  1.00  0.00    -0.082 NA
ENDBRANCH   5  26
BRANCH   4  31
HETATM   31  O4  UNL     1      18.480  22.561  17.157  1.00  0.00    -0.350 OA
BRANCH  31  32
HETATM   32  C13 UNL     1      17.919  22.013  16.055  1.00  0.00     0.177 C 
BRANCH  32  33
HETATM   33  C14 UNL     1      17.019  22.845  15.216  1.00  0.00     0.057 C 
BRANCH  33  34
HETATM   34  C15 UNL     1      15.759  22.191  14.742  1.00  0.00     0.275 C 
BRANCH  34  35
HETATM   35  N3  UNL     1      14.567  22.554  15.461  1.00  0.00     0.097 N 
HETATM   36  C16 UNL     1      14.902  23.083  16.751  1.00  0.00     0.317 C 
HETATM   37  C17 UNL     1      14.457  22.235  17.907  1.00  0.00     0.093 C 
HETATM   38  N4  UNL     1      14.479  20.842  17.729  1.00  0.00    -0.366 N 
HETATM   39  C24 UNL     1      14.274  20.383  16.415  1.00  0.00     0.093 C 
HETATM   40  C25 UNL     1      13.650  21.477  15.569  1.00  0.00     0.317 C 
BRANCH  38  41
HETATM   41  C18 UNL     1      13.912  20.079  18.785  1.00  0.00     0.088 C 
HETATM   42  C19 UNL     1      14.850  19.868  19.944  1.00  0.00     0.026 C 
HETATM   43  C20 UNL     1      14.024  19.495  21.160  1.00  0.00     0.002 C 
HETATM   44  C21 UNL     1      13.071  18.387  20.811  1.00  0.00     0.000 C 
HETATM   45  C22 UNL     1      13.389  17.761  19.477  1.00  0.00     0.002 C 
HETATM   46  C23 UNL     1      13.385  18.736  18.343  1.00  0.00     0.026 C 
ENDBRANCH  38  41
ENDBRANCH  34  35
ENDBRANCH  33  34
ENDBRANCH  32  33
ENDBRANCH  31  32
ENDBRANCH   4  31
TORSDOF 13
ENDMDL
