MODEL 1
REMARK VINA RESULT: -8.993210454      0.000      0.000
REMARK  13 active torsions:
REMARK  status: ('A' for Active; 'I' for Inactive)
REMARK    1  A    between atoms: O1_2  and  C2_3 
REMARK    2  A    between atoms: C2_3  and  C3_4 
REMARK    3  A    between atoms: C3_4  and  C4_5 
REMARK    4  A    between atoms: C4_5  and  N1_6 
REMARK    5  A    between atoms: C6_10  and  N3_11 
REMARK    6  A    between atoms: C8_13  and  C9_14 
REMARK       I    between atoms: C9_14  and  N4_16 
REMARK    7  A    between atoms: N4_16  and  C10_18 
REMARK    8  A    between atoms: C14_22  and  C15_23 
REMARK       I    between atoms: C15_23  and  N5_25 
REMARK    9  A    between atoms: N5_25  and  C16_27 
REMARK   10  A    between atoms: C16_27  and  C17_28 
REMARK       I    between atoms: C17_28  and  N6_30 
REMARK   11  A    between atoms: C18_32  and  C19_33 
REMARK   12  A    between atoms: C28_42  and  C29_43 
REMARK   13  A    between atoms: C29_43  and  O5_44 
ROOT
HETATM    1  N3  UNL     1      18.197  22.399  18.756  1.00  0.00    -0.363 N 
HETATM    2  C7  UNL     1      18.065  23.189  17.558  1.00  0.00     0.139 C 
HETATM    3  C8  UNL     1      19.081  24.272  17.745  1.00  0.00     0.110 C 
HETATM    4  C14 UNL     1      20.214  23.546  18.448  1.00  0.00     0.110 C 
HETATM    5  C31 UNL     1      19.584  22.359  19.112  1.00  0.00     0.139 C 
ENDROOT
BRANCH   4   6
HETATM    6  C15 UNL     1      20.728  24.479  19.487  1.00  0.00     0.225 C 
HETATM    7  O3  UNL     1      19.900  24.835  20.355  1.00  0.00    -0.273 OA
HETATM    8  N5  UNL     1      22.078  24.890  19.425  1.00  0.00    -0.342 N 
ATOM      9  H5  UNL     1      22.642  24.525  18.657  1.00  0.00     0.163 HD
BRANCH   8  10
HETATM   10  C16 UNL     1      22.731  25.788  20.362  1.00  0.00     0.119 C 
HETATM   11  C25 UNL     1      22.097  27.124  20.444  1.00  0.00     0.041 C 
HETATM   12  C26 UNL     1      21.623  27.324  21.852  1.00  0.00     0.004 C 
HETATM   13  C27 UNL     1      22.312  26.279  22.685  1.00  0.00     0.010 C 
HETATM   14  C28 UNL     1      22.551  25.160  21.720  1.00  0.00     0.047 C 
BRANCH  10  15
HETATM   15  C17 UNL     1      24.165  25.940  19.991  1.00  0.00     0.250 C 
HETATM   16  O4  UNL     1      24.699  27.076  20.205  1.00  0.00    -0.270 OA
HETATM   17  N6  UNL     1      24.935  24.893  19.424  1.00  0.00    -0.338 N 
HETATM   18  C18 UNL     1      26.044  24.488  19.946  1.00  0.00     0.068 C 
ATOM     19  H6  UNL     1      24.599  24.443  18.573  1.00  0.00     0.167 HD
BRANCH  18  20
HETATM   20  C19 UNL     1      26.782  23.402  19.302  1.00  0.00     0.024 C 
HETATM   21  C20 UNL     1      27.396  22.484  20.352  1.00  0.00     0.010 C 
HETATM   22  C21 UNL     1      27.768  21.200  19.599  1.00  0.00     0.001 C 
HETATM   23  C22 UNL     1      26.443  20.463  19.409  1.00  0.00     0.000 C 
HETATM   24  C23 UNL     1      25.466  21.345  18.713  1.00  0.00     0.001 C 
HETATM   25  C24 UNL     1      26.010  22.661  18.262  1.00  0.00     0.010 C 
ENDBRANCH  18  20
ENDBRANCH  10  15
BRANCH  14  26
HETATM   26  C29 UNL     1      23.713  24.292  22.161  1.00  0.00     0.174 C 
BRANCH  26  27
HETATM   27  O5  UNL     1      24.240  24.960  23.299  1.00  0.00    -0.395 OA
HETATM   28  C30 UNL     1      25.516  24.480  23.573  1.00  0.00     0.201 C 
ENDBRANCH  26  27
ENDBRANCH  14  26
ENDBRANCH   8  10
ENDBRANCH   4   6
BRANCH   3  29
HETATM   29  C9  UNL     1      19.477  24.851  16.444  1.00  0.00     0.225 C 
HETATM   30  O2  UNL     1      19.593  24.091  15.457  1.00  0.00    -0.273 OA
HETATM   31  N4  UNL     1      19.733  26.238  16.262  1.00  0.00    -0.353 N 
ATOM     32  H4  UNL     1      19.638  26.850  17.072  1.00  0.00     0.163 HD
BRANCH  31  33
HETATM   33  C10 UNL     1      20.114  26.831  15.022  1.00  0.00     0.022 C 
HETATM   34  C11 UNL     1      20.581  28.249  15.275  1.00  0.00     0.037 C 
HETATM   35  C12 UNL     1      21.270  26.115  14.351  1.00  0.00     0.037 C 
HETATM   36  C13 UNL     1      18.975  26.900  14.031  1.00  0.00     0.037 C 
ENDBRANCH  31  33
ENDBRANCH   3  29
BRANCH   1  37
HETATM   37  C6  UNL     1      17.112  21.785  19.438  1.00  0.00     0.136 A 
HETATM   38  C5  UNL     1      16.813  21.771  20.783  1.00  0.00     0.158 A 
HETATM   39  N2  UNL     1      15.682  21.056  20.956  1.00  0.00    -0.292 N 
HETATM   40  N1  UNL     1      15.271  20.627  19.758  1.00  0.00    -0.233 N 
ATOM     41  H2  UNL     1      15.220  20.873  21.847  1.00  0.00     0.188 HD
HETATM   42  N7  UNL     1      16.143  21.074  18.852  1.00  0.00    -0.268 N 
ATOM     43  H7  UNL     1      16.079  20.898  17.849  1.00  0.00     0.190 HD
BRANCH  40  44
HETATM   44  C4  UNL     1      14.095  19.823  19.521  1.00  0.00     0.171 C 
BRANCH  44  45
HETATM   45  C3  UNL     1      13.746  19.112  20.821  1.00  0.00     0.050 C 
BRANCH  45  46
HETATM   46  C2  UNL     1      12.707  18.060  20.615  1.00  0.00     0.168 C 
BRANCH  46  47
HETATM   47  O1  UNL     1      11.514  18.622  20.201  1.00  0.00    -0.396 OA
HETATM   48  C1  UNL     1      11.170  18.338  18.895  1.00  0.00     0.201 C 
ENDBRANCH  46  47
ENDBRANCH  45  46
ENDBRANCH  44  45
ENDBRANCH  40  44
ENDBRANCH   1  37
TORSDOF 13
ENDMDL
MODEL 2
REMARK VINA RESULT: -8.870994499      1.929      3.102
REMARK  13 active torsions:
REMARK  status: ('A' for Active; 'I' for Inactive)
REMARK    1  A    between atoms: O1_2  and  C2_3 
REMARK    2  A    between atoms: C2_3  and  C3_4 
REMARK    3  A    between atoms: C3_4  and  C4_5 
REMARK    4  A    between atoms: C4_5  and  N1_6 
REMARK    5  A    between atoms: C6_10  and  N3_11 
REMARK    6  A    between atoms: C8_13  and  C9_14 
REMARK       I    between atoms: C9_14  and  N4_16 
REMARK    7  A    between atoms: N4_16  and  C10_18 
REMARK    8  A    between atoms: C14_22  and  C15_23 
REMARK       I    between atoms: C15_23  and  N5_25 
REMARK    9  A    between atoms: N5_25  and  C16_27 
REMARK   10  A    between atoms: C16_27  and  C17_28 
REMARK       I    between atoms: C17_28  and  N6_30 
REMARK   11  A    between atoms: C18_32  and  C19_33 
REMARK   12  A    between atoms: C28_42  and  C29_43 
REMARK   13  A    between atoms: C29_43  and  O5_44 
ROOT
HETATM    1  N3  UNL     1      18.207  22.376  18.850  1.00  0.00    -0.363 N 
HETATM    2  C7  UNL     1      18.081  23.160  17.647  1.00  0.00     0.139 C 
HETATM    3  C8  UNL     1      19.056  24.276  17.858  1.00  0.00     0.110 C 
HETATM    4  C14 UNL     1      20.193  23.588  18.593  1.00  0.00     0.110 C 
HETATM    5  C31 UNL     1      19.585  22.382  19.243  1.00  0.00     0.139 C 
ENDROOT
BRANCH   4   6
HETATM    6  C15 UNL     1      20.649  24.540  19.643  1.00  0.00     0.225 C 
HETATM    7  O3  UNL     1      19.893  24.660  20.632  1.00  0.00    -0.273 OA
HETATM    8  N5  UNL     1      21.871  25.224  19.456  1.00  0.00    -0.342 N 
ATOM      9  H5  UNL     1      22.386  25.034  18.597  1.00  0.00     0.163 HD
BRANCH   8  10
HETATM   10  C16 UNL     1      22.455  26.176  20.386  1.00  0.00     0.119 C 
HETATM   11  C25 UNL     1      21.540  27.282  20.756  1.00  0.00     0.041 C 
HETATM   12  C26 UNL     1      21.318  27.221  22.237  1.00  0.00     0.004 C 
HETATM   13  C27 UNL     1      22.393  26.328  22.791  1.00  0.00     0.010 C 
HETATM   14  C28 UNL     1      22.705  25.404  21.655  1.00  0.00     0.047 C 
BRANCH  10  15
HETATM   15  C17 UNL     1      23.705  26.738  19.805  1.00  0.00     0.250 C 
HETATM   16  O4  UNL     1      24.702  26.860  20.587  1.00  0.00    -0.270 OA
HETATM   17  N6  UNL     1      23.821  27.130  18.448  1.00  0.00    -0.338 N 
HETATM   18  C18 UNL     1      24.736  26.663  17.666  1.00  0.00     0.068 C 
ATOM     19  H6  UNL     1      23.155  27.807  18.074  1.00  0.00     0.167 HD
BRANCH  18  20
HETATM   20  C19 UNL     1      24.791  27.116  16.277  1.00  0.00     0.024 C 
HETATM   21  C20 UNL     1      24.146  28.490  16.143  1.00  0.00     0.010 C 
HETATM   22  C21 UNL     1      24.620  29.028  14.787  1.00  0.00     0.001 C 
HETATM   23  C22 UNL     1      26.058  29.483  15.030  1.00  0.00     0.000 C 
HETATM   24  C23 UNL     1      26.862  28.356  15.580  1.00  0.00     0.001 C 
HETATM   25  C24 UNL     1      26.146  27.047  15.657  1.00  0.00     0.010 C 
ENDBRANCH  18  20
ENDBRANCH  10  15
BRANCH  14  26
HETATM   26  C29 UNL     1      24.108  24.842  21.772  1.00  0.00     0.174 C 
BRANCH  26  27
HETATM   27  O5  UNL     1      24.105  23.706  20.919  1.00  0.00    -0.395 OA
HETATM   28  C30 UNL     1      25.382  23.505  20.405  1.00  0.00     0.201 C 
ENDBRANCH  26  27
ENDBRANCH  14  26
ENDBRANCH   8  10
ENDBRANCH   4   6
BRANCH   3  29
HETATM   29  C9  UNL     1      19.467  24.866  16.567  1.00  0.00     0.225 C 
HETATM   30  O2  UNL     1      19.563  24.119  15.567  1.00  0.00    -0.273 OA
HETATM   31  N4  UNL     1      19.759  26.248  16.407  1.00  0.00    -0.353 N 
ATOM     32  H4  UNL     1      19.680  26.850  17.228  1.00  0.00     0.163 HD
BRANCH  31  33
HETATM   33  C10 UNL     1      20.155  26.851  15.178  1.00  0.00     0.022 C 
HETATM   34  C11 UNL     1      20.560  28.287  15.439  1.00  0.00     0.037 C 
HETATM   35  C12 UNL     1      21.356  26.177  14.545  1.00  0.00     0.037 C 
HETATM   36  C13 UNL     1      19.044  26.875  14.152  1.00  0.00     0.037 C 
ENDBRANCH  31  33
ENDBRANCH   3  29
BRANCH   1  37
HETATM   37  C6  UNL     1      17.126  21.728  19.506  1.00  0.00     0.136 A 
HETATM   38  C5  UNL     1      16.877  21.574  20.851  1.00  0.00     0.158 A 
HETATM   39  N2  UNL     1      15.726  20.884  20.992  1.00  0.00    -0.292 N 
HETATM   40  N1  UNL     1      15.254  20.606  19.773  1.00  0.00    -0.233 N 
ATOM     41  H2  UNL     1      15.291  20.619  21.877  1.00  0.00     0.188 HD
HETATM   42  N7  UNL     1      16.109  21.122  18.885  1.00  0.00    -0.268 N 
ATOM     43  H7  UNL     1      16.000  21.061  17.873  1.00  0.00     0.190 HD
BRANCH  40  44
HETATM   44  C4  UNL     1      14.039  19.875  19.498  1.00  0.00     0.171 C 
BRANCH  44  45
HETATM   45  C3  UNL     1      13.692  19.064  20.739  1.00  0.00     0.050 C 
BRANCH  45  46
HETATM   46  C2  UNL     1      12.661  18.024  20.449  1.00  0.00     0.168 C 
BRANCH  46  47
HETATM   47  O1  UNL     1      11.468  18.608  20.065  1.00  0.00    -0.396 OA
HETATM   48  C1  UNL     1      11.130  18.404  18.743  1.00  0.00     0.201 C 
ENDBRANCH  46  47
ENDBRANCH  45  46
ENDBRANCH  44  45
ENDBRANCH  40  44
ENDBRANCH   1  37
TORSDOF 13
ENDMDL
MODEL 3
REMARK VINA RESULT: -8.845838938      2.237      3.098
REMARK  13 active torsions:
REMARK  status: ('A' for Active; 'I' for Inactive)
REMARK    1  A    between atoms: O1_2  and  C2_3 
REMARK    2  A    between atoms: C2_3  and  C3_4 
REMARK    3  A    between atoms: C3_4  and  C4_5 
REMARK    4  A    between atoms: C4_5  and  N1_6 
REMARK    5  A    between atoms: C6_10  and  N3_11 
REMARK    6  A    between atoms: C8_13  and  C9_14 
REMARK       I    between atoms: C9_14  and  N4_16 
REMARK    7  A    between atoms: N4_16  and  C10_18 
REMARK    8  A    between atoms: C14_22  and  C15_23 
REMARK       I    between atoms: C15_23  and  N5_25 
REMARK    9  A    between atoms: N5_25  and  C16_27 
REMARK   10  A    between atoms: C16_27  and  C17_28 
REMARK       I    between atoms: C17_28  and  N6_30 
REMARK   11  A    between atoms: C18_32  and  C19_33 
REMARK   12  A    between atoms: C28_42  and  C29_43 
REMARK   13  A    between atoms: C29_43  and  O5_44 
ROOT
HETATM    1  N3  UNL     1      17.996  23.174  18.207  1.00  0.00    -0.363 N 
HETATM    2  C7  UNL     1      18.073  24.109  17.113  1.00  0.00     0.139 C 
HETATM    3  C8  UNL     1      19.193  25.017  17.513  1.00  0.00     0.110 C 
HETATM    4  C14 UNL     1      20.159  24.069  18.201  1.00  0.00     0.110 C 
HETATM    5  C31 UNL     1      19.329  22.907  18.658  1.00  0.00     0.139 C 
ENDROOT
BRANCH   4   6
HETATM    6  C15 UNL     1      20.687  24.798  19.387  1.00  0.00     0.225 C 
HETATM    7  O3  UNL     1      19.997  24.715  20.427  1.00  0.00    -0.273 OA
HETATM    8  N5  UNL     1      21.898  25.514  19.261  1.00  0.00    -0.342 N 
ATOM      9  H5  UNL     1      22.355  25.502  18.350  1.00  0.00     0.163 HD
BRANCH   8  10
HETATM   10  C16 UNL     1      22.546  26.268  20.321  1.00  0.00     0.119 C 
HETATM   11  C25 UNL     1      21.732  27.397  20.829  1.00  0.00     0.041 C 
HETATM   12  C26 UNL     1      21.468  27.156  22.285  1.00  0.00     0.004 C 
HETATM   13  C27 UNL     1      22.438  26.094  22.723  1.00  0.00     0.010 C 
HETATM   14  C28 UNL     1      22.689  25.309  21.473  1.00  0.00     0.047 C 
BRANCH  10  15
HETATM   15  C17 UNL     1      23.859  26.780  19.838  1.00  0.00     0.250 C 
HETATM   16  O4  UNL     1      24.806  26.831  20.688  1.00  0.00    -0.270 OA
HETATM   17  N6  UNL     1      24.084  27.198  18.503  1.00  0.00    -0.338 N 
HETATM   18  C18 UNL     1      25.025  26.703  17.771  1.00  0.00     0.068 C 
ATOM     19  H6  UNL     1      23.479  27.917  18.105  1.00  0.00     0.167 HD
BRANCH  18  20
HETATM   20  C19 UNL     1      25.195  27.187  16.401  1.00  0.00     0.024 C 
HETATM   21  C20 UNL     1      25.276  28.708  16.383  1.00  0.00     0.010 C 
HETATM   22  C21 UNL     1      25.856  29.065  15.008  1.00  0.00     0.001 C 
HETATM   23  C22 UNL     1      27.350  28.766  15.126  1.00  0.00     0.000 C 
HETATM   24  C23 UNL     1      27.553  27.353  15.552  1.00  0.00     0.001 C 
HETATM   25  C24 UNL     1      26.307  26.536  15.649  1.00  0.00     0.010 C 
ENDBRANCH  18  20
ENDBRANCH  10  15
BRANCH  14  26
HETATM   26  C29 UNL     1      24.028  24.602  21.528  1.00  0.00     0.174 C 
BRANCH  26  27
HETATM   27  O5  UNL     1      23.950  23.617  20.507  1.00  0.00    -0.395 OA
HETATM   28  C30 UNL     1      25.211  23.410  19.959  1.00  0.00     0.201 C 
ENDBRANCH  26  27
ENDBRANCH  14  26
ENDBRANCH   8  10
ENDBRANCH   4   6
BRANCH   3  29
HETATM   29  C9  UNL     1      19.774  25.687  16.331  1.00  0.00     0.225 C 
HETATM   30  O2  UNL     1      19.580  25.187  15.200  1.00  0.00    -0.273 OA
HETATM   31  N4  UNL     1      20.546  26.878  16.419  1.00  0.00    -0.353 N 
ATOM     32  H4  UNL     1      20.701  27.277  17.345  1.00  0.00     0.163 HD
BRANCH  31  33
HETATM   33  C10 UNL     1      21.119  27.551  15.301  1.00  0.00     0.022 C 
HETATM   34  C11 UNL     1      21.908  28.746  15.794  1.00  0.00     0.037 C 
HETATM   35  C12 UNL     1      22.094  26.688  14.522  1.00  0.00     0.037 C 
HETATM   36  C13 UNL     1      20.080  28.065  14.330  1.00  0.00     0.037 C 
ENDBRANCH  31  33
ENDBRANCH   3  29
BRANCH   1  37
HETATM   37  C6  UNL     1      16.787  22.634  18.722  1.00  0.00     0.136 A 
HETATM   38  C5  UNL     1      15.482  22.972  18.439  1.00  0.00     0.158 A 
HETATM   39  N2  UNL     1      14.672  22.183  19.176  1.00  0.00    -0.292 N 
HETATM   40  N1  UNL     1      15.437  21.365  19.905  1.00  0.00    -0.233 N 
ATOM     41  H2  UNL     1      13.652  22.206  19.175  1.00  0.00     0.188 HD
HETATM   42  N7  UNL     1      16.711  21.648  19.621  1.00  0.00    -0.268 N 
ATOM     43  H7  UNL     1      17.516  21.176  20.034  1.00  0.00     0.190 HD
BRANCH  40  44
HETATM   44  C4  UNL     1      14.945  20.369  20.829  1.00  0.00     0.171 C 
BRANCH  44  45
HETATM   45  C3  UNL     1      14.089  19.386  20.042  1.00  0.00     0.050 C 
BRANCH  45  46
HETATM   46  C2  UNL     1      13.137  18.651  20.927  1.00  0.00     0.168 C 
BRANCH  46  47
HETATM   47  O1  UNL     1      11.851  18.711  20.424  1.00  0.00    -0.396 OA
HETATM   48  C1  UNL     1      11.770  18.637  19.048  1.00  0.00     0.201 C 
ENDBRANCH  46  47
ENDBRANCH  45  46
ENDBRANCH  44  45
ENDBRANCH  40  44
ENDBRANCH   1  37
TORSDOF 13
ENDMDL
MODEL 4
REMARK VINA RESULT: -8.714130871      2.221      3.408
REMARK  13 active torsions:
REMARK  status: ('A' for Active; 'I' for Inactive)
REMARK    1  A    between atoms: O1_2  and  C2_3 
REMARK    2  A    between atoms: C2_3  and  C3_4 
REMARK    3  A    between atoms: C3_4  and  C4_5 
REMARK    4  A    between atoms: C4_5  and  N1_6 
REMARK    5  A    between atoms: C6_10  and  N3_11 
REMARK    6  A    between atoms: C8_13  and  C9_14 
REMARK       I    between atoms: C9_14  and  N4_16 
REMARK    7  A    between atoms: N4_16  and  C10_18 
REMARK    8  A    between atoms: C14_22  and  C15_23 
REMARK       I    between atoms: C15_23  and  N5_25 
REMARK    9  A    between atoms: N5_25  and  C16_27 
REMARK   10  A    between atoms: C16_27  and  C17_28 
REMARK       I    between atoms: C17_28  and  N6_30 
REMARK   11  A    between atoms: C18_32  and  C19_33 
REMARK   12  A    between atoms: C28_42  and  C29_43 
REMARK   13  A    between atoms: C29_43  and  O5_44 
ROOT
HETATM    1  N3  UNL     1      17.322  22.735  17.951  1.00  0.00    -0.363 N 
HETATM    2  C7  UNL     1      17.277  23.739  16.918  1.00  0.00     0.139 C 
HETATM    3  C8  UNL     1      18.376  24.679  17.302  1.00  0.00     0.110 C 
HETATM    4  C14 UNL     1      19.433  23.743  17.863  1.00  0.00     0.110 C 
HETATM    5  C31 UNL     1      18.694  22.513  18.297  1.00  0.00     0.139 C 
ENDROOT
BRANCH   4   6
HETATM    6  C15 UNL     1      20.004  24.424  19.056  1.00  0.00     0.225 C 
HETATM    7  O3  UNL     1      19.261  24.473  20.062  1.00  0.00    -0.273 OA
HETATM    8  N5  UNL     1      21.311  24.955  18.975  1.00  0.00    -0.342 N 
ATOM      9  H5  UNL     1      21.804  24.849  18.089  1.00  0.00     0.163 HD
BRANCH   8  10
HETATM   10  C16 UNL     1      22.011  25.640  20.048  1.00  0.00     0.119 C 
HETATM   11  C25 UNL     1      21.168  25.892  21.241  1.00  0.00     0.041 C 
HETATM   12  C26 UNL     1      21.788  25.175  22.403  1.00  0.00     0.004 C 
HETATM   13  C27 UNL     1      23.189  24.823  21.987  1.00  0.00     0.010 C 
HETATM   14  C28 UNL     1      23.093  24.693  20.498  1.00  0.00     0.047 C 
BRANCH  10  15
HETATM   15  C17 UNL     1      22.557  26.931  19.544  1.00  0.00     0.250 C 
HETATM   16  O4  UNL     1      22.696  27.870  20.393  1.00  0.00    -0.270 OA
HETATM   17  N6  UNL     1      22.918  27.143  18.190  1.00  0.00    -0.338 N 
HETATM   18  C18 UNL     1      24.095  27.544  17.842  1.00  0.00     0.068 C 
ATOM     19  H6  UNL     1      22.223  26.972  17.465  1.00  0.00     0.167 HD
BRANCH  18  20
HETATM   20  C19 UNL     1      24.392  27.741  16.423  1.00  0.00     0.024 C 
HETATM   21  C20 UNL     1      24.919  29.150  16.183  1.00  0.00     0.010 C 
HETATM   22  C21 UNL     1      25.570  29.106  14.795  1.00  0.00     0.001 C 
HETATM   23  C22 UNL     1      26.910  28.405  15.016  1.00  0.00     0.000 C 
HETATM   24  C23 UNL     1      26.690  27.077  15.654  1.00  0.00     0.001 C 
HETATM   25  C24 UNL     1      25.258  26.686  15.821  1.00  0.00     0.010 C 
ENDBRANCH  18  20
ENDBRANCH  10  15
BRANCH  14  26
HETATM   26  C29 UNL     1      24.436  24.928  19.838  1.00  0.00     0.174 C 
BRANCH  26  27
HETATM   27  O5  UNL     1      24.401  24.122  18.668  1.00  0.00    -0.395 OA
HETATM   28  C30 UNL     1      24.680  22.801  19.002  1.00  0.00     0.201 C 
ENDBRANCH  26  27
ENDBRANCH  14  26
ENDBRANCH   8  10
ENDBRANCH   4   6
BRANCH   3  29
HETATM   29  C9  UNL     1      18.842  25.450  16.130  1.00  0.00     0.225 C 
HETATM   30  O2  UNL     1      18.286  25.260  15.025  1.00  0.00    -0.273 OA
HETATM   31  N4  UNL     1      19.897  26.400  16.200  1.00  0.00    -0.353 N 
ATOM     32  H4  UNL     1      20.346  26.547  17.105  1.00  0.00     0.163 HD
BRANCH  31  33
HETATM   33  C10 UNL     1      20.370  27.163  15.092  1.00  0.00     0.022 C 
HETATM   34  C11 UNL     1      21.370  26.335  14.313  1.00  0.00     0.037 C 
HETATM   35  C12 UNL     1      19.271  27.536  14.115  1.00  0.00     0.037 C 
HETATM   36  C13 UNL     1      21.067  28.437  15.512  1.00  0.00     0.037 C 
ENDBRANCH  31  33
ENDBRANCH   3  29
BRANCH   1  37
HETATM   37  C6  UNL     1      16.178  22.101  18.508  1.00  0.00     0.136 A 
HETATM   38  C5  UNL     1      14.846  22.262  18.198  1.00  0.00     0.158 A 
HETATM   39  N2  UNL     1      14.126  21.445  18.996  1.00  0.00    -0.292 N 
HETATM   40  N1  UNL     1      14.973  20.783  19.790  1.00  0.00    -0.233 N 
ATOM     41  H2  UNL     1      13.110  21.350  18.994  1.00  0.00     0.188 HD
HETATM   42  N7  UNL     1      16.208  21.189  19.484  1.00  0.00    -0.268 N 
ATOM     43  H7  UNL     1      17.058  20.849  19.934  1.00  0.00     0.190 HD
BRANCH  40  44
HETATM   44  C4  UNL     1      14.591  19.814  20.791  1.00  0.00     0.171 C 
BRANCH  44  45
HETATM   45  C3  UNL     1      13.852  18.684  20.088  1.00  0.00     0.050 C 
BRANCH  45  46
HETATM   46  C2  UNL     1      12.602  18.307  20.812  1.00  0.00     0.168 C 
BRANCH  46  47
HETATM   47  O1  UNL     1      11.483  18.674  20.087  1.00  0.00    -0.396 OA
HETATM   48  C1  UNL     1      11.670  18.701  18.720  1.00  0.00     0.201 C 
ENDBRANCH  46  47
ENDBRANCH  45  46
ENDBRANCH  44  45
ENDBRANCH  40  44
ENDBRANCH   1  37
TORSDOF 13
ENDMDL
MODEL 5
REMARK VINA RESULT: -8.709110021      2.101      3.325
REMARK  13 active torsions:
REMARK  status: ('A' for Active; 'I' for Inactive)
REMARK    1  A    between atoms: O1_2  and  C2_3 
REMARK    2  A    between atoms: C2_3  and  C3_4 
REMARK    3  A    between atoms: C3_4  and  C4_5 
REMARK    4  A    between atoms: C4_5  and  N1_6 
REMARK    5  A    between atoms: C6_10  and  N3_11 
REMARK    6  A    between atoms: C8_13  and  C9_14 
REMARK       I    between atoms: C9_14  and  N4_16 
REMARK    7  A    between atoms: N4_16  and  C10_18 
REMARK    8  A    between atoms: C14_22  and  C15_23 
REMARK       I    between atoms: C15_23  and  N5_25 
REMARK    9  A    between atoms: N5_25  and  C16_27 
REMARK   10  A    between atoms: C16_27  and  C17_28 
REMARK       I    between atoms: C17_28  and  N6_30 
REMARK   11  A    between atoms: C18_32  and  C19_33 
REMARK   12  A    between atoms: C28_42  and  C29_43 
REMARK   13  A    between atoms: C29_43  and  O5_44 
ROOT
HETATM    1  N3  UNL     1      18.171  22.479  18.635  1.00  0.00    -0.363 N 
HETATM    2  C7  UNL     1      18.039  23.385  17.522  1.00  0.00     0.139 C 
HETATM    3  C8  UNL     1      19.173  24.340  17.717  1.00  0.00     0.110 C 
HETATM    4  C14 UNL     1      20.271  23.445  18.265  1.00  0.00     0.110 C 
HETATM    5  C31 UNL     1      19.568  22.270  18.875  1.00  0.00     0.139 C 
ENDROOT
BRANCH   4   6
HETATM    6  C15 UNL     1      20.952  24.225  19.335  1.00  0.00     0.225 C 
HETATM    7  O3  UNL     1      20.199  24.805  20.148  1.00  0.00    -0.273 OA
HETATM    8  N5  UNL     1      22.364  24.257  19.358  1.00  0.00    -0.342 N 
ATOM      9  H5  UNL     1      22.855  23.741  18.628  1.00  0.00     0.163 HD
BRANCH   8  10
HETATM   10  C16 UNL     1      23.176  24.963  20.335  1.00  0.00     0.119 C 
HETATM   11  C25 UNL     1      22.623  24.918  21.709  1.00  0.00     0.041 C 
HETATM   12  C26 UNL     1      23.627  24.234  22.587  1.00  0.00     0.004 C 
HETATM   13  C27 UNL     1      24.921  24.220  21.822  1.00  0.00     0.010 C 
HETATM   14  C28 UNL     1      24.485  24.219  20.390  1.00  0.00     0.047 C 
BRANCH  10  15
HETATM   15  C17 UNL     1      23.343  26.381  19.913  1.00  0.00     0.250 C 
HETATM   16  O4  UNL     1      23.362  27.260  20.834  1.00  0.00    -0.270 OA
HETATM   17  N6  UNL     1      23.481  26.776  18.559  1.00  0.00    -0.338 N 
HETATM   18  C18 UNL     1      24.482  27.474  18.138  1.00  0.00     0.068 C 
ATOM     19  H6  UNL     1      22.762  26.497  17.891  1.00  0.00     0.167 HD
BRANCH  18  20
HETATM   20  C19 UNL     1      24.553  27.842  16.724  1.00  0.00     0.024 C 
HETATM   21  C20 UNL     1      25.254  29.185  16.562  1.00  0.00     0.010 C 
HETATM   22  C21 UNL     1      25.635  29.265  15.078  1.00  0.00     0.001 C 
HETATM   23  C22 UNL     1      26.859  28.359  14.941  1.00  0.00     0.000 C 
HETATM   24  C23 UNL     1      26.539  26.993  15.440  1.00  0.00     0.001 C 
HETATM   25  C24 UNL     1      25.114  26.782  15.837  1.00  0.00     0.010 C 
ENDBRANCH  18  20
ENDBRANCH  10  15
BRANCH  14  26
HETATM   26  C29 UNL     1      25.560  24.790  19.487  1.00  0.00     0.174 C 
BRANCH  26  27
HETATM   27  O5  UNL     1      25.444  24.042  18.285  1.00  0.00    -0.395 OA
HETATM   28  C30 UNL     1      25.672  22.695  18.548  1.00  0.00     0.201 C 
ENDBRANCH  26  27
ENDBRANCH  14  26
ENDBRANCH   8  10
ENDBRANCH   4   6
BRANCH   3  29
HETATM   29  C9  UNL     1      19.535  24.995  16.442  1.00  0.00     0.225 C 
HETATM   30  O2  UNL     1      19.338  24.377  15.372  1.00  0.00    -0.273 OA
HETATM   31  N4  UNL     1      20.098  26.299  16.376  1.00  0.00    -0.353 N 
ATOM     32  H4  UNL     1      20.257  26.794  17.253  1.00  0.00     0.163 HD
BRANCH  31  33
HETATM   33  C10 UNL     1      20.456  26.961  15.165  1.00  0.00     0.022 C 
HETATM   34  C11 UNL     1      21.141  28.269  15.500  1.00  0.00     0.037 C 
HETATM   35  C12 UNL     1      21.438  26.169  14.322  1.00  0.00     0.037 C 
HETATM   36  C13 UNL     1      19.261  27.285  14.298  1.00  0.00     0.037 C 
ENDBRANCH  31  33
ENDBRANCH   3  29
BRANCH   1  37
HETATM   37  C6  UNL     1      17.079  21.914  19.348  1.00  0.00     0.136 A 
HETATM   38  C5  UNL     1      16.846  21.863  20.704  1.00  0.00     0.158 A 
HETATM   39  N2  UNL     1      15.675  21.223  20.907  1.00  0.00    -0.292 N 
HETATM   40  N1  UNL     1      15.176  20.878  19.717  1.00  0.00    -0.233 N 
ATOM     41  H2  UNL     1      15.246  21.035  21.813  1.00  0.00     0.188 HD
HETATM   42  N7  UNL     1      16.034  21.301  18.784  1.00  0.00    -0.268 N 
ATOM     43  H7  UNL     1      15.908  21.174  17.780  1.00  0.00     0.190 HD
BRANCH  40  44
HETATM   44  C4  UNL     1      13.934  20.170  19.509  1.00  0.00     0.171 C 
BRANCH  44  45
HETATM   45  C3  UNL     1      13.841  19.073  20.560  1.00  0.00     0.050 C 
BRANCH  45  46
HETATM   46  C2  UNL     1      12.517  18.384  20.524  1.00  0.00     0.168 C 
BRANCH  46  47
HETATM   47  O1  UNL     1      12.631  17.126  19.962  1.00  0.00    -0.396 OA
HETATM   48  C1  UNL     1      12.465  17.093  18.593  1.00  0.00     0.201 C 
ENDBRANCH  46  47
ENDBRANCH  45  46
ENDBRANCH  44  45
ENDBRANCH  40  44
ENDBRANCH   1  37
TORSDOF 13
ENDMDL
