MODEL 1
REMARK VINA RESULT: -7.978329691      0.000      0.000
REMARK  16 active torsions:
REMARK  status: ('A' for Active; 'I' for Inactive)
REMARK    1  A    between atoms: C2_2  and  C4_4 
REMARK    2  A    between atoms: C6_7  and  S2_8 
REMARK       I    between atoms: N1_13  and  C10_15 
REMARK    3  A    between atoms: C10_15  and  C11_17 
REMARK    4  A    between atoms: C11_17  and  C12_18 
REMARK    5  A    between atoms: C12_18  and  C14_20 
REMARK    6  A    between atoms: C14_20  and  C15_21 
REMARK    7  A    between atoms: C15_21  and  C16_23 
REMARK    8  A    between atoms: C16_23  and  C17_24 
REMARK    9  A    between atoms: C16_23  and  C21_28 
REMARK   10  A    between atoms: C17_24  and  C18_25 
REMARK   11  A    between atoms: C18_25  and  C19_26 
REMARK   12  A    between atoms: C21_28  and  O4_29 
REMARK   13  A    between atoms: O4_29  and  N2_30 
REMARK   14  A    between atoms: C22_32  and  O5_33 
REMARK   15  A    between atoms: C22_32  and  N3_35 
REMARK   16  A    between atoms: N3_35  and  C23_37 
ROOT
HETATM    1  C14 UNL     1      11.178 -19.296 -18.948  1.00  0.00     0.083 C 
ENDROOT
BRANCH   1   2
HETATM    2  C12 UNL     1      10.656 -20.726 -18.847  1.00  0.00    -0.003 C 
HETATM    3  C13 UNL     1      11.285 -21.440 -17.667  1.00  0.00     0.011 C 
BRANCH   2   4
HETATM    4  C11 UNL     1      10.914 -21.486 -20.120  1.00  0.00     0.108 C 
BRANCH   4   5
HETATM    5  C10 UNL     1       9.698 -21.617 -20.955  1.00  0.00     0.222 C 
HETATM    6  N1  UNL     1       8.429 -21.488 -20.349  1.00  0.00    -0.319 N 
HETATM    7  C9  UNL     1       7.718 -20.430 -20.516  1.00  0.00     0.154 C 
ATOM      8  H1  UNL     1       8.070 -22.246 -19.768  1.00  0.00     0.169 HD
HETATM    9  C8  UNL     1       6.402 -20.234 -19.921  1.00  0.00     0.231 C 
HETATM   10  C26 UNL     1       8.027 -19.227 -21.297  1.00  0.00     0.277 C 
HETATM   11  C6  UNL     1       5.841 -19.031 -20.524  1.00  0.00     0.202 C 
HETATM   12  O1  UNL     1       5.869 -20.964 -19.061  1.00  0.00    -0.286 OA
HETATM   13  S1  UNL     1       5.372 -17.759 -19.291  1.00  0.00    -0.116 SA
HETATM   14  N5  UNL     1       6.936 -18.338 -21.178  1.00  0.00    -0.303 N 
HETATM   15  C5  UNL     1       6.179 -16.327 -20.126  1.00  0.00     0.107 C 
HETATM   16  C4  UNL     1       6.497 -16.998 -21.460  1.00  0.00     0.128 C 
HETATM   17  O6  UNL     1       9.109 -19.059 -21.956  1.00  0.00    -0.266 OA
HETATM   18  O2  UNL     1       9.799 -21.843 -22.196  1.00  0.00    -0.273 OA
BRANCH  11  19
HETATM   19  S2  UNL     1       4.485 -19.352 -21.680  1.00  0.00    -0.123 SA
HETATM   20  C7  UNL     1       2.911 -18.782 -21.046  1.00  0.00     0.093 C 
ENDBRANCH  11  19
BRANCH  16  21
HETATM   21  C2  UNL     1       7.480 -16.218 -22.246  1.00  0.00    -0.070 C 
HETATM   22  C1  UNL     1       8.341 -15.440 -21.602  1.00  0.00     0.016 C 
HETATM   23  C3  UNL     1       7.544 -16.267 -23.713  1.00  0.00     0.044 C 
ENDBRANCH  16  21
ENDBRANCH   4   5
ENDBRANCH   2   4
ENDBRANCH   1   2
BRANCH   1  24
HETATM   24  C15 UNL     1      10.337 -18.358 -18.187  1.00  0.00     0.133 C 
HETATM   25  O3  UNL     1       9.205 -18.099 -18.579  1.00  0.00    -0.297 OA
BRANCH  24  26
HETATM   26  C16 UNL     1      10.817 -17.712 -16.958  1.00  0.00     0.081 C 
BRANCH  26  27
HETATM   27  C17 UNL     1      12.308 -18.011 -16.748  1.00  0.00     0.014 C 
BRANCH  27  28
HETATM   28  C18 UNL     1      12.530 -18.744 -15.464  1.00  0.00     0.000 C 
BRANCH  28  29
HETATM   29  C19 UNL     1      13.691 -19.703 -15.526  1.00  0.00    -0.005 C 
HETATM   30  C20 UNL     1      13.486 -20.923 -14.689  1.00  0.00     0.005 C 
ENDBRANCH  28  29
ENDBRANCH  27  28
ENDBRANCH  26  27
BRANCH  26  31
HETATM   31  C21 UNL     1      10.017 -18.149 -15.770  1.00  0.00     0.213 C 
BRANCH  31  32
HETATM   32  O4  UNL     1       9.080 -17.207 -15.315  1.00  0.00    -0.276 OA
BRANCH  32  33
HETATM   33  N2  UNL     1       8.038 -16.747 -16.070  1.00  0.00    -0.230 N 
HETATM   34  C22 UNL     1       7.867 -15.480 -16.191  1.00  0.00     0.243 C 
ATOM     35  H2  UNL     1       7.406 -17.401 -16.531  1.00  0.00     0.198 HD
BRANCH  34  36
HETATM   36  O5  UNL     1       8.748 -14.592 -15.548  1.00  0.00    -0.331 OA
ATOM     37  H5  UNL     1       8.452 -14.100 -14.791  1.00  0.00     0.221 HD
ENDBRANCH  34  36
BRANCH  34  38
HETATM   38  N3  UNL     1       6.787 -15.015 -16.974  1.00  0.00    -0.301 N 
ATOM     39  H3  UNL     1       6.905 -14.793 -17.963  1.00  0.00     0.171 HD
BRANCH  38  40
HETATM   40  C23 UNL     1       5.623 -14.880 -16.374  1.00  0.00     0.151 A 
HETATM   41  N4  UNL     1       4.930 -13.765 -16.158  1.00  0.00    -0.346 N 
HETATM   42  C24 UNL     1       3.786 -13.844 -15.539  1.00  0.00     0.097 A 
ATOM     43  H4  UNL     1       5.288 -12.863 -16.471  1.00  0.00     0.167 HD
HETATM   44  C25 UNL     1       3.357 -15.085 -15.145  1.00  0.00     0.070 A 
HETATM   45  S3  UNL     1       4.628 -16.086 -15.683  1.00  0.00    -0.064 SA
ENDBRANCH  38  40
ENDBRANCH  34  38
ENDBRANCH  32  33
ENDBRANCH  31  32
ENDBRANCH  26  31
ENDBRANCH  24  26
ENDBRANCH   1  24
TORSDOF 16
ENDMDL
MODEL 2
REMARK VINA RESULT: -7.701217153      3.143      5.750
REMARK  16 active torsions:
REMARK  status: ('A' for Active; 'I' for Inactive)
REMARK    1  A    between atoms: C2_2  and  C4_4 
REMARK    2  A    between atoms: C6_7  and  S2_8 
REMARK       I    between atoms: N1_13  and  C10_15 
REMARK    3  A    between atoms: C10_15  and  C11_17 
REMARK    4  A    between atoms: C11_17  and  C12_18 
REMARK    5  A    between atoms: C12_18  and  C14_20 
REMARK    6  A    between atoms: C14_20  and  C15_21 
REMARK    7  A    between atoms: C15_21  and  C16_23 
REMARK    8  A    between atoms: C16_23  and  C17_24 
REMARK    9  A    between atoms: C16_23  and  C21_28 
REMARK   10  A    between atoms: C17_24  and  C18_25 
REMARK   11  A    between atoms: C18_25  and  C19_26 
REMARK   12  A    between atoms: C21_28  and  O4_29 
REMARK   13  A    between atoms: O4_29  and  N2_30 
REMARK   14  A    between atoms: C22_32  and  O5_33 
REMARK   15  A    between atoms: C22_32  and  N3_35 
REMARK   16  A    between atoms: N3_35  and  C23_37 
ROOT
HETATM    1  C14 UNL     1      10.925 -19.395 -18.481  1.00  0.00     0.083 C 
ENDROOT
BRANCH   1   2
HETATM    2  C12 UNL     1      10.718 -20.902 -18.598  1.00  0.00    -0.003 C 
HETATM    3  C13 UNL     1      11.535 -21.634 -17.552  1.00  0.00     0.011 C 
BRANCH   2   4
HETATM    4  C11 UNL     1      11.069 -21.389 -19.977  1.00  0.00     0.108 C 
BRANCH   4   5
HETATM    5  C10 UNL     1       9.876 -21.547 -20.841  1.00  0.00     0.222 C 
HETATM    6  N1  UNL     1       8.590 -21.453 -20.264  1.00  0.00    -0.319 N 
HETATM    7  C9  UNL     1       7.857 -20.414 -20.442  1.00  0.00     0.154 C 
ATOM      8  H1  UNL     1       8.238 -22.223 -19.696  1.00  0.00     0.169 HD
HETATM    9  C8  UNL     1       6.523 -20.254 -19.878  1.00  0.00     0.231 C 
HETATM   10  C26 UNL     1       8.153 -19.199 -21.209  1.00  0.00     0.277 C 
HETATM   11  C6  UNL     1       5.946 -19.063 -20.487  1.00  0.00     0.202 C 
HETATM   12  O1  UNL     1       5.989 -21.003 -19.033  1.00  0.00    -0.286 OA
HETATM   13  S1  UNL     1       5.415 -17.809 -19.259  1.00  0.00    -0.116 SA
HETATM   14  N5  UNL     1       7.037 -18.338 -21.112  1.00  0.00    -0.303 N 
HETATM   15  C5  UNL     1       6.205 -16.354 -20.068  1.00  0.00     0.107 C 
HETATM   16  C4  UNL     1       6.571 -17.008 -21.397  1.00  0.00     0.128 C 
HETATM   17  O6  UNL     1       9.245 -18.999 -21.842  1.00  0.00    -0.266 OA
HETATM   18  O2  UNL     1      10.012 -21.763 -22.081  1.00  0.00    -0.273 OA
BRANCH  11  19
HETATM   19  S2  UNL     1       4.626 -19.412 -21.676  1.00  0.00    -0.123 SA
HETATM   20  C7  UNL     1       3.110 -19.920 -20.869  1.00  0.00     0.093 C 
ENDBRANCH  11  19
BRANCH  16  21
HETATM   21  C2  UNL     1       7.551 -16.199 -22.155  1.00  0.00    -0.070 C 
HETATM   22  C1  UNL     1       7.586 -16.311 -23.478  1.00  0.00     0.016 C 
HETATM   23  C3  UNL     1       8.492 -15.274 -21.509  1.00  0.00     0.044 C 
ENDBRANCH  16  21
ENDBRANCH   4   5
ENDBRANCH   2   4
ENDBRANCH   1   2
BRANCH   1  24
HETATM   24  C15 UNL     1       9.976 -18.790 -17.532  1.00  0.00     0.133 C 
HETATM   25  O3  UNL     1       8.831 -18.544 -17.890  1.00  0.00    -0.297 OA
BRANCH  24  26
HETATM   26  C16 UNL     1      10.364 -18.465 -16.152  1.00  0.00     0.081 C 
BRANCH  26  27
HETATM   27  C17 UNL     1       9.300 -17.572 -15.498  1.00  0.00     0.014 C 
BRANCH  27  28
HETATM   28  C18 UNL     1       9.936 -16.433 -14.767  1.00  0.00     0.000 C 
BRANCH  28  29
HETATM   29  C19 UNL     1       9.072 -15.200 -14.733  1.00  0.00    -0.005 C 
HETATM   30  C20 UNL     1       7.697 -15.463 -14.214  1.00  0.00     0.005 C 
ENDBRANCH  28  29
ENDBRANCH  27  28
ENDBRANCH  26  27
BRANCH  26  31
HETATM   31  C21 UNL     1      11.708 -17.807 -16.109  1.00  0.00     0.213 C 
BRANCH  31  32
HETATM   32  O4  UNL     1      12.706 -18.553 -15.459  1.00  0.00    -0.276 OA
BRANCH  32  33
HETATM   33  N2  UNL     1      13.809 -19.053 -16.089  1.00  0.00    -0.230 N 
HETATM   34  C22 UNL     1      14.375 -20.104 -15.615  1.00  0.00     0.243 C 
ATOM     35  H2  UNL     1      14.179 -18.599 -16.924  1.00  0.00     0.198 HD
BRANCH  34  36
HETATM   36  O5  UNL     1      13.854 -20.718 -14.463  1.00  0.00    -0.331 OA
ATOM     37  H5  UNL     1      13.897 -20.267 -13.628  1.00  0.00     0.221 HD
ENDBRANCH  34  36
BRANCH  34  38
HETATM   38  N3  UNL     1      15.516 -20.614 -16.275  1.00  0.00    -0.301 N 
ATOM     39  H3  UNL     1      16.458 -20.416 -15.938  1.00  0.00     0.171 HD
BRANCH  38  40
HETATM   40  C23 UNL     1      15.311 -21.357 -17.343  1.00  0.00     0.151 A 
HETATM   41  N4  UNL     1      15.196 -20.968 -18.610  1.00  0.00    -0.346 N 
HETATM   42  C24 UNL     1      14.993 -21.868 -19.530  1.00  0.00     0.097 A 
ATOM     43  H4  UNL     1      15.267 -19.981 -18.858  1.00  0.00     0.167 HD
HETATM   44  C25 UNL     1      14.910 -23.178 -19.135  1.00  0.00     0.070 A 
HETATM   45  S3  UNL     1      15.127 -23.054 -17.449  1.00  0.00    -0.064 SA
ENDBRANCH  38  40
ENDBRANCH  34  38
ENDBRANCH  32  33
ENDBRANCH  31  32
ENDBRANCH  26  31
ENDBRANCH  24  26
ENDBRANCH   1  24
TORSDOF 16
ENDMDL
MODEL 3
REMARK VINA RESULT: -7.599252844      5.354      8.785
REMARK  16 active torsions:
REMARK  status: ('A' for Active; 'I' for Inactive)
REMARK    1  A    between atoms: C2_2  and  C4_4 
REMARK    2  A    between atoms: C6_7  and  S2_8 
REMARK       I    between atoms: N1_13  and  C10_15 
REMARK    3  A    between atoms: C10_15  and  C11_17 
REMARK    4  A    between atoms: C11_17  and  C12_18 
REMARK    5  A    between atoms: C12_18  and  C14_20 
REMARK    6  A    between atoms: C14_20  and  C15_21 
REMARK    7  A    between atoms: C15_21  and  C16_23 
REMARK    8  A    between atoms: C16_23  and  C17_24 
REMARK    9  A    between atoms: C16_23  and  C21_28 
REMARK   10  A    between atoms: C17_24  and  C18_25 
REMARK   11  A    between atoms: C18_25  and  C19_26 
REMARK   12  A    between atoms: C21_28  and  O4_29 
REMARK   13  A    between atoms: O4_29  and  N2_30 
REMARK   14  A    between atoms: C22_32  and  O5_33 
REMARK   15  A    between atoms: C22_32  and  N3_35 
REMARK   16  A    between atoms: N3_35  and  C23_37 
ROOT
HETATM    1  C14 UNL     1      14.279 -19.629 -15.814  1.00  0.00     0.083 C 
ENDROOT
BRANCH   1   2
HETATM    2  C12 UNL     1      13.041 -19.202 -16.598  1.00  0.00    -0.003 C 
HETATM    3  C13 UNL     1      13.423 -18.762 -17.997  1.00  0.00     0.011 C 
BRANCH   2   4
HETATM    4  C11 UNL     1      12.303 -18.103 -15.883  1.00  0.00     0.108 C 
BRANCH   4   5
HETATM    5  C10 UNL     1      10.851 -18.374 -15.776  1.00  0.00     0.222 C 
HETATM    6  N1  UNL     1       9.933 -17.349 -16.095  1.00  0.00    -0.319 N 
HETATM    7  C9  UNL     1       9.262 -17.375 -17.190  1.00  0.00     0.154 C 
ATOM      8  H1  UNL     1       9.801 -16.574 -15.445  1.00  0.00     0.169 HD
HETATM    9  C8  UNL     1       8.301 -16.352 -17.578  1.00  0.00     0.231 C 
HETATM   10  C26 UNL     1       9.289 -18.376 -18.263  1.00  0.00     0.277 C 
HETATM   11  C6  UNL     1       7.600 -16.854 -18.754  1.00  0.00     0.202 C 
HETATM   12  O1  UNL     1       8.120 -15.258 -17.003  1.00  0.00    -0.286 OA
HETATM   13  S1  UNL     1       7.715 -15.728 -20.196  1.00  0.00    -0.116 SA
HETATM   14  N5  UNL     1       8.376 -17.971 -19.261  1.00  0.00    -0.303 N 
HETATM   15  C5  UNL     1       8.188 -17.004 -21.440  1.00  0.00     0.107 C 
HETATM   16  C4  UNL     1       7.921 -18.247 -20.597  1.00  0.00     0.128 C 
HETATM   17  O6  UNL     1      10.028 -19.419 -18.251  1.00  0.00    -0.266 OA
HETATM   18  O2  UNL     1      10.441 -19.513 -15.404  1.00  0.00    -0.273 OA
BRANCH  11  19
HETATM   19  S2  UNL     1       5.884 -17.336 -18.437  1.00  0.00    -0.123 SA
HETATM   20  C7  UNL     1       4.834 -15.921 -18.123  1.00  0.00     0.093 C 
ENDBRANCH  11  19
BRANCH  16  21
HETATM   21  C2  UNL     1       8.545 -19.453 -21.185  1.00  0.00    -0.070 C 
HETATM   22  C1  UNL     1       7.863 -20.593 -21.180  1.00  0.00     0.016 C 
HETATM   23  C3  UNL     1       9.890 -19.447 -21.775  1.00  0.00     0.044 C 
ENDBRANCH  16  21
ENDBRANCH   4   5
ENDBRANCH   2   4
ENDBRANCH   1   2
BRANCH   1  24
HETATM   24  C15 UNL     1      14.260 -21.071 -15.517  1.00  0.00     0.133 C 
HETATM   25  O3  UNL     1      13.383 -21.533 -14.798  1.00  0.00    -0.297 OA
BRANCH  24  26
HETATM   26  C16 UNL     1      15.274 -21.985 -16.060  1.00  0.00     0.081 C 
BRANCH  26  27
HETATM   27  C17 UNL     1      14.663 -22.861 -17.164  1.00  0.00     0.014 C 
BRANCH  27  28
HETATM   28  C18 UNL     1      14.799 -22.206 -18.500  1.00  0.00     0.000 C 
BRANCH  28  29
HETATM   29  C19 UNL     1      13.498 -22.135 -19.256  1.00  0.00    -0.005 C 
HETATM   30  C20 UNL     1      12.302 -22.329 -18.382  1.00  0.00     0.005 C 
ENDBRANCH  28  29
ENDBRANCH  27  28
ENDBRANCH  26  27
BRANCH  26  31
HETATM   31  C21 UNL     1      15.870 -22.834 -14.980  1.00  0.00     0.213 C 
BRANCH  31  32
HETATM   32  O4  UNL     1      17.236 -23.120 -15.144  1.00  0.00    -0.276 OA
BRANCH  32  33
HETATM   33  N2  UNL     1      17.712 -24.104 -15.962  1.00  0.00    -0.230 N 
HETATM   34  C22 UNL     1      18.513 -23.791 -16.915  1.00  0.00     0.243 C 
ATOM     35  H2  UNL     1      17.434 -25.075 -15.819  1.00  0.00     0.198 HD
BRANCH  34  36
HETATM   36  O5  UNL     1      18.886 -22.447 -17.101  1.00  0.00    -0.331 OA
ATOM     37  H5  UNL     1      19.775 -22.173 -16.909  1.00  0.00     0.221 HD
ENDBRANCH  34  36
BRANCH  34  38
HETATM   38  N3  UNL     1      19.001 -24.817 -17.755  1.00  0.00    -0.301 N 
ATOM     39  H3  UNL     1      19.804 -25.386 -17.488  1.00  0.00     0.171 HD
BRANCH  38  40
HETATM   40  C23 UNL     1      18.374 -25.006 -18.898  1.00  0.00     0.151 A 
HETATM   41  N4  UNL     1      17.642 -24.139 -19.593  1.00  0.00    -0.346 N 
HETATM   42  C24 UNL     1      17.101 -24.526 -20.713  1.00  0.00     0.097 A 
ATOM     43  H4  UNL     1      17.507 -23.186 -19.254  1.00  0.00     0.167 HD
HETATM   44  C25 UNL     1      17.321 -25.818 -21.116  1.00  0.00     0.070 A 
HETATM   45  S3  UNL     1      18.300 -26.420 -19.857  1.00  0.00    -0.064 SA
ENDBRANCH  38  40
ENDBRANCH  34  38
ENDBRANCH  32  33
ENDBRANCH  31  32
ENDBRANCH  26  31
ENDBRANCH  24  26
ENDBRANCH   1  24
TORSDOF 16
ENDMDL
MODEL 4
REMARK VINA RESULT: -7.564813119      4.573      8.295
REMARK  16 active torsions:
REMARK  status: ('A' for Active; 'I' for Inactive)
REMARK    1  A    between atoms: C2_2  and  C4_4 
REMARK    2  A    between atoms: C6_7  and  S2_8 
REMARK       I    between atoms: N1_13  and  C10_15 
REMARK    3  A    between atoms: C10_15  and  C11_17 
REMARK    4  A    between atoms: C11_17  and  C12_18 
REMARK    5  A    between atoms: C12_18  and  C14_20 
REMARK    6  A    between atoms: C14_20  and  C15_21 
REMARK    7  A    between atoms: C15_21  and  C16_23 
REMARK    8  A    between atoms: C16_23  and  C17_24 
REMARK    9  A    between atoms: C16_23  and  C21_28 
REMARK   10  A    between atoms: C17_24  and  C18_25 
REMARK   11  A    between atoms: C18_25  and  C19_26 
REMARK   12  A    between atoms: C21_28  and  O4_29 
REMARK   13  A    between atoms: O4_29  and  N2_30 
REMARK   14  A    between atoms: C22_32  and  O5_33 
REMARK   15  A    between atoms: C22_32  and  N3_35 
REMARK   16  A    between atoms: N3_35  and  C23_37 
ROOT
HETATM    1  C14 UNL     1      10.320 -19.506 -15.892  1.00  0.00     0.083 C 
ENDROOT
BRANCH   1   2
HETATM    2  C12 UNL     1      10.672 -18.035 -16.099  1.00  0.00    -0.003 C 
HETATM    3  C13 UNL     1      11.839 -17.639 -15.218  1.00  0.00     0.011 C 
BRANCH   2   4
HETATM    4  C11 UNL     1       9.483 -17.153 -15.829  1.00  0.00     0.108 C 
BRANCH   4   5
HETATM    5  C10 UNL     1       9.064 -16.388 -17.026  1.00  0.00     0.222 C 
HETATM    6  N1  UNL     1       9.207 -16.975 -18.303  1.00  0.00    -0.319 N 
HETATM    7  C9  UNL     1       8.187 -17.414 -18.950  1.00  0.00     0.154 C 
ATOM      8  H1  UNL     1      10.134 -17.051 -18.720  1.00  0.00     0.169 HD
HETATM    9  C8  UNL     1       8.264 -18.028 -20.269  1.00  0.00     0.231 C 
HETATM   10  C26 UNL     1       6.774 -17.414 -18.552  1.00  0.00     0.277 C 
HETATM   11  C6  UNL     1       6.896 -18.181 -20.745  1.00  0.00     0.202 C 
HETATM   12  O1  UNL     1       9.311 -18.355 -20.866  1.00  0.00    -0.286 OA
HETATM   13  S1  UNL     1       6.472 -19.911 -21.179  1.00  0.00    -0.116 SA
HETATM   14  N5  UNL     1       6.027 -18.004 -19.595  1.00  0.00    -0.303 N 
HETATM   15  C5  UNL     1       4.870 -19.985 -20.270  1.00  0.00     0.107 C 
HETATM   16  C4  UNL     1       4.726 -18.500 -19.951  1.00  0.00     0.128 C 
HETATM   17  O6  UNL     1       6.342 -16.946 -17.444  1.00  0.00    -0.266 OA
HETATM   18  O2  UNL     1       8.584 -15.224 -16.902  1.00  0.00    -0.273 OA
BRANCH  11  19
HETATM   19  S2  UNL     1       6.451 -17.045 -22.083  1.00  0.00    -0.123 SA
HETATM   20  C7  UNL     1       7.789 -15.925 -22.487  1.00  0.00     0.093 C 
ENDBRANCH  11  19
BRANCH  16  21
HETATM   21  C2  UNL     1       3.707 -18.260 -18.905  1.00  0.00    -0.070 C 
HETATM   22  C1  UNL     1       3.353 -19.266 -18.113  1.00  0.00     0.016 C 
HETATM   23  C3  UNL     1       3.065 -16.954 -18.703  1.00  0.00     0.044 C 
ENDBRANCH  16  21
ENDBRANCH   4   5
ENDBRANCH   2   4
ENDBRANCH   1   2
BRANCH   1  24
HETATM   24  C15 UNL     1      11.372 -20.393 -16.415  1.00  0.00     0.133 C 
HETATM   25  O3  UNL     1      11.860 -21.252 -15.690  1.00  0.00    -0.297 OA
BRANCH  24  26
HETATM   26  C16 UNL     1      11.864 -20.280 -17.795  1.00  0.00     0.081 C 
BRANCH  26  27
HETATM   27  C17 UNL     1      11.599 -21.584 -18.561  1.00  0.00     0.014 C 
BRANCH  27  28
HETATM   28  C18 UNL     1      10.462 -21.419 -19.516  1.00  0.00     0.000 C 
BRANCH  28  29
HETATM   29  C19 UNL     1      10.891 -21.475 -20.959  1.00  0.00    -0.005 C 
HETATM   30  C20 UNL     1       9.774 -21.824 -21.888  1.00  0.00     0.005 C 
ENDBRANCH  28  29
ENDBRANCH  27  28
ENDBRANCH  26  27
BRANCH  26  31
HETATM   31  C21 UNL     1      13.320 -19.935 -17.822  1.00  0.00     0.213 C 
BRANCH  31  32
HETATM   32  O4  UNL     1      14.095 -20.730 -18.683  1.00  0.00    -0.276 OA
BRANCH  32  33
HETATM   33  N2  UNL     1      15.380 -21.109 -18.415  1.00  0.00    -0.230 N 
HETATM   34  C22 UNL     1      15.649 -22.359 -18.294  1.00  0.00     0.243 C 
ATOM     35  H2  UNL     1      16.115 -20.409 -18.313  1.00  0.00     0.198 HD
BRANCH  34  36
HETATM   36  O5  UNL     1      14.623 -23.311 -18.437  1.00  0.00    -0.331 OA
ATOM     37  H5  UNL     1      14.816 -24.233 -18.315  1.00  0.00     0.221 HD
ENDBRANCH  34  36
BRANCH  34  38
HETATM   38  N3  UNL     1      16.980 -22.741 -18.017  1.00  0.00    -0.301 N 
ATOM     39  H3  UNL     1      17.530 -22.269 -17.299  1.00  0.00     0.171 HD
BRANCH  38  40
HETATM   40  C23 UNL     1      17.482 -23.731 -18.726  1.00  0.00     0.151 A 
HETATM   41  N4  UNL     1      17.190 -24.083 -19.975  1.00  0.00    -0.346 N 
HETATM   42  C24 UNL     1      17.804 -25.105 -20.502  1.00  0.00     0.097 A 
ATOM     43  H4  UNL     1      16.498 -23.561 -20.513  1.00  0.00     0.167 HD
HETATM   44  C25 UNL     1      18.725 -25.764 -19.730  1.00  0.00     0.070 A 
HETATM   45  S3  UNL     1      18.665 -24.880 -18.274  1.00  0.00    -0.064 SA
ENDBRANCH  38  40
ENDBRANCH  34  38
ENDBRANCH  32  33
ENDBRANCH  31  32
ENDBRANCH  26  31
ENDBRANCH  24  26
ENDBRANCH   1  24
TORSDOF 16
ENDMDL
MODEL 5
REMARK VINA RESULT: -7.554048832      2.981      5.085
REMARK  16 active torsions:
REMARK  status: ('A' for Active; 'I' for Inactive)
REMARK    1  A    between atoms: C2_2  and  C4_4 
REMARK    2  A    between atoms: C6_7  and  S2_8 
REMARK       I    between atoms: N1_13  and  C10_15 
REMARK    3  A    between atoms: C10_15  and  C11_17 
REMARK    4  A    between atoms: C11_17  and  C12_18 
REMARK    5  A    between atoms: C12_18  and  C14_20 
REMARK    6  A    between atoms: C14_20  and  C15_21 
REMARK    7  A    between atoms: C15_21  and  C16_23 
REMARK    8  A    between atoms: C16_23  and  C17_24 
REMARK    9  A    between atoms: C16_23  and  C21_28 
REMARK   10  A    between atoms: C17_24  and  C18_25 
REMARK   11  A    between atoms: C18_25  and  C19_26 
REMARK   12  A    between atoms: C21_28  and  O4_29 
REMARK   13  A    between atoms: O4_29  and  N2_30 
REMARK   14  A    between atoms: C22_32  and  O5_33 
REMARK   15  A    between atoms: C22_32  and  N3_35 
REMARK   16  A    between atoms: N3_35  and  C23_37 
ROOT
HETATM    1  C14 UNL     1      11.581 -20.858 -20.484  1.00  0.00     0.083 C 
ENDROOT
BRANCH   1   2
HETATM    2  C12 UNL     1      10.071 -20.965 -20.672  1.00  0.00    -0.003 C 
HETATM    3  C13 UNL     1       9.744 -21.822 -21.879  1.00  0.00     0.011 C 
BRANCH   2   4
HETATM    4  C11 UNL     1       9.447 -19.603 -20.809  1.00  0.00     0.108 C 
BRANCH   4   5
HETATM    5  C10 UNL     1       8.784 -19.158 -19.561  1.00  0.00     0.222 C 
HETATM    6  N1  UNL     1       7.925 -18.037 -19.599  1.00  0.00    -0.319 N 
HETATM    7  C9  UNL     1       6.650 -18.175 -19.534  1.00  0.00     0.154 C 
ATOM      8  H1  UNL     1       8.325 -17.102 -19.680  1.00  0.00     0.169 HD
HETATM    9  C8  UNL     1       5.710 -17.062 -19.567  1.00  0.00     0.231 C 
HETATM   10  C26 UNL     1       5.861 -19.407 -19.419  1.00  0.00     0.277 C 
HETATM   11  C6  UNL     1       4.397 -17.608 -19.246  1.00  0.00     0.202 C 
HETATM   12  O1  UNL     1       5.989 -15.872 -19.822  1.00  0.00    -0.286 OA
HETATM   13  S1  UNL     1       3.140 -17.268 -20.537  1.00  0.00    -0.116 SA
HETATM   14  N5  UNL     1       4.495 -19.050 -19.382  1.00  0.00    -0.303 N 
HETATM   15  C5  UNL     1       2.474 -18.983 -20.658  1.00  0.00     0.107 C 
HETATM   16  C4  UNL     1       3.158 -19.576 -19.430  1.00  0.00     0.128 C 
HETATM   17  O6  UNL     1       6.368 -20.579 -19.363  1.00  0.00    -0.266 OA
HETATM   18  O2  UNL     1       8.987 -19.777 -18.476  1.00  0.00    -0.273 OA
BRANCH  11  19
HETATM   19  S2  UNL     1       3.789 -17.144 -17.605  1.00  0.00    -0.123 SA
HETATM   20  C7  UNL     1       3.131 -15.479 -17.577  1.00  0.00     0.093 C 
ENDBRANCH  11  19
BRANCH  16  21
HETATM   21  C2  UNL     1       3.116 -21.055 -19.438  1.00  0.00    -0.070 C 
HETATM   22  C1  UNL     1       2.592 -21.674 -20.489  1.00  0.00     0.016 C 
HETATM   23  C3  UNL     1       3.630 -21.873 -18.331  1.00  0.00     0.044 C 
ENDBRANCH  16  21
ENDBRANCH   4   5
ENDBRANCH   2   4
ENDBRANCH   1   2
BRANCH   1  24
HETATM   24  C15 UNL     1      12.035 -21.617 -19.306  1.00  0.00     0.133 C 
HETATM   25  O3  UNL     1      11.212 -22.123 -18.554  1.00  0.00    -0.297 OA
BRANCH  24  26
HETATM   26  C16 UNL     1      13.462 -21.788 -18.999  1.00  0.00     0.081 C 
BRANCH  26  27
HETATM   27  C17 UNL     1      13.669 -23.015 -18.100  1.00  0.00     0.014 C 
BRANCH  27  28
HETATM   28  C18 UNL     1      14.955 -23.703 -18.424  1.00  0.00     0.000 C 
BRANCH  28  29
HETATM   29  C19 UNL     1      15.328 -23.598 -19.880  1.00  0.00    -0.005 C 
HETATM   30  C20 UNL     1      16.024 -24.816 -20.393  1.00  0.00     0.005 C 
ENDBRANCH  28  29
ENDBRANCH  27  28
ENDBRANCH  26  27
BRANCH  26  31
HETATM   31  C21 UNL     1      14.027 -20.559 -18.357  1.00  0.00     0.213 C 
BRANCH  31  32
HETATM   32  O4  UNL     1      13.717 -20.413 -16.995  1.00  0.00    -0.276 OA
BRANCH  32  33
HETATM   33  N2  UNL     1      13.440 -19.213 -16.404  1.00  0.00    -0.230 N 
HETATM   34  C22 UNL     1      12.224 -18.931 -16.106  1.00  0.00     0.243 C 
ATOM     35  H2  UNL     1      14.189 -18.551 -16.203  1.00  0.00     0.198 HD
BRANCH  34  36
HETATM   36  O5  UNL     1      11.202 -19.855 -16.391  1.00  0.00    -0.331 OA
ATOM     37  H5  UNL     1      10.746 -19.812 -17.223  1.00  0.00     0.221 HD
ENDBRANCH  34  36
BRANCH  34  38
HETATM   38  N3  UNL     1      11.948 -17.688 -15.494  1.00  0.00    -0.301 N 
ATOM     39  H3  UNL     1      12.666 -17.178 -14.980  1.00  0.00     0.171 HD
BRANCH  38  40
HETATM   40  C23 UNL     1      10.724 -17.216 -15.616  1.00  0.00     0.151 A 
HETATM   41  N4  UNL     1       9.882 -17.359 -16.636  1.00  0.00    -0.346 N 
HETATM   42  C24 UNL     1       8.703 -16.808 -16.561  1.00  0.00     0.097 A 
ATOM     43  H4  UNL     1      10.154 -17.890 -17.463  1.00  0.00     0.167 HD
HETATM   44  C25 UNL     1       8.396 -16.108 -15.423  1.00  0.00     0.070 A 
HETATM   45  S3  UNL     1       9.825 -16.273 -14.509  1.00  0.00    -0.064 SA
ENDBRANCH  38  40
ENDBRANCH  34  38
ENDBRANCH  32  33
ENDBRANCH  31  32
ENDBRANCH  26  31
ENDBRANCH  24  26
ENDBRANCH   1  24
TORSDOF 16
ENDMDL
