MODEL 1
REMARK VINA RESULT: -8.957197933      0.000      0.000
REMARK  14 active torsions:
REMARK  status: ('A' for Active; 'I' for Inactive)
REMARK    1  A    between atoms: O1_2  and  C2_3 
REMARK    2  A    between atoms: C2_3  and  C3_4 
REMARK       I    between atoms: C3_4  and  N1_6 
REMARK    3  A    between atoms: C6_9  and  C7_10 
REMARK    4  A    between atoms: C9_12  and  O3_13 
REMARK    5  A    between atoms: O3_13  and  C10_14 
REMARK    6  A    between atoms: C13_17  and  N2_18 
REMARK    7  A    between atoms: N2_18  and  C14_20 
REMARK    8  A    between atoms: C17_27  and  N5_28 
REMARK    9  A    between atoms: N5_28  and  C18_30 
REMARK   10  A    between atoms: C18_30  and  C19_31 
REMARK   11  A    between atoms: C19_31  and  C20_32 
REMARK   12  A    between atoms: C20_32  and  N6_33 
REMARK   13  A    between atoms: C26_42  and  O4_43 
REMARK   14  A    between atoms: O4_43  and  C27_44 
ROOT
HETATM    1  C7  UNL     1      12.357 -19.645 -16.078  1.00  0.00    -0.048 A 
HETATM    2  C8  UNL     1      11.917 -20.425 -17.100  1.00  0.00     0.047 A 
HETATM    3  C9  UNL     1      10.667 -20.262 -17.738  1.00  0.00     0.099 A 
HETATM    4  C13 UNL     1       9.880 -19.246 -17.267  1.00  0.00     0.116 A 
HETATM    5  C26 UNL     1      10.264 -18.401 -16.224  1.00  0.00     0.100 A 
HETATM    6  C30 UNL     1      11.541 -18.646 -15.647  1.00  0.00     0.047 A 
ENDROOT
BRANCH   4   7
HETATM    7  N2  UNL     1       8.571 -19.114 -17.828  1.00  0.00    -0.185 N 
ATOM      8  H2  UNL     1       8.044 -19.952 -18.073  1.00  0.00     0.184 HD
BRANCH   7   9
HETATM    9  C14 UNL     1       8.043 -17.946 -18.031  1.00  0.00     0.698 A 
HETATM   10  N3  UNL     1       7.017 -17.541 -17.292  1.00  0.00    -0.180 N 
HETATM   11  C15 UNL     1       6.502 -16.315 -17.540  1.00  0.00     0.109 A 
ATOM     12  H3  UNL     1       6.628 -18.136 -16.560  1.00  0.00     0.185 HD
HETATM   13  C16 UNL     1       5.358 -15.767 -16.778  1.00  0.00     0.090 C 
HETATM   14  N4  UNL     1       7.023 -15.533 -18.512  1.00  0.00    -0.180 N 
HETATM   15  C17 UNL     1       8.060 -15.934 -19.263  1.00  0.00     0.694 A 
ATOM     16  H4  UNL     1       6.618 -14.612 -18.678  1.00  0.00     0.185 HD
HETATM   17  N8  UNL     1       8.545 -17.166 -18.983  1.00  0.00    -0.022 N 
ATOM     18  H8  UNL     1       9.333 -17.513 -19.529  1.00  0.00     0.203 HD
BRANCH  15  19
HETATM   19  N5  UNL     1       8.574 -15.211 -20.186  1.00  0.00    -0.225 N 
ATOM     20  H5  UNL     1       9.298 -14.529 -19.960  1.00  0.00     0.177 HD
BRANCH  19  21
HETATM   21  C18 UNL     1       8.123 -15.366 -21.548  1.00  0.00     0.143 C 
BRANCH  21  22
HETATM   22  C19 UNL     1       7.962 -16.858 -21.878  1.00  0.00     0.065 C 
BRANCH  22  23
HETATM   23  C20 UNL     1       6.600 -17.054 -22.434  1.00  0.00     0.069 C 
BRANCH  23  24
HETATM   24  N6  UNL     1       5.710 -17.823 -21.677  1.00  0.00    -0.351 N 
HETATM   25  C21 UNL     1       4.336 -17.524 -21.694  1.00  0.00     0.098 C 
HETATM   26  C22 UNL     1       3.577 -18.007 -20.480  1.00  0.00     0.317 C 
HETATM   27  N7  UNL     1       4.464 -18.467 -19.428  1.00  0.00     0.093 N 
HETATM   28  C23 UNL     1       3.656 -19.004 -18.360  1.00  0.00     0.310 C 
HETATM   29  C24 UNL     1       5.264 -19.552 -20.000  1.00  0.00     0.317 C 
HETATM   30  C25 UNL     1       6.139 -19.042 -21.122  1.00  0.00     0.098 C 
ENDBRANCH  23  24
ENDBRANCH  22  23
ENDBRANCH  21  22
ENDBRANCH  19  21
ENDBRANCH  15  19
ENDBRANCH   7   9
ENDBRANCH   4   7
BRANCH   3  31
HETATM   31  O3  UNL     1      10.439 -21.139 -18.725  1.00  0.00    -0.344 OA
BRANCH  31  32
HETATM   32  C10 UNL     1      10.817 -21.319 -19.997  1.00  0.00     0.120 C 
HETATM   33  C11 UNL     1       9.634 -21.885 -20.858  1.00  0.00     0.040 C 
HETATM   34  C12 UNL     1      11.141 -19.989 -20.702  1.00  0.00     0.040 C 
ENDBRANCH  31  32
ENDBRANCH   3  31
BRANCH   5  35
HETATM   35  O4  UNL     1       9.543 -17.389 -15.730  1.00  0.00    -0.344 OA
BRANCH  35  36
HETATM   36  C27 UNL     1       9.454 -16.406 -14.832  1.00  0.00     0.129 A 
HETATM   37  C28 UNL     1       8.120 -15.980 -14.244  1.00  0.00     0.035 A 
HETATM   38  C29 UNL     1       8.908 -15.048 -15.127  1.00  0.00     0.035 A 
ENDBRANCH  35  36
ENDBRANCH   5  35
BRANCH   1  39
HETATM   39  C6  UNL     1      13.715 -19.867 -15.447  1.00  0.00     0.022 C 
HETATM   40  C5  UNL     1      13.679 -20.952 -14.435  1.00  0.00     0.029 C 
HETATM   41  C4  UNL     1      14.616 -22.096 -14.730  1.00  0.00     0.126 C 
HETATM   42  N1  UNL     1      15.933 -21.554 -14.938  1.00  0.00    -0.350 N 
HETATM   43  C3  UNL     1      17.072 -22.016 -14.194  1.00  0.00     0.243 C 
HETATM   44  C32 UNL     1      16.083 -20.512 -15.935  1.00  0.00     0.126 C 
HETATM   45  O2  UNL     1      16.878 -22.911 -13.366  1.00  0.00    -0.271 OA
HETATM   46  C31 UNL     1      14.785 -20.051 -16.497  1.00  0.00     0.029 C 
BRANCH  43  47
HETATM   47  C2  UNL     1      18.409 -21.442 -14.416  1.00  0.00     0.269 C 
BRANCH  47  48
HETATM   48  O1  UNL     1      19.410 -22.328 -14.727  1.00  0.00    -0.387 OA
HETATM   49  C1  UNL     1      19.425 -22.861 -15.978  1.00  0.00     0.202 C 
ENDBRANCH  47  48
ENDBRANCH  43  47
ENDBRANCH   1  39
TORSDOF 14
ENDMDL
MODEL 2
REMARK VINA RESULT: -8.884117609      0.697      2.440
REMARK  14 active torsions:
REMARK  status: ('A' for Active; 'I' for Inactive)
REMARK    1  A    between atoms: O1_2  and  C2_3 
REMARK    2  A    between atoms: C2_3  and  C3_4 
REMARK       I    between atoms: C3_4  and  N1_6 
REMARK    3  A    between atoms: C6_9  and  C7_10 
REMARK    4  A    between atoms: C9_12  and  O3_13 
REMARK    5  A    between atoms: O3_13  and  C10_14 
REMARK    6  A    between atoms: C13_17  and  N2_18 
REMARK    7  A    between atoms: N2_18  and  C14_20 
REMARK    8  A    between atoms: C17_27  and  N5_28 
REMARK    9  A    between atoms: N5_28  and  C18_30 
REMARK   10  A    between atoms: C18_30  and  C19_31 
REMARK   11  A    between atoms: C19_31  and  C20_32 
REMARK   12  A    between atoms: C20_32  and  N6_33 
REMARK   13  A    between atoms: C26_42  and  O4_43 
REMARK   14  A    between atoms: O4_43  and  C27_44 
ROOT
HETATM    1  C7  UNL     1      12.172 -19.552 -16.241  1.00  0.00    -0.048 A 
HETATM    2  C8  UNL     1      11.772 -20.255 -17.333  1.00  0.00     0.047 A 
HETATM    3  C9  UNL     1      10.520 -20.088 -17.966  1.00  0.00     0.099 A 
HETATM    4  C13 UNL     1       9.688 -19.152 -17.413  1.00  0.00     0.116 A 
HETATM    5  C26 UNL     1      10.029 -18.390 -16.296  1.00  0.00     0.100 A 
HETATM    6  C30 UNL     1      11.312 -18.631 -15.730  1.00  0.00     0.047 A 
ENDROOT
BRANCH   4   7
HETATM    7  N2  UNL     1       8.378 -19.026 -17.973  1.00  0.00    -0.185 N 
ATOM      8  H2  UNL     1       7.781 -19.850 -18.044  1.00  0.00     0.184 HD
BRANCH   7   9
HETATM    9  C14 UNL     1       7.935 -17.880 -18.392  1.00  0.00     0.698 A 
HETATM   10  N3  UNL     1       8.392 -17.364 -19.527  1.00  0.00    -0.180 N 
HETATM   11  C15 UNL     1       7.899 -16.168 -19.923  1.00  0.00     0.109 A 
ATOM     12  H3  UNL     1       9.093 -17.854 -20.083  1.00  0.00     0.185 HD
HETATM   13  C16 UNL     1       8.340 -15.502 -21.169  1.00  0.00     0.090 C 
HETATM   14  N4  UNL     1       6.970 -15.526 -19.180  1.00  0.00    -0.180 N 
HETATM   15  C17 UNL     1       6.503 -16.040 -18.032  1.00  0.00     0.694 A 
ATOM     16  H4  UNL     1       6.613 -14.626 -19.501  1.00  0.00     0.185 HD
HETATM   17  N8  UNL     1       7.021 -17.237 -17.672  1.00  0.00    -0.022 N 
ATOM     18  H8  UNL     1       6.695 -17.667 -16.807  1.00  0.00     0.203 HD
BRANCH  15  19
HETATM   19  N5  UNL     1       5.619 -15.454 -17.313  1.00  0.00    -0.225 N 
ATOM     20  H5  UNL     1       5.498 -14.444 -17.372  1.00  0.00     0.177 HD
BRANCH  19  21
HETATM   21  C18 UNL     1       4.797 -16.233 -16.419  1.00  0.00     0.143 C 
BRANCH  21  22
HETATM   22  C19 UNL     1       3.417 -16.470 -17.051  1.00  0.00     0.065 C 
BRANCH  22  23
HETATM   23  C20 UNL     1       3.293 -17.921 -17.338  1.00  0.00     0.069 C 
BRANCH  23  24
HETATM   24  N6  UNL     1       3.650 -18.347 -18.622  1.00  0.00    -0.351 N 
HETATM   25  C21 UNL     1       4.330 -19.566 -18.792  1.00  0.00     0.098 C 
HETATM   26  C22 UNL     1       5.132 -19.660 -20.069  1.00  0.00     0.317 C 
HETATM   27  N7  UNL     1       5.236 -18.381 -20.745  1.00  0.00     0.093 N 
HETATM   28  C23 UNL     1       5.923 -18.588 -21.998  1.00  0.00     0.310 C 
HETATM   29  C24 UNL     1       3.868 -17.945 -21.029  1.00  0.00     0.317 C 
HETATM   30  C25 UNL     1       3.103 -17.705 -19.747  1.00  0.00     0.098 C 
ENDBRANCH  23  24
ENDBRANCH  22  23
ENDBRANCH  21  22
ENDBRANCH  19  21
ENDBRANCH  15  19
ENDBRANCH   7   9
ENDBRANCH   4   7
BRANCH   3  31
HETATM   31  O3  UNL     1      10.336 -20.881 -19.030  1.00  0.00    -0.344 OA
BRANCH  31  32
HETATM   32  C10 UNL     1      10.802 -20.985 -20.281  1.00  0.00     0.120 C 
HETATM   33  C11 UNL     1       9.815 -21.808 -21.180  1.00  0.00     0.040 C 
HETATM   34  C12 UNL     1      10.854 -19.623 -20.998  1.00  0.00     0.040 C 
ENDBRANCH  31  32
ENDBRANCH   3  31
BRANCH   5  35
HETATM   35  O4  UNL     1       9.262 -17.457 -15.720  1.00  0.00    -0.344 OA
BRANCH  35  36
HETATM   36  C27 UNL     1       9.150 -16.521 -14.776  1.00  0.00     0.129 A 
HETATM   37  C28 UNL     1       7.797 -16.000 -14.324  1.00  0.00     0.035 A 
HETATM   38  C29 UNL     1       8.769 -15.102 -15.043  1.00  0.00     0.035 A 
ENDBRANCH  35  36
ENDBRANCH   5  35
BRANCH   1  39
HETATM   39  C6  UNL     1      13.535 -19.773 -15.619  1.00  0.00     0.022 C 
HETATM   40  C5  UNL     1      13.482 -20.767 -14.519  1.00  0.00     0.029 C 
HETATM   41  C4  UNL     1      14.369 -21.967 -14.735  1.00  0.00     0.126 C 
HETATM   42  N1  UNL     1      15.701 -21.495 -15.012  1.00  0.00    -0.350 N 
HETATM   43  C3  UNL     1      16.838 -21.937 -14.254  1.00  0.00     0.243 C 
HETATM   44  C32 UNL     1      15.867 -20.547 -16.095  1.00  0.00     0.126 C 
HETATM   45  O2  UNL     1      16.630 -22.752 -13.350  1.00  0.00    -0.271 OA
HETATM   46  C31 UNL     1      14.574 -20.084 -16.670  1.00  0.00     0.029 C 
BRANCH  43  47
HETATM   47  C2  UNL     1      18.190 -21.435 -14.548  1.00  0.00     0.269 C 
BRANCH  47  48
HETATM   48  O1  UNL     1      19.174 -22.380 -14.694  1.00  0.00    -0.387 OA
HETATM   49  C1  UNL     1      19.478 -22.797 -15.952  1.00  0.00     0.202 C 
ENDBRANCH  47  48
ENDBRANCH  43  47
ENDBRANCH   1  39
TORSDOF 14
ENDMDL
MODEL 3
REMARK VINA RESULT: -8.865048990      3.606     12.194
REMARK  14 active torsions:
REMARK  status: ('A' for Active; 'I' for Inactive)
REMARK    1  A    between atoms: O1_2  and  C2_3 
REMARK    2  A    between atoms: C2_3  and  C3_4 
REMARK       I    between atoms: C3_4  and  N1_6 
REMARK    3  A    between atoms: C6_9  and  C7_10 
REMARK    4  A    between atoms: C9_12  and  O3_13 
REMARK    5  A    between atoms: O3_13  and  C10_14 
REMARK    6  A    between atoms: C13_17  and  N2_18 
REMARK    7  A    between atoms: N2_18  and  C14_20 
REMARK    8  A    between atoms: C17_27  and  N5_28 
REMARK    9  A    between atoms: N5_28  and  C18_30 
REMARK   10  A    between atoms: C18_30  and  C19_31 
REMARK   11  A    between atoms: C19_31  and  C20_32 
REMARK   12  A    between atoms: C20_32  and  N6_33 
REMARK   13  A    between atoms: C26_42  and  O4_43 
REMARK   14  A    between atoms: O4_43  and  C27_44 
ROOT
HETATM    1  C7  UNL     1      13.175 -21.418 -18.800  1.00  0.00    -0.048 A 
HETATM    2  C8  UNL     1      13.129 -21.306 -17.446  1.00  0.00     0.047 A 
HETATM    3  C9  UNL     1      14.005 -21.982 -16.567  1.00  0.00     0.099 A 
HETATM    4  C13 UNL     1      14.940 -22.791 -17.154  1.00  0.00     0.116 A 
HETATM    5  C26 UNL     1      15.051 -22.954 -18.536  1.00  0.00     0.100 A 
HETATM    6  C30 UNL     1      14.123 -22.231 -19.337  1.00  0.00     0.047 A 
ENDROOT
BRANCH   4   7
HETATM    7  N2  UNL     1      15.780 -23.560 -16.289  1.00  0.00    -0.185 N 
ATOM      8  H2  UNL     1      15.359 -24.102 -15.535  1.00  0.00     0.184 HD
BRANCH   7   9
HETATM    9  C14 UNL     1      17.067 -23.581 -16.449  1.00  0.00     0.698 A 
HETATM   10  N3  UNL     1      17.801 -22.538 -16.078  1.00  0.00    -0.180 N 
HETATM   11  C15 UNL     1      19.140 -22.607 -16.262  1.00  0.00     0.109 A 
ATOM     12  H3  UNL     1      17.370 -21.710 -15.667  1.00  0.00     0.185 HD
HETATM   13  C16 UNL     1      20.050 -21.502 -15.887  1.00  0.00     0.090 C 
HETATM   14  N4  UNL     1      19.703 -23.709 -16.807  1.00  0.00    -0.180 N 
HETATM   15  C17 UNL     1      18.969 -24.767 -17.185  1.00  0.00     0.694 A 
ATOM     16  H4  UNL     1      20.715 -23.737 -16.935  1.00  0.00     0.185 HD
HETATM   17  N8  UNL     1      17.637 -24.657 -16.983  1.00  0.00    -0.022 N 
ATOM     18  H8  UNL     1      17.039 -25.437 -17.254  1.00  0.00     0.203 HD
BRANCH  15  19
HETATM   19  N5  UNL     1      19.480 -25.823 -17.699  1.00  0.00    -0.225 N 
ATOM     20  H5  UNL     1      20.309 -25.757 -18.289  1.00  0.00     0.177 HD
BRANCH  19  21
HETATM   21  C18 UNL     1      18.875 -27.106 -17.437  1.00  0.00     0.143 C 
BRANCH  21  22
HETATM   22  C19 UNL     1      19.585 -27.788 -16.257  1.00  0.00     0.065 C 
BRANCH  22  23
HETATM   23  C20 UNL     1      18.561 -28.094 -15.228  1.00  0.00     0.069 C 
BRANCH  23  24
HETATM   24  N6  UNL     1      18.388 -27.155 -14.205  1.00  0.00    -0.351 N 
HETATM   25  C21 UNL     1      17.353 -27.323 -13.268  1.00  0.00     0.098 C 
HETATM   26  C22 UNL     1      16.910 -26.046 -12.593  1.00  0.00     0.317 C 
HETATM   27  N7  UNL     1      17.473 -24.869 -13.226  1.00  0.00     0.093 N 
HETATM   28  C23 UNL     1      17.084 -23.712 -12.454  1.00  0.00     0.310 C 
HETATM   29  C24 UNL     1      18.929 -25.010 -13.153  1.00  0.00     0.317 C 
HETATM   30  C25 UNL     1      19.394 -26.205 -13.953  1.00  0.00     0.098 C 
ENDBRANCH  23  24
ENDBRANCH  22  23
ENDBRANCH  21  22
ENDBRANCH  19  21
ENDBRANCH  15  19
ENDBRANCH   7   9
ENDBRANCH   4   7
BRANCH   3  31
HETATM   31  O3  UNL     1      13.785 -21.722 -15.271  1.00  0.00    -0.344 OA
BRANCH  31  32
HETATM   32  C10 UNL     1      14.141 -20.795 -14.372  1.00  0.00     0.120 C 
HETATM   33  C11 UNL     1      14.205 -21.409 -12.931  1.00  0.00     0.040 C 
HETATM   34  C12 UNL     1      15.581 -20.295 -14.591  1.00  0.00     0.040 C 
ENDBRANCH  31  32
ENDBRANCH   3  31
BRANCH   5  35
HETATM   35  O4  UNL     1      15.949 -23.721 -19.165  1.00  0.00    -0.344 OA
BRANCH  35  36
HETATM   36  C27 UNL     1      16.277 -24.388 -20.273  1.00  0.00     0.129 A 
HETATM   37  C28 UNL     1      16.818 -25.806 -20.221  1.00  0.00     0.035 A 
HETATM   38  C29 UNL     1      17.680 -24.667 -20.698  1.00  0.00     0.035 A 
ENDBRANCH  35  36
ENDBRANCH   5  35
BRANCH   1  39
HETATM   39  C6  UNL     1      12.213 -20.655 -19.685  1.00  0.00     0.022 C 
HETATM   40  C5  UNL     1      11.123 -21.526 -20.190  1.00  0.00     0.029 C 
HETATM   41  C4  UNL     1       9.740 -21.065 -19.804  1.00  0.00     0.126 C 
HETATM   42  N1  UNL     1       9.600 -19.688 -20.202  1.00  0.00    -0.350 N 
HETATM   43  C3  UNL     1       8.520 -19.244 -21.038  1.00  0.00     0.243 C 
HETATM   44  C32 UNL     1      10.595 -18.746 -19.729  1.00  0.00     0.126 C 
HETATM   45  O2  UNL     1       7.701 -20.095 -21.400  1.00  0.00    -0.271 OA
HETATM   46  C31 UNL     1      11.721 -19.399 -19.007  1.00  0.00     0.029 C 
BRANCH  43  47
HETATM   47  C2  UNL     1       8.400 -17.833 -21.440  1.00  0.00     0.269 C 
BRANCH  47  48
HETATM   48  O1  UNL     1       7.538 -17.059 -20.704  1.00  0.00    -0.387 OA
HETATM   49  C1  UNL     1       7.840 -15.744 -20.543  1.00  0.00     0.202 C 
ENDBRANCH  47  48
ENDBRANCH  43  47
ENDBRANCH   1  39
TORSDOF 14
ENDMDL
MODEL 4
REMARK VINA RESULT: -8.783026372      3.934     12.238
REMARK  14 active torsions:
REMARK  status: ('A' for Active; 'I' for Inactive)
REMARK    1  A    between atoms: O1_2  and  C2_3 
REMARK    2  A    between atoms: C2_3  and  C3_4 
REMARK       I    between atoms: C3_4  and  N1_6 
REMARK    3  A    between atoms: C6_9  and  C7_10 
REMARK    4  A    between atoms: C9_12  and  O3_13 
REMARK    5  A    between atoms: O3_13  and  C10_14 
REMARK    6  A    between atoms: C13_17  and  N2_18 
REMARK    7  A    between atoms: N2_18  and  C14_20 
REMARK    8  A    between atoms: C17_27  and  N5_28 
REMARK    9  A    between atoms: N5_28  and  C18_30 
REMARK   10  A    between atoms: C18_30  and  C19_31 
REMARK   11  A    between atoms: C19_31  and  C20_32 
REMARK   12  A    between atoms: C20_32  and  N6_33 
REMARK   13  A    between atoms: C26_42  and  O4_43 
REMARK   14  A    between atoms: O4_43  and  C27_44 
ROOT
HETATM    1  C7  UNL     1      13.078 -21.908 -17.988  1.00  0.00    -0.048 A 
HETATM    2  C8  UNL     1      13.820 -22.533 -18.939  1.00  0.00     0.047 A 
HETATM    3  C9  UNL     1      15.201 -22.802 -18.813  1.00  0.00     0.099 A 
HETATM    4  C13 UNL     1      15.791 -22.390 -17.649  1.00  0.00     0.116 A 
HETATM    5  C26 UNL     1      15.094 -21.745 -16.626  1.00  0.00     0.100 A 
HETATM    6  C30 UNL     1      13.707 -21.520 -16.847  1.00  0.00     0.047 A 
ENDROOT
BRANCH   4   7
HETATM    7  N2  UNL     1      17.206 -22.564 -17.531  1.00  0.00    -0.185 N 
ATOM      8  H2  UNL     1      17.801 -22.388 -18.339  1.00  0.00     0.184 HD
BRANCH   7   9
HETATM    9  C14 UNL     1      17.744 -22.941 -16.412  1.00  0.00     0.698 A 
HETATM   10  N3  UNL     1      18.574 -22.132 -15.765  1.00  0.00    -0.180 N 
HETATM   11  C15 UNL     1      19.108 -22.570 -14.602  1.00  0.00     0.109 A 
ATOM     12  H3  UNL     1      18.802 -21.209 -16.133  1.00  0.00     0.185 HD
HETATM   13  C16 UNL     1      20.046 -21.751 -13.802  1.00  0.00     0.090 C 
HETATM   14  N4  UNL     1      18.800 -23.795 -14.121  1.00  0.00    -0.180 N 
HETATM   15  C17 UNL     1      17.962 -24.620 -14.768  1.00  0.00     0.694 A 
ATOM     16  H4  UNL     1      19.215 -24.102 -13.241  1.00  0.00     0.185 HD
HETATM   17  N8  UNL     1      17.450 -24.144 -15.926  1.00  0.00    -0.022 N 
ATOM     18  H8  UNL     1      16.807 -24.736 -16.453  1.00  0.00     0.203 HD
BRANCH  15  19
HETATM   19  N5  UNL     1      17.650 -25.783 -14.331  1.00  0.00    -0.225 N 
ATOM     20  H5  UNL     1      16.974 -26.356 -14.835  1.00  0.00     0.177 HD
BRANCH  19  21
HETATM   21  C18 UNL     1      18.261 -26.276 -13.121  1.00  0.00     0.143 C 
BRANCH  21  22
HETATM   22  C19 UNL     1      17.967 -27.776 -12.960  1.00  0.00     0.065 C 
BRANCH  22  23
HETATM   23  C20 UNL     1      19.174 -28.522 -13.394  1.00  0.00     0.069 C 
BRANCH  23  24
HETATM   24  N6  UNL     1      19.466 -28.517 -14.763  1.00  0.00    -0.351 N 
HETATM   25  C21 UNL     1      20.671 -27.956 -15.220  1.00  0.00     0.098 C 
HETATM   26  C22 UNL     1      20.642 -27.504 -16.661  1.00  0.00     0.317 C 
HETATM   27  N7  UNL     1      19.300 -27.516 -17.211  1.00  0.00     0.093 N 
HETATM   28  C23 UNL     1      19.383 -27.175 -18.611  1.00  0.00     0.310 C 
HETATM   29  C24 UNL     1      18.812 -28.892 -17.094  1.00  0.00     0.317 C 
HETATM   30  C25 UNL     1      18.697 -29.300 -15.643  1.00  0.00     0.098 C 
ENDBRANCH  23  24
ENDBRANCH  22  23
ENDBRANCH  21  22
ENDBRANCH  19  21
ENDBRANCH  15  19
ENDBRANCH   7   9
ENDBRANCH   4   7
BRANCH   3  31
HETATM   31  O3  UNL     1      15.732 -23.433 -19.870  1.00  0.00    -0.344 OA
BRANCH  31  32
HETATM   32  C10 UNL     1      15.842 -24.689 -20.322  1.00  0.00     0.120 C 
HETATM   33  C11 UNL     1      17.244 -24.926 -20.982  1.00  0.00     0.040 C 
HETATM   34  C12 UNL     1      15.828 -25.722 -19.180  1.00  0.00     0.040 C 
ENDBRANCH  31  32
ENDBRANCH   3  31
BRANCH   5  35
HETATM   35  O4  UNL     1      15.614 -21.330 -15.465  1.00  0.00    -0.344 OA
BRANCH  35  36
HETATM   36  C27 UNL     1      15.469 -21.225 -14.143  1.00  0.00     0.129 A 
HETATM   37  C28 UNL     1      15.357 -22.450 -13.252  1.00  0.00     0.035 A 
HETATM   38  C29 UNL     1      14.196 -21.505 -13.415  1.00  0.00     0.035 A 
ENDBRANCH  35  36
ENDBRANCH   5  35
BRANCH   1  39
HETATM   39  C6  UNL     1      11.597 -21.661 -18.182  1.00  0.00     0.022 C 
HETATM   40  C5  UNL     1      11.129 -20.487 -17.403  1.00  0.00     0.029 C 
HETATM   41  C4  UNL     1      10.517 -19.397 -18.246  1.00  0.00     0.126 C 
HETATM   42  N1  UNL     1       9.487 -19.987 -19.061  1.00  0.00    -0.350 N 
HETATM   43  C3  UNL     1       8.141 -19.486 -19.067  1.00  0.00     0.243 C 
HETATM   44  C32 UNL     1       9.850 -21.119 -19.891  1.00  0.00     0.126 C 
HETATM   45  O2  UNL     1       7.898 -18.514 -18.345  1.00  0.00    -0.271 OA
HETATM   46  C31 UNL     1      11.238 -21.600 -19.648  1.00  0.00     0.029 C 
BRANCH  43  47
HETATM   47  C2  UNL     1       7.101 -20.109 -19.902  1.00  0.00     0.269 C 
BRANCH  47  48
HETATM   48  O1  UNL     1       6.107 -20.783 -19.238  1.00  0.00    -0.387 OA
HETATM   49  C1  UNL     1       4.851 -20.262 -19.269  1.00  0.00     0.202 C 
ENDBRANCH  47  48
ENDBRANCH  43  47
ENDBRANCH   1  39
TORSDOF 14
ENDMDL
MODEL 5
REMARK VINA RESULT: -8.754506408      3.985     12.224
REMARK  14 active torsions:
REMARK  status: ('A' for Active; 'I' for Inactive)
REMARK    1  A    between atoms: O1_2  and  C2_3 
REMARK    2  A    between atoms: C2_3  and  C3_4 
REMARK       I    between atoms: C3_4  and  N1_6 
REMARK    3  A    between atoms: C6_9  and  C7_10 
REMARK    4  A    between atoms: C9_12  and  O3_13 
REMARK    5  A    between atoms: O3_13  and  C10_14 
REMARK    6  A    between atoms: C13_17  and  N2_18 
REMARK    7  A    between atoms: N2_18  and  C14_20 
REMARK    8  A    between atoms: C17_27  and  N5_28 
REMARK    9  A    between atoms: N5_28  and  C18_30 
REMARK   10  A    between atoms: C18_30  and  C19_31 
REMARK   11  A    between atoms: C19_31  and  C20_32 
REMARK   12  A    between atoms: C20_32  and  N6_33 
REMARK   13  A    between atoms: C26_42  and  O4_43 
REMARK   14  A    between atoms: O4_43  and  C27_44 
ROOT
HETATM    1  C7  UNL     1      13.087 -21.956 -18.020  1.00  0.00    -0.048 A 
HETATM    2  C8  UNL     1      13.850 -22.567 -18.963  1.00  0.00     0.047 A 
HETATM    3  C9  UNL     1      15.232 -22.823 -18.818  1.00  0.00     0.099 A 
HETATM    4  C13 UNL     1      15.799 -22.412 -17.641  1.00  0.00     0.116 A 
HETATM    5  C26 UNL     1      15.080 -21.782 -16.625  1.00  0.00     0.100 A 
HETATM    6  C30 UNL     1      13.694 -21.570 -16.866  1.00  0.00     0.047 A 
ENDROOT
BRANCH   4   7
HETATM    7  N2  UNL     1      17.213 -22.572 -17.502  1.00  0.00    -0.185 N 
ATOM      8  H2  UNL     1      17.814 -22.452 -18.318  1.00  0.00     0.184 HD
BRANCH   7   9
HETATM    9  C14 UNL     1      17.745 -22.868 -16.357  1.00  0.00     0.698 A 
HETATM   10  N3  UNL     1      18.608 -22.034 -15.787  1.00  0.00    -0.180 N 
HETATM   11  C15 UNL     1      19.134 -22.386 -14.591  1.00  0.00     0.109 A 
ATOM     12  H3  UNL     1      18.866 -21.156 -16.237  1.00  0.00     0.185 HD
HETATM   13  C16 UNL     1      20.105 -21.532 -13.871  1.00  0.00     0.090 C 
HETATM   14  N4  UNL     1      18.786 -23.551 -14.002  1.00  0.00    -0.180 N 
HETATM   15  C17 UNL     1      17.916 -24.400 -14.571  1.00  0.00     0.694 A 
ATOM     16  H4  UNL     1      19.196 -23.793 -13.100  1.00  0.00     0.185 HD
HETATM   17  N8  UNL     1      17.413 -24.011 -15.764  1.00  0.00    -0.022 N 
ATOM     18  H8  UNL     1      16.747 -24.624 -16.234  1.00  0.00     0.203 HD
BRANCH  15  19
HETATM   19  N5  UNL     1      17.567 -25.508 -14.030  1.00  0.00    -0.225 N 
ATOM     20  H5  UNL     1      16.654 -25.914 -14.236  1.00  0.00     0.177 HD
BRANCH  19  21
HETATM   21  C18 UNL     1      18.472 -26.177 -13.128  1.00  0.00     0.143 C 
BRANCH  21  22
HETATM   22  C19 UNL     1      19.124 -27.375 -13.836  1.00  0.00     0.065 C 
BRANCH  22  23
HETATM   23  C20 UNL     1      18.190 -27.841 -14.890  1.00  0.00     0.069 C 
BRANCH  23  24
HETATM   24  N6  UNL     1      18.737 -28.108 -16.150  1.00  0.00    -0.351 N 
HETATM   25  C21 UNL     1      19.002 -29.435 -16.532  1.00  0.00     0.098 C 
HETATM   26  C22 UNL     1      20.056 -29.578 -17.605  1.00  0.00     0.317 C 
HETATM   27  N7  UNL     1      20.759 -28.333 -17.849  1.00  0.00     0.093 N 
HETATM   28  C23 UNL     1      21.666 -28.536 -18.954  1.00  0.00     0.310 C 
HETATM   29  C24 UNL     1      19.746 -27.354 -18.251  1.00  0.00     0.317 C 
HETATM   30  C25 UNL     1      18.772 -27.095 -17.125  1.00  0.00     0.098 C 
ENDBRANCH  23  24
ENDBRANCH  22  23
ENDBRANCH  21  22
ENDBRANCH  19  21
ENDBRANCH  15  19
ENDBRANCH   7   9
ENDBRANCH   4   7
BRANCH   3  31
HETATM   31  O3  UNL     1      15.786 -23.441 -19.869  1.00  0.00    -0.344 OA
BRANCH  31  32
HETATM   32  C10 UNL     1      16.025 -24.697 -20.268  1.00  0.00     0.120 C 
HETATM   33  C11 UNL     1      17.537 -24.890 -20.636  1.00  0.00     0.040 C 
HETATM   34  C12 UNL     1      15.822 -25.717 -19.132  1.00  0.00     0.040 C 
ENDBRANCH  31  32
ENDBRANCH   3  31
BRANCH   5  35
HETATM   35  O4  UNL     1      15.577 -21.369 -15.453  1.00  0.00    -0.344 OA
BRANCH  35  36
HETATM   36  C27 UNL     1      15.366 -21.167 -14.152  1.00  0.00     0.129 A 
HETATM   37  C28 UNL     1      15.273 -22.322 -13.170  1.00  0.00     0.035 A 
HETATM   38  C29 UNL     1      14.076 -21.456 -13.458  1.00  0.00     0.035 A 
ENDBRANCH  35  36
ENDBRANCH   5  35
BRANCH   1  39
HETATM   39  C6  UNL     1      11.606 -21.724 -18.235  1.00  0.00     0.022 C 
HETATM   40  C5  UNL     1      11.113 -20.564 -17.452  1.00  0.00     0.029 C 
HETATM   41  C4  UNL     1      10.502 -19.472 -18.293  1.00  0.00     0.126 C 
HETATM   42  N1  UNL     1       9.492 -20.064 -19.131  1.00  0.00    -0.350 N 
HETATM   43  C3  UNL     1       8.141 -19.578 -19.153  1.00  0.00     0.243 C 
HETATM   44  C32 UNL     1       9.881 -21.183 -19.966  1.00  0.00     0.126 C 
HETATM   45  O2  UNL     1       7.876 -18.617 -18.425  1.00  0.00    -0.271 OA
HETATM   46  C31 UNL     1      11.270 -21.651 -19.705  1.00  0.00     0.029 C 
BRANCH  43  47
HETATM   47  C2  UNL     1       7.121 -20.204 -20.011  1.00  0.00     0.269 C 
BRANCH  47  48
HETATM   48  O1  UNL     1       5.845 -19.711 -19.903  1.00  0.00    -0.387 OA
HETATM   49  C1  UNL     1       4.925 -20.461 -19.239  1.00  0.00     0.202 C 
ENDBRANCH  47  48
ENDBRANCH  43  47
ENDBRANCH   1  39
TORSDOF 14
ENDMDL
