MODEL 1
REMARK VINA RESULT: -9.935249176      0.000      0.000
REMARK  13 active torsions:
REMARK  status: ('A' for Active; 'I' for Inactive)
REMARK    1  A    between atoms: C2_2  and  O1_3 
REMARK    2  A    between atoms: O1_3  and  C3_4 
REMARK    3  A    between atoms: C3_4  and  C4_5 
REMARK    4  A    between atoms: C4_5  and  C5_6 
REMARK    5  A    between atoms: C4_5  and  N7_42 
REMARK       I    between atoms: C5_6  and  N1_8 
REMARK    6  A    between atoms: N1_8  and  C6_10 
REMARK    7  A    between atoms: N2_12  and  C8_13 
REMARK    8  A    between atoms: C8_13  and  C9_14 
REMARK    9  A    between atoms: C9_14  and  N3_15 
REMARK       I    between atoms: N3_15  and  C10_17 
REMARK   10  A    between atoms: C10_17  and  C11_19 
REMARK       I    between atoms: N4_22  and  C14_23 
REMARK   11  A    between atoms: C14_23  and  C15_25 
REMARK   12  A    between atoms: C16_26  and  C17_27 
REMARK   13  A    between atoms: C17_27  and  C18_28 
ROOT
HETATM    1  C9  UNL     1     -14.927  21.532 -16.226  1.00  0.00     0.051 C 
HETATM    2  C24 UNL     1     -15.851  22.273 -15.334  1.00  0.00     0.033 C 
HETATM    3  C25 UNL     1     -15.772  21.502 -14.033  1.00  0.00     0.002 C 
HETATM    4  C26 UNL     1     -14.392  20.920 -14.026  1.00  0.00     0.002 C 
HETATM    5  C27 UNL     1     -13.710  21.341 -15.310  1.00  0.00     0.033 C 
ENDROOT
BRANCH   1   6
HETATM    6  C8  UNL     1     -15.414  20.111 -16.493  1.00  0.00     0.180 C 
BRANCH   6   7
HETATM    7  N2  UNL     1     -14.425  19.316 -17.200  1.00  0.00    -0.283 N 
HETATM    8  C7  UNL     1     -13.154  19.039 -16.896  1.00  0.00     0.161 A 
HETATM    9  C6  UNL     1     -12.616  18.276 -17.892  1.00  0.00     0.141 A 
HETATM   10  N6  UNL     1     -13.625  18.107 -18.805  1.00  0.00    -0.270 N 
HETATM   11  N5  UNL     1     -14.678  18.739 -18.357  1.00  0.00    -0.239 N 
ATOM     12  H6  UNL     1     -13.564  17.583 -19.678  1.00  0.00     0.190 HD
ATOM     13  H5  UNL     1     -15.576  18.780 -18.839  1.00  0.00     0.208 HD
BRANCH   9  14
HETATM   14  N1  UNL     1     -11.302  17.715 -18.046  1.00  0.00    -0.306 N 
HETATM   15  C5  UNL     1     -10.126  18.293 -17.552  1.00  0.00     0.271 C 
HETATM   16  O2  UNL     1     -10.226  19.375 -16.898  1.00  0.00    -0.266 OA
ATOM     17  H1  UNL     1     -11.219  16.833 -18.552  1.00  0.00     0.170 HD
BRANCH  15  18
HETATM   18  C4  UNL     1      -8.780  17.706 -17.757  1.00  0.00     0.100 C 
BRANCH  18  19
HETATM   19  C3  UNL     1      -8.309  17.627 -19.164  1.00  0.00     0.230 C 
BRANCH  19  20
HETATM   20  O1  UNL     1      -8.819  18.525 -20.057  1.00  0.00    -0.385 OA
BRANCH  20  21
HETATM   21  C2  UNL     1      -8.061  19.638 -20.318  1.00  0.00     0.163 C 
HETATM   22  C1  UNL     1      -9.008  20.847 -20.286  1.00  0.00     0.033 C 
ENDBRANCH  20  21
ENDBRANCH  19  20
ENDBRANCH  18  19
BRANCH  18  23
HETATM   23  N7  UNL     1      -8.500  16.577 -16.956  1.00  0.00    -0.374 N 
HETATM   24  C28 UNL     1      -9.069  16.480 -15.664  1.00  0.00     0.149 C 
HETATM   25  C29 UNL     1      -8.696  15.187 -14.967  1.00  0.00     0.187 C 
HETATM   26  O5  UNL     1      -8.199  14.311 -15.915  1.00  0.00    -0.388 OA
HETATM   27  C30 UNL     1      -6.957  14.799 -16.331  1.00  0.00     0.187 C 
HETATM   28  C31 UNL     1      -7.114  16.154 -16.984  1.00  0.00     0.149 C 
ENDBRANCH  18  23
ENDBRANCH  15  18
ENDBRANCH   9  14
ENDBRANCH   6   7
ENDBRANCH   1   6
BRANCH   1  29
HETATM   29  N3  UNL     1     -14.483  22.171 -17.409  1.00  0.00    -0.350 N 
HETATM   30  C10 UNL     1     -15.287  22.608 -18.479  1.00  0.00     0.222 C 
HETATM   31  O3  UNL     1     -16.524  22.467 -18.486  1.00  0.00    -0.273 OA
ATOM     32  H3  UNL     1     -13.479  22.330 -17.495  1.00  0.00     0.163 HD
BRANCH  30  33
HETATM   33  C11 UNL     1     -14.673  23.278 -19.681  1.00  0.00     0.081 C 
HETATM   34  C12 UNL     1     -15.665  23.287 -20.782  1.00  0.00     0.034 C 
HETATM   35  C13 UNL     1     -16.233  24.643 -21.034  1.00  0.00     0.127 C 
HETATM   36  N4  UNL     1     -16.452  25.357 -19.790  1.00  0.00    -0.349 N 
HETATM   37  C14 UNL     1     -17.767  25.824 -19.471  1.00  0.00     0.243 C 
HETATM   38  C22 UNL     1     -15.332  25.564 -18.919  1.00  0.00     0.127 C 
HETATM   39  O4  UNL     1     -18.665  25.573 -20.305  1.00  0.00    -0.268 OA
HETATM   40  C23 UNL     1     -14.173  24.658 -19.312  1.00  0.00     0.034 C 
BRANCH  37  41
HETATM   41  C15 UNL     1     -18.041  26.544 -18.254  1.00  0.00     0.070 C 
HETATM   42  C16 UNL     1     -18.238  26.108 -17.049  1.00  0.00    -0.020 C 
BRANCH  42  43
HETATM   43  C17 UNL     1     -18.242  24.735 -16.538  1.00  0.00     0.035 C 
BRANCH  43  44
HETATM   44  C18 UNL     1     -18.835  24.679 -15.137  1.00  0.00    -0.048 C 
HETATM   45  C19 UNL     1     -19.520  23.365 -14.874  1.00  0.00     0.014 C 
HETATM   46  C20 UNL     1     -19.833  25.818 -15.063  1.00  0.00     0.014 C 
HETATM   47  C21 UNL     1     -17.746  24.942 -14.138  1.00  0.00     0.014 C 
ENDBRANCH  43  44
ENDBRANCH  42  43
ENDBRANCH  37  41
ENDBRANCH  30  33
ENDBRANCH   1  29
TORSDOF 13
ENDMDL
MODEL 2
REMARK VINA RESULT: -9.829660777      2.059     10.462
REMARK  13 active torsions:
REMARK  status: ('A' for Active; 'I' for Inactive)
REMARK    1  A    between atoms: C2_2  and  O1_3 
REMARK    2  A    between atoms: O1_3  and  C3_4 
REMARK    3  A    between atoms: C3_4  and  C4_5 
REMARK    4  A    between atoms: C4_5  and  C5_6 
REMARK    5  A    between atoms: C4_5  and  N7_42 
REMARK       I    between atoms: C5_6  and  N1_8 
REMARK    6  A    between atoms: N1_8  and  C6_10 
REMARK    7  A    between atoms: N2_12  and  C8_13 
REMARK    8  A    between atoms: C8_13  and  C9_14 
REMARK    9  A    between atoms: C9_14  and  N3_15 
REMARK       I    between atoms: N3_15  and  C10_17 
REMARK   10  A    between atoms: C10_17  and  C11_19 
REMARK       I    between atoms: N4_22  and  C14_23 
REMARK   11  A    between atoms: C14_23  and  C15_25 
REMARK   12  A    between atoms: C16_26  and  C17_27 
REMARK   13  A    between atoms: C17_27  and  C18_28 
ROOT
HETATM    1  C9  UNL     1     -12.718  19.748 -17.612  1.00  0.00     0.051 C 
HETATM    2  C24 UNL     1     -12.545  20.776 -16.558  1.00  0.00     0.033 C 
HETATM    3  C25 UNL     1     -13.031  20.076 -15.306  1.00  0.00     0.002 C 
HETATM    4  C26 UNL     1     -12.743  18.627 -15.552  1.00  0.00     0.002 C 
HETATM    5  C27 UNL     1     -12.122  18.510 -16.927  1.00  0.00     0.033 C 
ENDROOT
BRANCH   1   6
HETATM    6  C8  UNL     1     -14.186  19.386 -17.816  1.00  0.00     0.180 C 
BRANCH   6   7
HETATM    7  N2  UNL     1     -15.069  20.510 -17.553  1.00  0.00    -0.283 N 
HETATM    8  C7  UNL     1     -15.304  21.614 -18.265  1.00  0.00     0.161 A 
HETATM    9  C6  UNL     1     -16.194  22.398 -17.587  1.00  0.00     0.141 A 
HETATM   10  N6  UNL     1     -16.480  21.709 -16.436  1.00  0.00    -0.270 N 
HETATM   11  N5  UNL     1     -15.794  20.597 -16.455  1.00  0.00    -0.239 N 
ATOM     12  H6  UNL     1     -17.116  22.010 -15.697  1.00  0.00     0.190 HD
ATOM     13  H5  UNL     1     -15.816  19.891 -15.720  1.00  0.00     0.208 HD
BRANCH   9  14
HETATM   14  N1  UNL     1     -16.771  23.672 -17.915  1.00  0.00    -0.306 N 
HETATM   15  C5  UNL     1     -18.145  23.935 -17.965  1.00  0.00     0.271 C 
HETATM   16  O2  UNL     1     -18.941  22.991 -17.675  1.00  0.00    -0.266 OA
ATOM     17  H1  UNL     1     -16.135  24.441 -18.127  1.00  0.00     0.170 HD
BRANCH  15  18
HETATM   18  C4  UNL     1     -18.711  25.253 -18.340  1.00  0.00     0.100 C 
BRANCH  18  19
HETATM   19  C3  UNL     1     -18.493  25.682 -19.746  1.00  0.00     0.230 C 
BRANCH  19  20
HETATM   20  O1  UNL     1     -18.007  24.756 -20.625  1.00  0.00    -0.385 OA
BRANCH  20  21
HETATM   21  C2  UNL     1     -16.938  25.136 -21.396  1.00  0.00     0.163 C 
HETATM   22  C1  UNL     1     -15.844  24.076 -21.205  1.00  0.00     0.033 C 
ENDBRANCH  20  21
ENDBRANCH  19  20
ENDBRANCH  18  19
BRANCH  18  23
HETATM   23  N7  UNL     1     -18.555  26.262 -17.364  1.00  0.00    -0.374 N 
HETATM   24  C28 UNL     1     -18.819  25.965 -16.006  1.00  0.00     0.149 C 
HETATM   25  C29 UNL     1     -18.559  27.150 -15.098  1.00  0.00     0.187 C 
HETATM   26  O5  UNL     1     -17.805  28.075 -15.797  1.00  0.00    -0.388 OA
HETATM   27  C30 UNL     1     -18.624  28.627 -16.786  1.00  0.00     0.187 C 
HETATM   28  C31 UNL     1     -19.071  27.558 -17.758  1.00  0.00     0.149 C 
ENDBRANCH  18  23
ENDBRANCH  15  18
ENDBRANCH   9  14
ENDBRANCH   6   7
ENDBRANCH   1   6
BRANCH   1  29
HETATM   29  N3  UNL     1     -12.042  19.931 -18.842  1.00  0.00    -0.350 N 
HETATM   30  C10 UNL     1     -10.692  20.297 -19.012  1.00  0.00     0.222 C 
HETATM   31  O3  UNL     1      -9.931  20.505 -18.049  1.00  0.00    -0.273 OA
ATOM     32  H3  UNL     1     -12.586  19.782 -19.691  1.00  0.00     0.163 HD
BRANCH  30  33
HETATM   33  C11 UNL     1     -10.103  20.455 -20.390  1.00  0.00     0.081 C 
HETATM   34  C12 UNL     1      -8.695  20.897 -20.260  1.00  0.00     0.034 C 
HETATM   35  C13 UNL     1      -7.721  19.818 -20.593  1.00  0.00     0.127 C 
HETATM   36  N4  UNL     1      -8.175  18.532 -20.099  1.00  0.00    -0.349 N 
HETATM   37  C14 UNL     1      -7.348  17.795 -19.192  1.00  0.00     0.243 C 
HETATM   38  C22 UNL     1      -9.451  18.048 -20.539  1.00  0.00     0.127 C 
HETATM   39  O4  UNL     1      -6.262  18.326 -18.873  1.00  0.00    -0.268 OA
HETATM   40  C23 UNL     1     -10.260  19.171 -21.175  1.00  0.00     0.034 C 
BRANCH  37  41
HETATM   41  C15 UNL     1      -7.746  16.511 -18.675  1.00  0.00     0.070 C 
HETATM   42  C16 UNL     1      -8.349  16.204 -17.569  1.00  0.00    -0.020 C 
BRANCH  42  43
HETATM   43  C17 UNL     1      -8.822  17.071 -16.487  1.00  0.00     0.035 C 
BRANCH  43  44
HETATM   44  C18 UNL     1      -8.589  16.421 -15.130  1.00  0.00    -0.048 C 
HETATM   45  C19 UNL     1      -7.122  16.240 -14.844  1.00  0.00     0.014 C 
HETATM   46  C20 UNL     1      -9.285  15.076 -15.189  1.00  0.00     0.014 C 
HETATM   47  C21 UNL     1      -9.256  17.252 -14.074  1.00  0.00     0.014 C 
ENDBRANCH  43  44
ENDBRANCH  42  43
ENDBRANCH  37  41
ENDBRANCH  30  33
ENDBRANCH   1  29
TORSDOF 13
ENDMDL
MODEL 3
REMARK VINA RESULT: -9.827044244      1.056      2.724
REMARK  13 active torsions:
REMARK  status: ('A' for Active; 'I' for Inactive)
REMARK    1  A    between atoms: C2_2  and  O1_3 
REMARK    2  A    between atoms: O1_3  and  C3_4 
REMARK    3  A    between atoms: C3_4  and  C4_5 
REMARK    4  A    between atoms: C4_5  and  C5_6 
REMARK    5  A    between atoms: C4_5  and  N7_42 
REMARK       I    between atoms: C5_6  and  N1_8 
REMARK    6  A    between atoms: N1_8  and  C6_10 
REMARK    7  A    between atoms: N2_12  and  C8_13 
REMARK    8  A    between atoms: C8_13  and  C9_14 
REMARK    9  A    between atoms: C9_14  and  N3_15 
REMARK       I    between atoms: N3_15  and  C10_17 
REMARK   10  A    between atoms: C10_17  and  C11_19 
REMARK       I    between atoms: N4_22  and  C14_23 
REMARK   11  A    between atoms: C14_23  and  C15_25 
REMARK   12  A    between atoms: C16_26  and  C17_27 
REMARK   13  A    between atoms: C17_27  and  C18_28 
ROOT
HETATM    1  C9  UNL     1     -14.769  21.490 -16.223  1.00  0.00     0.051 C 
HETATM    2  C24 UNL     1     -15.671  22.256 -15.330  1.00  0.00     0.033 C 
HETATM    3  C25 UNL     1     -15.595  21.495 -14.022  1.00  0.00     0.002 C 
HETATM    4  C26 UNL     1     -14.225  20.889 -14.022  1.00  0.00     0.002 C 
HETATM    5  C27 UNL     1     -13.547  21.285 -15.315  1.00  0.00     0.033 C 
ENDROOT
BRANCH   1   6
HETATM    6  C8  UNL     1     -15.284  20.075 -16.471  1.00  0.00     0.180 C 
BRANCH   6   7
HETATM    7  N2  UNL     1     -14.317  19.258 -17.184  1.00  0.00    -0.283 N 
HETATM    8  C7  UNL     1     -13.058  18.937 -16.878  1.00  0.00     0.161 A 
HETATM    9  C6  UNL     1     -12.539  18.169 -17.881  1.00  0.00     0.141 A 
HETATM   10  N6  UNL     1     -13.549  18.043 -18.800  1.00  0.00    -0.270 N 
HETATM   11  N5  UNL     1     -14.584  18.703 -18.349  1.00  0.00    -0.239 N 
ATOM     12  H6  UNL     1     -13.502  17.527 -19.679  1.00  0.00     0.190 HD
ATOM     13  H5  UNL     1     -15.478  18.778 -18.834  1.00  0.00     0.208 HD
BRANCH   9  14
HETATM   14  N1  UNL     1     -11.243  17.569 -18.037  1.00  0.00    -0.306 N 
HETATM   15  C5  UNL     1     -10.043  18.281 -18.147  1.00  0.00     0.271 C 
HETATM   16  O2  UNL     1     -10.095  19.546 -18.077  1.00  0.00    -0.266 OA
ATOM     17  H1  UNL     1     -11.193  16.550 -18.070  1.00  0.00     0.170 HD
BRANCH  15  18
HETATM   18  C4  UNL     1      -8.723  17.633 -18.340  1.00  0.00     0.100 C 
BRANCH  18  19
HETATM   19  C3  UNL     1      -8.239  16.790 -17.216  1.00  0.00     0.230 C 
BRANCH  19  20
HETATM   20  O1  UNL     1      -9.173  16.225 -16.396  1.00  0.00    -0.385 OA
BRANCH  20  21
HETATM   21  C2  UNL     1      -9.034  16.451 -15.050  1.00  0.00     0.163 C 
HETATM   22  C1  UNL     1     -10.420  16.833 -14.511  1.00  0.00     0.033 C 
ENDBRANCH  20  21
ENDBRANCH  19  20
ENDBRANCH  18  19
BRANCH  18  23
HETATM   23  N7  UNL     1      -7.748  18.450 -18.954  1.00  0.00    -0.374 N 
HETATM   24  C28 UNL     1      -7.831  18.710 -20.342  1.00  0.00     0.149 C 
HETATM   25  C29 UNL     1      -6.730  19.636 -20.820  1.00  0.00     0.187 C 
HETATM   26  O5  UNL     1      -6.167  20.246 -19.714  1.00  0.00    -0.388 OA
HETATM   27  C30 UNL     1      -5.456  19.270 -19.009  1.00  0.00     0.187 C 
HETATM   28  C31 UNL     1      -6.391  18.187 -18.519  1.00  0.00     0.149 C 
ENDBRANCH  18  23
ENDBRANCH  15  18
ENDBRANCH   9  14
ENDBRANCH   6   7
ENDBRANCH   1   6
BRANCH   1  29
HETATM   29  N3  UNL     1     -14.324  22.109 -17.415  1.00  0.00    -0.350 N 
HETATM   30  C10 UNL     1     -15.125  22.505 -18.504  1.00  0.00     0.222 C 
HETATM   31  O3  UNL     1     -16.359  22.339 -18.521  1.00  0.00    -0.273 OA
ATOM     32  H3  UNL     1     -13.323  22.287 -17.494  1.00  0.00     0.163 HD
BRANCH  30  33
HETATM   33  C11 UNL     1     -14.511  23.158 -19.715  1.00  0.00     0.081 C 
HETATM   34  C12 UNL     1     -15.480  23.095 -20.835  1.00  0.00     0.034 C 
HETATM   35  C13 UNL     1     -16.091  24.420 -21.142  1.00  0.00     0.127 C 
HETATM   36  N4  UNL     1     -16.362  25.165 -19.927  1.00  0.00    -0.349 N 
HETATM   37  C14 UNL     1     -17.700  25.593 -19.649  1.00  0.00     0.243 C 
HETATM   38  C22 UNL     1     -15.269  25.441 -19.042  1.00  0.00     0.127 C 
HETATM   39  O4  UNL     1     -18.570  25.282 -20.492  1.00  0.00    -0.268 OA
HETATM   40  C23 UNL     1     -14.069  24.567 -19.382  1.00  0.00     0.034 C 
BRANCH  37  41
HETATM   41  C15 UNL     1     -18.026  26.340 -18.462  1.00  0.00     0.070 C 
HETATM   42  C16 UNL     1     -18.186  25.942 -17.239  1.00  0.00    -0.020 C 
BRANCH  42  43
HETATM   43  C17 UNL     1     -18.085  24.595 -16.671  1.00  0.00     0.035 C 
BRANCH  43  44
HETATM   44  C18 UNL     1     -18.822  24.510 -15.341  1.00  0.00    -0.048 C 
HETATM   45  C19 UNL     1     -17.869  24.513 -14.176  1.00  0.00     0.014 C 
HETATM   46  C20 UNL     1     -19.602  23.212 -15.381  1.00  0.00     0.014 C 
HETATM   47  C21 UNL     1     -19.800  25.645 -15.255  1.00  0.00     0.014 C 
ENDBRANCH  43  44
ENDBRANCH  42  43
ENDBRANCH  37  41
ENDBRANCH  30  33
ENDBRANCH   1  29
TORSDOF 13
ENDMDL
MODEL 4
REMARK VINA RESULT: -9.682112259      1.280      1.831
REMARK  13 active torsions:
REMARK  status: ('A' for Active; 'I' for Inactive)
REMARK    1  A    between atoms: C2_2  and  O1_3 
REMARK    2  A    between atoms: O1_3  and  C3_4 
REMARK    3  A    between atoms: C3_4  and  C4_5 
REMARK    4  A    between atoms: C4_5  and  C5_6 
REMARK    5  A    between atoms: C4_5  and  N7_42 
REMARK       I    between atoms: C5_6  and  N1_8 
REMARK    6  A    between atoms: N1_8  and  C6_10 
REMARK    7  A    between atoms: N2_12  and  C8_13 
REMARK    8  A    between atoms: C8_13  and  C9_14 
REMARK    9  A    between atoms: C9_14  and  N3_15 
REMARK       I    between atoms: N3_15  and  C10_17 
REMARK   10  A    between atoms: C10_17  and  C11_19 
REMARK       I    between atoms: N4_22  and  C14_23 
REMARK   11  A    between atoms: C14_23  and  C15_25 
REMARK   12  A    between atoms: C16_26  and  C17_27 
REMARK   13  A    between atoms: C17_27  and  C18_28 
ROOT
HETATM    1  C9  UNL     1     -14.908  21.547 -16.288  1.00  0.00     0.051 C 
HETATM    2  C24 UNL     1     -15.820  22.275 -15.373  1.00  0.00     0.033 C 
HETATM    3  C25 UNL     1     -15.738  21.474 -14.089  1.00  0.00     0.002 C 
HETATM    4  C26 UNL     1     -14.362  20.883 -14.106  1.00  0.00     0.002 C 
HETATM    5  C27 UNL     1     -13.686  21.327 -15.385  1.00  0.00     0.033 C 
ENDROOT
BRANCH   1   6
HETATM    6  C8  UNL     1     -15.408  20.136 -16.582  1.00  0.00     0.180 C 
BRANCH   6   7
HETATM    7  N2  UNL     1     -14.405  19.329 -17.256  1.00  0.00    -0.283 N 
HETATM    8  C7  UNL     1     -13.127  19.096 -16.947  1.00  0.00     0.161 A 
HETATM    9  C6  UNL     1     -12.577  18.296 -17.908  1.00  0.00     0.141 A 
HETATM   10  N6  UNL     1     -13.587  18.060 -18.804  1.00  0.00    -0.270 N 
HETATM   11  N5  UNL     1     -14.652  18.690 -18.382  1.00  0.00    -0.239 N 
ATOM     12  H6  UNL     1     -13.520  17.494 -19.651  1.00  0.00     0.190 HD
ATOM     13  H5  UNL     1     -15.553  18.687 -18.859  1.00  0.00     0.208 HD
BRANCH   9  14
HETATM   14  N1  UNL     1     -11.252  17.758 -18.043  1.00  0.00    -0.306 N 
HETATM   15  C5  UNL     1     -10.106  18.305 -17.453  1.00  0.00     0.271 C 
HETATM   16  O2  UNL     1     -10.246  19.334 -16.726  1.00  0.00    -0.266 OA
ATOM     17  H1  UNL     1     -11.137  16.917 -18.609  1.00  0.00     0.170 HD
BRANCH  15  18
HETATM   18  C4  UNL     1      -8.746  17.744 -17.639  1.00  0.00     0.100 C 
BRANCH  18  19
HETATM   19  C3  UNL     1      -8.230  17.730 -19.033  1.00  0.00     0.230 C 
BRANCH  19  20
HETATM   20  O1  UNL     1      -8.827  18.557 -19.941  1.00  0.00    -0.385 OA
BRANCH  20  21
HETATM   21  C2  UNL     1      -8.133  19.683 -20.304  1.00  0.00     0.163 C 
HETATM   22  C1  UNL     1      -9.110  20.864 -20.219  1.00  0.00     0.033 C 
ENDBRANCH  20  21
ENDBRANCH  19  20
ENDBRANCH  18  19
BRANCH  18  23
HETATM   23  N7  UNL     1      -8.475  16.586 -16.878  1.00  0.00    -0.374 N 
HETATM   24  C28 UNL     1      -9.060  16.441 -15.597  1.00  0.00     0.149 C 
HETATM   25  C29 UNL     1      -8.695  15.124 -14.944  1.00  0.00     0.187 C 
HETATM   26  O5  UNL     1      -8.185  14.284 -15.918  1.00  0.00    -0.388 OA
HETATM   27  C30 UNL     1      -6.938  14.787 -16.299  1.00  0.00     0.187 C 
HETATM   28  C31 UNL     1      -7.088  16.166 -16.903  1.00  0.00     0.149 C 
ENDBRANCH  18  23
ENDBRANCH  15  18
ENDBRANCH   9  14
ENDBRANCH   6   7
ENDBRANCH   1   6
BRANCH   1  29
HETATM   29  N3  UNL     1     -14.468  22.209 -17.459  1.00  0.00    -0.350 N 
HETATM   30  C10 UNL     1     -15.250  22.527 -18.587  1.00  0.00     0.222 C 
HETATM   31  O3  UNL     1     -16.459  22.243 -18.663  1.00  0.00    -0.273 OA
ATOM     32  H3  UNL     1     -13.486  22.483 -17.490  1.00  0.00     0.163 HD
BRANCH  30  33
HETATM   33  C11 UNL     1     -14.644  23.239 -19.769  1.00  0.00     0.081 C 
HETATM   34  C12 UNL     1     -15.643  23.287 -20.862  1.00  0.00     0.034 C 
HETATM   35  C13 UNL     1     -16.213  24.651 -21.062  1.00  0.00     0.127 C 
HETATM   36  N4  UNL     1     -16.424  25.321 -19.793  1.00  0.00    -0.349 N 
HETATM   37  C14 UNL     1     -17.737  25.776 -19.448  1.00  0.00     0.243 C 
HETATM   38  C22 UNL     1     -15.298  25.497 -18.922  1.00  0.00     0.127 C 
HETATM   39  O4  UNL     1     -18.640  25.554 -20.285  1.00  0.00    -0.268 OA
HETATM   40  C23 UNL     1     -14.141  24.606 -19.354  1.00  0.00     0.034 C 
BRANCH  37  41
HETATM   41  C15 UNL     1     -18.003  26.451 -18.205  1.00  0.00     0.070 C 
HETATM   42  C16 UNL     1     -18.972  27.246 -17.874  1.00  0.00    -0.020 C 
BRANCH  42  43
HETATM   43  C17 UNL     1     -20.114  27.712 -18.665  1.00  0.00     0.035 C 
BRANCH  43  44
HETATM   44  C18 UNL     1     -21.074  28.525 -17.807  1.00  0.00    -0.048 C 
HETATM   45  C19 UNL     1     -21.329  27.865 -16.478  1.00  0.00     0.014 C 
HETATM   46  C20 UNL     1     -22.360  28.623 -18.602  1.00  0.00     0.014 C 
HETATM   47  C21 UNL     1     -20.518  29.908 -17.636  1.00  0.00     0.014 C 
ENDBRANCH  43  44
ENDBRANCH  42  43
ENDBRANCH  37  41
ENDBRANCH  30  33
ENDBRANCH   1  29
TORSDOF 13
ENDMDL
MODEL 5
REMARK VINA RESULT: -9.677614092      1.986      2.509
REMARK  13 active torsions:
REMARK  status: ('A' for Active; 'I' for Inactive)
REMARK    1  A    between atoms: C2_2  and  O1_3 
REMARK    2  A    between atoms: O1_3  and  C3_4 
REMARK    3  A    between atoms: C3_4  and  C4_5 
REMARK    4  A    between atoms: C4_5  and  C5_6 
REMARK    5  A    between atoms: C4_5  and  N7_42 
REMARK       I    between atoms: C5_6  and  N1_8 
REMARK    6  A    between atoms: N1_8  and  C6_10 
REMARK    7  A    between atoms: N2_12  and  C8_13 
REMARK    8  A    between atoms: C8_13  and  C9_14 
REMARK    9  A    between atoms: C9_14  and  N3_15 
REMARK       I    between atoms: N3_15  and  C10_17 
REMARK   10  A    between atoms: C10_17  and  C11_19 
REMARK       I    between atoms: N4_22  and  C14_23 
REMARK   11  A    between atoms: C14_23  and  C15_25 
REMARK   12  A    between atoms: C16_26  and  C17_27 
REMARK   13  A    between atoms: C17_27  and  C18_28 
ROOT
HETATM    1  C9  UNL     1     -14.159  20.913 -16.205  1.00  0.00     0.051 C 
HETATM    2  C24 UNL     1     -15.314  19.997 -16.371  1.00  0.00     0.033 C 
HETATM    3  C25 UNL     1     -15.716  19.683 -14.944  1.00  0.00     0.002 C 
HETATM    4  C26 UNL     1     -15.320  20.901 -14.168  1.00  0.00     0.002 C 
HETATM    5  C27 UNL     1     -14.689  21.878 -15.136  1.00  0.00     0.033 C 
ENDROOT
BRANCH   1   6
HETATM    6  C8  UNL     1     -12.980  20.221 -15.527  1.00  0.00     0.180 C 
BRANCH   6   7
HETATM    7  N2  UNL     1     -12.250  19.359 -16.441  1.00  0.00    -0.283 N 
HETATM    8  C7  UNL     1     -11.031  19.488 -16.969  1.00  0.00     0.161 A 
HETATM    9  C6  UNL     1     -10.795  18.433 -17.805  1.00  0.00     0.141 A 
HETATM   10  N6  UNL     1     -11.931  17.667 -17.749  1.00  0.00    -0.270 N 
HETATM   11  N5  UNL     1     -12.767  18.251 -16.931  1.00  0.00    -0.239 N 
ATOM     12  H6  UNL     1     -12.095  16.797 -18.256  1.00  0.00     0.190 HD
ATOM     13  H5  UNL     1     -13.695  17.896 -16.703  1.00  0.00     0.208 HD
BRANCH   9  14
HETATM   14  N1  UNL     1      -9.650  18.100 -18.605  1.00  0.00    -0.306 N 
HETATM   15  C5  UNL     1      -8.750  17.067 -18.316  1.00  0.00     0.271 C 
HETATM   16  O2  UNL     1      -8.973  16.355 -17.291  1.00  0.00    -0.266 OA
ATOM     17  H1  UNL     1      -9.479  18.655 -19.443  1.00  0.00     0.170 HD
BRANCH  15  18
HETATM   18  C4  UNL     1      -7.557  16.768 -19.144  1.00  0.00     0.100 C 
BRANCH  18  19
HETATM   19  C3  UNL     1      -7.637  15.548 -19.989  1.00  0.00     0.230 C 
BRANCH  19  20
HETATM   20  O1  UNL     1      -7.021  15.576 -21.207  1.00  0.00    -0.385 OA
BRANCH  20  21
HETATM   21  C2  UNL     1      -7.387  16.583 -22.064  1.00  0.00     0.163 C 
HETATM   22  C1  UNL     1      -7.398  15.991 -23.480  1.00  0.00     0.033 C 
ENDBRANCH  20  21
ENDBRANCH  19  20
ENDBRANCH  18  19
BRANCH  18  23
HETATM   23  N7  UNL     1      -6.320  16.982 -18.497  1.00  0.00    -0.374 N 
HETATM   24  C28 UNL     1      -5.483  18.040 -18.924  1.00  0.00     0.149 C 
HETATM   25  C29 UNL     1      -4.221  18.146 -18.092  1.00  0.00     0.187 C 
HETATM   26  O5  UNL     1      -4.402  17.411 -16.934  1.00  0.00    -0.388 OA
HETATM   27  C30 UNL     1      -4.416  16.059 -17.290  1.00  0.00     0.187 C 
HETATM   28  C31 UNL     1      -5.578  15.769 -18.213  1.00  0.00     0.149 C 
ENDBRANCH  18  23
ENDBRANCH  15  18
ENDBRANCH   9  14
ENDBRANCH   6   7
ENDBRANCH   1   6
BRANCH   1  29
HETATM   29  N3  UNL     1     -13.751  21.683 -17.321  1.00  0.00    -0.350 N 
HETATM   30  C10 UNL     1     -14.515  21.968 -18.469  1.00  0.00     0.222 C 
HETATM   31  O3  UNL     1     -15.678  21.548 -18.618  1.00  0.00    -0.273 OA
ATOM     32  H3  UNL     1     -12.808  22.071 -17.290  1.00  0.00     0.163 HD
BRANCH  30  33
HETATM   33  C11 UNL     1     -13.948  22.808 -19.584  1.00  0.00     0.081 C 
HETATM   34  C12 UNL     1     -14.836  22.696 -20.765  1.00  0.00     0.034 C 
HETATM   35  C13 UNL     1     -15.629  23.936 -21.008  1.00  0.00     0.127 C 
HETATM   36  N4  UNL     1     -16.076  24.524 -19.759  1.00  0.00    -0.349 N 
HETATM   37  C14 UNL     1     -17.476  24.720 -19.535  1.00  0.00     0.243 C 
HETATM   38  C22 UNL     1     -15.086  24.884 -18.786  1.00  0.00     0.127 C 
HETATM   39  O4  UNL     1     -18.243  24.356 -20.454  1.00  0.00    -0.268 OA
HETATM   40  C23 UNL     1     -13.749  24.233 -19.115  1.00  0.00     0.034 C 
BRANCH  37  41
HETATM   41  C15 UNL     1     -17.975  25.305 -18.318  1.00  0.00     0.070 C 
HETATM   42  C16 UNL     1     -18.125  24.786 -17.140  1.00  0.00    -0.020 C 
BRANCH  42  43
HETATM   43  C17 UNL     1     -17.832  23.430 -16.668  1.00  0.00     0.035 C 
BRANCH  43  44
HETATM   44  C18 UNL     1     -18.433  23.193 -15.289  1.00  0.00    -0.048 C 
HETATM   45  C19 UNL     1     -18.741  21.738 -15.059  1.00  0.00     0.014 C 
HETATM   46  C20 UNL     1     -19.706  24.014 -15.245  1.00  0.00     0.014 C 
HETATM   47  C21 UNL     1     -17.491  23.727 -14.251  1.00  0.00     0.014 C 
ENDBRANCH  43  44
ENDBRANCH  42  43
ENDBRANCH  37  41
ENDBRANCH  30  33
ENDBRANCH   1  29
TORSDOF 13
ENDMDL
