MODEL 1
REMARK VINA RESULT: -8.528914219      0.000      0.000
REMARK  16 active torsions:
REMARK  status: ('A' for Active; 'I' for Inactive)
REMARK    1  A    between atoms: C2_2  and  C3_3 
REMARK    2  A    between atoms: C3_3  and  N1_4 
REMARK    3  A    between atoms: C3_3  and  C19_29 
REMARK       I    between atoms: N1_4  and  C4_6 
REMARK    4  A    between atoms: C4_6  and  C5_8 
REMARK    5  A    between atoms: N2_9  and  C6_10 
REMARK    6  A    between atoms: C6_10  and  C7_11 
REMARK    7  A    between atoms: C6_10  and  C11_15 
REMARK    8  A    between atoms: C7_11  and  C9_13 
REMARK    9  A    between atoms: C11_15  and  N3_16 
REMARK   10  A    between atoms: C11_15  and  C12_20 
REMARK   11  A    between atoms: C12_20  and  C13_21 
REMARK   12  A    between atoms: C19_29  and  C20_31 
REMARK       I    between atoms: C20_31  and  N4_33 
REMARK   13  A    between atoms: N5_36  and  C23_37 
REMARK   14  A    between atoms: C23_37  and  O5_39 
REMARK   15  A    between atoms: O5_39  and  C24_40 
REMARK   16  A    between atoms: C24_40  and  C25_41 
ROOT
HETATM    1  N1  UNL     1     -13.121  20.901 -15.757  1.00  0.00    -0.347 N 
ATOM      2  H1  UNL     1     -13.101  21.843 -16.149  1.00  0.00     0.163 HD
HETATM    3  C4  UNL     1     -12.169  19.968 -16.214  1.00  0.00     0.242 C 
HETATM    4  O1  UNL     1     -12.128  18.785 -15.808  1.00  0.00    -0.271 OA
ENDROOT
BRANCH   3   5
HETATM    5  C5  UNL     1     -11.124  20.355 -17.237  1.00  0.00     0.191 C 
HETATM    6  N2  UNL     1     -10.765  19.180 -17.899  1.00  0.00    -0.384 N 
HETATM    7  C15 UNL     1     -11.808  18.671 -18.711  1.00  0.00     0.193 C 
HETATM    8  S1  UNL     1     -13.159  19.958 -18.572  1.00  0.00    -0.138 SA
HETATM    9  C16 UNL     1     -11.889  21.251 -18.214  1.00  0.00     0.031 C 
HETATM   10  C17 UNL     1     -12.431  22.493 -17.669  1.00  0.00     0.029 C 
HETATM   11  C18 UNL     1     -11.123  21.501 -19.469  1.00  0.00     0.029 C 
BRANCH   6  12
HETATM   12  C6  UNL     1      -9.403  18.896 -18.243  1.00  0.00     0.115 C 
BRANCH  12  13
HETATM   13  C7  UNL     1      -9.088  19.125 -19.694  1.00  0.00     0.006 C 
HETATM   14  C8  UNL     1      -9.025  17.845 -20.509  1.00  0.00     0.012 C 
BRANCH  13  15
HETATM   15  C9  UNL     1      -8.019  20.090 -20.051  1.00  0.00     0.002 C 
HETATM   16  C10 UNL     1      -6.888  19.360 -20.777  1.00  0.00     0.005 C 
ENDBRANCH  13  15
ENDBRANCH  12  13
BRANCH  12  17
HETATM   17  C11 UNL     1      -8.975  17.511 -17.798  1.00  0.00     0.213 C 
BRANCH  17  18
HETATM   18  N3  UNL     1      -7.537  17.501 -17.456  1.00  0.00    -0.073 N 
ATOM     19  H33 UNL     1      -6.951  17.395 -18.284  1.00  0.00     0.274 HD
ATOM     20  H32 UNL     1      -7.212  18.420 -17.156  1.00  0.00     0.274 HD
ATOM     21  H31 UNL     1      -7.342  16.783 -16.758  1.00  0.00     0.274 HD
ENDBRANCH  17  18
BRANCH  17  22
HETATM   22  C12 UNL     1      -9.605  16.957 -16.565  1.00  0.00     0.112 C 
BRANCH  22  23
HETATM   23  C13 UNL     1      -8.920  15.857 -15.890  1.00  0.00     0.125 C 
HETATM   24  C14 UNL     1      -8.780  15.923 -14.388  1.00  0.00     0.091 C 
HETATM   25  O2  UNL     1      -8.442  14.877 -16.404  1.00  0.00    -0.298 OA
ENDBRANCH  22  23
ENDBRANCH  17  22
ENDBRANCH  12  17
ENDBRANCH   6  12
ENDBRANCH   3   5
BRANCH   1  26
HETATM   26  C3  UNL     1     -14.131  20.592 -14.758  1.00  0.00     0.164 C 
BRANCH  26  27
HETATM   27  C2  UNL     1     -14.199  21.591 -13.673  1.00  0.00     0.029 C 
HETATM   28  C1  UNL     1     -14.483  20.864 -12.365  1.00  0.00     0.007 C 
ENDBRANCH  26  27
BRANCH  26  29
HETATM   29  C19 UNL     1     -15.463  20.442 -15.432  1.00  0.00     0.239 C 
HETATM   30  O3  UNL     1     -15.783  19.319 -15.956  1.00  0.00    -0.285 OA
BRANCH  29  31
HETATM   31  C20 UNL     1     -16.449  21.494 -15.537  1.00  0.00     0.291 C 
HETATM   32  O4  UNL     1     -17.318  21.516 -14.586  1.00  0.00    -0.264 OA
HETATM   33  N4  UNL     1     -16.546  22.462 -16.541  1.00  0.00    -0.342 N 
HETATM   34  C21 UNL     1     -17.622  23.460 -16.436  1.00  0.00     0.146 C 
HETATM   35  C29 UNL     1     -15.643  22.484 -17.657  1.00  0.00     0.146 C 
HETATM   36  C22 UNL     1     -18.321  23.457 -17.785  1.00  0.00     0.145 C 
HETATM   37  N5  UNL     1     -17.333  23.918 -18.751  1.00  0.00    -0.349 N 
HETATM   38  C28 UNL     1     -15.928  23.632 -18.612  1.00  0.00     0.145 C 
BRANCH  37  39
HETATM   39  C23 UNL     1     -17.775  24.662 -19.869  1.00  0.00     0.212 C 
HETATM   40  S2  UNL     1     -16.788  24.801 -21.163  1.00  0.00    -0.033 SA
BRANCH  39  41
HETATM   41  O5  UNL     1     -19.035  25.289 -19.913  1.00  0.00    -0.327 OA
BRANCH  41  42
HETATM   42  C24 UNL     1     -19.083  26.716 -19.825  1.00  0.00     0.182 C 
BRANCH  42  43
HETATM   43  C25 UNL     1     -19.596  27.137 -18.486  1.00  0.00     0.002 C 
HETATM   44  C26 UNL     1     -20.440  28.378 -18.508  1.00  0.00     0.011 C 
HETATM   45  C27 UNL     1     -18.397  27.396 -17.551  1.00  0.00     0.011 C 
ENDBRANCH  42  43
ENDBRANCH  41  42
ENDBRANCH  39  41
ENDBRANCH  37  39
ENDBRANCH  29  31
ENDBRANCH  26  29
ENDBRANCH   1  26
TORSDOF 16
ENDMDL
MODEL 2
REMARK VINA RESULT: -8.443527148      1.218      2.001
REMARK  16 active torsions:
REMARK  status: ('A' for Active; 'I' for Inactive)
REMARK    1  A    between atoms: C2_2  and  C3_3 
REMARK    2  A    between atoms: C3_3  and  N1_4 
REMARK    3  A    between atoms: C3_3  and  C19_29 
REMARK       I    between atoms: N1_4  and  C4_6 
REMARK    4  A    between atoms: C4_6  and  C5_8 
REMARK    5  A    between atoms: N2_9  and  C6_10 
REMARK    6  A    between atoms: C6_10  and  C7_11 
REMARK    7  A    between atoms: C6_10  and  C11_15 
REMARK    8  A    between atoms: C7_11  and  C9_13 
REMARK    9  A    between atoms: C11_15  and  N3_16 
REMARK   10  A    between atoms: C11_15  and  C12_20 
REMARK   11  A    between atoms: C12_20  and  C13_21 
REMARK   12  A    between atoms: C19_29  and  C20_31 
REMARK       I    between atoms: C20_31  and  N4_33 
REMARK   13  A    between atoms: N5_36  and  C23_37 
REMARK   14  A    between atoms: C23_37  and  O5_39 
REMARK   15  A    between atoms: O5_39  and  C24_40 
REMARK   16  A    between atoms: C24_40  and  C25_41 
ROOT
HETATM    1  N1  UNL     1     -13.228  20.939 -15.641  1.00  0.00    -0.347 N 
ATOM      2  H1  UNL     1     -13.257  21.886 -16.020  1.00  0.00     0.163 HD
HETATM    3  C4  UNL     1     -12.274  20.041 -16.160  1.00  0.00     0.242 C 
HETATM    4  O1  UNL     1     -12.177  18.855 -15.774  1.00  0.00    -0.271 OA
ENDROOT
BRANCH   3   5
HETATM    5  C5  UNL     1     -11.296  20.473 -17.231  1.00  0.00     0.191 C 
HETATM    6  N2  UNL     1     -10.928  19.317 -17.919  1.00  0.00    -0.384 N 
HETATM    7  C15 UNL     1     -11.991  18.775 -18.683  1.00  0.00     0.193 C 
HETATM    8  S1  UNL     1     -13.380  20.010 -18.466  1.00  0.00    -0.138 SA
HETATM    9  C16 UNL     1     -12.141  21.346 -18.161  1.00  0.00     0.031 C 
HETATM   10  C17 UNL     1     -12.700  22.564 -17.580  1.00  0.00     0.029 C 
HETATM   11  C18 UNL     1     -11.449  21.633 -19.450  1.00  0.00     0.029 C 
BRANCH   6  12
HETATM   12  C6  UNL     1      -9.575  19.085 -18.332  1.00  0.00     0.115 C 
BRANCH  12  13
HETATM   13  C7  UNL     1      -9.344  19.326 -19.797  1.00  0.00     0.006 C 
HETATM   14  C8  UNL     1      -9.182  18.047 -20.603  1.00  0.00     0.012 C 
BRANCH  13  15
HETATM   15  C9  UNL     1      -8.395  20.390 -20.207  1.00  0.00     0.002 C 
HETATM   16  C10 UNL     1      -7.033  19.771 -20.524  1.00  0.00     0.005 C 
ENDBRANCH  13  15
ENDBRANCH  12  13
BRANCH  12  17
HETATM   17  C11 UNL     1      -9.072  17.718 -17.912  1.00  0.00     0.213 C 
BRANCH  17  18
HETATM   18  N3  UNL     1      -7.638  17.783 -17.559  1.00  0.00    -0.073 N 
ATOM     19  H33 UNL     1      -7.048  17.883 -18.385  1.00  0.00     0.274 HD
ATOM     20  H32 UNL     1      -7.401  18.660 -17.095  1.00  0.00     0.274 HD
ATOM     21  H31 UNL     1      -7.373  16.973 -16.999  1.00  0.00     0.274 HD
ENDBRANCH  17  18
BRANCH  17  22
HETATM   22  C12 UNL     1      -9.677  17.104 -16.695  1.00  0.00     0.112 C 
BRANCH  22  23
HETATM   23  C13 UNL     1      -8.939  16.027 -16.041  1.00  0.00     0.125 C 
HETATM   24  C14 UNL     1      -8.721  16.118 -14.550  1.00  0.00     0.091 C 
HETATM   25  O2  UNL     1      -8.471  15.046 -16.565  1.00  0.00    -0.298 OA
ENDBRANCH  22  23
ENDBRANCH  17  22
ENDBRANCH  12  17
ENDBRANCH   6  12
ENDBRANCH   3   5
BRANCH   1  26
HETATM   26  C3  UNL     1     -14.175  20.586 -14.595  1.00  0.00     0.164 C 
BRANCH  26  27
HETATM   27  C2  UNL     1     -14.296  21.622 -13.549  1.00  0.00     0.029 C 
HETATM   28  C1  UNL     1     -14.442  20.929 -12.200  1.00  0.00     0.007 C 
ENDBRANCH  26  27
BRANCH  26  29
HETATM   29  C19 UNL     1     -15.509  20.292 -15.215  1.00  0.00     0.239 C 
HETATM   30  O3  UNL     1     -15.714  19.152 -15.761  1.00  0.00    -0.285 OA
BRANCH  29  31
HETATM   31  C20 UNL     1     -16.619  21.217 -15.242  1.00  0.00     0.291 C 
HETATM   32  O4  UNL     1     -17.536  20.985 -14.368  1.00  0.00    -0.264 OA
HETATM   33  N4  UNL     1     -16.789  22.307 -16.102  1.00  0.00    -0.342 N 
HETATM   34  C21 UNL     1     -17.993  23.135 -15.937  1.00  0.00     0.146 C 
HETATM   35  C29 UNL     1     -15.835  22.610 -17.131  1.00  0.00     0.146 C 
HETATM   36  C22 UNL     1     -18.607  23.250 -17.322  1.00  0.00     0.145 C 
HETATM   37  N5  UNL     1     -17.637  23.972 -18.134  1.00  0.00    -0.349 N 
HETATM   38  C28 UNL     1     -16.217  23.845 -17.930  1.00  0.00     0.145 C 
BRANCH  37  39
HETATM   39  C23 UNL     1     -18.111  24.817 -19.164  1.00  0.00     0.212 C 
HETATM   40  S2  UNL     1     -18.888  26.195 -18.758  1.00  0.00    -0.033 SA
BRANCH  39  41
HETATM   41  O5  UNL     1     -17.939  24.519 -20.529  1.00  0.00    -0.327 OA
BRANCH  41  42
HETATM   42  C24 UNL     1     -16.766  25.009 -21.186  1.00  0.00     0.182 C 
BRANCH  42  43
HETATM   43  C25 UNL     1     -15.628  24.060 -20.996  1.00  0.00     0.002 C 
HETATM   44  C26 UNL     1     -14.382  24.689 -20.444  1.00  0.00     0.011 C 
HETATM   45  C27 UNL     1     -15.277  23.425 -22.356  1.00  0.00     0.011 C 
ENDBRANCH  42  43
ENDBRANCH  41  42
ENDBRANCH  39  41
ENDBRANCH  37  39
ENDBRANCH  29  31
ENDBRANCH  26  29
ENDBRANCH   1  26
TORSDOF 16
ENDMDL
MODEL 3
REMARK VINA RESULT: -8.250007490      2.360     10.363
REMARK  16 active torsions:
REMARK  status: ('A' for Active; 'I' for Inactive)
REMARK    1  A    between atoms: C2_2  and  C3_3 
REMARK    2  A    between atoms: C3_3  and  N1_4 
REMARK    3  A    between atoms: C3_3  and  C19_29 
REMARK       I    between atoms: N1_4  and  C4_6 
REMARK    4  A    between atoms: C4_6  and  C5_8 
REMARK    5  A    between atoms: N2_9  and  C6_10 
REMARK    6  A    between atoms: C6_10  and  C7_11 
REMARK    7  A    between atoms: C6_10  and  C11_15 
REMARK    8  A    between atoms: C7_11  and  C9_13 
REMARK    9  A    between atoms: C11_15  and  N3_16 
REMARK   10  A    between atoms: C11_15  and  C12_20 
REMARK   11  A    between atoms: C12_20  and  C13_21 
REMARK   12  A    between atoms: C19_29  and  C20_31 
REMARK       I    between atoms: C20_31  and  N4_33 
REMARK   13  A    between atoms: N5_36  and  C23_37 
REMARK   14  A    between atoms: C23_37  and  O5_39 
REMARK   15  A    between atoms: O5_39  and  C24_40 
REMARK   16  A    between atoms: C24_40  and  C25_41 
ROOT
HETATM    1  N1  UNL     1     -14.154  21.097 -17.999  1.00  0.00    -0.347 N 
ATOM      2  H1  UNL     1     -14.281  20.641 -18.903  1.00  0.00     0.163 HD
HETATM    3  C4  UNL     1     -14.974  22.198 -17.685  1.00  0.00     0.242 C 
HETATM    4  O1  UNL     1     -14.878  22.833 -16.611  1.00  0.00    -0.271 OA
ENDROOT
BRANCH   3   5
HETATM    5  C5  UNL     1     -16.037  22.680 -18.648  1.00  0.00     0.191 C 
HETATM    6  N2  UNL     1     -16.551  23.861 -18.110  1.00  0.00    -0.384 N 
HETATM    7  C15 UNL     1     -15.616  24.925 -18.136  1.00  0.00     0.193 C 
HETATM    8  S1  UNL     1     -14.138  24.206 -19.030  1.00  0.00    -0.138 SA
HETATM    9  C16 UNL     1     -15.248  23.024 -19.913  1.00  0.00     0.031 C 
HETATM   10  C17 UNL     1     -14.553  21.918 -20.567  1.00  0.00     0.029 C 
HETATM   11  C18 UNL     1     -16.061  23.803 -20.892  1.00  0.00     0.029 C 
BRANCH   6  12
HETATM   12  C6  UNL     1     -17.953  24.155 -18.144  1.00  0.00     0.115 C 
BRANCH  12  13
HETATM   13  C7  UNL     1     -18.257  25.605 -18.395  1.00  0.00     0.006 C 
HETATM   14  C8  UNL     1     -18.921  26.297 -17.217  1.00  0.00     0.012 C 
BRANCH  13  15
HETATM   15  C9  UNL     1     -18.843  25.999 -19.701  1.00  0.00     0.002 C 
HETATM   16  C10 UNL     1     -19.722  27.237 -19.518  1.00  0.00     0.005 C 
ENDBRANCH  13  15
ENDBRANCH  12  13
BRANCH  12  17
HETATM   17  C11 UNL     1     -18.679  23.645 -16.915  1.00  0.00     0.213 C 
BRANCH  17  18
HETATM   18  N3  UNL     1     -19.332  22.351 -17.202  1.00  0.00    -0.073 N 
ATOM     19  H33 UNL     1     -20.070  22.445 -17.901  1.00  0.00     0.274 HD
ATOM     20  H32 UNL     1     -18.716  21.720 -17.715  1.00  0.00     0.274 HD
ATOM     21  H31 UNL     1     -19.677  21.928 -16.341  1.00  0.00     0.274 HD
ENDBRANCH  17  18
BRANCH  17  22
HETATM   22  C12 UNL     1     -17.857  23.332 -15.709  1.00  0.00     0.112 C 
BRANCH  22  23
HETATM   23  C13 UNL     1     -18.204  22.136 -14.946  1.00  0.00     0.125 C 
HETATM   24  C14 UNL     1     -17.137  21.085 -14.750  1.00  0.00     0.091 C 
HETATM   25  O2  UNL     1     -19.268  21.882 -14.439  1.00  0.00    -0.298 OA
ENDBRANCH  22  23
ENDBRANCH  17  22
ENDBRANCH  12  17
ENDBRANCH   6  12
ENDBRANCH   3   5
BRANCH   1  26
HETATM   26  C3  UNL     1     -13.135  20.574 -17.101  1.00  0.00     0.164 C 
BRANCH  26  27
HETATM   27  C2  UNL     1     -13.048  19.101 -17.117  1.00  0.00     0.029 C 
HETATM   28  C1  UNL     1     -12.600  18.630 -15.739  1.00  0.00     0.007 C 
ENDBRANCH  26  27
BRANCH  26  29
HETATM   29  C19 UNL     1     -11.811  21.193 -17.445  1.00  0.00     0.239 C 
HETATM   30  O3  UNL     1     -11.304  22.072 -16.666  1.00  0.00    -0.285 OA
BRANCH  29  31
HETATM   31  C20 UNL     1     -11.035  20.861 -18.618  1.00  0.00     0.291 C 
HETATM   32  O4  UNL     1     -11.352  21.520 -19.679  1.00  0.00    -0.264 OA
HETATM   33  N4  UNL     1     -10.003  19.922 -18.710  1.00  0.00    -0.342 N 
HETATM   34  C21 UNL     1      -9.329  19.762 -20.007  1.00  0.00     0.146 C 
HETATM   35  C29 UNL     1      -9.615  19.117 -17.586  1.00  0.00     0.146 C 
HETATM   36  C22 UNL     1      -9.337  18.270 -20.295  1.00  0.00     0.145 C 
HETATM   37  N5  UNL     1      -8.524  17.655 -19.254  1.00  0.00    -0.349 N 
HETATM   38  C28 UNL     1      -8.465  18.180 -17.914  1.00  0.00     0.145 C 
BRANCH  37  39
HETATM   39  C23 UNL     1      -7.780  16.496 -19.572  1.00  0.00     0.212 C 
HETATM   40  S2  UNL     1      -7.319  16.255 -21.120  1.00  0.00    -0.033 SA
BRANCH  39  41
HETATM   41  O5  UNL     1      -7.417  15.538 -18.605  1.00  0.00    -0.327 OA
BRANCH  41  42
HETATM   42  C24 UNL     1      -6.129  15.651 -17.992  1.00  0.00     0.182 C 
BRANCH  42  43
HETATM   43  C25 UNL     1      -6.158  15.072 -16.614  1.00  0.00     0.002 C 
HETATM   44  C26 UNL     1      -7.537  14.874 -16.054  1.00  0.00     0.011 C 
HETATM   45  C27 UNL     1      -5.391  16.012 -15.662  1.00  0.00     0.011 C 
ENDBRANCH  42  43
ENDBRANCH  41  42
ENDBRANCH  39  41
ENDBRANCH  37  39
ENDBRANCH  29  31
ENDBRANCH  26  29
ENDBRANCH   1  26
TORSDOF 16
ENDMDL
MODEL 4
REMARK VINA RESULT: -8.245789342      2.407     10.506
REMARK  16 active torsions:
REMARK  status: ('A' for Active; 'I' for Inactive)
REMARK    1  A    between atoms: C2_2  and  C3_3 
REMARK    2  A    between atoms: C3_3  and  N1_4 
REMARK    3  A    between atoms: C3_3  and  C19_29 
REMARK       I    between atoms: N1_4  and  C4_6 
REMARK    4  A    between atoms: C4_6  and  C5_8 
REMARK    5  A    between atoms: N2_9  and  C6_10 
REMARK    6  A    between atoms: C6_10  and  C7_11 
REMARK    7  A    between atoms: C6_10  and  C11_15 
REMARK    8  A    between atoms: C7_11  and  C9_13 
REMARK    9  A    between atoms: C11_15  and  N3_16 
REMARK   10  A    between atoms: C11_15  and  C12_20 
REMARK   11  A    between atoms: C12_20  and  C13_21 
REMARK   12  A    between atoms: C19_29  and  C20_31 
REMARK       I    between atoms: C20_31  and  N4_33 
REMARK   13  A    between atoms: N5_36  and  C23_37 
REMARK   14  A    between atoms: C23_37  and  O5_39 
REMARK   15  A    between atoms: O5_39  and  C24_40 
REMARK   16  A    between atoms: C24_40  and  C25_41 
ROOT
HETATM    1  N1  UNL     1     -15.493  21.631 -17.588  1.00  0.00    -0.347 N 
ATOM      2  H1  UNL     1     -16.465  21.426 -17.352  1.00  0.00     0.163 HD
HETATM    3  C4  UNL     1     -15.238  22.574 -18.603  1.00  0.00     0.242 C 
HETATM    4  O1  UNL     1     -14.082  22.876 -18.975  1.00  0.00    -0.271 OA
ENDROOT
BRANCH   3   5
HETATM    5  C5  UNL     1     -16.370  23.287 -19.311  1.00  0.00     0.191 C 
HETATM    6  N2  UNL     1     -16.853  24.244 -18.418  1.00  0.00    -0.384 N 
HETATM    7  C15 UNL     1     -15.931  25.294 -18.191  1.00  0.00     0.193 C 
HETATM    8  S1  UNL     1     -14.514  24.910 -19.351  1.00  0.00    -0.138 SA
HETATM    9  C16 UNL     1     -15.675  24.007 -20.468  1.00  0.00     0.031 C 
HETATM   10  C17 UNL     1     -15.019  23.161 -21.461  1.00  0.00     0.029 C 
HETATM   11  C18 UNL     1     -16.561  25.015 -21.120  1.00  0.00     0.029 C 
BRANCH   6  12
HETATM   12  C6  UNL     1     -18.257  24.496 -18.273  1.00  0.00     0.115 C 
BRANCH  12  13
HETATM   13  C7  UNL     1     -18.611  25.956 -18.297  1.00  0.00     0.006 C 
HETATM   14  C8  UNL     1     -19.177  26.464 -16.982  1.00  0.00     0.012 C 
BRANCH  13  15
HETATM   15  C9  UNL     1     -19.322  26.500 -19.481  1.00  0.00     0.002 C 
HETATM   16  C10 UNL     1     -20.274  27.614 -19.042  1.00  0.00     0.005 C 
ENDBRANCH  13  15
ENDBRANCH  12  13
BRANCH  12  17
HETATM   17  C11 UNL     1     -18.842  23.808 -17.055  1.00  0.00     0.213 C 
BRANCH  17  18
HETATM   18  N3  UNL     1     -19.269  22.434 -17.395  1.00  0.00    -0.073 N 
ATOM     19  H33 UNL     1     -20.159  22.195 -16.958  1.00  0.00     0.274 HD
ATOM     20  H32 UNL     1     -19.553  22.356 -18.371  1.00  0.00     0.274 HD
ATOM     21  H31 UNL     1     -18.537  21.765 -17.158  1.00  0.00     0.274 HD
ENDBRANCH  17  18
BRANCH  17  22
HETATM   22  C12 UNL     1     -17.941  23.587 -15.887  1.00  0.00     0.112 C 
BRANCH  22  23
HETATM   23  C13 UNL     1     -18.404  22.685 -14.836  1.00  0.00     0.125 C 
HETATM   24  C14 UNL     1     -19.503  23.169 -13.920  1.00  0.00     0.091 C 
HETATM   25  O2  UNL     1     -18.003  21.571 -14.607  1.00  0.00    -0.298 OA
ENDBRANCH  22  23
ENDBRANCH  17  22
ENDBRANCH  12  17
ENDBRANCH   6  12
ENDBRANCH   3   5
BRANCH   1  26
HETATM   26  C3  UNL     1     -14.445  20.936 -16.857  1.00  0.00     0.164 C 
BRANCH  26  27
HETATM   27  C2  UNL     1     -14.902  20.394 -15.562  1.00  0.00     0.029 C 
HETATM   28  C1  UNL     1     -14.078  21.037 -14.453  1.00  0.00     0.007 C 
ENDBRANCH  26  27
BRANCH  26  29
HETATM   29  C19 UNL     1     -13.878  19.849 -17.723  1.00  0.00     0.239 C 
HETATM   30  O3  UNL     1     -14.670  19.027 -18.303  1.00  0.00    -0.285 OA
BRANCH  29  31
HETATM   31  C20 UNL     1     -12.468  19.652 -17.968  1.00  0.00     0.291 C 
HETATM   32  O4  UNL     1     -12.009  20.264 -19.005  1.00  0.00    -0.264 OA
HETATM   33  N4  UNL     1     -11.579  18.883 -17.210  1.00  0.00    -0.342 N 
HETATM   34  C21 UNL     1     -10.171  18.841 -17.631  1.00  0.00     0.146 C 
HETATM   35  C29 UNL     1     -12.017  18.137 -16.064  1.00  0.00     0.146 C 
HETATM   36  C22 UNL     1      -9.800  17.368 -17.685  1.00  0.00     0.145 C 
HETATM   37  N5  UNL     1      -9.906  16.876 -16.318  1.00  0.00    -0.349 N 
HETATM   38  C28 UNL     1     -10.878  17.391 -15.388  1.00  0.00     0.145 C 
BRANCH  37  39
HETATM   39  C23 UNL     1      -9.031  15.848 -15.898  1.00  0.00     0.212 C 
HETATM   40  S2  UNL     1      -8.933  15.497 -14.306  1.00  0.00    -0.033 SA
BRANCH  39  41
HETATM   41  O5  UNL     1      -8.237  15.113 -16.799  1.00  0.00    -0.327 OA
BRANCH  41  42
HETATM   42  C24 UNL     1      -6.899  14.786 -16.411  1.00  0.00     0.182 C 
BRANCH  42  43
HETATM   43  C25 UNL     1      -5.987  15.941 -16.670  1.00  0.00     0.002 C 
HETATM   44  C26 UNL     1      -5.383  15.957 -18.044  1.00  0.00     0.011 C 
HETATM   45  C27 UNL     1      -4.835  15.906 -15.646  1.00  0.00     0.011 C 
ENDBRANCH  42  43
ENDBRANCH  41  42
ENDBRANCH  39  41
ENDBRANCH  37  39
ENDBRANCH  29  31
ENDBRANCH  26  29
ENDBRANCH   1  26
TORSDOF 16
ENDMDL
MODEL 5
REMARK VINA RESULT: -8.173218352      3.043      5.645
REMARK  16 active torsions:
REMARK  status: ('A' for Active; 'I' for Inactive)
REMARK    1  A    between atoms: C2_2  and  C3_3 
REMARK    2  A    between atoms: C3_3  and  N1_4 
REMARK    3  A    between atoms: C3_3  and  C19_29 
REMARK       I    between atoms: N1_4  and  C4_6 
REMARK    4  A    between atoms: C4_6  and  C5_8 
REMARK    5  A    between atoms: N2_9  and  C6_10 
REMARK    6  A    between atoms: C6_10  and  C7_11 
REMARK    7  A    between atoms: C6_10  and  C11_15 
REMARK    8  A    between atoms: C7_11  and  C9_13 
REMARK    9  A    between atoms: C11_15  and  N3_16 
REMARK   10  A    between atoms: C11_15  and  C12_20 
REMARK   11  A    between atoms: C12_20  and  C13_21 
REMARK   12  A    between atoms: C19_29  and  C20_31 
REMARK       I    between atoms: C20_31  and  N4_33 
REMARK   13  A    between atoms: N5_36  and  C23_37 
REMARK   14  A    between atoms: C23_37  and  O5_39 
REMARK   15  A    between atoms: O5_39  and  C24_40 
REMARK   16  A    between atoms: C24_40  and  C25_41 
ROOT
HETATM    1  N1  UNL     1      -9.103  18.807 -18.392  1.00  0.00    -0.347 N 
ATOM      2  H1  UNL     1      -8.755  19.762 -18.480  1.00  0.00     0.163 HD
HETATM    3  C4  UNL     1      -8.164  17.759 -18.311  1.00  0.00     0.242 C 
HETATM    4  O1  UNL     1      -8.494  16.556 -18.222  1.00  0.00    -0.271 OA
ENDROOT
BRANCH   3   5
HETATM    5  C5  UNL     1      -6.677  18.040 -18.324  1.00  0.00     0.191 C 
HETATM    6  N2  UNL     1      -6.041  16.799 -18.280  1.00  0.00    -0.384 N 
HETATM    7  C15 UNL     1      -6.217  16.053 -19.471  1.00  0.00     0.193 C 
HETATM    8  S1  UNL     1      -7.157  17.215 -20.598  1.00  0.00    -0.138 SA
HETATM    9  C16 UNL     1      -6.439  18.662 -19.701  1.00  0.00     0.031 C 
HETATM   10  C17 UNL     1      -7.114  19.930 -19.968  1.00  0.00     0.029 C 
HETATM   11  C18 UNL     1      -4.990  18.740 -20.044  1.00  0.00     0.029 C 
BRANCH   6  12
HETATM   12  C6  UNL     1      -4.872  16.581 -17.479  1.00  0.00     0.115 C 
BRANCH  12  13
HETATM   13  C7  UNL     1      -3.700  16.053 -18.258  1.00  0.00     0.006 C 
HETATM   14  C8  UNL     1      -3.394  14.592 -17.975  1.00  0.00     0.012 C 
BRANCH  13  15
HETATM   15  C9  UNL     1      -2.478  16.888 -18.366  1.00  0.00     0.002 C 
HETATM   16  C10 UNL     1      -2.576  18.071 -17.401  1.00  0.00     0.005 C 
ENDBRANCH  13  15
ENDBRANCH  12  13
BRANCH  12  17
HETATM   17  C11 UNL     1      -5.160  15.720 -16.265  1.00  0.00     0.213 C 
BRANCH  17  18
HETATM   18  N3  UNL     1      -4.030  15.776 -15.314  1.00  0.00    -0.073 N 
ATOM     19  H33 UNL     1      -3.197  15.320 -15.687  1.00  0.00     0.274 HD
ATOM     20  H32 UNL     1      -3.658  16.721 -15.222  1.00  0.00     0.274 HD
ATOM     21  H31 UNL     1      -4.304  15.386 -14.413  1.00  0.00     0.274 HD
ENDBRANCH  17  18
BRANCH  17  22
HETATM   22  C12 UNL     1      -6.322  16.100 -15.410  1.00  0.00     0.112 C 
BRANCH  22  23
HETATM   23  C13 UNL     1      -7.468  15.195 -15.385  1.00  0.00     0.125 C 
HETATM   24  C14 UNL     1      -8.589  15.495 -14.418  1.00  0.00     0.091 C 
HETATM   25  O2  UNL     1      -7.630  14.212 -16.064  1.00  0.00    -0.298 OA
ENDBRANCH  22  23
ENDBRANCH  17  22
ENDBRANCH  12  17
ENDBRANCH   6  12
ENDBRANCH   3   5
BRANCH   1  26
HETATM   26  C3  UNL     1     -10.542  18.598 -18.358  1.00  0.00     0.164 C 
BRANCH  26  27
HETATM   27  C2  UNL     1     -11.142  18.901 -17.044  1.00  0.00     0.029 C 
HETATM   28  C1  UNL     1     -11.397  17.587 -16.315  1.00  0.00     0.007 C 
ENDBRANCH  26  27
BRANCH  26  29
HETATM   29  C19 UNL     1     -11.185  19.414 -19.441  1.00  0.00     0.239 C 
HETATM   30  O3  UNL     1     -11.393  18.887 -20.589  1.00  0.00    -0.285 OA
BRANCH  29  31
HETATM   31  C20 UNL     1     -11.606  20.788 -19.288  1.00  0.00     0.291 C 
HETATM   32  O4  UNL     1     -10.667  21.659 -19.427  1.00  0.00    -0.264 OA
HETATM   33  N4  UNL     1     -12.897  21.249 -19.010  1.00  0.00    -0.342 N 
HETATM   34  C21 UNL     1     -13.106  22.702 -18.919  1.00  0.00     0.146 C 
HETATM   35  C29 UNL     1     -13.991  20.343 -18.801  1.00  0.00     0.146 C 
HETATM   36  C22 UNL     1     -13.843  22.930 -17.610  1.00  0.00     0.145 C 
HETATM   37  N5  UNL     1     -15.133  22.269 -17.754  1.00  0.00    -0.349 N 
HETATM   38  C28 UNL     1     -15.300  21.068 -18.531  1.00  0.00     0.145 C 
BRANCH  37  39
HETATM   39  C23 UNL     1     -16.255  22.823 -17.097  1.00  0.00     0.212 C 
HETATM   40  S2  UNL     1     -17.419  23.539 -17.991  1.00  0.00    -0.033 SA
BRANCH  39  41
HETATM   41  O5  UNL     1     -16.412  22.783 -15.698  1.00  0.00    -0.327 OA
BRANCH  41  42
HETATM   42  C24 UNL     1     -17.083  21.657 -15.124  1.00  0.00     0.182 C 
BRANCH  42  43
HETATM   43  C25 UNL     1     -16.136  20.858 -14.289  1.00  0.00     0.002 C 
HETATM   44  C26 UNL     1     -14.960  21.634 -13.772  1.00  0.00     0.011 C 
HETATM   45  C27 UNL     1     -15.595  19.686 -15.132  1.00  0.00     0.011 C 
ENDBRANCH  42  43
ENDBRANCH  41  42
ENDBRANCH  39  41
ENDBRANCH  37  39
ENDBRANCH  29  31
ENDBRANCH  26  29
ENDBRANCH   1  26
TORSDOF 16
ENDMDL
