MODEL 1
REMARK VINA RESULT: -8.367965163      0.000      0.000
REMARK  16 active torsions:
REMARK  status: ('A' for Active; 'I' for Inactive)
REMARK    1  A    between atoms: C2_2  and  C3_3 
REMARK    2  A    between atoms: C3_3  and  C4_4 
REMARK    3  A    between atoms: C4_4  and  C5_5 
REMARK    4  A    between atoms: C4_4  and  C25_36 
REMARK    5  A    between atoms: C5_5  and  N1_6 
REMARK    6  A    between atoms: N2_10  and  C8_11 
REMARK    7  A    between atoms: N4_19  and  C14_20 
REMARK    8  A    between atoms: C17_24  and  C18_25 
REMARK    9  A    between atoms: C17_24  and  C20_27 
REMARK   10  A    between atoms: C20_27  and  O2_28 
REMARK   11  A    between atoms: C20_27  and  N6_30 
REMARK   12  A    between atoms: N6_30  and  C22_32 
REMARK   13  A    between atoms: C22_32  and  C23_33 
REMARK   14  A    between atoms: C23_33  and  O3_34 
REMARK       I    between atoms: C25_36  and  N7_38 
REMARK   15  A    between atoms: N7_38  and  C26_40 
REMARK   16  A    between atoms: C27_43  and  C28_44 
ROOT
HETATM    1  N1  UNL     1     -11.371 -19.115  18.394  1.00  0.00    -0.350 N 
HETATM    2  C6  UNL     1     -12.644 -18.599  18.059  1.00  0.00     0.229 C 
HETATM    3  C7  UNL     1     -13.766 -19.520  18.432  1.00  0.00     0.258 C 
HETATM    4  O1  UNL     1     -14.915 -19.054  18.425  1.00  0.00    -0.270 OA
HETATM    5  N2  UNL     1     -13.464 -20.841  18.763  1.00  0.00    -0.223 N 
HETATM    6  N5  UNL     1     -12.173 -21.206  18.980  1.00  0.00    -0.090 NA
HETATM    7  C17 UNL     1     -11.173 -20.475  18.094  1.00  0.00     0.189 C 
ENDROOT
BRANCH   1   8
HETATM    8  C5  UNL     1     -10.348 -18.185  18.312  1.00  0.00     0.101 C 
BRANCH   8   9
HETATM    9  C4  UNL     1      -9.198 -18.127  19.257  1.00  0.00     0.026 C 
BRANCH   9  10
HETATM   10  C3  UNL     1      -9.492 -18.301  20.700  1.00  0.00     0.045 C 
BRANCH  10  11
HETATM   11  C2  UNL     1      -8.335 -18.500  21.617  1.00  0.00     0.000 C 
HETATM   12  C1  UNL     1      -7.664 -19.831  21.493  1.00  0.00     0.005 C 
ENDBRANCH  10  11
ENDBRANCH   9  10
BRANCH   9  13
HETATM   13  C25 UNL     1      -8.057 -17.295  18.891  1.00  0.00     0.267 C 
HETATM   14  O4  UNL     1      -8.224 -16.029  18.797  1.00  0.00    -0.267 OA
HETATM   15  N7  UNL     1      -6.772 -17.770  18.629  1.00  0.00    -0.154 N 
ATOM     16  H7  UNL     1      -6.442 -18.538  19.214  1.00  0.00     0.187 HD
BRANCH  15  17
HETATM   17  C26 UNL     1      -5.955 -17.340  17.725  1.00  0.00     0.707 A 
HETATM   18  N8  UNL     1      -4.670 -16.986  17.822  1.00  0.00    -0.169 N 
HETATM   19  C27 UNL     1      -4.260 -16.588  16.598  1.00  0.00     0.170 A 
ATOM     20  H8  UNL     1      -4.101 -17.013  18.668  1.00  0.00     0.186 HD
HETATM   21  O5  UNL     1      -5.293 -16.713  15.812  1.00  0.00    -0.208 OA
HETATM   22  N9  UNL     1      -6.319 -17.159  16.452  1.00  0.00    -0.089 N 
ATOM     23  H9  UNL     1      -7.243 -17.341  16.058  1.00  0.00     0.213 HD
BRANCH  19  24
HETATM   24  C28 UNL     1      -2.927 -16.100  16.181  1.00  0.00     0.017 C 
HETATM   25  C29 UNL     1      -2.093 -17.222  15.634  1.00  0.00     0.023 C 
HETATM   26  C30 UNL     1      -3.043 -15.021  15.114  1.00  0.00     0.023 C 
HETATM   27  C31 UNL     1      -2.157 -15.490  17.337  1.00  0.00     0.023 C 
ENDBRANCH  19  24
ENDBRANCH  15  17
ENDBRANCH   9  13
ENDBRANCH   8   9
ENDBRANCH   1   8
BRANCH   7  28
HETATM   28  C18 UNL     1      -9.898 -21.086  18.650  1.00  0.00     0.056 C 
HETATM   29  C19 UNL     1     -10.207 -21.744  19.973  1.00  0.00     0.009 C 
ENDBRANCH   7  28
BRANCH   7  30
HETATM   30  C20 UNL     1     -11.384 -21.003  16.748  1.00  0.00     0.161 C 
BRANCH  30  31
HETATM   31  O2  UNL     1     -10.891 -22.224  16.526  1.00  0.00    -0.346 OA
ATOM     32  H2  UNL     1      -9.949 -22.269  16.407  1.00  0.00     0.219 HD
ENDBRANCH  30  31
BRANCH  30  33
HETATM   33  N6  UNL     1     -11.988 -20.498  15.607  1.00  0.00    -0.364 N 
HETATM   34  C21 UNL     1     -11.356 -19.292  14.940  1.00  0.00     0.151 C 
BRANCH  33  35
HETATM   35  C22 UNL     1     -13.131 -20.981  14.906  1.00  0.00     0.150 C 
BRANCH  35  36
HETATM   36  C23 UNL     1     -14.266 -19.986  14.804  1.00  0.00     0.186 C 
BRANCH  36  37
HETATM   37  O3  UNL     1     -15.025 -20.374  13.689  1.00  0.00    -0.394 OA
HETATM   38  C24 UNL     1     -14.142 -20.787  12.699  1.00  0.00     0.201 C 
ENDBRANCH  36  37
ENDBRANCH  35  36
ENDBRANCH  33  35
ENDBRANCH  30  33
ENDBRANCH   7  30
BRANCH   5  39
HETATM   39  C8  UNL     1     -14.490 -21.814  18.897  1.00  0.00     0.072 A 
HETATM   40  C9  UNL     1     -14.562 -22.541  20.098  1.00  0.00     0.048 A 
HETATM   41  C10 UNL     1     -15.520 -23.505  20.284  1.00  0.00     0.010 A 
HETATM   42  C11 UNL     1     -15.855 -24.377  21.312  1.00  0.00     0.101 A 
HETATM   43  C13 UNL     1     -16.486 -23.792  19.234  1.00  0.00     0.061 A 
HETATM   44  N3  UNL     1     -16.922 -25.130  20.940  1.00  0.00    -0.372 N 
HETATM   45  C12 UNL     1     -17.314 -24.796  19.700  1.00  0.00     0.118 A 
ATOM     46  H3  UNL     1     -17.362 -25.846  21.518  1.00  0.00     0.164 HD
HETATM   47  N4  UNL     1     -16.387 -23.074  18.097  1.00  0.00    -0.353 N 
HETATM   48  C16 UNL     1     -15.425 -22.134  17.960  1.00  0.00     0.122 A 
BRANCH  47  49
HETATM   49  C14 UNL     1     -17.343 -23.363  17.056  1.00  0.00     0.124 C 
HETATM   50  C15 UNL     1     -16.986 -22.687  15.737  1.00  0.00     0.027 C 
ENDBRANCH  47  49
ENDBRANCH   5  39
TORSDOF 16
ENDMDL
MODEL 2
REMARK VINA RESULT: -8.229310828      1.455      2.869
REMARK  16 active torsions:
REMARK  status: ('A' for Active; 'I' for Inactive)
REMARK    1  A    between atoms: C2_2  and  C3_3 
REMARK    2  A    between atoms: C3_3  and  C4_4 
REMARK    3  A    between atoms: C4_4  and  C5_5 
REMARK    4  A    between atoms: C4_4  and  C25_36 
REMARK    5  A    between atoms: C5_5  and  N1_6 
REMARK    6  A    between atoms: N2_10  and  C8_11 
REMARK    7  A    between atoms: N4_19  and  C14_20 
REMARK    8  A    between atoms: C17_24  and  C18_25 
REMARK    9  A    between atoms: C17_24  and  C20_27 
REMARK   10  A    between atoms: C20_27  and  O2_28 
REMARK   11  A    between atoms: C20_27  and  N6_30 
REMARK   12  A    between atoms: N6_30  and  C22_32 
REMARK   13  A    between atoms: C22_32  and  C23_33 
REMARK   14  A    between atoms: C23_33  and  O3_34 
REMARK       I    between atoms: C25_36  and  N7_38 
REMARK   15  A    between atoms: N7_38  and  C26_40 
REMARK   16  A    between atoms: C27_43  and  C28_44 
ROOT
HETATM    1  N1  UNL     1     -11.564 -19.214  18.692  1.00  0.00    -0.350 N 
HETATM    2  C6  UNL     1     -12.771 -18.566  18.341  1.00  0.00     0.229 C 
HETATM    3  C7  UNL     1     -13.947 -19.495  18.312  1.00  0.00     0.258 C 
HETATM    4  O1  UNL     1     -15.077 -18.986  18.276  1.00  0.00    -0.270 OA
HETATM    5  N2  UNL     1     -13.713 -20.870  18.323  1.00  0.00    -0.223 N 
HETATM    6  N5  UNL     1     -12.470 -21.343  18.604  1.00  0.00    -0.090 NA
HETATM    7  C17 UNL     1     -11.346 -20.460  18.077  1.00  0.00     0.189 C 
ENDROOT
BRANCH   1   8
HETATM    8  C5  UNL     1     -10.527 -18.347  18.990  1.00  0.00     0.101 C 
BRANCH   8   9
HETATM    9  C4  UNL     1      -9.590 -18.530  20.133  1.00  0.00     0.026 C 
BRANCH   9  10
HETATM   10  C3  UNL     1     -10.174 -18.936  21.435  1.00  0.00     0.045 C 
BRANCH  10  11
HETATM   11  C2  UNL     1      -9.282 -19.639  22.398  1.00  0.00     0.000 C 
HETATM   12  C1  UNL     1      -8.387 -20.667  21.780  1.00  0.00     0.005 C 
ENDBRANCH  10  11
ENDBRANCH   9  10
BRANCH   9  13
HETATM   13  C25 UNL     1      -8.376 -17.722  20.156  1.00  0.00     0.267 C 
HETATM   14  O4  UNL     1      -8.376 -16.628  20.822  1.00  0.00    -0.267 OA
HETATM   15  N7  UNL     1      -7.188 -18.044  19.499  1.00  0.00    -0.154 N 
ATOM     16  H7  UNL     1      -6.924 -19.030  19.491  1.00  0.00     0.187 HD
BRANCH  15  17
HETATM   17  C26 UNL     1      -6.386 -17.227  18.899  1.00  0.00     0.707 A 
HETATM   18  N8  UNL     1      -6.220 -16.984  17.596  1.00  0.00    -0.169 N 
HETATM   19  C27 UNL     1      -5.246 -16.055  17.473  1.00  0.00     0.170 A 
ATOM     20  H8  UNL     1      -6.735 -17.420  16.832  1.00  0.00     0.186 HD
HETATM   21  O5  UNL     1      -4.862 -15.770  18.686  1.00  0.00    -0.208 OA
HETATM   22  N9  UNL     1      -5.521 -16.451  19.560  1.00  0.00    -0.089 N 
ATOM     23  H9  UNL     1      -5.405 -16.406  20.572  1.00  0.00     0.213 HD
BRANCH  19  24
HETATM   24  C28 UNL     1      -4.691 -15.453  16.241  1.00  0.00     0.017 C 
HETATM   25  C29 UNL     1      -5.766 -15.254  15.211  1.00  0.00     0.023 C 
HETATM   26  C30 UNL     1      -4.043 -14.107  16.528  1.00  0.00     0.023 C 
HETATM   27  C31 UNL     1      -3.622 -16.326  15.612  1.00  0.00     0.023 C 
ENDBRANCH  19  24
ENDBRANCH  15  17
ENDBRANCH   9  13
ENDBRANCH   8   9
ENDBRANCH   1   8
BRANCH   7  28
HETATM   28  C18 UNL     1     -10.170 -21.257  18.616  1.00  0.00     0.056 C 
HETATM   29  C19 UNL     1     -10.634 -22.077  19.795  1.00  0.00     0.009 C 
ENDBRANCH   7  28
BRANCH   7  30
HETATM   30  C20 UNL     1     -11.376 -20.615  16.624  1.00  0.00     0.161 C 
BRANCH  30  31
HETATM   31  O2  UNL     1     -11.338 -21.873  16.180  1.00  0.00    -0.346 OA
ATOM     32  H2  UNL     1     -11.809 -22.035  15.370  1.00  0.00     0.219 HD
ENDBRANCH  30  31
BRANCH  30  33
HETATM   33  N6  UNL     1     -11.421 -19.718  15.569  1.00  0.00    -0.364 N 
HETATM   34  C21 UNL     1     -12.563 -19.840  14.579  1.00  0.00     0.151 C 
BRANCH  33  35
HETATM   35  C22 UNL     1     -10.553 -18.625  15.279  1.00  0.00     0.150 C 
BRANCH  35  36
HETATM   36  C23 UNL     1      -9.103 -18.870  15.635  1.00  0.00     0.186 C 
BRANCH  36  37
HETATM   37  O3  UNL     1      -8.543 -17.606  15.879  1.00  0.00    -0.394 OA
HETATM   38  C24 UNL     1      -9.545 -16.659  15.707  1.00  0.00     0.201 C 
ENDBRANCH  36  37
ENDBRANCH  35  36
ENDBRANCH  33  35
ENDBRANCH  30  33
ENDBRANCH   7  30
BRANCH   5  39
HETATM   39  C8  UNL     1     -14.762 -21.793  18.065  1.00  0.00     0.072 A 
HETATM   40  C9  UNL     1     -15.211 -21.932  16.741  1.00  0.00     0.048 A 
HETATM   41  C10 UNL     1     -16.231 -22.793  16.427  1.00  0.00     0.010 A 
HETATM   42  C11 UNL     1     -16.894 -23.155  15.261  1.00  0.00     0.101 A 
HETATM   43  C13 UNL     1     -16.869 -23.585  17.469  1.00  0.00     0.061 A 
HETATM   44  N3  UNL     1     -17.847 -24.079  15.548  1.00  0.00    -0.372 N 
HETATM   45  C12 UNL     1     -17.849 -24.350  16.863  1.00  0.00     0.118 A 
ATOM     46  H3  UNL     1     -18.472 -24.506  14.864  1.00  0.00     0.164 HD
HETATM   47  N4  UNL     1     -16.411 -23.426  18.727  1.00  0.00    -0.353 N 
HETATM   48  C16 UNL     1     -15.403 -22.563  18.986  1.00  0.00     0.122 A 
BRANCH  47  49
HETATM   49  C14 UNL     1     -17.048 -24.208  19.759  1.00  0.00     0.124 C 
HETATM   50  C15 UNL     1     -16.156 -24.388  20.983  1.00  0.00     0.027 C 
ENDBRANCH  47  49
ENDBRANCH   5  39
TORSDOF 16
ENDMDL
MODEL 3
REMARK VINA RESULT: -8.187423377      1.855      4.282
REMARK  16 active torsions:
REMARK  status: ('A' for Active; 'I' for Inactive)
REMARK    1  A    between atoms: C2_2  and  C3_3 
REMARK    2  A    between atoms: C3_3  and  C4_4 
REMARK    3  A    between atoms: C4_4  and  C5_5 
REMARK    4  A    between atoms: C4_4  and  C25_36 
REMARK    5  A    between atoms: C5_5  and  N1_6 
REMARK    6  A    between atoms: N2_10  and  C8_11 
REMARK    7  A    between atoms: N4_19  and  C14_20 
REMARK    8  A    between atoms: C17_24  and  C18_25 
REMARK    9  A    between atoms: C17_24  and  C20_27 
REMARK   10  A    between atoms: C20_27  and  O2_28 
REMARK   11  A    between atoms: C20_27  and  N6_30 
REMARK   12  A    between atoms: N6_30  and  C22_32 
REMARK   13  A    between atoms: C22_32  and  C23_33 
REMARK   14  A    between atoms: C23_33  and  O3_34 
REMARK       I    between atoms: C25_36  and  N7_38 
REMARK   15  A    between atoms: N7_38  and  C26_40 
REMARK   16  A    between atoms: C27_43  and  C28_44 
ROOT
HETATM    1  N1  UNL     1     -10.404 -19.689  17.010  1.00  0.00    -0.350 N 
HETATM    2  C6  UNL     1     -10.233 -21.086  16.875  1.00  0.00     0.229 C 
HETATM    3  C7  UNL     1     -11.493 -21.857  17.124  1.00  0.00     0.258 C 
HETATM    4  O1  UNL     1     -11.514 -23.047  16.776  1.00  0.00    -0.270 OA
HETATM    5  N2  UNL     1     -12.567 -21.205  17.730  1.00  0.00    -0.223 N 
HETATM    6  N5  UNL     1     -12.551 -19.852  17.861  1.00  0.00    -0.090 NA
HETATM    7  C17 UNL     1     -11.164 -19.278  18.121  1.00  0.00     0.189 C 
ENDROOT
BRANCH   1   8
HETATM    8  C5  UNL     1      -9.343 -18.942  16.527  1.00  0.00     0.101 C 
BRANCH   8   9
HETATM    9  C4  UNL     1      -9.308 -17.453  16.514  1.00  0.00     0.026 C 
BRANCH   9  10
HETATM   10  C3  UNL     1      -9.837 -16.770  15.309  1.00  0.00     0.045 C 
BRANCH  10  11
HETATM   11  C2  UNL     1      -8.912 -16.603  14.154  1.00  0.00     0.000 C 
HETATM   12  C1  UNL     1      -8.309 -15.240  14.031  1.00  0.00     0.005 C 
ENDBRANCH  10  11
ENDBRANCH   9  10
BRANCH   9  13
HETATM   13  C25 UNL     1      -8.245 -16.790  17.261  1.00  0.00     0.267 C 
HETATM   14  O4  UNL     1      -8.392 -15.558  17.578  1.00  0.00    -0.267 OA
HETATM   15  N7  UNL     1      -7.056 -17.395  17.668  1.00  0.00    -0.154 N 
ATOM     16  H7  UNL     1      -7.121 -18.363  17.984  1.00  0.00     0.187 HD
BRANCH  15  17
HETATM   17  C26 UNL     1      -5.879 -16.859  17.688  1.00  0.00     0.707 A 
HETATM   18  N8  UNL     1      -4.795 -17.133  16.956  1.00  0.00    -0.169 N 
HETATM   19  C27 UNL     1      -3.806 -16.308  17.364  1.00  0.00     0.170 A 
ATOM     20  H8  UNL     1      -4.727 -17.837  16.222  1.00  0.00     0.186 HD
HETATM   21  O5  UNL     1      -4.315 -15.572  18.313  1.00  0.00    -0.208 OA
HETATM   22  N9  UNL     1      -5.550 -15.875  18.530  1.00  0.00    -0.089 N 
ATOM     23  H9  UNL     1      -6.164 -15.442  19.220  1.00  0.00     0.213 HD
BRANCH  19  24
HETATM   24  C28 UNL     1      -2.414 -16.218  16.872  1.00  0.00     0.017 C 
HETATM   25  C29 UNL     1      -1.768 -14.941  17.326  1.00  0.00     0.023 C 
HETATM   26  C30 UNL     1      -1.575 -17.386  17.369  1.00  0.00     0.023 C 
HETATM   27  C31 UNL     1      -2.343 -16.244  15.357  1.00  0.00     0.023 C 
ENDBRANCH  19  24
ENDBRANCH  15  17
ENDBRANCH   9  13
ENDBRANCH   8   9
ENDBRANCH   1   8
BRANCH   7  28
HETATM   28  C18 UNL     1     -11.537 -17.805  18.147  1.00  0.00     0.056 C 
HETATM   29  C19 UNL     1     -12.816 -17.611  17.369  1.00  0.00     0.009 C 
ENDBRANCH   7  28
BRANCH   7  30
HETATM   30  C20 UNL     1     -10.820 -19.687  19.480  1.00  0.00     0.161 C 
BRANCH  30  31
HETATM   31  O2  UNL     1     -11.813 -19.615  20.370  1.00  0.00    -0.346 OA
ATOM     32  H2  UNL     1     -11.587 -19.216  21.203  1.00  0.00     0.219 HD
ENDBRANCH  30  31
BRANCH  30  33
HETATM   33  N6  UNL     1      -9.652 -20.135  20.077  1.00  0.00    -0.364 N 
HETATM   34  C21 UNL     1      -9.553 -21.605  20.436  1.00  0.00     0.151 C 
BRANCH  33  35
HETATM   35  C22 UNL     1      -8.462 -19.411  20.377  1.00  0.00     0.150 C 
BRANCH  35  36
HETATM   36  C23 UNL     1      -8.696 -17.991  20.843  1.00  0.00     0.186 C 
BRANCH  36  37
HETATM   37  O3  UNL     1      -7.465 -17.329  20.712  1.00  0.00    -0.394 OA
HETATM   38  C24 UNL     1      -6.484 -18.147  21.260  1.00  0.00     0.201 C 
ENDBRANCH  36  37
ENDBRANCH  35  36
ENDBRANCH  33  35
ENDBRANCH  30  33
ENDBRANCH   7  30
BRANCH   5  39
HETATM   39  C8  UNL     1     -13.693 -21.933  18.201  1.00  0.00     0.072 A 
HETATM   40  C9  UNL     1     -13.717 -22.318  19.552  1.00  0.00     0.048 A 
HETATM   41  C10 UNL     1     -14.767 -23.036  20.063  1.00  0.00     0.010 A 
HETATM   42  C11 UNL     1     -15.090 -23.559  21.309  1.00  0.00     0.101 A 
HETATM   43  C13 UNL     1     -15.884 -23.411  19.209  1.00  0.00     0.061 A 
HETATM   44  N3  UNL     1     -16.288 -24.196  21.237  1.00  0.00    -0.372 N 
HETATM   45  C12 UNL     1     -16.780 -24.119  19.990  1.00  0.00     0.118 A 
ATOM     46  H3  UNL     1     -16.748 -24.664  22.018  1.00  0.00     0.164 HD
HETATM   47  N4  UNL     1     -15.828 -23.023  17.920  1.00  0.00    -0.353 N 
HETATM   48  C16 UNL     1     -14.770 -22.317  17.461  1.00  0.00     0.122 A 
BRANCH  47  49
HETATM   49  C14 UNL     1     -16.935 -23.399  17.074  1.00  0.00     0.124 C 
HETATM   50  C15 UNL     1     -16.927 -22.655  15.743  1.00  0.00     0.027 C 
ENDBRANCH  47  49
ENDBRANCH   5  39
TORSDOF 16
ENDMDL
MODEL 4
REMARK VINA RESULT: -8.153013624      1.213      2.051
REMARK  16 active torsions:
REMARK  status: ('A' for Active; 'I' for Inactive)
REMARK    1  A    between atoms: C2_2  and  C3_3 
REMARK    2  A    between atoms: C3_3  and  C4_4 
REMARK    3  A    between atoms: C4_4  and  C5_5 
REMARK    4  A    between atoms: C4_4  and  C25_36 
REMARK    5  A    between atoms: C5_5  and  N1_6 
REMARK    6  A    between atoms: N2_10  and  C8_11 
REMARK    7  A    between atoms: N4_19  and  C14_20 
REMARK    8  A    between atoms: C17_24  and  C18_25 
REMARK    9  A    between atoms: C17_24  and  C20_27 
REMARK   10  A    between atoms: C20_27  and  O2_28 
REMARK   11  A    between atoms: C20_27  and  N6_30 
REMARK   12  A    between atoms: N6_30  and  C22_32 
REMARK   13  A    between atoms: C22_32  and  C23_33 
REMARK   14  A    between atoms: C23_33  and  O3_34 
REMARK       I    between atoms: C25_36  and  N7_38 
REMARK   15  A    between atoms: N7_38  and  C26_40 
REMARK   16  A    between atoms: C27_43  and  C28_44 
ROOT
HETATM    1  N1  UNL     1     -11.304 -19.052  18.715  1.00  0.00    -0.350 N 
HETATM    2  C6  UNL     1     -12.535 -18.461  18.346  1.00  0.00     0.229 C 
HETATM    3  C7  UNL     1     -13.691 -19.409  18.446  1.00  0.00     0.258 C 
HETATM    4  O1  UNL     1     -14.833 -18.926  18.402  1.00  0.00    -0.270 OA
HETATM    5  N2  UNL     1     -13.428 -20.772  18.580  1.00  0.00    -0.223 N 
HETATM    6  N5  UNL     1     -12.168 -21.194  18.861  1.00  0.00    -0.090 NA
HETATM    7  C17 UNL     1     -11.080 -20.346  18.214  1.00  0.00     0.189 C 
ENDROOT
BRANCH   1   8
HETATM    8  C5  UNL     1     -10.275 -18.142  18.893  1.00  0.00     0.101 C 
BRANCH   8   9
HETATM    9  C4  UNL     1      -9.245 -18.247  19.964  1.00  0.00     0.026 C 
BRANCH   9  10
HETATM   10  C3  UNL     1      -9.725 -18.407  21.358  1.00  0.00     0.045 C 
BRANCH  10  11
HETATM   11  C2  UNL     1      -9.249 -19.598  22.115  1.00  0.00     0.000 C 
HETATM   12  C1  UNL     1      -7.889 -20.082  21.721  1.00  0.00     0.005 C 
ENDBRANCH  10  11
ENDBRANCH   9  10
BRANCH   9  13
HETATM   13  C25 UNL     1      -7.974 -17.562  19.757  1.00  0.00     0.267 C 
HETATM   14  O4  UNL     1      -7.655 -16.604  20.545  1.00  0.00    -0.267 OA
HETATM   15  N7  UNL     1      -7.056 -17.866  18.752  1.00  0.00    -0.154 N 
ATOM     16  H7  UNL     1      -6.934 -18.855  18.529  1.00  0.00     0.187 HD
BRANCH  15  17
HETATM   17  C26 UNL     1      -6.343 -17.029  18.072  1.00  0.00     0.707 A 
HETATM   18  N8  UNL     1      -5.060 -17.091  17.703  1.00  0.00    -0.169 N 
HETATM   19  C27 UNL     1      -4.774 -15.961  17.020  1.00  0.00     0.170 A 
ATOM     20  H8  UNL     1      -4.413 -17.854  17.901  1.00  0.00     0.186 HD
HETATM   21  O5  UNL     1      -5.876 -15.263  16.997  1.00  0.00    -0.208 OA
HETATM   22  N9  UNL     1      -6.830 -15.872  17.615  1.00  0.00    -0.089 N 
ATOM     23  H9  UNL     1      -7.785 -15.532  17.733  1.00  0.00     0.213 HD
BRANCH  19  24
HETATM   24  C28 UNL     1      -3.493 -15.548  16.406  1.00  0.00     0.017 C 
HETATM   25  C29 UNL     1      -3.717 -14.504  15.351  1.00  0.00     0.023 C 
HETATM   26  C30 UNL     1      -2.538 -14.984  17.448  1.00  0.00     0.023 C 
HETATM   27  C31 UNL     1      -2.779 -16.711  15.744  1.00  0.00     0.023 C 
ENDBRANCH  19  24
ENDBRANCH  15  17
ENDBRANCH   9  13
ENDBRANCH   8   9
ENDBRANCH   1   8
BRANCH   7  28
HETATM   28  C18 UNL     1      -9.870 -21.067  18.785  1.00  0.00     0.056 C 
HETATM   29  C19 UNL     1     -10.319 -21.949  19.924  1.00  0.00     0.009 C 
ENDBRANCH   7  28
BRANCH   7  30
HETATM   30  C20 UNL     1     -11.154 -20.640  16.784  1.00  0.00     0.161 C 
BRANCH  30  31
HETATM   31  O2  UNL     1     -10.994 -21.923  16.452  1.00  0.00    -0.346 OA
ATOM     32  H2  UNL     1     -11.632 -22.269  15.839  1.00  0.00     0.219 HD
ENDBRANCH  30  31
BRANCH  30  33
HETATM   33  N6  UNL     1     -11.346 -19.856  15.657  1.00  0.00    -0.364 N 
HETATM   34  C21 UNL     1     -12.586 -20.104  14.820  1.00  0.00     0.151 C 
BRANCH  33  35
HETATM   35  C22 UNL     1     -10.553 -18.780  15.165  1.00  0.00     0.150 C 
BRANCH  35  36
HETATM   36  C23 UNL     1      -9.094 -18.850  15.559  1.00  0.00     0.186 C 
BRANCH  36  37
HETATM   37  O3  UNL     1      -8.720 -17.541  15.904  1.00  0.00    -0.394 OA
HETATM   38  C24 UNL     1      -9.458 -16.668  15.115  1.00  0.00     0.201 C 
ENDBRANCH  36  37
ENDBRANCH  35  36
ENDBRANCH  33  35
ENDBRANCH  30  33
ENDBRANCH   7  30
BRANCH   5  39
HETATM   39  C8  UNL     1     -14.467 -21.734  18.447  1.00  0.00     0.072 A 
HETATM   40  C9  UNL     1     -14.751 -22.559  19.548  1.00  0.00     0.048 A 
HETATM   41  C10 UNL     1     -15.730 -23.516  19.478  1.00  0.00     0.010 A 
HETATM   42  C11 UNL     1     -16.244 -24.467  20.352  1.00  0.00     0.101 A 
HETATM   43  C13 UNL     1     -16.497 -23.694  18.254  1.00  0.00     0.061 A 
HETATM   44  N3  UNL     1     -17.232 -25.165  19.733  1.00  0.00    -0.372 N 
HETATM   45  C12 UNL     1     -17.399 -24.718  18.479  1.00  0.00     0.118 A 
ATOM     46  H3  UNL     1     -17.770 -25.919  20.161  1.00  0.00     0.164 HD
HETATM   47  N4  UNL     1     -16.197 -22.884  17.220  1.00  0.00    -0.353 N 
HETATM   48  C16 UNL     1     -15.223 -21.954  17.337  1.00  0.00     0.122 A 
BRANCH  47  49
HETATM   49  C14 UNL     1     -16.957 -23.064  16.006  1.00  0.00     0.124 C 
HETATM   50  C15 UNL     1     -16.767 -21.911  15.027  1.00  0.00     0.027 C 
ENDBRANCH  47  49
ENDBRANCH   5  39
TORSDOF 16
ENDMDL
MODEL 5
REMARK VINA RESULT: -8.110064085      3.177     11.153
REMARK  16 active torsions:
REMARK  status: ('A' for Active; 'I' for Inactive)
REMARK    1  A    between atoms: C2_2  and  C3_3 
REMARK    2  A    between atoms: C3_3  and  C4_4 
REMARK    3  A    between atoms: C4_4  and  C5_5 
REMARK    4  A    between atoms: C4_4  and  C25_36 
REMARK    5  A    between atoms: C5_5  and  N1_6 
REMARK    6  A    between atoms: N2_10  and  C8_11 
REMARK    7  A    between atoms: N4_19  and  C14_20 
REMARK    8  A    between atoms: C17_24  and  C18_25 
REMARK    9  A    between atoms: C17_24  and  C20_27 
REMARK   10  A    between atoms: C20_27  and  O2_28 
REMARK   11  A    between atoms: C20_27  and  N6_30 
REMARK   12  A    between atoms: N6_30  and  C22_32 
REMARK   13  A    between atoms: C22_32  and  C23_33 
REMARK   14  A    between atoms: C23_33  and  O3_34 
REMARK       I    between atoms: C25_36  and  N7_38 
REMARK   15  A    between atoms: N7_38  and  C26_40 
REMARK   16  A    between atoms: C27_43  and  C28_44 
ROOT
HETATM    1  N1  UNL     1     -14.169 -22.526  17.501  1.00  0.00    -0.350 N 
HETATM    2  C6  UNL     1     -13.108 -22.587  16.569  1.00  0.00     0.229 C 
HETATM    3  C7  UNL     1     -11.815 -22.068  17.119  1.00  0.00     0.258 C 
HETATM    4  O1  UNL     1     -10.780 -22.320  16.483  1.00  0.00    -0.270 OA
HETATM    5  N2  UNL     1     -11.840 -21.334  18.305  1.00  0.00    -0.223 N 
HETATM    6  N5  UNL     1     -12.968 -21.307  19.061  1.00  0.00    -0.090 NA
HETATM    7  C17 UNL     1     -14.254 -21.334  18.243  1.00  0.00     0.189 C 
ENDROOT
BRANCH   1   8
HETATM    8  C5  UNL     1     -15.294 -23.238  17.121  1.00  0.00     0.101 C 
BRANCH   8   9
HETATM    9  C4  UNL     1     -16.147 -24.014  18.063  1.00  0.00     0.026 C 
BRANCH   9  10
HETATM   10  C3  UNL     1     -15.463 -24.945  18.994  1.00  0.00     0.045 C 
BRANCH  10  11
HETATM   11  C2  UNL     1     -16.315 -25.722  19.936  1.00  0.00     0.000 C 
HETATM   12  C1  UNL     1     -16.771 -24.956  21.138  1.00  0.00     0.005 C 
ENDBRANCH  10  11
ENDBRANCH   9  10
BRANCH   9  13
HETATM   13  C25 UNL     1     -17.501 -24.352  17.637  1.00  0.00     0.267 C 
HETATM   14  O4  UNL     1     -18.490 -23.777  18.212  1.00  0.00    -0.267 OA
HETATM   15  N7  UNL     1     -17.818 -25.269  16.634  1.00  0.00    -0.154 N 
ATOM     16  H7  UNL     1     -17.205 -25.283  15.818  1.00  0.00     0.187 HD
BRANCH  15  17
HETATM   17  C26 UNL     1     -18.805 -26.104  16.629  1.00  0.00     0.707 A 
HETATM   18  N8  UNL     1     -18.900 -27.330  17.151  1.00  0.00    -0.169 N 
HETATM   19  C27 UNL     1     -20.132 -27.804  16.865  1.00  0.00     0.170 A 
ATOM     20  H8  UNL     1     -18.173 -27.820  17.672  1.00  0.00     0.186 HD
HETATM   21  O5  UNL     1     -20.734 -26.864  16.191  1.00  0.00    -0.208 OA
HETATM   22  N9  UNL     1     -19.971 -25.836  16.033  1.00  0.00    -0.089 N 
ATOM     23  H9  UNL     1     -20.213 -24.975  15.542  1.00  0.00     0.213 HD
BRANCH  19  24
HETATM   24  C28 UNL     1     -20.726 -29.112  17.217  1.00  0.00     0.017 C 
HETATM   25  C29 UNL     1     -21.309 -29.779  16.005  1.00  0.00     0.023 C 
HETATM   26  C30 UNL     1     -19.690 -30.043  17.828  1.00  0.00     0.023 C 
HETATM   27  C31 UNL     1     -21.842 -28.974  18.235  1.00  0.00     0.023 C 
ENDBRANCH  19  24
ENDBRANCH  15  17
ENDBRANCH   9  13
ENDBRANCH   8   9
ENDBRANCH   1   8
BRANCH   7  28
HETATM   28  C18 UNL     1     -15.246 -21.351  19.393  1.00  0.00     0.056 C 
HETATM   29  C19 UNL     1     -14.588 -21.978  20.598  1.00  0.00     0.009 C 
ENDBRANCH   7  28
BRANCH   7  30
HETATM   30  C20 UNL     1     -14.330 -20.028  17.592  1.00  0.00     0.161 C 
BRANCH  30  31
HETATM   31  O2  UNL     1     -14.489 -18.986  18.412  1.00  0.00    -0.346 OA
ATOM     32  H2  UNL     1     -14.739 -18.171  17.992  1.00  0.00     0.219 HD
ENDBRANCH  30  31
BRANCH  30  33
HETATM   33  N6  UNL     1     -14.287 -19.616  16.270  1.00  0.00    -0.364 N 
HETATM   34  C21 UNL     1     -12.995 -19.013  15.753  1.00  0.00     0.151 C 
BRANCH  33  35
HETATM   35  C22 UNL     1     -15.291 -19.714  15.264  1.00  0.00     0.150 C 
BRANCH  35  36
HETATM   36  C23 UNL     1     -14.880 -20.514  14.048  1.00  0.00     0.186 C 
BRANCH  36  37
HETATM   37  O3  UNL     1     -15.767 -21.600  13.977  1.00  0.00    -0.394 OA
HETATM   38  C24 UNL     1     -16.983 -21.188  14.506  1.00  0.00     0.201 C 
ENDBRANCH  36  37
ENDBRANCH  35  36
ENDBRANCH  33  35
ENDBRANCH  30  33
ENDBRANCH   7  30
BRANCH   5  39
HETATM   39  C8  UNL     1     -10.691 -20.625  18.750  1.00  0.00     0.072 A 
HETATM   40  C9  UNL     1     -10.004 -21.114  19.874  1.00  0.00     0.048 A 
HETATM   41  C10 UNL     1      -8.898 -20.467  20.362  1.00  0.00     0.010 A 
HETATM   42  C11 UNL     1      -8.020 -20.674  21.418  1.00  0.00     0.101 A 
HETATM   43  C13 UNL     1      -8.414 -19.254  19.719  1.00  0.00     0.061 A 
HETATM   44  N3  UNL     1      -7.083 -19.691  21.430  1.00  0.00    -0.372 N 
HETATM   45  C12 UNL     1      -7.301 -18.831  20.423  1.00  0.00     0.118 A 
ATOM     46  H3  UNL     1      -6.324 -19.616  22.107  1.00  0.00     0.164 HD
HETATM   47  N4  UNL     1      -9.098 -18.815  18.644  1.00  0.00    -0.353 N 
HETATM   48  C16 UNL     1     -10.183 -19.488  18.199  1.00  0.00     0.122 A 
BRANCH  47  49
HETATM   49  C14 UNL     1      -8.619 -17.611  18.010  1.00  0.00     0.124 C 
HETATM   50  C15 UNL     1      -9.502 -17.177  16.845  1.00  0.00     0.027 C 
ENDBRANCH  47  49
ENDBRANCH   5  39
TORSDOF 16
ENDMDL
