MODEL 1
REMARK VINA RESULT: -8.793237016      0.000      0.000
REMARK  10 active torsions:
REMARK  status: ('A' for Active; 'I' for Inactive)
REMARK    1  A    between atoms: C2_2  and  C3_3 
REMARK    2  A    between atoms: C3_3  and  C4_4 
REMARK    3  A    between atoms: C11_13  and  O3_14 
REMARK    4  A    between atoms: C13_17  and  C14_18 
REMARK    5  A    between atoms: C14_18  and  C15_19 
REMARK    6  A    between atoms: C15_19  and  C16_20 
REMARK    7  A    between atoms: C16_20  and  O4_21 
REMARK    8  A    between atoms: O4_21  and  C17_22 
REMARK    9  A    between atoms: C17_22  and  O6_24 
REMARK   10  A    between atoms: C22_30  and  O8_31 
ROOT
HETATM    1  C3  UNL     1       7.647  93.403  38.826  1.00  0.00     0.077 C 
HETATM    2  C6  UNL     1       8.600  93.664  37.747  1.00  0.00     0.273 C 
HETATM    3  O1  UNL     1       8.762  94.913  37.471  1.00  0.00    -0.264 OA
HETATM    4  O2  UNL     1       9.371  92.857  36.955  1.00  0.00    -0.305 OA
HETATM    5  C7  UNL     1      10.290  91.823  36.894  1.00  0.00     0.094 C 
HETATM    6  C8  UNL     1       9.776  90.817  35.857  1.00  0.00     0.052 C 
HETATM    7  C9  UNL     1      11.590  92.402  36.299  1.00  0.00     0.052 C 
HETATM    8  C10 UNL     1      10.651  91.198  38.174  1.00  0.00     0.022 A 
HETATM    9  C11 UNL     1      11.575  90.222  37.875  1.00  0.00     0.076 A 
HETATM   10  C12 UNL     1      12.158  89.411  38.847  1.00  0.00     0.044 A 
HETATM   11  C13 UNL     1      11.828  89.556  40.169  1.00  0.00    -0.054 A 
HETATM   12  C19 UNL     1      10.908  90.526  40.478  1.00  0.00     0.022 A 
HETATM   13  C20 UNL     1      10.324  91.335  39.526  1.00  0.00     0.011 A 
HETATM   14  C21 UNL     1       9.440  92.176  40.280  1.00  0.00     0.097 A 
HETATM   15  O7  UNL     1       9.678  92.196  41.591  1.00  0.00    -0.287 OA
HETATM   16  C22 UNL     1       8.861  92.961  42.227  1.00  0.00     0.184 A 
HETATM   17  C23 UNL     1       7.994  93.514  41.294  1.00  0.00     0.075 A 
HETATM   18  C24 UNL     1       8.375  93.006  40.072  1.00  0.00    -0.000 A 
ENDROOT
BRANCH  11  19
HETATM   19  C14 UNL     1      12.395  88.742  41.271  1.00  0.00     0.041 C 
BRANCH  19  20
HETATM   20  C15 UNL     1      13.621  87.977  40.815  1.00  0.00     0.031 C 
BRANCH  20  21
HETATM   21  C16 UNL     1      14.814  88.681  41.409  1.00  0.00     0.181 C 
BRANCH  21  22
HETATM   22  O4  UNL     1      15.766  87.851  41.978  1.00  0.00    -0.298 OA
BRANCH  22  23
HETATM   23  C17 UNL     1      16.014  87.799  43.324  1.00  0.00     0.406 C 
HETATM   24  O5  UNL     1      17.185  87.842  43.764  1.00  0.00    -0.230 OA
BRANCH  23  25
HETATM   25  O6  UNL     1      14.955  87.696  44.243  1.00  0.00    -0.303 OA
HETATM   26  C18 UNL     1      15.225  87.999  45.595  1.00  0.00     0.215 C 
ENDBRANCH  23  25
ENDBRANCH  22  23
ENDBRANCH  21  22
ENDBRANCH  20  21
ENDBRANCH  19  20
ENDBRANCH  11  19
BRANCH   9  27
HETATM   27  O3  UNL     1      11.986  89.981  36.581  1.00  0.00    -0.360 OA
ATOM     28  H3  UNL     1      11.651  89.250  36.077  1.00  0.00     0.217 HD
ENDBRANCH   9  27
BRANCH  16  29
HETATM   29  O8  UNL     1       8.869  93.178  43.601  1.00  0.00    -0.341 OA
ATOM     30  H8  UNL     1       8.246  93.716  44.075  1.00  0.00     0.220 HD
ENDBRANCH  16  29
BRANCH   1  31
HETATM   31  C2  UNL     1       6.472  92.556  38.509  1.00  0.00     0.020 C 
HETATM   32  C1  UNL     1       6.709  91.189  37.989  1.00  0.00     0.006 C 
ENDBRANCH   1  31
BRANCH   1  33
HETATM   33  C4  UNL     1       7.046  94.801  39.142  1.00  0.00     0.020 C 
HETATM   34  C5  UNL     1       5.564  94.821  38.882  1.00  0.00     0.006 C 
ENDBRANCH   1  33
TORSDOF 10
ENDMDL
MODEL 2
REMARK VINA RESULT: -8.556144582      2.320      4.964
REMARK  10 active torsions:
REMARK  status: ('A' for Active; 'I' for Inactive)
REMARK    1  A    between atoms: C2_2  and  C3_3 
REMARK    2  A    between atoms: C3_3  and  C4_4 
REMARK    3  A    between atoms: C11_13  and  O3_14 
REMARK    4  A    between atoms: C13_17  and  C14_18 
REMARK    5  A    between atoms: C14_18  and  C15_19 
REMARK    6  A    between atoms: C15_19  and  C16_20 
REMARK    7  A    between atoms: C16_20  and  O4_21 
REMARK    8  A    between atoms: O4_21  and  C17_22 
REMARK    9  A    between atoms: C17_22  and  O6_24 
REMARK   10  A    between atoms: C22_30  and  O8_31 
ROOT
HETATM    1  C3  UNL     1       7.952  96.434  38.736  1.00  0.00     0.077 C 
HETATM    2  C6  UNL     1       7.730  95.953  40.099  1.00  0.00     0.273 C 
HETATM    3  O1  UNL     1       6.614  96.333  40.623  1.00  0.00    -0.264 OA
HETATM    4  O2  UNL     1       8.460  95.172  40.953  1.00  0.00    -0.305 OA
HETATM    5  C7  UNL     1       9.154  93.988  41.141  1.00  0.00     0.094 C 
HETATM    6  C8  UNL     1      10.511  94.347  41.758  1.00  0.00     0.052 C 
HETATM    7  C9  UNL     1       8.406  93.186  42.226  1.00  0.00     0.052 C 
HETATM    8  C10 UNL     1       9.269  93.109  39.969  1.00  0.00     0.022 A 
HETATM    9  C11 UNL     1       9.973  92.004  40.388  1.00  0.00     0.076 A 
HETATM   10  C12 UNL     1      10.278  90.937  39.544  1.00  0.00     0.044 A 
HETATM   11  C13 UNL     1       9.879  90.946  38.233  1.00  0.00    -0.054 A 
HETATM   12  C19 UNL     1       9.175  92.044  37.805  1.00  0.00     0.022 A 
HETATM   13  C20 UNL     1       8.867  93.106  38.630  1.00  0.00     0.011 A 
HETATM   14  C21 UNL     1       8.149  94.010  37.779  1.00  0.00     0.097 A 
HETATM   15  O7  UNL     1       7.701  93.468  36.647  1.00  0.00    -0.287 OA
HETATM   16  C22 UNL     1       7.065  94.315  35.916  1.00  0.00     0.184 A 
HETATM   17  C23 UNL     1       7.070  95.531  36.584  1.00  0.00     0.075 A 
HETATM   18  C24 UNL     1       7.759  95.319  37.758  1.00  0.00    -0.000 A 
ENDROOT
BRANCH  11  19
HETATM   19  C14 UNL     1      10.155  89.860  37.263  1.00  0.00     0.041 C 
BRANCH  19  20
HETATM   20  C15 UNL     1      11.618  89.830  36.872  1.00  0.00     0.031 C 
BRANCH  20  21
HETATM   21  C16 UNL     1      12.077  88.403  37.028  1.00  0.00     0.181 C 
BRANCH  21  22
HETATM   22  O4  UNL     1      12.281  87.988  38.334  1.00  0.00    -0.298 OA
BRANCH  22  23
HETATM   23  C17 UNL     1      13.409  87.332  38.750  1.00  0.00     0.406 C 
HETATM   24  O5  UNL     1      14.160  86.761  37.928  1.00  0.00    -0.230 OA
BRANCH  23  25
HETATM   25  O6  UNL     1      13.747  87.286  40.113  1.00  0.00    -0.303 OA
HETATM   26  C18 UNL     1      13.354  88.371  40.925  1.00  0.00     0.215 C 
ENDBRANCH  23  25
ENDBRANCH  22  23
ENDBRANCH  21  22
ENDBRANCH  20  21
ENDBRANCH  19  20
ENDBRANCH  11  19
BRANCH   9  27
HETATM   27  O3  UNL     1      10.428  91.879  41.683  1.00  0.00    -0.360 OA
ATOM     28  H3  UNL     1      10.868  92.592  42.131  1.00  0.00     0.217 HD
ENDBRANCH   9  27
BRANCH  16  29
HETATM   29  O8  UNL     1       6.487  94.035  34.681  1.00  0.00    -0.341 OA
ATOM     30  H8  UNL     1       6.133  94.681  34.083  1.00  0.00     0.220 HD
ENDBRANCH  16  29
BRANCH   1  31
HETATM   31  C2  UNL     1       9.159  97.260  38.492  1.00  0.00     0.020 C 
HETATM   32  C1  UNL     1      10.487  96.611  38.591  1.00  0.00     0.006 C 
ENDBRANCH   1  31
BRANCH   1  33
HETATM   33  C4  UNL     1       6.761  97.400  38.481  1.00  0.00     0.020 C 
HETATM   34  C5  UNL     1       7.228  98.830  38.442  1.00  0.00     0.006 C 
ENDBRANCH   1  33
TORSDOF 10
ENDMDL
MODEL 3
REMARK VINA RESULT: -8.512930084      3.192      5.310
REMARK  10 active torsions:
REMARK  status: ('A' for Active; 'I' for Inactive)
REMARK    1  A    between atoms: C2_2  and  C3_3 
REMARK    2  A    between atoms: C3_3  and  C4_4 
REMARK    3  A    between atoms: C11_13  and  O3_14 
REMARK    4  A    between atoms: C13_17  and  C14_18 
REMARK    5  A    between atoms: C14_18  and  C15_19 
REMARK    6  A    between atoms: C15_19  and  C16_20 
REMARK    7  A    between atoms: C16_20  and  O4_21 
REMARK    8  A    between atoms: O4_21  and  C17_22 
REMARK    9  A    between atoms: C17_22  and  O6_24 
REMARK   10  A    between atoms: C22_30  and  O8_31 
ROOT
HETATM    1  C3  UNL     1       7.976  96.444  38.765  1.00  0.00     0.077 C 
HETATM    2  C6  UNL     1       7.799  95.913  40.116  1.00  0.00     0.273 C 
HETATM    3  O1  UNL     1       6.690  96.254  40.681  1.00  0.00    -0.264 OA
HETATM    4  O2  UNL     1       8.565  95.117  40.924  1.00  0.00    -0.305 OA
HETATM    5  C7  UNL     1       9.284  93.941  41.054  1.00  0.00     0.094 C 
HETATM    6  C8  UNL     1      10.650  94.305  41.647  1.00  0.00     0.052 C 
HETATM    7  C9  UNL     1       8.579  93.090  42.129  1.00  0.00     0.052 C 
HETATM    8  C10 UNL     1       9.384  93.105  39.850  1.00  0.00     0.022 A 
HETATM    9  C11 UNL     1      10.118  91.999  40.212  1.00  0.00     0.076 A 
HETATM   10  C12 UNL     1      10.419  90.967  39.325  1.00  0.00     0.044 A 
HETATM   11  C13 UNL     1       9.986  91.013  38.026  1.00  0.00    -0.054 A 
HETATM   12  C19 UNL     1       9.252  92.111  37.653  1.00  0.00     0.022 A 
HETATM   13  C20 UNL     1       8.947  93.139  38.522  1.00  0.00     0.011 A 
HETATM   14  C21 UNL     1       8.191  94.058  37.721  1.00  0.00     0.097 A 
HETATM   15  O7  UNL     1       7.723  93.545  36.583  1.00  0.00    -0.287 OA
HETATM   16  C22 UNL     1       7.053  94.404  35.897  1.00  0.00     0.184 A 
HETATM   17  C23 UNL     1       7.054  95.597  36.606  1.00  0.00     0.075 A 
HETATM   18  C24 UNL     1       7.777  95.359  37.754  1.00  0.00    -0.000 A 
ENDROOT
BRANCH  11  19
HETATM   19  C14 UNL     1      10.256  89.965  37.012  1.00  0.00     0.041 C 
BRANCH  19  20
HETATM   20  C15 UNL     1      11.689  89.481  37.089  1.00  0.00     0.031 C 
BRANCH  20  21
HETATM   21  C16 UNL     1      11.631  88.002  37.372  1.00  0.00     0.181 C 
BRANCH  21  22
HETATM   22  O4  UNL     1      12.651  87.513  38.170  1.00  0.00    -0.298 OA
BRANCH  22  23
HETATM   23  C17 UNL     1      13.719  86.806  37.683  1.00  0.00     0.406 C 
HETATM   24  O5  UNL     1      14.884  87.254  37.779  1.00  0.00    -0.230 OA
BRANCH  23  25
HETATM   25  O6  UNL     1      13.527  85.559  37.065  1.00  0.00    -0.303 OA
HETATM   26  C18 UNL     1      14.348  85.238  35.962  1.00  0.00     0.215 C 
ENDBRANCH  23  25
ENDBRANCH  22  23
ENDBRANCH  21  22
ENDBRANCH  20  21
ENDBRANCH  19  20
ENDBRANCH  11  19
BRANCH   9  27
HETATM   27  O3  UNL     1      10.609  91.839  41.491  1.00  0.00    -0.360 OA
ATOM     28  H3  UNL     1      10.462  91.043  41.988  1.00  0.00     0.217 HD
ENDBRANCH   9  27
BRANCH  16  29
HETATM   29  O8  UNL     1       6.448  94.155  34.670  1.00  0.00    -0.341 OA
ATOM     30  H8  UNL     1       5.812  94.720  34.248  1.00  0.00     0.220 HD
ENDBRANCH  16  29
BRANCH   1  31
HETATM   31  C2  UNL     1       9.161  97.300  38.518  1.00  0.00     0.020 C 
HETATM   32  C1  UNL     1      10.505  96.679  38.593  1.00  0.00     0.006 C 
ENDBRANCH   1  31
BRANCH   1  33
HETATM   33  C4  UNL     1       6.762  97.396  38.573  1.00  0.00     0.020 C 
HETATM   34  C5  UNL     1       7.208  98.831  38.513  1.00  0.00     0.006 C 
ENDBRANCH   1  33
TORSDOF 10
ENDMDL
MODEL 4
REMARK VINA RESULT: -8.452172455      3.532      6.022
REMARK  10 active torsions:
REMARK  status: ('A' for Active; 'I' for Inactive)
REMARK    1  A    between atoms: C2_2  and  C3_3 
REMARK    2  A    between atoms: C3_3  and  C4_4 
REMARK    3  A    between atoms: C11_13  and  O3_14 
REMARK    4  A    between atoms: C13_17  and  C14_18 
REMARK    5  A    between atoms: C14_18  and  C15_19 
REMARK    6  A    between atoms: C15_19  and  C16_20 
REMARK    7  A    between atoms: C16_20  and  O4_21 
REMARK    8  A    between atoms: O4_21  and  C17_22 
REMARK    9  A    between atoms: C17_22  and  O6_24 
REMARK   10  A    between atoms: C22_30  and  O8_31 
ROOT
HETATM    1  C3  UNL     1       7.960  96.410  38.802  1.00  0.00     0.077 C 
HETATM    2  C6  UNL     1       7.689  96.061  40.196  1.00  0.00     0.273 C 
HETATM    3  O1  UNL     1       6.547  96.470  40.635  1.00  0.00    -0.264 OA
HETATM    4  O2  UNL     1       8.394  95.381  41.152  1.00  0.00    -0.305 OA
HETATM    5  C7  UNL     1       9.096  94.234  41.483  1.00  0.00     0.094 C 
HETATM    6  C8  UNL     1      10.421  94.677  42.115  1.00  0.00     0.052 C 
HETATM    7  C9  UNL     1       8.315  93.530  42.611  1.00  0.00     0.052 C 
HETATM    8  C10 UNL     1       9.272  93.247  40.409  1.00  0.00     0.022 A 
HETATM    9  C11 UNL     1       9.974  92.201  40.963  1.00  0.00     0.076 A 
HETATM   10  C12 UNL     1      10.328  91.062  40.242  1.00  0.00     0.044 A 
HETATM   11  C13 UNL     1       9.984  90.936  38.922  1.00  0.00    -0.054 A 
HETATM   12  C19 UNL     1       9.283  91.973  38.359  1.00  0.00     0.022 A 
HETATM   13  C20 UNL     1       8.926  93.105  39.062  1.00  0.00     0.011 A 
HETATM   14  C21 UNL     1       8.231  93.908  38.098  1.00  0.00     0.097 A 
HETATM   15  O7  UNL     1       7.838  93.249  37.009  1.00  0.00    -0.287 OA
HETATM   16  C22 UNL     1       7.221  94.008  36.172  1.00  0.00     0.184 A 
HETATM   17  C23 UNL     1       7.181  95.284  36.717  1.00  0.00     0.075 A 
HETATM   18  C24 UNL     1       7.824  95.201  37.932  1.00  0.00    -0.000 A 
ENDROOT
BRANCH  11  19
HETATM   19  C14 UNL     1      10.315  89.765  38.075  1.00  0.00     0.041 C 
BRANCH  19  20
HETATM   20  C15 UNL     1      11.662  89.935  37.402  1.00  0.00     0.031 C 
BRANCH  20  21
HETATM   21  C16 UNL     1      11.412  89.880  35.917  1.00  0.00     0.181 C 
BRANCH  21  22
HETATM   22  O4  UNL     1      10.325  89.114  35.530  1.00  0.00    -0.298 OA
BRANCH  22  23
HETATM   23  C17 UNL     1      10.424  87.805  35.137  1.00  0.00     0.406 C 
HETATM   24  O5  UNL     1      10.340  87.489  33.929  1.00  0.00    -0.230 OA
BRANCH  23  25
HETATM   25  O6  UNL     1      10.624  86.787  36.086  1.00  0.00    -0.303 OA
HETATM   26  C18 UNL     1      11.952  86.411  36.377  1.00  0.00     0.215 C 
ENDBRANCH  23  25
ENDBRANCH  22  23
ENDBRANCH  21  22
ENDBRANCH  20  21
ENDBRANCH  19  20
ENDBRANCH  11  19
BRANCH   9  27
HETATM   27  O3  UNL     1      10.377  92.212  42.282  1.00  0.00    -0.360 OA
ATOM     28  H3  UNL     1      10.196  91.486  42.867  1.00  0.00     0.217 HD
ENDBRANCH   9  27
BRANCH  16  29
HETATM   29  O8  UNL     1       6.698  93.598  34.949  1.00  0.00    -0.341 OA
ATOM     30  H8  UNL     1       6.377  92.725  34.756  1.00  0.00     0.220 HD
ENDBRANCH  16  29
BRANCH   1  31
HETATM   31  C2  UNL     1       9.164  97.230  38.526  1.00  0.00     0.020 C 
HETATM   32  C1  UNL     1      10.496  96.612  38.724  1.00  0.00     0.006 C 
ENDBRANCH   1  31
BRANCH   1  33
HETATM   33  C4  UNL     1       6.767  97.325  38.406  1.00  0.00     0.020 C 
HETATM   34  C5  UNL     1       7.155  98.776  38.479  1.00  0.00     0.006 C 
ENDBRANCH   1  33
TORSDOF 10
ENDMDL
MODEL 5
REMARK VINA RESULT: -8.309623438      2.039      4.580
REMARK  10 active torsions:
REMARK  status: ('A' for Active; 'I' for Inactive)
REMARK    1  A    between atoms: C2_2  and  C3_3 
REMARK    2  A    between atoms: C3_3  and  C4_4 
REMARK    3  A    between atoms: C11_13  and  O3_14 
REMARK    4  A    between atoms: C13_17  and  C14_18 
REMARK    5  A    between atoms: C14_18  and  C15_19 
REMARK    6  A    between atoms: C15_19  and  C16_20 
REMARK    7  A    between atoms: C16_20  and  O4_21 
REMARK    8  A    between atoms: O4_21  and  C17_22 
REMARK    9  A    between atoms: C17_22  and  O6_24 
REMARK   10  A    between atoms: C22_30  and  O8_31 
ROOT
HETATM    1  C3  UNL     1       9.461  91.039  36.599  1.00  0.00     0.077 C 
HETATM    2  C6  UNL     1       8.653  91.362  37.775  1.00  0.00     0.273 C 
HETATM    3  O1  UNL     1       7.386  91.186  37.615  1.00  0.00    -0.264 OA
HETATM    4  O2  UNL     1       8.956  91.818  39.029  1.00  0.00    -0.305 OA
HETATM    5  C7  UNL     1       9.722  91.657  40.172  1.00  0.00     0.094 C 
HETATM    6  C8  UNL     1      10.319  93.026  40.516  1.00  0.00     0.052 C 
HETATM    7  C9  UNL     1       8.756  91.324  41.327  1.00  0.00     0.052 C 
HETATM    8  C10 UNL     1      10.725  90.584  40.135  1.00  0.00     0.022 A 
HETATM    9  C11 UNL     1      11.347  90.599  41.363  1.00  0.00     0.076 A 
HETATM   10  C12 UNL     1      12.364  89.711  41.707  1.00  0.00     0.044 A 
HETATM   11  C13 UNL     1      12.796  88.764  40.816  1.00  0.00    -0.054 A 
HETATM   12  C19 UNL     1      12.183  88.738  39.588  1.00  0.00     0.022 A 
HETATM   13  C20 UNL     1      11.175  89.613  39.236  1.00  0.00     0.011 A 
HETATM   14  C21 UNL     1      10.845  89.238  37.891  1.00  0.00     0.097 A 
HETATM   15  O7  UNL     1      11.295  88.038  37.524  1.00  0.00    -0.287 OA
HETATM   16  C22 UNL     1      10.977  87.745  36.312  1.00  0.00     0.184 A 
HETATM   17  C23 UNL     1      10.256  88.814  35.798  1.00  0.00     0.075 A 
HETATM   18  C24 UNL     1      10.184  89.746  36.810  1.00  0.00    -0.000 A 
ENDROOT
BRANCH  11  19
HETATM   19  C14 UNL     1      13.868  87.778  41.091  1.00  0.00     0.041 C 
BRANCH  19  20
HETATM   20  C15 UNL     1      15.115  88.455  41.624  1.00  0.00     0.031 C 
BRANCH  20  21
HETATM   21  C16 UNL     1      15.365  87.879  42.995  1.00  0.00     0.181 C 
BRANCH  21  22
HETATM   22  O4  UNL     1      16.687  87.574  43.273  1.00  0.00    -0.298 OA
BRANCH  22  23
HETATM   23  C17 UNL     1      17.396  88.149  44.295  1.00  0.00     0.406 C 
HETATM   24  O5  UNL     1      16.918  88.217  45.450  1.00  0.00    -0.230 OA
BRANCH  23  25
HETATM   25  O6  UNL     1      18.679  88.675  44.068  1.00  0.00    -0.303 OA
HETATM   26  C18 UNL     1      19.783  87.968  44.593  1.00  0.00     0.215 C 
ENDBRANCH  23  25
ENDBRANCH  22  23
ENDBRANCH  21  22
ENDBRANCH  20  21
ENDBRANCH  19  20
ENDBRANCH  11  19
BRANCH   9  27
HETATM   27  O3  UNL     1      11.000  91.506  42.342  1.00  0.00    -0.360 OA
ATOM     28  H3  UNL     1      10.138  91.506  42.742  1.00  0.00     0.217 HD
ENDBRANCH   9  27
BRANCH  16  29
HETATM   29  O8  UNL     1      11.309  86.562  35.658  1.00  0.00    -0.341 OA
ATOM     30  H8  UNL     1      10.725  86.060  35.103  1.00  0.00     0.220 HD
ENDBRANCH  16  29
BRANCH   1  31
HETATM   31  C2  UNL     1      10.298  92.121  36.027  1.00  0.00     0.020 C 
HETATM   32  C1  UNL     1      11.579  92.448  36.696  1.00  0.00     0.006 C 
ENDBRANCH   1  31
BRANCH   1  33
HETATM   33  C4  UNL     1       8.410  90.734  35.495  1.00  0.00     0.020 C 
HETATM   34  C5  UNL     1       8.401  91.815  34.448  1.00  0.00     0.006 C 
ENDBRANCH   1  33
TORSDOF 10
ENDMDL
