MODEL 1
REMARK VINA RESULT: -8.120254572      0.000      0.000
REMARK  10 active torsions:
REMARK  status: ('A' for Active; 'I' for Inactive)
REMARK    1  A    between atoms: C2_2  and  C3_3 
REMARK    2  A    between atoms: C3_3  and  O2_5 
REMARK    3  A    between atoms: O2_5  and  C4_6 
REMARK    4  A    between atoms: C6_8  and  C7_9 
REMARK    5  A    between atoms: C7_9  and  C8_10 
REMARK    6  A    between atoms: C12_14  and  O3_15 
REMARK    7  A    between atoms: C18_24  and  O6_25 
REMARK    8  A    between atoms: C20_28  and  C21_29 
REMARK    9  A    between atoms: C21_29  and  O7_31 
REMARK   10  A    between atoms: O7_31  and  C23_32 
ROOT
HETATM    1  C4  UNL     1      10.192  91.339  39.899  1.00  0.00     0.114 A 
HETATM    2  C5  UNL     1      10.583  90.519  38.900  1.00  0.00     0.050 A 
HETATM    3  C6  UNL     1       9.865  90.491  37.726  1.00  0.00    -0.018 A 
HETATM    4  C12 UNL     1       8.763  91.303  37.592  1.00  0.00     0.082 A 
HETATM    5  C13 UNL     1       8.340  92.162  38.602  1.00  0.00     0.024 A 
HETATM    6  C14 UNL     1       9.060  92.158  39.742  1.00  0.00     0.120 A 
HETATM    7  O4  UNL     1       8.742  92.925  40.855  1.00  0.00    -0.304 OA
HETATM    8  C15 UNL     1       7.605  93.714  40.745  1.00  0.00     0.117 A 
HETATM    9  C16 UNL     1       6.986  94.545  41.699  1.00  0.00     0.086 A 
HETATM   10  C17 UNL     1       7.566  94.734  43.060  1.00  0.00     0.079 C 
HETATM   11  O5  UNL     1       5.922  95.045  41.174  1.00  0.00    -0.289 OA
HETATM   12  C18 UNL     1       5.761  94.626  39.935  1.00  0.00     0.193 A 
HETATM   13  C19 UNL     1       6.823  93.787  39.625  1.00  0.00     0.048 A 
HETATM   14  C20 UNL     1       7.289  93.160  38.360  1.00  0.00     0.094 C 
ENDROOT
BRANCH  14  15
HETATM   15  C21 UNL     1       7.807  94.158  37.348  1.00  0.00     0.141 C 
HETATM   16  C22 UNL     1       6.911  94.319  36.183  1.00  0.00     0.041 C 
BRANCH  15  17
HETATM   17  O7  UNL     1       7.980  95.440  37.923  1.00  0.00    -0.316 OA
BRANCH  17  18
HETATM   18  C23 UNL     1       9.187  96.056  38.035  1.00  0.00     0.255 C 
HETATM   19  C24 UNL     1      10.381  95.346  38.612  1.00  0.00     0.126 C 
HETATM   20  O8  UNL     1       9.344  97.226  37.664  1.00  0.00    -0.266 OA
ENDBRANCH  17  18
ENDBRANCH  15  17
ENDBRANCH  14  15
BRANCH   4  21
HETATM   21  O3  UNL     1       8.057  91.265  36.439  1.00  0.00    -0.359 OA
ATOM     22  H3  UNL     1       7.635  92.059  36.132  1.00  0.00     0.217 HD
ENDBRANCH   4  21
BRANCH  12  23
HETATM   23  O6  UNL     1       4.699  94.974  39.111  1.00  0.00    -0.340 OA
ATOM     24  H6  UNL     1       4.209  94.365  38.570  1.00  0.00     0.220 HD
ENDBRANCH  12  23
BRANCH   3  25
HETATM   25  C7  UNL     1      10.303  89.595  36.625  1.00  0.00     0.068 C 
BRANCH  25  26
HETATM   26  C8  UNL     1      11.501  88.785  36.978  1.00  0.00    -0.020 C 
HETATM   27  C9  UNL     1      11.551  87.480  36.693  1.00  0.00    -0.091 C 
HETATM   28  C10 UNL     1      12.757  86.703  37.055  1.00  0.00     0.042 C 
HETATM   29  C11 UNL     1      10.426  86.784  36.019  1.00  0.00     0.042 C 
ENDBRANCH  25  26
ENDBRANCH   3  25
BRANCH   1  30
HETATM   30  O2  UNL     1      10.921  91.362  41.084  1.00  0.00    -0.276 OA
BRANCH  30  31
HETATM   31  C3  UNL     1      11.044  90.176  41.781  1.00  0.00     0.263 C 
HETATM   32  O1  UNL     1      10.042  89.659  42.309  1.00  0.00    -0.265 OA
BRANCH  31  33
HETATM   33  C2  UNL     1      12.366  89.522  41.896  1.00  0.00     0.107 C 
HETATM   34  C1  UNL     1      12.629  88.685  40.671  1.00  0.00     0.015 C 
ENDBRANCH  31  33
ENDBRANCH  30  31
ENDBRANCH   1  30
TORSDOF 10
ENDMDL
MODEL 2
REMARK VINA RESULT: -8.037164078      1.131      1.368
REMARK  10 active torsions:
REMARK  status: ('A' for Active; 'I' for Inactive)
REMARK    1  A    between atoms: C2_2  and  C3_3 
REMARK    2  A    between atoms: C3_3  and  O2_5 
REMARK    3  A    between atoms: O2_5  and  C4_6 
REMARK    4  A    between atoms: C6_8  and  C7_9 
REMARK    5  A    between atoms: C7_9  and  C8_10 
REMARK    6  A    between atoms: C12_14  and  O3_15 
REMARK    7  A    between atoms: C18_24  and  O6_25 
REMARK    8  A    between atoms: C20_28  and  C21_29 
REMARK    9  A    between atoms: C21_29  and  O7_31 
REMARK   10  A    between atoms: O7_31  and  C23_32 
ROOT
HETATM    1  C4  UNL     1       9.931  91.900  40.787  1.00  0.00     0.114 A 
HETATM    2  C5  UNL     1      10.407  90.919  39.990  1.00  0.00     0.050 A 
HETATM    3  C6  UNL     1       9.791  90.666  38.785  1.00  0.00    -0.018 A 
HETATM    4  C12 UNL     1       8.704  91.422  38.413  1.00  0.00     0.082 A 
HETATM    5  C13 UNL     1       8.196  92.444  39.211  1.00  0.00     0.024 A 
HETATM    6  C14 UNL     1       8.817  92.659  40.388  1.00  0.00     0.120 A 
HETATM    7  O4  UNL     1       8.404  93.611  41.312  1.00  0.00    -0.304 OA
HETATM    8  C15 UNL     1       7.281  94.348  40.965  1.00  0.00     0.117 A 
HETATM    9  C16 UNL     1       6.582  95.329  41.696  1.00  0.00     0.086 A 
HETATM   10  C17 UNL     1       7.044  95.772  43.043  1.00  0.00     0.079 C 
HETATM   11  O5  UNL     1       5.567  95.708  41.001  1.00  0.00    -0.289 OA
HETATM   12  C18 UNL     1       5.512  95.069  39.850  1.00  0.00     0.193 A 
HETATM   13  C19 UNL     1       6.597  94.204  39.788  1.00  0.00     0.048 A 
HETATM   14  C20 UNL     1       7.170  93.364  38.703  1.00  0.00     0.094 C 
ENDROOT
BRANCH  14  15
HETATM   15  C21 UNL     1       7.772  94.170  37.573  1.00  0.00     0.141 C 
HETATM   16  C22 UNL     1       6.962  94.129  36.336  1.00  0.00     0.041 C 
BRANCH  15  17
HETATM   17  O7  UNL     1       7.924  95.532  37.928  1.00  0.00    -0.316 OA
BRANCH  17  18
HETATM   18  C23 UNL     1       9.132  96.144  38.059  1.00  0.00     0.255 C 
HETATM   19  C24 UNL     1      10.343  95.395  38.543  1.00  0.00     0.126 C 
HETATM   20  O8  UNL     1       9.274  97.341  37.781  1.00  0.00    -0.266 OA
ENDBRANCH  17  18
ENDBRANCH  15  17
ENDBRANCH  14  15
BRANCH   4  21
HETATM   21  O3  UNL     1       8.100  91.165  37.232  1.00  0.00    -0.359 OA
ATOM     22  H3  UNL     1       7.463  91.784  36.895  1.00  0.00     0.217 HD
ENDBRANCH   4  21
BRANCH  12  23
HETATM   23  O6  UNL     1       4.524  95.243  38.891  1.00  0.00    -0.340 OA
ATOM     24  H6  UNL     1       3.839  94.615  38.695  1.00  0.00     0.220 HD
ENDBRANCH  12  23
BRANCH   3  25
HETATM   25  C7  UNL     1      10.322  89.592  37.907  1.00  0.00     0.068 C 
BRANCH  25  26
HETATM   26  C8  UNL     1      11.617  89.037  38.387  1.00  0.00    -0.020 C 
HETATM   27  C9  UNL     1      12.146  87.949  37.818  1.00  0.00    -0.091 C 
HETATM   28  C10 UNL     1      13.436  87.423  38.317  1.00  0.00     0.042 C 
HETATM   29  C11 UNL     1      11.475  87.251  36.693  1.00  0.00     0.042 C 
ENDBRANCH  25  26
ENDBRANCH   3  25
BRANCH   1  30
HETATM   30  O2  UNL     1      10.557  92.151  42.005  1.00  0.00    -0.276 OA
BRANCH  30  31
HETATM   31  C3  UNL     1      10.142  91.415  43.097  1.00  0.00     0.263 C 
HETATM   32  O1  UNL     1       9.345  91.911  43.915  1.00  0.00    -0.265 OA
BRANCH  31  33
HETATM   33  C2  UNL     1      10.646  90.038  43.293  1.00  0.00     0.107 C 
HETATM   34  C1  UNL     1       9.537  89.159  43.811  1.00  0.00     0.015 C 
ENDBRANCH  31  33
ENDBRANCH  30  31
ENDBRANCH   1  30
TORSDOF 10
ENDMDL
MODEL 3
REMARK VINA RESULT: -8.018841933      2.266      3.584
REMARK  10 active torsions:
REMARK  status: ('A' for Active; 'I' for Inactive)
REMARK    1  A    between atoms: C2_2  and  C3_3 
REMARK    2  A    between atoms: C3_3  and  O2_5 
REMARK    3  A    between atoms: O2_5  and  C4_6 
REMARK    4  A    between atoms: C6_8  and  C7_9 
REMARK    5  A    between atoms: C7_9  and  C8_10 
REMARK    6  A    between atoms: C12_14  and  O3_15 
REMARK    7  A    between atoms: C18_24  and  O6_25 
REMARK    8  A    between atoms: C20_28  and  C21_29 
REMARK    9  A    between atoms: C21_29  and  O7_31 
REMARK   10  A    between atoms: O7_31  and  C23_32 
ROOT
HETATM    1  C4  UNL     1       9.696  92.325  41.804  1.00  0.00     0.114 A 
HETATM    2  C5  UNL     1      10.584  91.337  41.561  1.00  0.00     0.050 A 
HETATM    3  C6  UNL     1      10.604  90.734  40.324  1.00  0.00    -0.018 A 
HETATM    4  C12 UNL     1       9.720  91.152  39.357  1.00  0.00     0.082 A 
HETATM    5  C13 UNL     1       8.799  92.172  39.577  1.00  0.00     0.024 A 
HETATM    6  C14 UNL     1       8.800  92.735  40.802  1.00  0.00     0.120 A 
HETATM    7  O4  UNL     1       7.915  93.733  41.190  1.00  0.00    -0.304 OA
HETATM    8  C15 UNL     1       6.990  94.130  40.235  1.00  0.00     0.117 A 
HETATM    9  C16 UNL     1       5.933  95.058  40.331  1.00  0.00     0.086 A 
HETATM   10  C17 UNL     1       5.692  95.837  41.579  1.00  0.00     0.079 C 
HETATM   11  O5  UNL     1       5.300  95.069  39.210  1.00  0.00    -0.289 OA
HETATM   12  C18 UNL     1       5.837  94.227  38.351  1.00  0.00     0.193 A 
HETATM   13  C19 UNL     1       6.924  93.622  38.967  1.00  0.00     0.048 A 
HETATM   14  C20 UNL     1       8.011  92.736  38.472  1.00  0.00     0.094 C 
ENDROOT
BRANCH  14  15
HETATM   15  C21 UNL     1       8.960  93.423  37.515  1.00  0.00     0.141 C 
HETATM   16  C22 UNL     1      10.226  93.841  38.155  1.00  0.00     0.041 C 
BRANCH  15  17
HETATM   17  O7  UNL     1       9.299  92.584  36.426  1.00  0.00    -0.316 OA
BRANCH  17  18
HETATM   18  C23 UNL     1       8.415  92.209  35.464  1.00  0.00     0.255 C 
HETATM   19  C24 UNL     1       8.347  90.789  34.970  1.00  0.00     0.126 C 
HETATM   20  O8  UNL     1       7.634  93.026  34.961  1.00  0.00    -0.266 OA
ENDBRANCH  17  18
ENDBRANCH  15  17
ENDBRANCH  14  15
BRANCH   4  21
HETATM   21  O3  UNL     1       9.740  90.551  38.146  1.00  0.00    -0.359 OA
ATOM     22  H3  UNL     1       9.081  89.898  37.946  1.00  0.00     0.217 HD
ENDBRANCH   4  21
BRANCH  12  23
HETATM   23  O6  UNL     1       5.368  93.999  37.064  1.00  0.00    -0.340 OA
ATOM     24  H6  UNL     1       4.484  94.180  36.767  1.00  0.00     0.220 HD
ENDBRANCH  12  23
BRANCH   3  25
HETATM   25  C7  UNL     1      11.588  89.653  40.056  1.00  0.00     0.068 C 
BRANCH  25  26
HETATM   26  C8  UNL     1      12.404  89.302  41.251  1.00  0.00    -0.020 C 
HETATM   27  C9  UNL     1      13.328  88.339  41.186  1.00  0.00    -0.091 C 
HETATM   28  C10 UNL     1      14.124  88.014  42.391  1.00  0.00     0.042 C 
HETATM   29  C11 UNL     1      13.583  87.582  39.934  1.00  0.00     0.042 C 
ENDBRANCH  25  26
ENDBRANCH   3  25
BRANCH   1  30
HETATM   30  O2  UNL     1       9.680  92.931  43.057  1.00  0.00    -0.276 OA
BRANCH  30  31
HETATM   31  C3  UNL     1       9.436  92.125  44.152  1.00  0.00     0.263 C 
HETATM   32  O1  UNL     1      10.331  91.937  44.997  1.00  0.00    -0.265 OA
BRANCH  31  33
HETATM   33  C2  UNL     1       8.111  91.488  44.318  1.00  0.00     0.107 C 
HETATM   34  C1  UNL     1       7.040  92.545  44.365  1.00  0.00     0.015 C 
ENDBRANCH  31  33
ENDBRANCH  30  31
ENDBRANCH   1  30
TORSDOF 10
ENDMDL
MODEL 4
REMARK VINA RESULT: -7.956726647      1.728      2.559
REMARK  10 active torsions:
REMARK  status: ('A' for Active; 'I' for Inactive)
REMARK    1  A    between atoms: C2_2  and  C3_3 
REMARK    2  A    between atoms: C3_3  and  O2_5 
REMARK    3  A    between atoms: O2_5  and  C4_6 
REMARK    4  A    between atoms: C6_8  and  C7_9 
REMARK    5  A    between atoms: C7_9  and  C8_10 
REMARK    6  A    between atoms: C12_14  and  O3_15 
REMARK    7  A    between atoms: C18_24  and  O6_25 
REMARK    8  A    between atoms: C20_28  and  C21_29 
REMARK    9  A    between atoms: C21_29  and  O7_31 
REMARK   10  A    between atoms: O7_31  and  C23_32 
ROOT
HETATM    1  C4  UNL     1       9.649  92.515  41.769  1.00  0.00     0.114 A 
HETATM    2  C5  UNL     1      10.322  91.457  41.268  1.00  0.00     0.050 A 
HETATM    3  C6  UNL     1       9.999  90.978  40.018  1.00  0.00    -0.018 A 
HETATM    4  C12 UNL     1       8.998  91.591  39.301  1.00  0.00     0.082 A 
HETATM    5  C13 UNL     1       8.291  92.686  39.790  1.00  0.00     0.024 A 
HETATM    6  C14 UNL     1       8.626  93.123  41.020  1.00  0.00     0.120 A 
HETATM    7  O4  UNL     1       7.987  94.176  41.663  1.00  0.00    -0.304 OA
HETATM    8  C15 UNL     1       6.945  94.770  40.965  1.00  0.00     0.117 A 
HETATM    9  C16 UNL     1       6.068  95.802  41.357  1.00  0.00     0.086 A 
HETATM   10  C17 UNL     1       6.203  96.479  42.678  1.00  0.00     0.079 C 
HETATM   11  O5  UNL     1       5.221  95.997  40.407  1.00  0.00    -0.289 OA
HETATM   12  C18 UNL     1       5.446  95.185  39.394  1.00  0.00     0.193 A 
HETATM   13  C19 UNL     1       6.545  94.399  39.711  1.00  0.00     0.048 A 
HETATM   14  C20 UNL     1       7.373  93.443  38.928  1.00  0.00     0.094 C 
ENDROOT
BRANCH  14  15
HETATM   15  C21 UNL     1       8.184  94.103  37.835  1.00  0.00     0.141 C 
HETATM   16  C22 UNL     1       7.683  93.799  36.478  1.00  0.00     0.041 C 
BRANCH  15  17
HETATM   17  O7  UNL     1       8.191  95.513  37.972  1.00  0.00    -0.316 OA
BRANCH  17  18
HETATM   18  C23 UNL     1       9.308  96.234  38.261  1.00  0.00     0.255 C 
HETATM   19  C24 UNL     1      10.374  95.697  39.176  1.00  0.00     0.126 C 
HETATM   20  O8  UNL     1       9.484  97.359  37.777  1.00  0.00    -0.266 OA
ENDBRANCH  17  18
ENDBRANCH  15  17
ENDBRANCH  14  15
BRANCH   4  21
HETATM   21  O3  UNL     1       8.680  91.112  38.077  1.00  0.00    -0.359 OA
ATOM     22  H3  UNL     1       7.861  91.378  37.677  1.00  0.00     0.217 HD
ENDBRANCH   4  21
BRANCH  12  23
HETATM   23  O6  UNL     1       4.690  95.140  38.230  1.00  0.00    -0.340 OA
ATOM     24  H6  UNL     1       4.265  94.363  37.888  1.00  0.00     0.220 HD
ENDBRANCH  12  23
BRANCH   3  25
HETATM   25  C7  UNL     1      10.748  89.821  39.465  1.00  0.00     0.068 C 
BRANCH  25  26
HETATM   26  C8  UNL     1      11.796  89.310  40.392  1.00  0.00    -0.020 C 
HETATM   27  C9  UNL     1      12.725  88.450  39.964  1.00  0.00    -0.091 C 
HETATM   28  C10 UNL     1      13.752  87.962  40.910  1.00  0.00     0.042 C 
HETATM   29  C11 UNL     1      12.756  87.967  38.561  1.00  0.00     0.042 C 
ENDBRANCH  25  26
ENDBRANCH   3  25
BRANCH   1  30
HETATM   30  O2  UNL     1       9.979  92.993  43.034  1.00  0.00    -0.276 OA
BRANCH  30  31
HETATM   31  C3  UNL     1       9.679  92.191  44.117  1.00  0.00     0.263 C 
HETATM   32  O1  UNL     1      10.595  91.745  44.833  1.00  0.00    -0.265 OA
BRANCH  31  33
HETATM   33  C2  UNL     1       8.270  91.864  44.425  1.00  0.00     0.107 C 
HETATM   34  C1  UNL     1       8.173  90.442  44.914  1.00  0.00     0.015 C 
ENDBRANCH  31  33
ENDBRANCH  30  31
ENDBRANCH   1  30
TORSDOF 10
ENDMDL
MODEL 5
REMARK VINA RESULT: -7.889566141      1.446      1.754
REMARK  10 active torsions:
REMARK  status: ('A' for Active; 'I' for Inactive)
REMARK    1  A    between atoms: C2_2  and  C3_3 
REMARK    2  A    between atoms: C3_3  and  O2_5 
REMARK    3  A    between atoms: O2_5  and  C4_6 
REMARK    4  A    between atoms: C6_8  and  C7_9 
REMARK    5  A    between atoms: C7_9  and  C8_10 
REMARK    6  A    between atoms: C12_14  and  O3_15 
REMARK    7  A    between atoms: C18_24  and  O6_25 
REMARK    8  A    between atoms: C20_28  and  C21_29 
REMARK    9  A    between atoms: C21_29  and  O7_31 
REMARK   10  A    between atoms: O7_31  and  C23_32 
ROOT
HETATM    1  C4  UNL     1      10.029  91.592  41.168  1.00  0.00     0.114 A 
HETATM    2  C5  UNL     1      10.487  90.759  40.208  1.00  0.00     0.050 A 
HETATM    3  C6  UNL     1       9.902  90.774  38.962  1.00  0.00    -0.018 A 
HETATM    4  C12 UNL     1       8.865  91.643  38.716  1.00  0.00     0.082 A 
HETATM    5  C13 UNL     1       8.376  92.517  39.684  1.00  0.00     0.024 A 
HETATM    6  C14 UNL     1       8.965  92.469  40.895  1.00  0.00     0.120 A 
HETATM    7  O4  UNL     1       8.565  93.246  41.975  1.00  0.00    -0.304 OA
HETATM    8  C15 UNL     1       7.489  94.093  41.749  1.00  0.00     0.117 A 
HETATM    9  C16 UNL     1       6.811  94.950  42.639  1.00  0.00     0.086 A 
HETATM   10  C17 UNL     1       7.245  95.101  44.058  1.00  0.00     0.079 C 
HETATM   11  O5  UNL     1       5.838  95.506  42.005  1.00  0.00    -0.289 OA
HETATM   12  C18 UNL     1       5.795  95.104  40.752  1.00  0.00     0.193 A 
HETATM   13  C19 UNL     1       6.840  94.213  40.551  1.00  0.00     0.048 A 
HETATM   14  C20 UNL     1       7.411  93.569  39.338  1.00  0.00     0.094 C 
ENDROOT
BRANCH  14  15
HETATM   15  C21 UNL     1       8.088  94.545  38.401  1.00  0.00     0.141 C 
HETATM   16  C22 UNL     1       7.212  94.989  37.295  1.00  0.00     0.041 C 
BRANCH  15  17
HETATM   17  O7  UNL     1       8.521  95.707  39.084  1.00  0.00    -0.316 OA
BRANCH  17  18
HETATM   18  C23 UNL     1       9.830  96.021  39.276  1.00  0.00     0.255 C 
HETATM   19  C24 UNL     1      10.548  96.985  38.371  1.00  0.00     0.126 C 
HETATM   20  O8  UNL     1      10.476  95.523  40.206  1.00  0.00    -0.266 OA
ENDBRANCH  17  18
ENDBRANCH  15  17
ENDBRANCH  14  15
BRANCH   4  21
HETATM   21  O3  UNL     1       8.290  91.648  37.492  1.00  0.00    -0.359 OA
ATOM     22  H3  UNL     1       7.757  92.392  37.238  1.00  0.00     0.217 HD
ENDBRANCH   4  21
BRANCH  12  23
HETATM   23  O6  UNL     1       4.849  95.510  39.820  1.00  0.00    -0.340 OA
ATOM     24  H6  UNL     1       4.762  96.395  39.483  1.00  0.00     0.220 HD
ENDBRANCH  12  23
BRANCH   3  25
HETATM   25  C7  UNL     1      10.414  89.864  37.906  1.00  0.00     0.068 C 
BRANCH  25  26
HETATM   26  C8  UNL     1      11.664  89.159  38.303  1.00  0.00    -0.020 C 
HETATM   27  C9  UNL     1      12.008  88.002  37.727  1.00  0.00    -0.091 C 
HETATM   28  C10 UNL     1      13.257  87.328  38.143  1.00  0.00     0.042 C 
HETATM   29  C11 UNL     1      11.169  87.373  36.676  1.00  0.00     0.042 C 
ENDBRANCH  25  26
ENDBRANCH   3  25
BRANCH   1  30
HETATM   30  O2  UNL     1      10.623  91.571  42.426  1.00  0.00    -0.276 OA
BRANCH  30  31
HETATM   31  C3  UNL     1      10.410  90.456  43.213  1.00  0.00     0.263 C 
HETATM   32  O1  UNL     1      11.243  89.531  43.217  1.00  0.00    -0.265 OA
BRANCH  31  33
HETATM   33  C2  UNL     1       9.194  90.365  44.050  1.00  0.00     0.107 C 
HETATM   34  C1  UNL     1       8.882  88.919  44.338  1.00  0.00     0.015 C 
ENDBRANCH  31  33
ENDBRANCH  30  31
ENDBRANCH   1  30
TORSDOF 10
ENDMDL
