MODEL 1
REMARK VINA RESULT: -7.190308364      0.000      0.000
REMARK  5 active torsions:
REMARK  status: ('A' for Active; 'I' for Inactive)
REMARK    1  A    between atoms: C2_2  and  O1_3 
REMARK    2  A    between atoms: O1_3  and  C3_4 
REMARK    3  A    between atoms: C3_4  and  C4_6 
REMARK    4  A    between atoms: C5_7  and  C6_8 
REMARK    5  A    between atoms: C6_8  and  S1_10 
ROOT
HETATM    1  C4  UNL     1      57.957   8.866   2.470  1.00  0.00     0.107 C 
HETATM    2  C5  UNL     1      56.887   9.300   3.427  1.00  0.00     0.118 C 
HETATM    3  C7  UNL     1      57.390  10.086   4.568  1.00  0.00    -0.004 A 
HETATM    4  C8  UNL     1      56.656  10.784   5.526  1.00  0.00     0.117 A 
HETATM    5  N1  UNL     1      57.560  11.319   6.358  1.00  0.00    -0.309 N 
ATOM      6  H1  UNL     1      57.331  11.893   7.169  1.00  0.00     0.186 HD
HETATM    7  N2  UNL     1      58.784  11.004   5.987  1.00  0.00    -0.300 N 
HETATM    8  C9  UNL     1      59.966  11.423   6.678  1.00  0.00     0.177 C 
HETATM    9  C10 UNL     1      58.723  10.255   4.902  1.00  0.00     0.041 A 
HETATM   10  C11 UNL     1      59.688   9.572   3.963  1.00  0.00     0.043 C 
HETATM   11  C12 UNL     1      61.103   9.930   4.192  1.00  0.00     0.011 C 
HETATM   12  C13 UNL     1      61.938   9.584   2.961  1.00  0.00     0.001 C 
HETATM   13  C14 UNL     1      61.391  10.417   1.842  1.00  0.00     0.000 C 
HETATM   14  C15 UNL     1      60.046   9.861   1.454  1.00  0.00     0.006 C 
HETATM   15  C16 UNL     1      59.124   9.830   2.594  1.00  0.00     0.010 C 
ENDROOT
BRANCH   1  16
HETATM   16  C3  UNL     1      57.468   8.634   1.122  1.00  0.00     0.264 C 
HETATM   17  O2  UNL     1      56.890   9.514   0.472  1.00  0.00    -0.265 OA
BRANCH  16  18
HETATM   18  O1  UNL     1      57.621   7.398   0.482  1.00  0.00    -0.322 OA
BRANCH  18  19
HETATM   19  C2  UNL     1      56.578   6.428   0.525  1.00  0.00     0.174 C 
HETATM   20  C1  UNL     1      57.026   5.081   0.040  1.00  0.00     0.034 C 
ENDBRANCH  18  19
ENDBRANCH  16  18
ENDBRANCH   1  16
BRANCH   2  21
HETATM   21  C6  UNL     1      56.076   8.136   3.882  1.00  0.00     0.210 C 
HETATM   22  O3  UNL     1      56.634   7.134   4.247  1.00  0.00    -0.283 OA
BRANCH  21  23
HETATM   23  S1  UNL     1      54.303   8.292   3.862  1.00  0.00     0.019 SA
HETATM   24 CL1  UNL     1      53.648   8.038   1.875  1.00  0.00    -0.036 Cl
ENDBRANCH  21  23
ENDBRANCH   2  21
TORSDOF 5
ENDMDL
MODEL 2
REMARK VINA RESULT: -7.035390752      3.263      5.375
REMARK  5 active torsions:
REMARK  status: ('A' for Active; 'I' for Inactive)
REMARK    1  A    between atoms: C2_2  and  O1_3 
REMARK    2  A    between atoms: O1_3  and  C3_4 
REMARK    3  A    between atoms: C3_4  and  C4_6 
REMARK    4  A    between atoms: C5_7  and  C6_8 
REMARK    5  A    between atoms: C6_8  and  S1_10 
ROOT
HETATM    1  C4  UNL     1      56.393   8.644   1.949  1.00  0.00     0.107 C 
HETATM    2  C5  UNL     1      55.312   8.171   1.024  1.00  0.00     0.118 C 
HETATM    3  C7  UNL     1      53.994   8.028   1.670  1.00  0.00    -0.004 A 
HETATM    4  C8  UNL     1      52.759   7.788   1.070  1.00  0.00     0.117 A 
HETATM    5  N1  UNL     1      51.874   7.724   2.073  1.00  0.00    -0.309 N 
ATOM      6  H1  UNL     1      50.874   7.559   1.953  1.00  0.00     0.186 HD
HETATM    7  N2  UNL     1      52.466   7.904   3.236  1.00  0.00    -0.300 N 
HETATM    8  C9  UNL     1      51.786   7.887   4.496  1.00  0.00     0.177 C 
HETATM    9  C10 UNL     1      53.756   8.093   3.033  1.00  0.00     0.041 A 
HETATM   10  C11 UNL     1      54.988   8.359   3.864  1.00  0.00     0.043 C 
HETATM   11  C12 UNL     1      54.703   8.642   5.286  1.00  0.00     0.011 C 
HETATM   12  C13 UNL     1      55.900   9.334   5.934  1.00  0.00     0.001 C 
HETATM   13  C14 UNL     1      56.079  10.627   5.199  1.00  0.00     0.000 C 
HETATM   14  C15 UNL     1      56.621  10.319   3.828  1.00  0.00     0.006 C 
HETATM   15  C16 UNL     1      55.743   9.404   3.091  1.00  0.00     0.010 C 
ENDROOT
BRANCH   1  16
HETATM   16  C3  UNL     1      57.477   9.329   1.268  1.00  0.00     0.264 C 
HETATM   17  O2  UNL     1      57.276  10.285   0.507  1.00  0.00    -0.265 OA
BRANCH  16  18
HETATM   18  O1  UNL     1      58.814   8.947   1.432  1.00  0.00    -0.322 OA
BRANCH  18  19
HETATM   19  C2  UNL     1      59.788   9.893   1.864  1.00  0.00     0.174 C 
HETATM   20  C1  UNL     1      60.084   9.786   3.331  1.00  0.00     0.034 C 
ENDBRANCH  18  19
ENDBRANCH  16  18
ENDBRANCH   1  16
BRANCH   2  21
HETATM   21  C6  UNL     1      55.716   6.917   0.327  1.00  0.00     0.210 C 
HETATM   22  O3  UNL     1      55.509   6.806  -0.853  1.00  0.00    -0.283 OA
BRANCH  21  23
HETATM   23  S1  UNL     1      56.491   5.637   1.289  1.00  0.00     0.019 SA
HETATM   24 CL1  UNL     1      57.466   4.323  -0.039  1.00  0.00    -0.036 Cl
ENDBRANCH  21  23
ENDBRANCH   2  21
TORSDOF 5
ENDMDL
MODEL 3
REMARK VINA RESULT: -6.827803087      2.244      3.806
REMARK  5 active torsions:
REMARK  status: ('A' for Active; 'I' for Inactive)
REMARK    1  A    between atoms: C2_2  and  O1_3 
REMARK    2  A    between atoms: O1_3  and  C3_4 
REMARK    3  A    between atoms: C3_4  and  C4_6 
REMARK    4  A    between atoms: C5_7  and  C6_8 
REMARK    5  A    between atoms: C6_8  and  S1_10 
ROOT
HETATM    1  C4  UNL     1      58.613   9.633   4.339  1.00  0.00     0.107 C 
HETATM    2  C5  UNL     1      57.169   9.295   4.122  1.00  0.00     0.118 C 
HETATM    3  C7  UNL     1      56.268   9.827   5.161  1.00  0.00    -0.004 A 
HETATM    4  C8  UNL     1      54.875   9.851   5.167  1.00  0.00     0.117 A 
HETATM    5  N1  UNL     1      54.526  10.418   6.329  1.00  0.00    -0.309 N 
ATOM      6  H1  UNL     1      53.564  10.578   6.629  1.00  0.00     0.186 HD
HETATM    7  N2  UNL     1      55.591  10.741   7.034  1.00  0.00    -0.300 N 
HETATM    8  C9  UNL     1      55.544  11.360   8.324  1.00  0.00     0.177 C 
HETATM    9  C10 UNL     1      56.671  10.398   6.357  1.00  0.00     0.041 A 
HETATM   10  C11 UNL     1      58.168  10.472   6.534  1.00  0.00     0.043 C 
HETATM   11  C12 UNL     1      58.594  11.271   7.702  1.00  0.00     0.011 C 
HETATM   12  C13 UNL     1      60.060  11.676   7.554  1.00  0.00     0.001 C 
HETATM   13  C14 UNL     1      60.134  12.523   6.321  1.00  0.00     0.000 C 
HETATM   14  C15 UNL     1      59.950  11.629   5.123  1.00  0.00     0.006 C 
HETATM   15  C16 UNL     1      58.685  10.890   5.187  1.00  0.00     0.010 C 
ENDROOT
BRANCH   1  16
HETATM   16  C3  UNL     1      59.394   9.649   3.114  1.00  0.00     0.264 C 
HETATM   17  O2  UNL     1      58.911  10.006   2.032  1.00  0.00    -0.265 OA
BRANCH  16  18
HETATM   18  O1  UNL     1      60.738   9.259   3.088  1.00  0.00    -0.322 OA
BRANCH  18  19
HETATM   19  C2  UNL     1      61.592   9.678   2.027  1.00  0.00     0.174 C 
HETATM   20  C1  UNL     1      62.649  10.639   2.485  1.00  0.00     0.034 C 
ENDBRANCH  18  19
ENDBRANCH  16  18
ENDBRANCH   1  16
BRANCH   2  21
HETATM   21  C6  UNL     1      56.986   7.827   3.942  1.00  0.00     0.210 C 
HETATM   22  O3  UNL     1      57.525   7.067   4.705  1.00  0.00    -0.283 OA
BRANCH  21  23
HETATM   23  S1  UNL     1      55.968   7.269   2.593  1.00  0.00     0.019 SA
HETATM   24 CL1  UNL     1      57.068   7.494   0.810  1.00  0.00    -0.036 Cl
ENDBRANCH  21  23
ENDBRANCH   2  21
TORSDOF 5
ENDMDL
MODEL 4
REMARK VINA RESULT: -6.787534105      3.878      6.946
REMARK  5 active torsions:
REMARK  status: ('A' for Active; 'I' for Inactive)
REMARK    1  A    between atoms: C2_2  and  O1_3 
REMARK    2  A    between atoms: O1_3  and  C3_4 
REMARK    3  A    between atoms: C3_4  and  C4_6 
REMARK    4  A    between atoms: C5_7  and  C6_8 
REMARK    5  A    between atoms: C6_8  and  S1_10 
ROOT
HETATM    1  C4  UNL     1      55.415   9.320   5.327  1.00  0.00     0.107 C 
HETATM    2  C5  UNL     1      56.357   9.437   4.166  1.00  0.00     0.118 C 
HETATM    3  C7  UNL     1      55.759   9.064   2.871  1.00  0.00    -0.004 A 
HETATM    4  C8  UNL     1      56.292   9.229   1.594  1.00  0.00     0.117 A 
HETATM    5  N1  UNL     1      55.382   8.721   0.752  1.00  0.00    -0.309 N 
ATOM      6  H1  UNL     1      55.483   8.696  -0.263  1.00  0.00     0.186 HD
HETATM    7  N2  UNL     1      54.338   8.260   1.409  1.00  0.00    -0.300 N 
HETATM    8  C9  UNL     1      53.200   7.652   0.788  1.00  0.00     0.177 C 
HETATM    9  C10 UNL     1      54.529   8.451   2.702  1.00  0.00     0.041 A 
HETATM   10  C11 UNL     1      53.783   8.193   3.989  1.00  0.00     0.043 C 
HETATM   11  C12 UNL     1      52.390   7.741   3.794  1.00  0.00     0.011 C 
HETATM   12  C13 UNL     1      51.587   7.945   5.078  1.00  0.00     0.001 C 
HETATM   13  C14 UNL     1      51.596   9.420   5.342  1.00  0.00     0.000 C 
HETATM   14  C15 UNL     1      52.980   9.810   5.791  1.00  0.00     0.006 C 
HETATM   15  C16 UNL     1      53.996   9.440   4.800  1.00  0.00     0.010 C 
ENDROOT
BRANCH   1  16
HETATM   16  C3  UNL     1      55.755  10.191   6.438  1.00  0.00     0.264 C 
HETATM   17  O2  UNL     1      56.245  11.315   6.266  1.00  0.00    -0.265 OA
BRANCH  16  18
HETATM   18  O1  UNL     1      55.549   9.808   7.769  1.00  0.00    -0.322 OA
BRANCH  18  19
HETATM   19  C2  UNL     1      56.115  10.566   8.834  1.00  0.00     0.174 C 
HETATM   20  C1  UNL     1      56.054   9.845  10.148  1.00  0.00     0.034 C 
ENDBRANCH  18  19
ENDBRANCH  16  18
ENDBRANCH   1  16
BRANCH   2  21
HETATM   21  C6  UNL     1      57.616   8.681   4.422  1.00  0.00     0.210 C 
HETATM   22  O3  UNL     1      57.559   7.500   4.645  1.00  0.00    -0.283 OA
BRANCH  21  23
HETATM   23  S1  UNL     1      59.153   9.577   4.385  1.00  0.00     0.019 SA
HETATM   24 CL1  UNL     1      59.819   9.648   2.387  1.00  0.00    -0.036 Cl
ENDBRANCH  21  23
ENDBRANCH   2  21
TORSDOF 5
ENDMDL
MODEL 5
REMARK VINA RESULT: -6.753779213      3.000      5.046
REMARK  5 active torsions:
REMARK  status: ('A' for Active; 'I' for Inactive)
REMARK    1  A    between atoms: C2_2  and  O1_3 
REMARK    2  A    between atoms: O1_3  and  C3_4 
REMARK    3  A    between atoms: C3_4  and  C4_6 
REMARK    4  A    between atoms: C5_7  and  C6_8 
REMARK    5  A    between atoms: C6_8  and  S1_10 
ROOT
HETATM    1  C4  UNL     1      56.689   8.753   3.175  1.00  0.00     0.107 C 
HETATM    2  C5  UNL     1      55.564   8.327   2.280  1.00  0.00     0.118 C 
HETATM    3  C7  UNL     1      54.230   8.452   2.896  1.00  0.00    -0.004 A 
HETATM    4  C8  UNL     1      52.983   8.317   2.289  1.00  0.00     0.117 A 
HETATM    5  N1  UNL     1      52.083   8.503   3.263  1.00  0.00    -0.309 N 
ATOM      6  H1  UNL     1      51.072   8.467   3.131  1.00  0.00     0.186 HD
HETATM    7  N2  UNL     1      52.677   8.739   4.414  1.00  0.00    -0.300 N 
HETATM    8  C9  UNL     1      51.983   8.975   5.644  1.00  0.00     0.177 C 
HETATM    9  C10 UNL     1      53.984   8.717   4.232  1.00  0.00     0.041 A 
HETATM   10  C11 UNL     1      55.230   8.908   5.065  1.00  0.00     0.043 C 
HETATM   11  C12 UNL     1      54.966   9.401   6.432  1.00  0.00     0.011 C 
HETATM   12  C13 UNL     1      56.241   9.993   7.031  1.00  0.00     0.001 C 
HETATM   13  C14 UNL     1      56.616  11.146   6.152  1.00  0.00     0.000 C 
HETATM   14  C15 UNL     1      57.128  10.597   4.846  1.00  0.00     0.006 C 
HETATM   15  C16 UNL     1      56.138   9.732   4.197  1.00  0.00     0.010 C 
ENDROOT
BRANCH   1  16
HETATM   16  C3  UNL     1      57.871   9.189   2.453  1.00  0.00     0.264 C 
HETATM   17  O2  UNL     1      57.796   9.841   1.403  1.00  0.00    -0.265 OA
BRANCH  16  18
HETATM   18  O1  UNL     1      59.164   8.894   2.901  1.00  0.00    -0.322 OA
BRANCH  18  19
HETATM   19  C2  UNL     1      60.213   9.847   2.756  1.00  0.00     0.174 C 
HETATM   20  C1  UNL     1      60.802  10.260   4.072  1.00  0.00     0.034 C 
ENDBRANCH  18  19
ENDBRANCH  16  18
ENDBRANCH   1  16
BRANCH   2  21
HETATM   21  C6  UNL     1      55.794   6.952   1.752  1.00  0.00     0.210 C 
HETATM   22  O3  UNL     1      55.919   6.037   2.524  1.00  0.00    -0.283 OA
BRANCH  21  23
HETATM   23  S1  UNL     1      55.873   6.735  -0.013  1.00  0.00     0.019 SA
HETATM   24 CL1  UNL     1      56.951   4.967  -0.405  1.00  0.00    -0.036 Cl
ENDBRANCH  21  23
ENDBRANCH   2  21
TORSDOF 5
ENDMDL
