MODEL 1
REMARK VINA RESULT: -7.920585068      0.000      0.000
REMARK  4 active torsions:
REMARK  status: ('A' for Active; 'I' for Inactive)
REMARK    1  A    between atoms: C3_5  and  C4_6 
REMARK    2  A    between atoms: C4_6  and  N2_7 
REMARK    3  A    between atoms: C8_13  and  N4_14 
REMARK    4  A    between atoms: N4_14  and  C9_16 
ROOT
HETATM    1  N2  UNL     1      54.985   7.600   0.692  1.00  0.00    -0.371 N 
HETATM    2  C5  UNL     1      55.384   6.210   0.764  1.00  0.00     0.130 C 
HETATM    3  C6  UNL     1      56.811   6.215   0.247  1.00  0.00     0.080 C 
HETATM    4  C7  UNL     1      57.285   7.588   0.643  1.00  0.00     0.056 A 
HETATM    5  N3  UNL     1      58.500   8.135   0.780  1.00  0.00    -0.193 N 
ATOM      6  H3  UNL     1      59.324   7.563   0.593  1.00  0.00     0.184 HD
HETATM    7  C8  UNL     1      58.669   9.416   1.155  1.00  0.00     0.678 A 
HETATM    8  N5  UNL     1      57.596  10.197   1.408  1.00  0.00    -0.200 N 
ATOM      9  H5  UNL     1      57.723  11.168   1.692  1.00  0.00     0.183 HD
HETATM   10  C15 UNL     1      56.360   9.687   1.282  1.00  0.00     0.137 A 
HETATM   11  C16 UNL     1      56.172   8.355   0.892  1.00  0.00     0.070 A 
ENDROOT
BRANCH   1  12
HETATM   12  C4  UNL     1      53.682   8.146   0.469  1.00  0.00     0.201 C 
BRANCH  12  13
HETATM   13  C3  UNL     1      52.837   8.172   1.665  1.00  0.00     0.121 A 
HETATM   14  N1  UNL     1      52.968   8.954   2.740  1.00  0.00    -0.326 N 
HETATM   15  C2  UNL     1      51.972   8.661   3.630  1.00  0.00     0.144 A 
ATOM     16  H1  UNL     1      53.695   9.657   2.875  1.00  0.00     0.169 HD
HETATM   17  C1  UNL     1      51.759   9.306   4.952  1.00  0.00     0.100 C 
HETATM   18  O1  UNL     1      51.278   7.710   3.056  1.00  0.00    -0.223 OA
HETATM   19  N6  UNL     1      51.769   7.399   1.887  1.00  0.00    -0.245 N 
ATOM     20  H6  UNL     1      51.402   6.690   1.252  1.00  0.00     0.196 HD
ENDBRANCH  12  13
ENDBRANCH   1  12
BRANCH   7  21
HETATM   21  N4  UNL     1      59.838   9.945   1.287  1.00  0.00    -0.221 N 
ATOM     22  H4  UNL     1      60.153  10.634   0.604  1.00  0.00     0.178 HD
BRANCH  21  23
HETATM   23  C9  UNL     1      60.718   9.585   2.383  1.00  0.00     0.099 C 
HETATM   24  C10 UNL     1      62.093  10.184   2.242  1.00  0.00     0.027 C 
HETATM   25  C11 UNL     1      62.274  11.427   3.073  1.00  0.00     0.022 C 
HETATM   26  C12 UNL     1      62.054  11.176   4.541  1.00  0.00     0.082 C 
HETATM   27 CL1  UNL     1      61.495  12.703   5.269  1.00  0.00    -0.125 Cl
HETATM   28  C13 UNL     1      61.062  10.076   4.804  1.00  0.00     0.022 C 
HETATM   29  C14 UNL     1      60.056  10.007   3.673  1.00  0.00     0.027 C 
ENDBRANCH  21  23
ENDBRANCH   7  21
TORSDOF 4
ENDMDL
MODEL 2
REMARK VINA RESULT: -7.844645720      3.740      7.970
REMARK  4 active torsions:
REMARK  status: ('A' for Active; 'I' for Inactive)
REMARK    1  A    between atoms: C3_5  and  C4_6 
REMARK    2  A    between atoms: C4_6  and  N2_7 
REMARK    3  A    between atoms: C8_13  and  N4_14 
REMARK    4  A    between atoms: N4_14  and  C9_16 
ROOT
HETATM    1  N2  UNL     1      58.520   9.528   1.883  1.00  0.00    -0.371 N 
HETATM    2  C5  UNL     1      58.164  10.612   0.991  1.00  0.00     0.130 C 
HETATM    3  C6  UNL     1      56.872  10.141   0.346  1.00  0.00     0.080 C 
HETATM    4  C7  UNL     1      56.280   9.272   1.424  1.00  0.00     0.056 A 
HETATM    5  N3  UNL     1      55.044   8.809   1.652  1.00  0.00    -0.193 N 
ATOM      6  H3  UNL     1      54.297   9.053   1.003  1.00  0.00     0.184 HD
HETATM    7  C8  UNL     1      54.758   8.030   2.712  1.00  0.00     0.678 A 
HETATM    8  N5  UNL     1      55.729   7.690   3.587  1.00  0.00    -0.200 N 
ATOM      9  H5  UNL     1      55.513   7.100   4.391  1.00  0.00     0.183 HD
HETATM   10  C15 UNL     1      56.982   8.135   3.394  1.00  0.00     0.137 A 
HETATM   11  C16 UNL     1      57.292   8.945   2.296  1.00  0.00     0.070 A 
ENDROOT
BRANCH   1  12
HETATM   12  C4  UNL     1      59.821   9.099   2.292  1.00  0.00     0.201 C 
BRANCH  12  13
HETATM   13  C3  UNL     1      60.422   9.936   3.334  1.00  0.00     0.121 A 
HETATM   14  N1  UNL     1      59.848  10.381   4.455  1.00  0.00    -0.326 N 
HETATM   15  C2  UNL     1      60.754  11.130   5.154  1.00  0.00     0.144 A 
ATOM     16  H1  UNL     1      58.887  10.193   4.743  1.00  0.00     0.169 HD
HETATM   17  C1  UNL     1      60.514  11.805   6.456  1.00  0.00     0.100 C 
HETATM   18  O1  UNL     1      61.841  11.107   4.425  1.00  0.00    -0.223 OA
HETATM   19  N6  UNL     1      61.674  10.405   3.337  1.00  0.00    -0.245 N 
ATOM     20  H6  UNL     1      62.375  10.242   2.615  1.00  0.00     0.196 HD
ENDBRANCH  12  13
ENDBRANCH   1  12
BRANCH   7  21
HETATM   21  N4  UNL     1      53.569   7.583   2.934  1.00  0.00    -0.221 N 
ATOM     22  H4  UNL     1      53.443   6.597   3.163  1.00  0.00     0.178 HD
BRANCH  21  23
HETATM   23  C9  UNL     1      52.405   8.446   2.866  1.00  0.00     0.099 C 
HETATM   24  C10 UNL     1      51.110   7.679   2.948  1.00  0.00     0.027 C 
HETATM   25  C11 UNL     1      50.509   7.698   4.329  1.00  0.00     0.022 C 
HETATM   26  C12 UNL     1      50.223   9.094   4.815  1.00  0.00     0.082 C 
HETATM   27 CL1  UNL     1      50.314   9.073   6.593  1.00  0.00    -0.125 Cl
HETATM   28  C13 UNL     1      51.175  10.114   4.253  1.00  0.00     0.022 C 
HETATM   29  C14 UNL     1      52.516   9.470   3.971  1.00  0.00     0.027 C 
ENDBRANCH  21  23
ENDBRANCH   7  21
TORSDOF 4
ENDMDL
MODEL 3
REMARK VINA RESULT: -7.676525162      3.954      7.958
REMARK  4 active torsions:
REMARK  status: ('A' for Active; 'I' for Inactive)
REMARK    1  A    between atoms: C3_5  and  C4_6 
REMARK    2  A    between atoms: C4_6  and  N2_7 
REMARK    3  A    between atoms: C8_13  and  N4_14 
REMARK    4  A    between atoms: N4_14  and  C9_16 
ROOT
HETATM    1  N2  UNL     1      58.580   9.542   1.829  1.00  0.00    -0.371 N 
HETATM    2  C5  UNL     1      58.124  10.604   0.957  1.00  0.00     0.130 C 
HETATM    3  C6  UNL     1      56.808  10.082   0.408  1.00  0.00     0.080 C 
HETATM    4  C7  UNL     1      56.324   9.204   1.530  1.00  0.00     0.056 A 
HETATM    5  N3  UNL     1      55.124   8.699   1.848  1.00  0.00    -0.193 N 
ATOM      6  H3  UNL     1      54.325   8.911   1.250  1.00  0.00     0.184 HD
HETATM    7  C8  UNL     1      54.940   7.921   2.930  1.00  0.00     0.678 A 
HETATM    8  N5  UNL     1      55.982   7.623   3.738  1.00  0.00    -0.200 N 
ATOM      9  H5  UNL     1      55.843   7.034   4.558  1.00  0.00     0.183 HD
HETATM   10  C15 UNL     1      57.201   8.109   3.454  1.00  0.00     0.137 A 
HETATM   11  C16 UNL     1      57.405   8.920   2.331  1.00  0.00     0.070 A 
ENDROOT
BRANCH   1  12
HETATM   12  C4  UNL     1      59.921   9.162   2.149  1.00  0.00     0.201 C 
BRANCH  12  13
HETATM   13  C3  UNL     1      60.531   9.973   3.205  1.00  0.00     0.121 A 
HETATM   14  N1  UNL     1      59.969  10.388   4.343  1.00  0.00    -0.326 N 
HETATM   15  C2  UNL     1      60.882  11.121   5.051  1.00  0.00     0.144 A 
ATOM     16  H1  UNL     1      59.013  10.190   4.638  1.00  0.00     0.169 HD
HETATM   17  C1  UNL     1      60.656  11.763   6.372  1.00  0.00     0.100 C 
HETATM   18  O1  UNL     1      61.961  11.120   4.309  1.00  0.00    -0.223 OA
HETATM   19  N6  UNL     1      61.782  10.446   3.205  1.00  0.00    -0.245 N 
ATOM     20  H6  UNL     1      62.476  10.303   2.471  1.00  0.00     0.196 HD
ENDBRANCH  12  13
ENDBRANCH   1  12
BRANCH   7  21
HETATM   21  N4  UNL     1      53.786   7.434   3.237  1.00  0.00    -0.221 N 
ATOM     22  H4  UNL     1      53.362   6.736   2.627  1.00  0.00     0.178 HD
BRANCH  21  23
HETATM   23  C9  UNL     1      53.075   7.854   4.430  1.00  0.00     0.099 C 
HETATM   24  C10 UNL     1      52.890   9.348   4.498  1.00  0.00     0.027 C 
HETATM   25  C11 UNL     1      51.520   9.785   4.050  1.00  0.00     0.022 C 
HETATM   26  C12 UNL     1      50.420   9.170   4.873  1.00  0.00     0.082 C 
HETATM   27 CL1  UNL     1      48.971   9.067   3.841  1.00  0.00    -0.125 Cl
HETATM   28  C13 UNL     1      50.781   7.811   5.407  1.00  0.00     0.022 C 
HETATM   29  C14 UNL     1      51.752   7.127   4.468  1.00  0.00     0.027 C 
ENDBRANCH  21  23
ENDBRANCH   7  21
TORSDOF 4
ENDMDL
MODEL 4
REMARK VINA RESULT: -7.624141674      4.109      8.272
REMARK  4 active torsions:
REMARK  status: ('A' for Active; 'I' for Inactive)
REMARK    1  A    between atoms: C3_5  and  C4_6 
REMARK    2  A    between atoms: C4_6  and  N2_7 
REMARK    3  A    between atoms: C8_13  and  N4_14 
REMARK    4  A    between atoms: N4_14  and  C9_16 
ROOT
HETATM    1  N2  UNL     1      58.634   9.601   1.932  1.00  0.00    -0.371 N 
HETATM    2  C5  UNL     1      58.186  10.535   0.921  1.00  0.00     0.130 C 
HETATM    3  C6  UNL     1      56.741  10.139   0.677  1.00  0.00     0.080 C 
HETATM    4  C7  UNL     1      56.335   9.585   2.016  1.00  0.00     0.056 A 
HETATM    5  N3  UNL     1      55.148   9.354   2.592  1.00  0.00    -0.193 N 
ATOM      6  H3  UNL     1      54.297   9.575   2.075  1.00  0.00     0.184 HD
HETATM    7  C8  UNL     1      55.043   8.840   3.831  1.00  0.00     0.678 A 
HETATM    8  N5  UNL     1      56.154   8.538   4.538  1.00  0.00    -0.200 N 
ATOM      9  H5  UNL     1      56.075   8.149   5.477  1.00  0.00     0.183 HD
HETATM   10  C15 UNL     1      57.364   8.754   3.996  1.00  0.00     0.137 A 
HETATM   11  C16 UNL     1      57.486   9.289   2.708  1.00  0.00     0.070 A 
ENDROOT
BRANCH   1  12
HETATM   12  C4  UNL     1      59.947   9.076   2.145  1.00  0.00     0.201 C 
BRANCH  12  13
HETATM   13  C3  UNL     1      60.798   9.926   2.982  1.00  0.00     0.121 A 
HETATM   14  N1  UNL     1      60.520  10.417   4.193  1.00  0.00    -0.326 N 
HETATM   15  C2  UNL     1      61.583  11.162   4.627  1.00  0.00     0.144 A 
ATOM     16  H1  UNL     1      59.655  10.263   4.711  1.00  0.00     0.169 HD
HETATM   17  C1  UNL     1      61.678  11.880   5.925  1.00  0.00     0.100 C 
HETATM   18  O1  UNL     1      62.461  11.091   3.658  1.00  0.00    -0.223 OA
HETATM   19  N6  UNL     1      62.021  10.363   2.667  1.00  0.00    -0.245 N 
ATOM     20  H6  UNL     1      62.524  10.161   1.802  1.00  0.00     0.196 HD
ENDBRANCH  12  13
ENDBRANCH   1  12
BRANCH   7  21
HETATM   21  N4  UNL     1      53.900   8.617   4.388  1.00  0.00    -0.221 N 
ATOM     22  H4  UNL     1      53.835   7.917   5.126  1.00  0.00     0.178 HD
BRANCH  21  23
HETATM   23  C9  UNL     1      52.706   9.339   3.991  1.00  0.00     0.099 C 
HETATM   24  C10 UNL     1      51.778   8.502   3.148  1.00  0.00     0.027 C 
HETATM   25  C11 UNL     1      50.640   7.917   3.941  1.00  0.00     0.022 C 
HETATM   26  C12 UNL     1      49.796   8.972   4.605  1.00  0.00     0.082 C 
HETATM   27 CL1  UNL     1      49.077   8.246   6.063  1.00  0.00    -0.125 Cl
HETATM   28  C13 UNL     1      50.579  10.205   4.964  1.00  0.00     0.022 C 
HETATM   29  C14 UNL     1      52.023   9.838   5.241  1.00  0.00     0.027 C 
ENDBRANCH  21  23
ENDBRANCH   7  21
TORSDOF 4
ENDMDL
MODEL 5
REMARK VINA RESULT: -7.526334572      5.093      6.845
REMARK  4 active torsions:
REMARK  status: ('A' for Active; 'I' for Inactive)
REMARK    1  A    between atoms: C3_5  and  C4_6 
REMARK    2  A    between atoms: C4_6  and  N2_7 
REMARK    3  A    between atoms: C8_13  and  N4_14 
REMARK    4  A    between atoms: N4_14  and  C9_16 
ROOT
HETATM    1  N2  UNL     1      55.762   8.232   4.143  1.00  0.00    -0.371 N 
HETATM    2  C5  UNL     1      57.203   8.098   4.201  1.00  0.00     0.130 C 
HETATM    3  C6  UNL     1      57.667   9.422   4.783  1.00  0.00     0.080 C 
HETATM    4  C7  UNL     1      56.495   9.816   5.642  1.00  0.00     0.056 A 
HETATM    5  N3  UNL     1      56.350  10.681   6.655  1.00  0.00    -0.193 N 
ATOM      6  H3  UNL     1      57.159  11.221   6.963  1.00  0.00     0.184 HD
HETATM    7  C8  UNL     1      55.171  10.860   7.278  1.00  0.00     0.678 A 
HETATM    8  N5  UNL     1      54.084  10.158   6.890  1.00  0.00    -0.200 N 
ATOM      9  H5  UNL     1      53.190  10.294   7.361  1.00  0.00     0.183 HD
HETATM   10  C15 UNL     1      54.187   9.281   5.878  1.00  0.00     0.137 A 
HETATM   11  C16 UNL     1      55.408   9.087   5.222  1.00  0.00     0.070 A 
ENDROOT
BRANCH   1  12
HETATM   12  C4  UNL     1      54.847   7.646   3.214  1.00  0.00     0.201 C 
BRANCH  12  13
HETATM   13  C3  UNL     1      55.483   7.131   1.999  1.00  0.00     0.121 A 
HETATM   14  N1  UNL     1      56.036   5.929   1.813  1.00  0.00    -0.326 N 
HETATM   15  C2  UNL     1      56.517   5.852   0.535  1.00  0.00     0.144 A 
ATOM     16  H1  UNL     1      56.090   5.189   2.512  1.00  0.00     0.169 HD
HETATM   17  C1  UNL     1      57.204   4.683  -0.074  1.00  0.00     0.100 C 
HETATM   18  O1  UNL     1      56.235   7.013  -0.001  1.00  0.00    -0.223 OA
HETATM   19  N6  UNL     1      55.621   7.794   0.846  1.00  0.00    -0.245 N 
ATOM     20  H6  UNL     1      55.302   8.745   0.661  1.00  0.00     0.196 HD
ENDBRANCH  12  13
ENDBRANCH   1  12
BRANCH   7  21
HETATM   21  N4  UNL     1      55.030  11.692   8.254  1.00  0.00    -0.221 N 
ATOM     22  H4  UNL     1      54.739  12.649   8.053  1.00  0.00     0.178 HD
BRANCH  21  23
HETATM   23  C9  UNL     1      55.272  11.302   9.630  1.00  0.00     0.099 C 
HETATM   24  C10 UNL     1      56.717  10.962   9.888  1.00  0.00     0.027 C 
HETATM   25  C11 UNL     1      57.476  12.095  10.528  1.00  0.00     0.022 C 
HETATM   26  C12 UNL     1      56.883  12.515  11.846  1.00  0.00     0.082 C 
HETATM   27 CL1  UNL     1      57.275  14.236  12.087  1.00  0.00    -0.125 Cl
HETATM   28  C13 UNL     1      55.395  12.303  11.911  1.00  0.00     0.022 C 
HETATM   29  C14 UNL     1      54.795  12.421  10.525  1.00  0.00     0.027 C 
ENDBRANCH  21  23
ENDBRANCH   7  21
TORSDOF 4
ENDMDL
