MODEL 1
REMARK VINA RESULT: -7.021310420      0.000      0.000
REMARK  14 active torsions:
REMARK  status: ('A' for Active; 'I' for Inactive)
REMARK    1  A    between atoms: C2_2  and  N1_3 
REMARK    2  A    between atoms: N1_3  and  C3_6 
REMARK    3  A    between atoms: C3_6  and  C4_7 
REMARK    4  A    between atoms: C4_7  and  C5_8 
REMARK    5  A    between atoms: C5_8  and  C6_9 
REMARK    6  A    between atoms: C6_9  and  C7_10 
REMARK    7  A    between atoms: C9_13  and  N2_14 
REMARK    8  A    between atoms: C12_21  and  C14_23 
REMARK       I    between atoms: C14_23  and  N4_25 
REMARK       I    between atoms: N5_28  and  C17_29 
REMARK    9  A    between atoms: C17_29  and  C18_31 
REMARK   10  A    between atoms: C21_34  and  O3_35 
REMARK   11  A    between atoms: O3_35  and  C22_36 
REMARK   12  A    between atoms: C24_38  and  C25_39 
REMARK   13  A    between atoms: C25_39  and  O5_41 
REMARK   14  A    between atoms: O5_41  and  C26_42 
ROOT
HETATM    1  C7  UNL     1       9.889 -15.150  -0.683  1.00  0.00     0.042 C 
HETATM    2  C8  UNL     1       8.861 -16.208  -0.431  1.00  0.00     0.014 A 
HETATM    3  S1  UNL     1       7.263 -16.643  -0.806  1.00  0.00    -0.057 SA
HETATM    4  C9  UNL     1       7.151 -18.066   0.124  1.00  0.00     0.142 A 
HETATM    5  N3  UNL     1       8.354 -18.141   0.682  1.00  0.00    -0.340 N 
ATOM      6  H3  UNL     1       8.582 -18.913   1.309  1.00  0.00     0.168 HD
HETATM    7  C10 UNL     1       9.246 -17.218   0.425  1.00  0.00     0.026 A 
HETATM    8  C11 UNL     1      10.684 -17.077   0.914  1.00  0.00     0.078 C 
HETATM    9  C12 UNL     1      10.853 -15.714   1.515  1.00  0.00     0.056 C 
HETATM   10  C13 UNL     1      12.361 -15.435   1.434  1.00  0.00     0.027 C 
HETATM   11  C24 UNL     1      10.221 -14.599   0.711  1.00  0.00     0.112 C 
ENDROOT
BRANCH   9  12
HETATM   12  C14 UNL     1      10.329 -15.710   2.883  1.00  0.00     0.231 C 
HETATM   13  O1  UNL     1       9.096 -16.095   2.993  1.00  0.00    -0.272 OA
HETATM   14  N4  UNL     1      10.941 -15.363   4.083  1.00  0.00    -0.322 N 
HETATM   15  C15 UNL     1      12.294 -14.856   4.170  1.00  0.00     0.148 C 
HETATM   16  C21 UNL     1      10.259 -15.484   5.384  1.00  0.00     0.243 C 
HETATM   17  C16 UNL     1      12.736 -14.597   5.617  1.00  0.00     0.146 C 
HETATM   18  N5  UNL     1      11.750 -13.736   6.231  1.00  0.00    -0.346 N 
HETATM   19  C17 UNL     1      12.043 -12.621   7.050  1.00  0.00     0.219 C 
HETATM   20  C20 UNL     1      10.355 -14.062   5.973  1.00  0.00     0.179 C 
HETATM   21  O2  UNL     1      11.066 -11.959   7.522  1.00  0.00    -0.273 OA
BRANCH  19  22
HETATM   22  C18 UNL     1      13.424 -12.215   7.366  1.00  0.00     0.098 C 
HETATM   23  C19 UNL     1      13.796 -10.877   6.764  1.00  0.00     0.014 C 
ENDBRANCH  19  22
BRANCH  16  24
HETATM   24  O3  UNL     1       8.948 -15.793   5.326  1.00  0.00    -0.365 OA
BRANCH  24  25
HETATM   25  C22 UNL     1       8.450 -16.586   6.327  1.00  0.00     0.166 C 
HETATM   26  C23 UNL     1       8.533 -16.095   7.714  1.00  0.00     0.033 C 
ENDBRANCH  24  25
ENDBRANCH  16  24
ENDBRANCH   9  12
BRANCH  11  27
HETATM   27  C25 UNL     1      10.887 -13.323   0.718  1.00  0.00     0.265 C 
HETATM   28  O4  UNL     1      11.086 -12.717  -0.402  1.00  0.00    -0.265 OA
BRANCH  27  29
HETATM   29  O5  UNL     1      11.372 -12.615   1.811  1.00  0.00    -0.322 OA
BRANCH  29  30
HETATM   30  C26 UNL     1      12.534 -11.833   1.786  1.00  0.00     0.174 C 
HETATM   31  C27 UNL     1      13.093 -11.517   3.139  1.00  0.00     0.034 C 
ENDBRANCH  29  30
ENDBRANCH  27  29
ENDBRANCH  11  27
BRANCH   1  32
HETATM   32  C6  UNL     1       9.376 -14.136  -1.621  1.00  0.00     0.011 C 
BRANCH  32  33
HETATM   33  C5  UNL     1       9.491 -14.619  -3.039  1.00  0.00     0.002 C 
BRANCH  33  34
HETATM   34  C4  UNL     1       8.197 -14.476  -3.815  1.00  0.00     0.027 C 
BRANCH  34  35
HETATM   35  C3  UNL     1       7.770 -15.732  -4.516  1.00  0.00     0.232 C 
BRANCH  35  36
HETATM   36  N1  UNL     1       8.943 -16.245  -5.201  1.00  0.00    -0.075 N 
ATOM     37  H12 UNL     1       9.463 -16.884  -4.600  1.00  0.00     0.277 HD
ATOM     38  H11 UNL     1       9.645 -15.514  -5.317  1.00  0.00     0.277 HD
BRANCH  36  39
HETATM   39  C2  UNL     1       8.637 -16.861  -6.456  1.00  0.00     0.228 C 
HETATM   40  C1  UNL     1       8.807 -15.776  -7.527  1.00  0.00     0.034 C 
ENDBRANCH  36  39
ENDBRANCH  35  36
ENDBRANCH  34  35
ENDBRANCH  33  34
ENDBRANCH  32  33
ENDBRANCH   1  32
BRANCH   4  41
HETATM   41  N2  UNL     1       6.139 -18.899   0.271  1.00  0.00    -0.380 N 
ATOM     42  H22 UNL     1       5.563 -19.317  -0.460  1.00  0.00     0.158 HD
ATOM     43  H21 UNL     1       5.734 -19.288   1.122  1.00  0.00     0.158 HD
ENDBRANCH   4  41
TORSDOF 14
ENDMDL
MODEL 2
REMARK VINA RESULT: -7.019757356      5.471     11.129
REMARK  14 active torsions:
REMARK  status: ('A' for Active; 'I' for Inactive)
REMARK    1  A    between atoms: C2_2  and  N1_3 
REMARK    2  A    between atoms: N1_3  and  C3_6 
REMARK    3  A    between atoms: C3_6  and  C4_7 
REMARK    4  A    between atoms: C4_7  and  C5_8 
REMARK    5  A    between atoms: C5_8  and  C6_9 
REMARK    6  A    between atoms: C6_9  and  C7_10 
REMARK    7  A    between atoms: C9_13  and  N2_14 
REMARK    8  A    between atoms: C12_21  and  C14_23 
REMARK       I    between atoms: C14_23  and  N4_25 
REMARK       I    between atoms: N5_28  and  C17_29 
REMARK    9  A    between atoms: C17_29  and  C18_31 
REMARK   10  A    between atoms: C21_34  and  O3_35 
REMARK   11  A    between atoms: O3_35  and  C22_36 
REMARK   12  A    between atoms: C24_38  and  C25_39 
REMARK   13  A    between atoms: C25_39  and  O5_41 
REMARK   14  A    between atoms: O5_41  and  C26_42 
ROOT
HETATM    1  C7  UNL     1       7.798 -17.143  -3.397  1.00  0.00     0.042 C 
HETATM    2  C8  UNL     1       8.325 -16.627  -4.700  1.00  0.00     0.014 A 
HETATM    3  S1  UNL     1       9.345 -15.441  -5.360  1.00  0.00    -0.057 SA
HETATM    4  C9  UNL     1       9.122 -15.790  -7.012  1.00  0.00     0.142 A 
HETATM    5  N3  UNL     1       8.269 -16.808  -6.979  1.00  0.00    -0.340 N 
ATOM      6  H3  UNL     1       7.948 -17.236  -7.848  1.00  0.00     0.168 HD
HETATM    7  C10 UNL     1       7.844 -17.259  -5.827  1.00  0.00     0.026 A 
HETATM    8  C11 UNL     1       6.891 -18.408  -5.512  1.00  0.00     0.078 C 
HETATM    9  C12 UNL     1       5.797 -17.893  -4.627  1.00  0.00     0.056 C 
HETATM   10  C13 UNL     1       5.260 -19.137  -3.904  1.00  0.00     0.027 C 
HETATM   11  C24 UNL     1       6.274 -16.988  -3.512  1.00  0.00     0.112 C 
ENDROOT
BRANCH   9  12
HETATM   12  C14 UNL     1       4.789 -17.206  -5.438  1.00  0.00     0.231 C 
HETATM   13  O1  UNL     1       5.266 -16.359  -6.294  1.00  0.00    -0.272 OA
HETATM   14  N4  UNL     1       3.402 -17.319  -5.440  1.00  0.00    -0.322 N 
HETATM   15  C15 UNL     1       2.670 -18.167  -4.523  1.00  0.00     0.148 C 
HETATM   16  C21 UNL     1       2.548 -16.577  -6.386  1.00  0.00     0.243 C 
HETATM   17  C16 UNL     1       1.156 -18.139  -4.774  1.00  0.00     0.146 C 
HETATM   18  N5  UNL     1       0.732 -16.756  -4.753  1.00  0.00    -0.346 N 
HETATM   19  C17 UNL     1      -0.425 -16.272  -4.102  1.00  0.00     0.219 C 
HETATM   20  C20 UNL     1       1.577 -15.809  -5.467  1.00  0.00     0.179 C 
HETATM   21  O2  UNL     1      -0.669 -15.027  -4.175  1.00  0.00    -0.273 OA
BRANCH  19  22
HETATM   22  C18 UNL     1      -1.340 -17.154  -3.356  1.00  0.00     0.098 C 
HETATM   23  C19 UNL     1      -2.468 -17.690  -4.211  1.00  0.00     0.014 C 
ENDBRANCH  19  22
BRANCH  16  24
HETATM   24  O3  UNL     1       3.181 -15.656  -7.139  1.00  0.00    -0.365 OA
BRANCH  24  25
HETATM   25  C22 UNL     1       2.638 -15.374  -8.366  1.00  0.00     0.166 C 
HETATM   26  C23 UNL     1       3.548 -15.231  -9.517  1.00  0.00     0.033 C 
ENDBRANCH  24  25
ENDBRANCH  16  24
ENDBRANCH   9  12
BRANCH  11  27
HETATM   27  C25 UNL     1       5.561 -17.048  -2.264  1.00  0.00     0.265 C 
HETATM   28  O4  UNL     1       4.416 -16.463  -2.171  1.00  0.00    -0.265 OA
BRANCH  27  29
HETATM   29  O5  UNL     1       5.946 -17.675  -1.085  1.00  0.00    -0.322 OA
BRANCH  29  30
HETATM   30  C26 UNL     1       5.523 -17.277   0.189  1.00  0.00     0.174 C 
HETATM   31  C27 UNL     1       6.346 -16.183   0.796  1.00  0.00     0.034 C 
ENDBRANCH  29  30
ENDBRANCH  27  29
ENDBRANCH  11  27
BRANCH   1  32
HETATM   32  C6  UNL     1       8.390 -16.408  -2.266  1.00  0.00     0.011 C 
BRANCH  32  33
HETATM   33  C5  UNL     1       9.659 -17.072  -1.809  1.00  0.00     0.002 C 
BRANCH  33  34
HETATM   34  C4  UNL     1       9.553 -17.642  -0.409  1.00  0.00     0.027 C 
BRANCH  34  35
HETATM   35  C3  UNL     1      10.224 -16.802   0.638  1.00  0.00     0.232 C 
BRANCH  35  36
HETATM   36  N1  UNL     1      11.247 -16.029  -0.042  1.00  0.00    -0.075 N 
ATOM     37  H12 UNL     1      11.061 -15.983  -1.044  1.00  0.00     0.277 HD
ATOM     38  H11 UNL     1      12.133 -16.534  -0.060  1.00  0.00     0.277 HD
BRANCH  36  39
HETATM   39  C2  UNL     1      11.418 -14.718   0.506  1.00  0.00     0.228 C 
HETATM   40  C1  UNL     1      10.465 -13.795  -0.265  1.00  0.00     0.034 C 
ENDBRANCH  36  39
ENDBRANCH  35  36
ENDBRANCH  34  35
ENDBRANCH  33  34
ENDBRANCH  32  33
ENDBRANCH   1  32
BRANCH   4  41
HETATM   41  N2  UNL     1       9.649 -15.211  -8.074  1.00  0.00    -0.380 N 
ATOM     42  H22 UNL     1      10.601 -15.302  -8.427  1.00  0.00     0.158 HD
ATOM     43  H21 UNL     1       9.224 -14.569  -8.744  1.00  0.00     0.158 HD
ENDBRANCH   4  41
TORSDOF 14
ENDMDL
MODEL 3
REMARK VINA RESULT: -6.940921080      5.471     11.206
REMARK  14 active torsions:
REMARK  status: ('A' for Active; 'I' for Inactive)
REMARK    1  A    between atoms: C2_2  and  N1_3 
REMARK    2  A    between atoms: N1_3  and  C3_6 
REMARK    3  A    between atoms: C3_6  and  C4_7 
REMARK    4  A    between atoms: C4_7  and  C5_8 
REMARK    5  A    between atoms: C5_8  and  C6_9 
REMARK    6  A    between atoms: C6_9  and  C7_10 
REMARK    7  A    between atoms: C9_13  and  N2_14 
REMARK    8  A    between atoms: C12_21  and  C14_23 
REMARK       I    between atoms: C14_23  and  N4_25 
REMARK       I    between atoms: N5_28  and  C17_29 
REMARK    9  A    between atoms: C17_29  and  C18_31 
REMARK   10  A    between atoms: C21_34  and  O3_35 
REMARK   11  A    between atoms: O3_35  and  C22_36 
REMARK   12  A    between atoms: C24_38  and  C25_39 
REMARK   13  A    between atoms: C25_39  and  O5_41 
REMARK   14  A    between atoms: O5_41  and  C26_42 
ROOT
HETATM    1  C7  UNL     1       7.718 -17.107  -3.127  1.00  0.00     0.042 C 
HETATM    2  C8  UNL     1       8.261 -16.644  -4.443  1.00  0.00     0.014 A 
HETATM    3  S1  UNL     1       9.275 -15.474  -5.141  1.00  0.00    -0.057 SA
HETATM    4  C9  UNL     1       9.088 -15.905  -6.778  1.00  0.00     0.142 A 
HETATM    5  N3  UNL     1       8.251 -16.934  -6.712  1.00  0.00    -0.340 N 
ATOM      6  H3  UNL     1       7.952 -17.408  -7.565  1.00  0.00     0.168 HD
HETATM    7  C10 UNL     1       7.811 -17.337  -5.548  1.00  0.00     0.026 A 
HETATM    8  C11 UNL     1       6.871 -18.485  -5.196  1.00  0.00     0.078 C 
HETATM    9  C12 UNL     1       5.753 -17.947  -4.356  1.00  0.00     0.056 C 
HETATM   10  C13 UNL     1       5.221 -19.163  -3.584  1.00  0.00     0.027 C 
HETATM   11  C24 UNL     1       6.195 -16.982  -3.277  1.00  0.00     0.112 C 
ENDROOT
BRANCH   9  12
HETATM   12  C14 UNL     1       4.749 -17.315  -5.216  1.00  0.00     0.231 C 
HETATM   13  O1  UNL     1       5.230 -16.503  -6.105  1.00  0.00    -0.272 OA
HETATM   14  N4  UNL     1       3.364 -17.449  -5.236  1.00  0.00    -0.322 N 
HETATM   15  C15 UNL     1       2.628 -18.262  -4.291  1.00  0.00     0.148 C 
HETATM   16  C21 UNL     1       2.517 -16.767  -6.232  1.00  0.00     0.243 C 
HETATM   17  C16 UNL     1       1.118 -18.269  -4.568  1.00  0.00     0.146 C 
HETATM   18  N5  UNL     1       0.675 -16.893  -4.623  1.00  0.00    -0.346 N 
HETATM   19  C17 UNL     1      -0.500 -16.395  -4.015  1.00  0.00     0.219 C 
HETATM   20  C20 UNL     1       1.519 -15.970  -5.367  1.00  0.00     0.179 C 
HETATM   21  O2  UNL     1      -0.761 -15.159  -4.153  1.00  0.00    -0.273 OA
BRANCH  19  22
HETATM   22  C18 UNL     1      -1.415 -17.254  -3.242  1.00  0.00     0.098 C 
HETATM   23  C19 UNL     1      -2.468 -17.917  -4.104  1.00  0.00     0.014 C 
ENDBRANCH  19  22
BRANCH  16  24
HETATM   24  O3  UNL     1       3.149 -15.874  -7.018  1.00  0.00    -0.365 OA
BRANCH  24  25
HETATM   25  C22 UNL     1       2.440 -15.359  -8.072  1.00  0.00     0.166 C 
HETATM   26  C23 UNL     1       3.171 -15.016  -9.305  1.00  0.00     0.033 C 
ENDBRANCH  24  25
ENDBRANCH  16  24
ENDBRANCH   9  12
BRANCH  11  27
HETATM   27  C25 UNL     1       5.460 -16.995  -2.040  1.00  0.00     0.265 C 
HETATM   28  O4  UNL     1       4.328 -16.381  -1.981  1.00  0.00    -0.265 OA
BRANCH  27  29
HETATM   29  O5  UNL     1       5.810 -17.601  -0.840  1.00  0.00    -0.322 OA
BRANCH  29  30
HETATM   30  C26 UNL     1       5.430 -17.123   0.420  1.00  0.00     0.174 C 
HETATM   31  C27 UNL     1       6.350 -16.087   0.989  1.00  0.00     0.034 C 
ENDBRANCH  29  30
ENDBRANCH  27  29
ENDBRANCH  11  27
BRANCH   1  32
HETATM   32  C6  UNL     1       8.279 -16.310  -2.022  1.00  0.00     0.011 C 
BRANCH  32  33
HETATM   33  C5  UNL     1       9.583 -16.893  -1.556  1.00  0.00     0.002 C 
BRANCH  33  34
HETATM   34  C4  UNL     1       9.485 -17.530  -0.185  1.00  0.00     0.027 C 
BRANCH  34  35
HETATM   35  C3  UNL     1      10.600 -17.144   0.743  1.00  0.00     0.232 C 
BRANCH  35  36
HETATM   36  N1  UNL     1      10.136 -17.426   2.089  1.00  0.00    -0.075 N 
ATOM     37  H12 UNL     1      10.673 -18.186   2.507  1.00  0.00     0.277 HD
ATOM     38  H11 UNL     1       9.214 -17.863   2.073  1.00  0.00     0.277 HD
BRANCH  36  39
HETATM   39  C2  UNL     1      10.139 -16.274   2.938  1.00  0.00     0.228 C 
HETATM   40  C1  UNL     1       8.834 -16.321   3.742  1.00  0.00     0.034 C 
ENDBRANCH  36  39
ENDBRANCH  35  36
ENDBRANCH  34  35
ENDBRANCH  33  34
ENDBRANCH  32  33
ENDBRANCH   1  32
BRANCH   4  41
HETATM   41  N2  UNL     1       9.626 -15.368  -7.857  1.00  0.00    -0.380 N 
ATOM     42  H22 UNL     1       9.436 -14.450  -8.259  1.00  0.00     0.158 HD
ATOM     43  H21 UNL     1      10.324 -15.749  -8.495  1.00  0.00     0.158 HD
ENDBRANCH   4  41
TORSDOF 14
ENDMDL
MODEL 4
REMARK VINA RESULT: -6.808276951      3.409     10.073
REMARK  14 active torsions:
REMARK  status: ('A' for Active; 'I' for Inactive)
REMARK    1  A    between atoms: C2_2  and  N1_3 
REMARK    2  A    between atoms: N1_3  and  C3_6 
REMARK    3  A    between atoms: C3_6  and  C4_7 
REMARK    4  A    between atoms: C4_7  and  C5_8 
REMARK    5  A    between atoms: C5_8  and  C6_9 
REMARK    6  A    between atoms: C6_9  and  C7_10 
REMARK    7  A    between atoms: C9_13  and  N2_14 
REMARK    8  A    between atoms: C12_21  and  C14_23 
REMARK       I    between atoms: C14_23  and  N4_25 
REMARK       I    between atoms: N5_28  and  C17_29 
REMARK    9  A    between atoms: C17_29  and  C18_31 
REMARK   10  A    between atoms: C21_34  and  O3_35 
REMARK   11  A    between atoms: O3_35  and  C22_36 
REMARK   12  A    between atoms: C24_38  and  C25_39 
REMARK   13  A    between atoms: C25_39  and  O5_41 
REMARK   14  A    between atoms: O5_41  and  C26_42 
ROOT
HETATM    1  C7  UNL     1       8.345 -16.151   1.406  1.00  0.00     0.042 C 
HETATM    2  C8  UNL     1       9.765 -15.780   1.110  1.00  0.00     0.014 A 
HETATM    3  S1  UNL     1      10.945 -14.608   1.451  1.00  0.00    -0.057 SA
HETATM    4  C9  UNL     1      12.207 -15.212   0.480  1.00  0.00     0.142 A 
HETATM    5  N3  UNL     1      11.660 -16.294  -0.064  1.00  0.00    -0.340 N 
ATOM      6  H3  UNL     1      12.199 -16.873  -0.708  1.00  0.00     0.168 HD
HETATM    7  C10 UNL     1      10.426 -16.613   0.232  1.00  0.00     0.026 A 
HETATM    8  C11 UNL     1       9.577 -17.792  -0.233  1.00  0.00     0.078 C 
HETATM    9  C12 UNL     1       8.291 -17.263  -0.793  1.00  0.00     0.056 C 
HETATM   10  C13 UNL     1       7.305 -18.436  -0.684  1.00  0.00     0.027 C 
HETATM   11  C24 UNL     1       7.659 -16.164   0.033  1.00  0.00     0.112 C 
ENDROOT
BRANCH   9  12
HETATM   12  C14 UNL     1       8.503 -16.803  -2.168  1.00  0.00     0.231 C 
HETATM   13  O1  UNL     1       9.433 -15.910  -2.303  1.00  0.00    -0.272 OA
HETATM   14  N4  UNL     1       7.872 -17.172  -3.351  1.00  0.00    -0.322 N 
HETATM   15  C15 UNL     1       6.772 -18.111  -3.409  1.00  0.00     0.148 C 
HETATM   16  C21 UNL     1       8.273 -16.634  -4.664  1.00  0.00     0.243 C 
HETATM   17  C16 UNL     1       6.293 -18.373  -4.843  1.00  0.00     0.146 C 
HETATM   18  N5  UNL     1       6.000 -17.094  -5.450  1.00  0.00    -0.346 N 
HETATM   19  C17 UNL     1       4.861 -16.812  -6.238  1.00  0.00     0.219 C 
HETATM   20  C20 UNL     1       6.966 -16.030  -5.218  1.00  0.00     0.179 C 
HETATM   21  O2  UNL     1       4.741 -15.637  -6.708  1.00  0.00    -0.273 OA
BRANCH  19  22
HETATM   22  C18 UNL     1       3.829 -17.824  -6.527  1.00  0.00     0.098 C 
HETATM   23  C19 UNL     1       2.491 -17.495  -5.902  1.00  0.00     0.014 C 
ENDBRANCH  19  22
BRANCH  16  24
HETATM   24  O3  UNL     1       9.178 -15.636  -4.631  1.00  0.00    -0.365 OA
BRANCH  24  25
HETATM   25  C22 UNL     1      10.131 -15.626  -5.616  1.00  0.00     0.166 C 
HETATM   26  C23 UNL     1       9.694 -15.419  -7.008  1.00  0.00     0.033 C 
ENDBRANCH  24  25
ENDBRANCH  16  24
ENDBRANCH   9  12
BRANCH  11  27
HETATM   27  C25 UNL     1       6.221 -16.112   0.070  1.00  0.00     0.265 C 
HETATM   28  O4  UNL     1       5.630 -16.028   1.212  1.00  0.00    -0.265 OA
BRANCH  27  29
HETATM   29  O5  UNL     1       5.334 -16.141  -0.998  1.00  0.00    -0.322 OA
BRANCH  29  30
HETATM   30  C26 UNL     1       4.071 -16.745  -0.952  1.00  0.00     0.174 C 
HETATM   31  C27 UNL     1       3.528 -17.139  -2.292  1.00  0.00     0.034 C 
ENDBRANCH  29  30
ENDBRANCH  27  29
ENDBRANCH  11  27
BRANCH   1  32
HETATM   32  C6  UNL     1       7.747 -15.206   2.365  1.00  0.00     0.011 C 
BRANCH  32  33
HETATM   33  C5  UNL     1       8.323 -15.408   3.738  1.00  0.00     0.002 C 
BRANCH  33  34
HETATM   34  C4  UNL     1       8.750 -14.109   4.393  1.00  0.00     0.027 C 
BRANCH  34  35
HETATM   35  C3  UNL     1       9.162 -14.263   5.828  1.00  0.00     0.232 C 
BRANCH  35  36
HETATM   36  N1  UNL     1       9.346 -15.685   6.057  1.00  0.00    -0.075 N 
ATOM     37  H12 UNL     1       9.705 -16.144   5.220  1.00  0.00     0.277 HD
ATOM     38  H11 UNL     1       8.447 -16.160   6.137  1.00  0.00     0.277 HD
BRANCH  36  39
HETATM   39  C2  UNL     1      10.174 -15.969   7.190  1.00  0.00     0.228 C 
HETATM   40  C1  UNL     1       9.535 -15.255   8.387  1.00  0.00     0.034 C 
ENDBRANCH  36  39
ENDBRANCH  35  36
ENDBRANCH  34  35
ENDBRANCH  33  34
ENDBRANCH  32  33
ENDBRANCH   1  32
BRANCH   4  41
HETATM   41  N2  UNL     1      13.427 -14.744   0.297  1.00  0.00    -0.380 N 
ATOM     42  H22 UNL     1      13.702 -13.893  -0.193  1.00  0.00     0.158 HD
ATOM     43  H21 UNL     1      14.323 -15.127   0.598  1.00  0.00     0.158 HD
ENDBRANCH   4  41
TORSDOF 14
ENDMDL
MODEL 5
REMARK VINA RESULT: -6.371062209      4.438      7.563
REMARK  14 active torsions:
REMARK  status: ('A' for Active; 'I' for Inactive)
REMARK    1  A    between atoms: C2_2  and  N1_3 
REMARK    2  A    between atoms: N1_3  and  C3_6 
REMARK    3  A    between atoms: C3_6  and  C4_7 
REMARK    4  A    between atoms: C4_7  and  C5_8 
REMARK    5  A    between atoms: C5_8  and  C6_9 
REMARK    6  A    between atoms: C6_9  and  C7_10 
REMARK    7  A    between atoms: C9_13  and  N2_14 
REMARK    8  A    between atoms: C12_21  and  C14_23 
REMARK       I    between atoms: C14_23  and  N4_25 
REMARK       I    between atoms: N5_28  and  C17_29 
REMARK    9  A    between atoms: C17_29  and  C18_31 
REMARK   10  A    between atoms: C21_34  and  O3_35 
REMARK   11  A    between atoms: O3_35  and  C22_36 
REMARK   12  A    between atoms: C24_38  and  C25_39 
REMARK   13  A    between atoms: C25_39  and  O5_41 
REMARK   14  A    between atoms: O5_41  and  C26_42 
ROOT
HETATM    1  C7  UNL     1       4.979 -16.873  -6.446  1.00  0.00     0.042 C 
HETATM    2  C8  UNL     1       3.765 -17.291  -5.676  1.00  0.00     0.014 A 
HETATM    3  S1  UNL     1       2.097 -17.009  -5.544  1.00  0.00    -0.057 SA
HETATM    4  C9  UNL     1       1.754 -18.051  -4.241  1.00  0.00     0.142 A 
HETATM    5  N3  UNL     1       2.945 -18.571  -3.967  1.00  0.00    -0.340 N 
ATOM      6  H3  UNL     1       3.048 -19.248  -3.211  1.00  0.00     0.168 HD
HETATM    7  C10 UNL     1       3.987 -18.211  -4.672  1.00  0.00     0.026 A 
HETATM    8  C11 UNL     1       5.442 -18.660  -4.578  1.00  0.00     0.078 C 
HETATM    9  C12 UNL     1       6.310 -17.445  -4.451  1.00  0.00     0.056 C 
HETATM   10  C13 UNL     1       7.692 -17.898  -4.942  1.00  0.00     0.027 C 
HETATM   11  C24 UNL     1       5.934 -16.312  -5.382  1.00  0.00     0.112 C 
ENDROOT
BRANCH   9  12
HETATM   12  C14 UNL     1       6.306 -16.978  -3.062  1.00  0.00     0.231 C 
HETATM   13  O1  UNL     1       5.132 -16.711  -2.583  1.00  0.00    -0.272 OA
HETATM   14  N4  UNL     1       7.358 -16.780  -2.173  1.00  0.00    -0.322 N 
HETATM   15  C15 UNL     1       8.748 -16.968  -2.529  1.00  0.00     0.148 C 
HETATM   16  C21 UNL     1       7.146 -16.358  -0.776  1.00  0.00     0.243 C 
HETATM   17  C16 UNL     1       9.698 -16.727  -1.348  1.00  0.00     0.146 C 
HETATM   18  N5  UNL     1       9.406 -15.417  -0.809  1.00  0.00    -0.346 N 
HETATM   19  C17 UNL     1      10.376 -14.462  -0.428  1.00  0.00     0.219 C 
HETATM   20  C20 UNL     1       7.999 -15.079  -0.655  1.00  0.00     0.179 C 
HETATM   21  O2  UNL     1       9.965 -13.351   0.035  1.00  0.00    -0.273 OA
BRANCH  19  22
HETATM   22  C18 UNL     1      11.823 -14.714  -0.547  1.00  0.00     0.098 C 
HETATM   23  C19 UNL     1      12.450 -15.170   0.753  1.00  0.00     0.014 C 
ENDBRANCH  19  22
BRANCH  16  24
HETATM   24  O3  UNL     1       5.882 -16.014  -0.459  1.00  0.00    -0.365 OA
BRANCH  24  25
HETATM   25  C22 UNL     1       5.521 -16.116   0.859  1.00  0.00     0.166 C 
HETATM   26  C23 UNL     1       4.189 -16.662   1.178  1.00  0.00     0.033 C 
ENDBRANCH  24  25
ENDBRANCH  16  24
ENDBRANCH   9  12
BRANCH  11  27
HETATM   27  C25 UNL     1       7.003 -15.497  -5.893  1.00  0.00     0.265 C 
HETATM   28  O4  UNL     1       7.670 -15.911  -6.914  1.00  0.00    -0.265 OA
BRANCH  27  29
HETATM   29  O5  UNL     1       7.444 -14.266  -5.421  1.00  0.00    -0.322 OA
BRANCH  29  30
HETATM   30  C26 UNL     1       8.325 -14.110  -4.344  1.00  0.00     0.174 C 
HETATM   31  C27 UNL     1       9.756 -14.406  -4.671  1.00  0.00     0.034 C 
ENDBRANCH  29  30
ENDBRANCH  27  29
ENDBRANCH  11  27
BRANCH   1  32
HETATM   32  C6  UNL     1       4.622 -15.906  -7.499  1.00  0.00     0.011 C 
BRANCH  32  33
HETATM   33  C5  UNL     1       4.546 -16.584  -8.837  1.00  0.00     0.002 C 
BRANCH  33  34
HETATM   34  C4  UNL     1       3.432 -16.040  -9.709  1.00  0.00     0.027 C 
BRANCH  34  35
HETATM   35  C3  UNL     1       3.862 -15.724 -11.112  1.00  0.00     0.232 C 
BRANCH  35  36
HETATM   36  N1  UNL     1       4.924 -16.658 -11.441  1.00  0.00    -0.075 N 
ATOM     37  H12 UNL     1       5.219 -17.178 -10.615  1.00  0.00     0.277 HD
ATOM     38  H11 UNL     1       5.792 -16.163 -11.646  1.00  0.00     0.277 HD
BRANCH  36  39
HETATM   39  C2  UNL     1       4.580 -17.548 -12.508  1.00  0.00     0.228 C 
HETATM   40  C1  UNL     1       4.789 -18.970 -11.974  1.00  0.00     0.034 C 
ENDBRANCH  36  39
ENDBRANCH  35  36
ENDBRANCH  34  35
ENDBRANCH  33  34
ENDBRANCH  32  33
ENDBRANCH   1  32
BRANCH   4  41
HETATM   41  N2  UNL     1       0.607 -18.297  -3.638  1.00  0.00    -0.380 N 
ATOM     42  H22 UNL     1      -0.290 -18.520  -4.069  1.00  0.00     0.158 HD
ATOM     43  H21 UNL     1       0.385 -18.315  -2.642  1.00  0.00     0.158 HD
ENDBRANCH   4  41
TORSDOF 14
ENDMDL
