MODEL 1
REMARK VINA RESULT: -7.922956798      0.000      0.000
REMARK  17 active torsions:
REMARK  status: ('A' for Active; 'I' for Inactive)
REMARK    1  A    between atoms: N1_1  and  C1_4 
REMARK    2  A    between atoms: C2_7  and  C3_8 
REMARK    3  A    between atoms: C3_8  and  C4_9 
REMARK    4  A    between atoms: C4_9  and  N4_11 
REMARK    5  A    between atoms: N4_11  and  C5_13 
REMARK    6  A    between atoms: C5_13  and  O1_14 
REMARK    7  A    between atoms: C5_13  and  C6_16 
REMARK    8  A    between atoms: C6_16  and  N5_17 
REMARK    9  A    between atoms: C6_16  and  C12_34 
REMARK       I    between atoms: N5_17  and  C7_19 
REMARK   10  A    between atoms: C7_19  and  C8_21 
REMARK   11  A    between atoms: N6_26  and  C11_27 
REMARK   12  A    between atoms: C11_27  and  N7_28 
REMARK   13  A    between atoms: C11_27  and  O5_32 
REMARK   14  A    between atoms: C12_34  and  O6_35 
REMARK   15  A    between atoms: C12_34  and  O7_37 
REMARK   16  A    between atoms: O7_37  and  C13_38 
REMARK   17  A    between atoms: C16_44  and  N9_45 
ROOT
HETATM    1  C6  UNL     1     -24.121  -8.349  -7.495  1.00  0.00     0.214 C 
ENDROOT
BRANCH   1   2
HETATM    2  C5  UNL     1     -23.854  -8.831  -6.079  1.00  0.00     0.144 C 
BRANCH   2   3
HETATM    3  N4  UNL     1     -24.521  -9.566  -5.135  1.00  0.00    -0.330 N 
ATOM      4  H4  UNL     1     -24.961 -10.457  -5.363  1.00  0.00     0.168 HD
BRANCH   3   5
HETATM    5  C4  UNL     1     -24.570  -9.006  -3.782  1.00  0.00     0.101 C 
HETATM    6  N3  UNL     1     -24.663  -7.594  -3.788  1.00  0.00    -0.087 NA
BRANCH   5   7
HETATM    7  C3  UNL     1     -25.446  -9.728  -2.811  1.00  0.00     0.150 C 
BRANCH   7   8
HETATM    8  C2  UNL     1     -24.798  -9.560  -1.418  1.00  0.00     0.096 A 
HETATM    9  N2  UNL     1     -23.820  -8.767  -1.191  1.00  0.00    -0.325 N 
HETATM   10  C1  UNL     1     -23.257  -8.775   0.059  1.00  0.00     0.160 A 
ATOM     11  H2  UNL     1     -23.468  -8.147  -1.920  1.00  0.00     0.169 HD
HETATM   12  S1  UNL     1     -24.220  -9.953   0.828  1.00  0.00     0.023 SA
HETATM   13  N12 UNL     1     -25.248 -10.354  -0.444  1.00  0.00    -0.313 N 
ATOM     14  H12 UNL     1     -26.013 -11.028  -0.465  1.00  0.00     0.175 HD
BRANCH  10  15
HETATM   15  N1  UNL     1     -22.311  -7.998   0.427  1.00  0.00    -0.379 N 
ATOM     16  H12 UNL     1     -22.154  -6.990   0.404  1.00  0.00     0.158 HD
ATOM     17  H11 UNL     1     -21.420  -8.317   0.806  1.00  0.00     0.158 HD
ENDBRANCH  10  15
ENDBRANCH   7   8
ENDBRANCH   5   7
ENDBRANCH   3   5
ENDBRANCH   2   3
BRANCH   2  18
HETATM   18  O1  UNL     1     -22.655  -8.405  -5.668  1.00  0.00    -0.348 OA
ATOM     19  H1  UNL     1     -22.218  -7.845  -6.299  1.00  0.00     0.219 HD
ENDBRANCH   2  18
ENDBRANCH   1   2
BRANCH   1  20
HETATM   20  N5  UNL     1     -23.375  -7.092  -7.448  1.00  0.00    -0.339 N 
HETATM   21  C7  UNL     1     -24.051  -5.835  -7.649  1.00  0.00     0.267 C 
HETATM   22  O2  UNL     1     -25.271  -5.896  -7.966  1.00  0.00    -0.266 OA
ATOM     23  H5  UNL     1     -22.370  -7.105  -7.273  1.00  0.00     0.163 HD
BRANCH  21  24
HETATM   24  C8  UNL     1     -23.297  -4.639  -7.459  1.00  0.00     0.113 C 
HETATM   25  C9  UNL     1     -23.620  -3.382  -8.156  1.00  0.00     0.243 C 
HETATM   26  O3  UNL     1     -22.467  -2.580  -7.741  1.00  0.00    -0.297 OA
HETATM   27  C10 UNL     1     -22.005  -3.084  -6.509  1.00  0.00     0.371 C 
HETATM   28  O4  UNL     1     -21.035  -2.643  -5.857  1.00  0.00    -0.238 OA
HETATM   29  N6  UNL     1     -22.887  -4.206  -6.169  1.00  0.00    -0.239 N 
BRANCH  29  30
HETATM   30  C11 UNL     1     -23.087  -4.685  -4.845  1.00  0.00     0.435 C 
BRANCH  30  31
HETATM   31  N7  UNL     1     -22.703  -3.829  -3.804  1.00  0.00    -0.034 N 
ATOM     32  H73 UNL     1     -22.350  -4.379  -3.020  1.00  0.00     0.279 HD
ATOM     33  H72 UNL     1     -21.859  -3.322  -4.070  1.00  0.00     0.279 HD
ATOM     34  H71 UNL     1     -23.408  -3.171  -3.470  1.00  0.00     0.279 HD
ENDBRANCH  30  31
BRANCH  30  35
HETATM   35  O5  UNL     1     -22.131  -5.820  -4.733  1.00  0.00    -0.354 OA
ATOM     36  H5  UNL     1     -21.850  -5.787  -3.827  1.00  0.00     0.214 HD
ENDBRANCH  30  35
ENDBRANCH  29  30
ENDBRANCH  21  24
ENDBRANCH   1  20
BRANCH   1  37
HETATM   37  C12 UNL     1     -23.575  -9.405  -8.343  1.00  0.00     0.288 C 
BRANCH  37  38
HETATM   38  O6  UNL     1     -22.807 -10.305  -7.790  1.00  0.00    -0.369 OA
ATOM     39  H6  UNL     1     -22.750 -11.160  -8.201  1.00  0.00     0.212 HD
ENDBRANCH  37  38
BRANCH  37  40
HETATM   40  O7  UNL     1     -23.754  -9.602  -9.700  1.00  0.00    -0.342 OA
BRANCH  40  41
HETATM   41  C13 UNL     1     -24.937  -9.960 -10.298  1.00  0.00     0.240 C 
HETATM   42  C14 UNL     1     -25.949  -8.886 -10.531  1.00  0.00     0.248 C 
HETATM   43  O8  UNL     1     -25.748  -7.657 -10.585  1.00  0.00    -0.271 OA
HETATM   44  N8  UNL     1     -27.197  -9.548 -10.674  1.00  0.00    -0.357 N 
HETATM   45  C15 UNL     1     -27.031 -10.991 -10.347  1.00  0.00     0.151 C 
ATOM     46  H8  UNL     1     -28.070  -9.105 -10.957  1.00  0.00     0.162 HD
HETATM   47  C16 UNL     1     -25.773 -10.925  -9.528  1.00  0.00     0.139 C 
BRANCH  47  48
HETATM   48  N9  UNL     1     -25.137 -12.116  -9.167  1.00  0.00    -0.358 N 
HETATM   49  C17 UNL     1     -24.891 -12.694  -8.083  1.00  0.00     0.197 C 
HETATM   50  N10 UNL     1     -25.295 -12.158  -6.849  1.00  0.00    -0.067 NA
HETATM   51  N11 UNL     1     -24.175 -13.901  -8.104  1.00  0.00    -0.067 NA
ATOM     52  H9  UNL     1     -24.793 -12.636  -9.974  1.00  0.00     0.162 HD
ENDBRANCH  47  48
ENDBRANCH  40  41
ENDBRANCH  37  40
ENDBRANCH   1  37
TORSDOF 17
ENDMDL
MODEL 2
REMARK VINA RESULT: -7.868653884      1.625      2.571
REMARK  17 active torsions:
REMARK  status: ('A' for Active; 'I' for Inactive)
REMARK    1  A    between atoms: N1_1  and  C1_4 
REMARK    2  A    between atoms: C2_7  and  C3_8 
REMARK    3  A    between atoms: C3_8  and  C4_9 
REMARK    4  A    between atoms: C4_9  and  N4_11 
REMARK    5  A    between atoms: N4_11  and  C5_13 
REMARK    6  A    between atoms: C5_13  and  O1_14 
REMARK    7  A    between atoms: C5_13  and  C6_16 
REMARK    8  A    between atoms: C6_16  and  N5_17 
REMARK    9  A    between atoms: C6_16  and  C12_34 
REMARK       I    between atoms: N5_17  and  C7_19 
REMARK   10  A    between atoms: C7_19  and  C8_21 
REMARK   11  A    between atoms: N6_26  and  C11_27 
REMARK   12  A    between atoms: C11_27  and  N7_28 
REMARK   13  A    between atoms: C11_27  and  O5_32 
REMARK   14  A    between atoms: C12_34  and  O6_35 
REMARK   15  A    between atoms: C12_34  and  O7_37 
REMARK   16  A    between atoms: O7_37  and  C13_38 
REMARK   17  A    between atoms: C16_44  and  N9_45 
ROOT
HETATM    1  C6  UNL     1     -24.341  -8.858  -6.948  1.00  0.00     0.214 C 
ENDROOT
BRANCH   1   2
HETATM    2  C5  UNL     1     -23.886  -9.202  -5.540  1.00  0.00     0.144 C 
BRANCH   2   3
HETATM    3  N4  UNL     1     -24.428  -9.813  -4.441  1.00  0.00    -0.330 N 
ATOM      4  H4  UNL     1     -24.836 -10.747  -4.493  1.00  0.00     0.168 HD
BRANCH   3   5
HETATM    5  C4  UNL     1     -24.393  -9.057  -3.186  1.00  0.00     0.101 C 
HETATM    6  N3  UNL     1     -24.567  -7.668  -3.391  1.00  0.00    -0.087 NA
BRANCH   5   7
HETATM    7  C3  UNL     1     -25.140  -9.661  -2.041  1.00  0.00     0.150 C 
BRANCH   7   8
HETATM    8  C2  UNL     1     -24.176  -9.661  -0.833  1.00  0.00     0.096 A 
HETATM    9  N2  UNL     1     -23.706  -8.592  -0.311  1.00  0.00    -0.325 N 
HETATM   10  C1  UNL     1     -22.779  -8.715   0.691  1.00  0.00     0.160 A 
ATOM     11  H2  UNL     1     -24.014  -7.673  -0.631  1.00  0.00     0.169 HD
HETATM   12  S1  UNL     1     -22.665 -10.412   0.806  1.00  0.00     0.023 SA
HETATM   13  N12 UNL     1     -23.767 -10.851  -0.390  1.00  0.00    -0.313 N 
ATOM     14  H12 UNL     1     -24.047 -11.783  -0.695  1.00  0.00     0.175 HD
BRANCH  10  15
HETATM   15  N1  UNL     1     -22.273  -7.729   1.329  1.00  0.00    -0.379 N 
ATOM     16  H12 UNL     1     -22.232  -7.447   2.308  1.00  0.00     0.158 HD
ATOM     17  H11 UNL     1     -21.812  -6.934   0.886  1.00  0.00     0.158 HD
ENDBRANCH  10  15
ENDBRANCH   7   8
ENDBRANCH   5   7
ENDBRANCH   3   5
ENDBRANCH   2   3
BRANCH   2  18
HETATM   18  O1  UNL     1     -22.633  -8.779  -5.347  1.00  0.00    -0.348 OA
ATOM     19  H1  UNL     1     -22.501  -8.365  -4.502  1.00  0.00     0.219 HD
ENDBRANCH   2  18
ENDBRANCH   1   2
BRANCH   1  20
HETATM   20  N5  UNL     1     -23.575  -7.627  -7.137  1.00  0.00    -0.339 N 
HETATM   21  C7  UNL     1     -24.242  -6.401  -7.498  1.00  0.00     0.267 C 
HETATM   22  O2  UNL     1     -25.478  -6.483  -7.739  1.00  0.00    -0.266 OA
ATOM     23  H5  UNL     1     -22.562  -7.636  -7.012  1.00  0.00     0.163 HD
BRANCH  21  24
HETATM   24  C8  UNL     1     -23.462  -5.207  -7.535  1.00  0.00     0.113 C 
HETATM   25  C9  UNL     1     -23.785  -4.079  -8.425  1.00  0.00     0.243 C 
HETATM   26  O3  UNL     1     -22.606  -3.245  -8.186  1.00  0.00    -0.297 OA
HETATM   27  C10 UNL     1     -22.112  -3.545  -6.901  1.00  0.00     0.371 C 
HETATM   28  O4  UNL     1     -21.113  -3.023  -6.362  1.00  0.00    -0.238 OA
HETATM   29  N6  UNL     1     -23.001  -4.574  -6.350  1.00  0.00    -0.239 N 
BRANCH  29  30
HETATM   30  C11 UNL     1     -23.166  -4.817  -4.958  1.00  0.00     0.435 C 
BRANCH  30  31
HETATM   31  N7  UNL     1     -22.723  -3.811  -4.089  1.00  0.00    -0.034 N 
ATOM     32  H73 UNL     1     -22.063  -4.205  -3.417  1.00  0.00     0.279 HD
ATOM     33  H72 UNL     1     -22.113  -3.167  -4.592  1.00  0.00     0.279 HD
ATOM     34  H71 UNL     1     -23.443  -3.286  -3.594  1.00  0.00     0.279 HD
ENDBRANCH  30  31
BRANCH  30  35
HETATM   35  O5  UNL     1     -22.236  -5.947  -4.688  1.00  0.00    -0.354 OA
ATOM     36  H5  UNL     1     -21.848  -5.722  -3.851  1.00  0.00     0.214 HD
ENDBRANCH  30  35
ENDBRANCH  29  30
ENDBRANCH  21  24
ENDBRANCH   1  20
BRANCH   1  37
HETATM   37  C12 UNL     1     -23.936 -10.012  -7.749  1.00  0.00     0.288 C 
BRANCH  37  38
HETATM   38  O6  UNL     1     -22.674 -10.132  -8.063  1.00  0.00    -0.369 OA
ATOM     39  H6  UNL     1     -22.059 -10.347  -7.371  1.00  0.00     0.212 HD
ENDBRANCH  37  38
BRANCH  37  40
HETATM   40  O7  UNL     1     -24.721 -11.035  -8.246  1.00  0.00    -0.342 OA
BRANCH  40  41
HETATM   41  C13 UNL     1     -25.448 -11.917  -7.484  1.00  0.00     0.240 C 
HETATM   42  C14 UNL     1     -25.156 -13.374  -7.641  1.00  0.00     0.248 C 
HETATM   43  O8  UNL     1     -24.117 -13.891  -8.097  1.00  0.00    -0.271 OA
HETATM   44  N8  UNL     1     -26.307 -14.057  -7.168  1.00  0.00    -0.357 N 
HETATM   45  C15 UNL     1     -27.390 -13.072  -6.898  1.00  0.00     0.151 C 
ATOM     46  H8  UNL     1     -26.380 -15.065  -7.035  1.00  0.00     0.162 HD
HETATM   47  C16 UNL     1     -26.915 -11.929  -7.750  1.00  0.00     0.139 C 
BRANCH  47  48
HETATM   48  N9  UNL     1     -27.555 -10.691  -7.640  1.00  0.00    -0.358 N 
HETATM   49  C17 UNL     1     -27.806  -9.905  -6.698  1.00  0.00     0.197 C 
HETATM   50  N10 UNL     1     -27.403 -10.177  -5.379  1.00  0.00    -0.067 NA
HETATM   51  N11 UNL     1     -28.524  -8.730  -6.966  1.00  0.00    -0.067 NA
ATOM     52  H9  UNL     1     -27.899 -10.347  -8.538  1.00  0.00     0.162 HD
ENDBRANCH  47  48
ENDBRANCH  40  41
ENDBRANCH  37  40
ENDBRANCH   1  37
TORSDOF 17
ENDMDL
MODEL 3
REMARK VINA RESULT: -7.830423451      1.341      2.536
REMARK  17 active torsions:
REMARK  status: ('A' for Active; 'I' for Inactive)
REMARK    1  A    between atoms: N1_1  and  C1_4 
REMARK    2  A    between atoms: C2_7  and  C3_8 
REMARK    3  A    between atoms: C3_8  and  C4_9 
REMARK    4  A    between atoms: C4_9  and  N4_11 
REMARK    5  A    between atoms: N4_11  and  C5_13 
REMARK    6  A    between atoms: C5_13  and  O1_14 
REMARK    7  A    between atoms: C5_13  and  C6_16 
REMARK    8  A    between atoms: C6_16  and  N5_17 
REMARK    9  A    between atoms: C6_16  and  C12_34 
REMARK       I    between atoms: N5_17  and  C7_19 
REMARK   10  A    between atoms: C7_19  and  C8_21 
REMARK   11  A    between atoms: N6_26  and  C11_27 
REMARK   12  A    between atoms: C11_27  and  N7_28 
REMARK   13  A    between atoms: C11_27  and  O5_32 
REMARK   14  A    between atoms: C12_34  and  O6_35 
REMARK   15  A    between atoms: C12_34  and  O7_37 
REMARK   16  A    between atoms: O7_37  and  C13_38 
REMARK   17  A    between atoms: C16_44  and  N9_45 
ROOT
HETATM    1  C6  UNL     1     -24.268  -8.972  -7.005  1.00  0.00     0.214 C 
ENDROOT
BRANCH   1   2
HETATM    2  C5  UNL     1     -23.898  -9.296  -5.567  1.00  0.00     0.144 C 
BRANCH   2   3
HETATM    3  N4  UNL     1     -24.495  -9.915  -4.501  1.00  0.00    -0.330 N 
ATOM      4  H4  UNL     1     -25.117 -10.714  -4.626  1.00  0.00     0.168 HD
BRANCH   3   5
HETATM    5  C4  UNL     1     -24.194  -9.372  -3.174  1.00  0.00     0.101 C 
HETATM    6  N3  UNL     1     -24.569  -8.013  -3.052  1.00  0.00    -0.087 NA
BRANCH   5   7
HETATM    7  C3  UNL     1     -24.522 -10.260  -2.018  1.00  0.00     0.150 C 
BRANCH   7   8
HETATM    8  C2  UNL     1     -24.390  -9.396  -0.743  1.00  0.00     0.096 A 
HETATM    9  N2  UNL     1     -23.264  -9.042  -0.250  1.00  0.00    -0.325 N 
HETATM   10  C1  UNL     1     -23.264  -8.363   0.941  1.00  0.00     0.160 A 
ATOM     11  H2  UNL     1     -22.390  -9.259  -0.729  1.00  0.00     0.169 HD
HETATM   12  S1  UNL     1     -24.939  -8.281   1.255  1.00  0.00     0.023 SA
HETATM   13  N12 UNL     1     -25.520  -9.090  -0.103  1.00  0.00    -0.313 N 
ATOM     14  H12 UNL     1     -26.485  -9.294  -0.367  1.00  0.00     0.175 HD
BRANCH  10  15
HETATM   15  N1  UNL     1     -22.214  -7.910   1.512  1.00  0.00    -0.379 N 
ATOM     16  H12 UNL     1     -21.418  -7.345   1.216  1.00  0.00     0.158 HD
ATOM     17  H11 UNL     1     -21.947  -8.120   2.473  1.00  0.00     0.158 HD
ENDBRANCH  10  15
ENDBRANCH   7   8
ENDBRANCH   5   7
ENDBRANCH   3   5
ENDBRANCH   2   3
BRANCH   2  18
HETATM   18  O1  UNL     1     -22.673  -8.837  -5.294  1.00  0.00    -0.348 OA
ATOM     19  H1  UNL     1     -22.629  -7.890  -5.238  1.00  0.00     0.219 HD
ENDBRANCH   2  18
ENDBRANCH   1   2
BRANCH   1  20
HETATM   20  N5  UNL     1     -23.529  -7.719  -7.150  1.00  0.00    -0.339 N 
HETATM   21  C7  UNL     1     -24.222  -6.498  -7.478  1.00  0.00     0.267 C 
HETATM   22  O2  UNL     1     -25.453  -6.600  -7.732  1.00  0.00    -0.266 OA
ATOM     23  H5  UNL     1     -22.517  -7.709  -7.018  1.00  0.00     0.163 HD
BRANCH  21  24
HETATM   24  C8  UNL     1     -23.468  -5.286  -7.474  1.00  0.00     0.113 C 
HETATM   25  C9  UNL     1     -23.789  -4.153  -8.357  1.00  0.00     0.243 C 
HETATM   26  O3  UNL     1     -22.638  -3.295  -8.068  1.00  0.00    -0.297 OA
HETATM   27  C10 UNL     1     -22.178  -3.604  -6.772  1.00  0.00     0.371 C 
HETATM   28  O4  UNL     1     -21.210  -3.067  -6.194  1.00  0.00    -0.238 OA
HETATM   29  N6  UNL     1     -23.060  -4.660  -6.265  1.00  0.00    -0.239 N 
BRANCH  29  30
HETATM   30  C11 UNL     1     -23.263  -4.929  -4.883  1.00  0.00     0.435 C 
BRANCH  30  31
HETATM   31  N7  UNL     1     -22.824  -3.949  -3.982  1.00  0.00    -0.034 N 
ATOM     32  H73 UNL     1     -22.569  -3.103  -4.494  1.00  0.00     0.279 HD
ATOM     33  H72 UNL     1     -23.615  -3.606  -3.437  1.00  0.00     0.279 HD
ATOM     34  H71 UNL     1     -22.064  -4.213  -3.356  1.00  0.00     0.279 HD
ENDBRANCH  30  31
BRANCH  30  35
HETATM   35  O5  UNL     1     -22.361  -6.081  -4.613  1.00  0.00    -0.354 OA
ATOM     36  H5  UNL     1     -21.595  -5.894  -5.143  1.00  0.00     0.214 HD
ENDBRANCH  30  35
ENDBRANCH  29  30
ENDBRANCH  21  24
ENDBRANCH   1  20
BRANCH   1  37
HETATM   37  C12 UNL     1     -23.775 -10.117  -7.769  1.00  0.00     0.288 C 
BRANCH  37  38
HETATM   38  O6  UNL     1     -22.485 -10.307  -7.831  1.00  0.00    -0.369 OA
ATOM     39  H6  UNL     1     -22.170 -11.177  -8.046  1.00  0.00     0.212 HD
ENDBRANCH  37  38
BRANCH  37  40
HETATM   40  O7  UNL     1     -24.500 -11.065  -8.465  1.00  0.00    -0.342 OA
BRANCH  40  41
HETATM   41  C13 UNL     1     -25.474 -11.870  -7.926  1.00  0.00     0.240 C 
HETATM   42  C14 UNL     1     -25.260 -13.348  -7.979  1.00  0.00     0.248 C 
HETATM   43  O8  UNL     1     -24.178 -13.950  -8.121  1.00  0.00    -0.271 OA
HETATM   44  N8  UNL     1     -26.545 -13.934  -7.839  1.00  0.00    -0.357 N 
HETATM   45  C15 UNL     1     -27.583 -12.869  -7.893  1.00  0.00     0.151 C 
ATOM     46  H8  UNL     1     -26.729 -14.930  -7.720  1.00  0.00     0.162 HD
HETATM   47  C16 UNL     1     -26.806 -11.789  -8.591  1.00  0.00     0.139 C 
BRANCH  47  48
HETATM   48  N9  UNL     1     -27.357 -10.506  -8.679  1.00  0.00    -0.358 N 
HETATM   49  C17 UNL     1     -27.371  -9.608  -9.551  1.00  0.00     0.197 C 
HETATM   50  N10 UNL     1     -26.745  -9.776 -10.798  1.00  0.00    -0.067 NA
HETATM   51  N11 UNL     1     -28.015  -8.394  -9.266  1.00  0.00    -0.067 NA
ATOM     52  H9  UNL     1     -27.866 -10.241  -7.835  1.00  0.00     0.162 HD
ENDBRANCH  47  48
ENDBRANCH  40  41
ENDBRANCH  37  40
ENDBRANCH   1  37
TORSDOF 17
ENDMDL
MODEL 4
REMARK VINA RESULT: -7.780432042      2.055      6.398
REMARK  17 active torsions:
REMARK  status: ('A' for Active; 'I' for Inactive)
REMARK    1  A    between atoms: N1_1  and  C1_4 
REMARK    2  A    between atoms: C2_7  and  C3_8 
REMARK    3  A    between atoms: C3_8  and  C4_9 
REMARK    4  A    between atoms: C4_9  and  N4_11 
REMARK    5  A    between atoms: N4_11  and  C5_13 
REMARK    6  A    between atoms: C5_13  and  O1_14 
REMARK    7  A    between atoms: C5_13  and  C6_16 
REMARK    8  A    between atoms: C6_16  and  N5_17 
REMARK    9  A    between atoms: C6_16  and  C12_34 
REMARK       I    between atoms: N5_17  and  C7_19 
REMARK   10  A    between atoms: C7_19  and  C8_21 
REMARK   11  A    between atoms: N6_26  and  C11_27 
REMARK   12  A    between atoms: C11_27  and  N7_28 
REMARK   13  A    between atoms: C11_27  and  O5_32 
REMARK   14  A    between atoms: C12_34  and  O6_35 
REMARK   15  A    between atoms: C12_34  and  O7_37 
REMARK   16  A    between atoms: O7_37  and  C13_38 
REMARK   17  A    between atoms: C16_44  and  N9_45 
ROOT
HETATM    1  C6  UNL     1     -23.439  -6.621  -4.506  1.00  0.00     0.214 C 
ENDROOT
BRANCH   1   2
HETATM    2  C5  UNL     1     -24.369  -5.980  -3.490  1.00  0.00     0.144 C 
BRANCH   2   3
HETATM    3  N4  UNL     1     -24.611  -6.100  -2.147  1.00  0.00    -0.330 N 
ATOM      4  H4  UNL     1     -24.351  -5.367  -1.488  1.00  0.00     0.168 HD
BRANCH   3   5
HETATM    5  C4  UNL     1     -25.261  -7.337  -1.707  1.00  0.00     0.101 C 
HETATM    6  N3  UNL     1     -24.517  -8.489  -2.054  1.00  0.00    -0.087 NA
BRANCH   5   7
HETATM    7  C3  UNL     1     -25.846  -7.311  -0.332  1.00  0.00     0.150 C 
BRANCH   7   8
HETATM    8  C2  UNL     1     -24.933  -8.188   0.555  1.00  0.00     0.096 A 
HETATM    9  N2  UNL     1     -23.806  -7.789   1.012  1.00  0.00    -0.325 N 
HETATM   10  C1  UNL     1     -23.034  -8.686   1.702  1.00  0.00     0.160 A 
ATOM     11  H2  UNL     1     -23.492  -6.829   0.867  1.00  0.00     0.169 HD
HETATM   12  S1  UNL     1     -24.029 -10.069   1.641  1.00  0.00     0.023 SA
HETATM   13  N12 UNL     1     -25.327  -9.444   0.768  1.00  0.00    -0.313 N 
ATOM     14  H12 UNL     1     -26.189  -9.906   0.478  1.00  0.00     0.175 HD
BRANCH  10  15
HETATM   15  N1  UNL     1     -21.915  -8.400   2.252  1.00  0.00    -0.379 N 
ATOM     16  H12 UNL     1     -21.382  -7.543   2.399  1.00  0.00     0.158 HD
ATOM     17  H11 UNL     1     -21.269  -9.090   2.633  1.00  0.00     0.158 HD
ENDBRANCH  10  15
ENDBRANCH   7   8
ENDBRANCH   5   7
ENDBRANCH   3   5
ENDBRANCH   2   3
BRANCH   2  18
HETATM   18  O1  UNL     1     -25.149  -5.074  -4.089  1.00  0.00    -0.348 OA
ATOM     19  H1  UNL     1     -25.740  -5.452  -4.729  1.00  0.00     0.219 HD
ENDBRANCH   2  18
ENDBRANCH   1   2
BRANCH   1  20
HETATM   20  N5  UNL     1     -24.397  -7.517  -5.152  1.00  0.00    -0.339 N 
HETATM   21  C7  UNL     1     -23.969  -8.794  -5.668  1.00  0.00     0.267 C 
HETATM   22  O2  UNL     1     -22.731  -9.032  -5.624  1.00  0.00    -0.266 OA
ATOM     23  H5  UNL     1     -25.375  -7.238  -5.239  1.00  0.00     0.163 HD
BRANCH  21  24
HETATM   24  C8  UNL     1     -24.971  -9.679  -6.164  1.00  0.00     0.113 C 
HETATM   25  C9  UNL     1     -26.408  -9.455  -5.933  1.00  0.00     0.243 C 
HETATM   26  O3  UNL     1     -26.934 -10.706  -6.483  1.00  0.00    -0.297 OA
HETATM   27  C10 UNL     1     -26.020 -11.177  -7.447  1.00  0.00     0.371 C 
HETATM   28  O4  UNL     1     -26.143 -12.221  -8.121  1.00  0.00    -0.238 OA
HETATM   29  N6  UNL     1     -24.926 -10.201  -7.485  1.00  0.00    -0.239 N 
BRANCH  29  30
HETATM   30  C11 UNL     1     -24.061 -10.022  -8.601  1.00  0.00     0.435 C 
BRANCH  30  31
HETATM   31  N7  UNL     1     -24.445 -10.642  -9.797  1.00  0.00    -0.034 N 
ATOM     32  H73 UNL     1     -23.741 -11.330 -10.067  1.00  0.00     0.279 HD
ATOM     33  H72 UNL     1     -25.245 -11.252  -9.626  1.00  0.00     0.279 HD
ATOM     34  H71 UNL     1     -24.644 -10.028 -10.587  1.00  0.00     0.279 HD
ENDBRANCH  30  31
BRANCH  30  35
HETATM   35  O5  UNL     1     -22.826 -10.752  -8.208  1.00  0.00    -0.354 OA
ATOM     36  H5  UNL     1     -22.310 -10.094  -7.758  1.00  0.00     0.214 HD
ENDBRANCH  30  35
ENDBRANCH  29  30
ENDBRANCH  21  24
ENDBRANCH   1  20
BRANCH   1  37
HETATM   37  C12 UNL     1     -22.950  -5.499  -5.304  1.00  0.00     0.288 C 
BRANCH  37  38
HETATM   38  O6  UNL     1     -22.606  -4.404  -4.681  1.00  0.00    -0.369 OA
ATOM     39  H6  UNL     1     -23.252  -3.982  -4.127  1.00  0.00     0.212 HD
ENDBRANCH  37  38
BRANCH  37  40
HETATM   40  O7  UNL     1     -22.792  -5.419  -6.675  1.00  0.00    -0.342 OA
BRANCH  40  41
HETATM   41  C13 UNL     1     -23.708  -4.886  -7.547  1.00  0.00     0.240 C 
HETATM   42  C14 UNL     1     -23.946  -5.611  -8.832  1.00  0.00     0.248 C 
HETATM   43  O8  UNL     1     -23.699  -6.807  -9.081  1.00  0.00    -0.271 OA
HETATM   44  N8  UNL     1     -24.507  -4.657  -9.721  1.00  0.00    -0.357 N 
HETATM   45  C15 UNL     1     -24.452  -3.307  -9.098  1.00  0.00     0.151 C 
ATOM     46  H8  UNL     1     -24.888  -4.864 -10.644  1.00  0.00     0.162 HD
HETATM   47  C16 UNL     1     -23.367  -3.537  -8.084  1.00  0.00     0.139 C 
BRANCH  47  48
HETATM   48  N9  UNL     1     -23.118  -2.553  -7.122  1.00  0.00    -0.358 N 
HETATM   49  C17 UNL     1     -22.104  -2.157  -6.503  1.00  0.00     0.197 C 
HETATM   50  N10 UNL     1     -20.835  -2.720  -6.723  1.00  0.00    -0.067 NA
HETATM   51  N11 UNL     1     -22.244  -1.136  -5.552  1.00  0.00    -0.067 NA
ATOM     52  H9  UNL     1     -23.960  -2.038  -6.864  1.00  0.00     0.162 HD
ENDBRANCH  47  48
ENDBRANCH  40  41
ENDBRANCH  37  40
ENDBRANCH   1  37
TORSDOF 17
ENDMDL
MODEL 5
REMARK VINA RESULT: -7.753202817      2.136      3.085
REMARK  17 active torsions:
REMARK  status: ('A' for Active; 'I' for Inactive)
REMARK    1  A    between atoms: N1_1  and  C1_4 
REMARK    2  A    between atoms: C2_7  and  C3_8 
REMARK    3  A    between atoms: C3_8  and  C4_9 
REMARK    4  A    between atoms: C4_9  and  N4_11 
REMARK    5  A    between atoms: N4_11  and  C5_13 
REMARK    6  A    between atoms: C5_13  and  O1_14 
REMARK    7  A    between atoms: C5_13  and  C6_16 
REMARK    8  A    between atoms: C6_16  and  N5_17 
REMARK    9  A    between atoms: C6_16  and  C12_34 
REMARK       I    between atoms: N5_17  and  C7_19 
REMARK   10  A    between atoms: C7_19  and  C8_21 
REMARK   11  A    between atoms: N6_26  and  C11_27 
REMARK   12  A    between atoms: C11_27  and  N7_28 
REMARK   13  A    between atoms: C11_27  and  O5_32 
REMARK   14  A    between atoms: C12_34  and  O6_35 
REMARK   15  A    between atoms: C12_34  and  O7_37 
REMARK   16  A    between atoms: O7_37  and  C13_38 
REMARK   17  A    between atoms: C16_44  and  N9_45 
ROOT
HETATM    1  C6  UNL     1     -24.873  -8.527  -5.610  1.00  0.00     0.214 C 
ENDROOT
BRANCH   1   2
HETATM    2  C5  UNL     1     -23.932  -9.011  -4.519  1.00  0.00     0.144 C 
BRANCH   2   3
HETATM    3  N4  UNL     1     -24.041  -9.395  -3.209  1.00  0.00    -0.330 N 
ATOM      4  H4  UNL     1     -23.765 -10.326  -2.899  1.00  0.00     0.168 HD
BRANCH   3   5
HETATM    5  C4  UNL     1     -24.575  -8.399  -2.276  1.00  0.00     0.101 C 
HETATM    6  N3  UNL     1     -24.317  -7.074  -2.700  1.00  0.00    -0.087 NA
BRANCH   5   7
HETATM    7  C3  UNL     1     -25.944  -8.674  -1.744  1.00  0.00     0.150 C 
BRANCH   7   8
HETATM    8  C2  UNL     1     -25.904  -8.354  -0.232  1.00  0.00     0.096 A 
HETATM    9  N2  UNL     1     -24.871  -7.884   0.358  1.00  0.00    -0.325 N 
HETATM   10  C1  UNL     1     -24.916  -7.735   1.720  1.00  0.00     0.160 A 
ATOM     11  H2  UNL     1     -24.037  -7.627  -0.170  1.00  0.00     0.169 HD
HETATM   12  S1  UNL     1     -26.494  -8.294   2.045  1.00  0.00     0.023 SA
HETATM   13  N12 UNL     1     -26.987  -8.672   0.480  1.00  0.00    -0.313 N 
ATOM     14  H12 UNL     1     -27.880  -9.048   0.159  1.00  0.00     0.175 HD
BRANCH  10  15
HETATM   15  N1  UNL     1     -23.973  -7.230   2.421  1.00  0.00    -0.379 N 
ATOM     16  H12 UNL     1     -23.572  -6.298   2.527  1.00  0.00     0.158 HD
ATOM     17  H11 UNL     1     -23.357  -7.770   3.028  1.00  0.00     0.158 HD
ENDBRANCH  10  15
ENDBRANCH   7   8
ENDBRANCH   5   7
ENDBRANCH   3   5
ENDBRANCH   2   3
BRANCH   2  18
HETATM   18  O1  UNL     1     -22.678  -9.053  -4.981  1.00  0.00    -0.348 OA
ATOM     19  H1  UNL     1     -22.097  -9.578  -4.445  1.00  0.00     0.219 HD
ENDBRANCH   2  18
ENDBRANCH   1   2
BRANCH   1  20
HETATM   20  N5  UNL     1     -24.047  -7.454  -6.160  1.00  0.00    -0.339 N 
HETATM   21  C7  UNL     1     -24.655  -6.353  -6.864  1.00  0.00     0.267 C 
HETATM   22  O2  UNL     1     -25.899  -6.430  -7.062  1.00  0.00    -0.266 OA
ATOM     23  H5  UNL     1     -23.033  -7.485  -6.045  1.00  0.00     0.163 HD
BRANCH  21  24
HETATM   24  C8  UNL     1     -23.813  -5.272  -7.259  1.00  0.00     0.113 C 
HETATM   25  C9  UNL     1     -24.210  -4.296  -8.288  1.00  0.00     0.243 C 
HETATM   26  O3  UNL     1     -22.952  -3.557  -8.410  1.00  0.00    -0.297 OA
HETATM   27  C10 UNL     1     -22.259  -3.669  -7.187  1.00  0.00     0.371 C 
HETATM   28  O4  UNL     1     -21.147  -3.162  -6.929  1.00  0.00    -0.238 OA
HETATM   29  N6  UNL     1     -23.106  -4.485  -6.311  1.00  0.00    -0.239 N 
BRANCH  29  30
HETATM   30  C11 UNL     1     -23.038  -4.455  -4.890  1.00  0.00     0.435 C 
BRANCH  30  31
HETATM   31  N7  UNL     1     -22.340  -3.382  -4.318  1.00  0.00    -0.034 N 
ATOM     32  H73 UNL     1     -21.344  -3.475  -4.519  1.00  0.00     0.279 HD
ATOM     33  H72 UNL     1     -22.554  -2.524  -4.826  1.00  0.00     0.279 HD
ATOM     34  H71 UNL     1     -22.475  -3.231  -3.318  1.00  0.00     0.279 HD
ENDBRANCH  30  31
BRANCH  30  35
HETATM   35  O5  UNL     1     -22.198  -5.636  -4.554  1.00  0.00    -0.354 OA
ATOM     36  H5  UNL     1     -21.448  -5.549  -5.130  1.00  0.00     0.214 HD
ENDBRANCH  30  35
ENDBRANCH  29  30
ENDBRANCH  21  24
ENDBRANCH   1  20
BRANCH   1  37
HETATM   37  C12 UNL     1     -25.074  -9.701  -6.457  1.00  0.00     0.288 C 
BRANCH  37  38
HETATM   38  O6  UNL     1     -24.808 -10.877  -5.954  1.00  0.00    -0.369 OA
ATOM     39  H6  UNL     1     -24.954 -11.010  -5.025  1.00  0.00     0.212 HD
ENDBRANCH  37  38
BRANCH  37  40
HETATM   40  O7  UNL     1     -25.519  -9.755  -7.765  1.00  0.00    -0.342 OA
BRANCH  40  41
HETATM   41  C13 UNL     1     -24.713  -9.743  -8.876  1.00  0.00     0.240 C 
HETATM   42  C14 UNL     1     -23.245  -9.938  -8.671  1.00  0.00     0.248 C 
HETATM   43  O8  UNL     1     -22.683 -10.458  -7.687  1.00  0.00    -0.271 OA
HETATM   44  N8  UNL     1     -22.615  -9.405  -9.825  1.00  0.00    -0.357 N 
HETATM   45  C15 UNL     1     -23.626  -8.707 -10.664  1.00  0.00     0.151 C 
ATOM     46  H8  UNL     1     -21.622  -9.488 -10.046  1.00  0.00     0.162 HD
HETATM   47  C16 UNL     1     -24.688  -8.457  -9.630  1.00  0.00     0.139 C 
BRANCH  47  48
HETATM   48  N9  UNL     1     -25.935  -7.978 -10.041  1.00  0.00    -0.358 N 
HETATM   49  C17 UNL     1     -26.331  -6.975 -10.679  1.00  0.00     0.197 C 
HETATM   50  N10 UNL     1     -25.435  -6.016 -11.182  1.00  0.00    -0.067 NA
HETATM   51  N11 UNL     1     -27.708  -6.797 -10.879  1.00  0.00    -0.067 NA
ATOM     52  H9  UNL     1     -26.702  -8.587  -9.756  1.00  0.00     0.162 HD
ENDBRANCH  47  48
ENDBRANCH  40  41
ENDBRANCH  37  40
ENDBRANCH   1  37
TORSDOF 17
ENDMDL
