MODEL 1
REMARK VINA RESULT: -8.109590631      0.000      0.000
REMARK  13 active torsions:
REMARK  status: ('A' for Active; 'I' for Inactive)
REMARK    1  A    between atoms: N1_1  and  C1_5 
REMARK    2  A    between atoms: C1_5  and  C2_6 
REMARK    3  A    between atoms: C2_6  and  N2_7 
REMARK    4  A    between atoms: C2_6  and  C3_11 
REMARK       I    between atoms: C3_11  and  N3_13 
REMARK    5  A    between atoms: N3_13  and  C4_15 
REMARK       I    between atoms: N4_18  and  C7_19 
REMARK    6  A    between atoms: C7_19  and  C8_21 
REMARK    7  A    between atoms: C8_21  and  N5_22 
REMARK       I    between atoms: N5_22  and  C9_24 
REMARK    8  A    between atoms: C9_24  and  C10_26 
REMARK    9  A    between atoms: C10_26  and  N6_27 
REMARK       I    between atoms: N6_27  and  C11_29 
REMARK   10  A    between atoms: C11_29  and  C12_31 
REMARK   11  A    between atoms: C15_38  and  N9_39 
REMARK       I    between atoms: N9_39  and  C16_40 
REMARK       I    between atoms: C16_40  and  N10_42 
REMARK   12  A    between atoms: N10_42  and  N11_44 
REMARK   13  A    between atoms: C19_55  and  O7_56 
ROOT
HETATM    1  N5  UNL     1     -25.783  -7.034 -10.754  1.00  0.00    -0.351 N 
ATOM      2  H5  UNL     1     -25.764  -6.631  -9.817  1.00  0.00     0.163 HD
HETATM    3  C9  UNL     1     -24.882  -8.048 -11.079  1.00  0.00     0.235 C 
HETATM    4  O3  UNL     1     -24.914  -8.567 -12.232  1.00  0.00    -0.272 OA
ENDROOT
BRANCH   3   5
HETATM    5  C10 UNL     1     -23.879  -8.566 -10.151  1.00  0.00     0.225 C 
BRANCH   5   6
HETATM    6  N6  UNL     1     -24.242  -8.596  -8.757  1.00  0.00    -0.347 N 
HETATM    7  C11 UNL     1     -23.597  -9.405  -7.797  1.00  0.00     0.270 C 
HETATM    8  O4  UNL     1     -22.663 -10.152  -8.166  1.00  0.00    -0.266 OA
ATOM      9  H6  UNL     1     -25.009  -7.999  -8.446  1.00  0.00     0.163 HD
BRANCH   7  10
HETATM   10  C12 UNL     1     -24.000  -9.379  -6.407  1.00  0.00     0.117 A 
HETATM   11  C13 UNL     1     -24.543 -10.446  -5.724  1.00  0.00     0.125 A 
HETATM   12  N7  UNL     1     -24.878 -10.289  -4.425  1.00  0.00    -0.348 N 
HETATM   13  C14 UNL     1     -24.693  -9.119  -3.786  1.00  0.00     0.141 A 
ATOM     14  H7  UNL     1     -25.280 -11.076  -3.916  1.00  0.00     0.167 HD
HETATM   15  N8  UNL     1     -25.015  -8.947  -2.511  1.00  0.00    -0.300 N 
HETATM   16  C18 UNL     1     -24.152  -8.064  -4.472  1.00  0.00     0.146 A 
HETATM   17  C15 UNL     1     -24.849  -7.782  -1.815  1.00  0.00     0.268 A 
ATOM     18  H8  UNL     1     -25.415  -9.743  -2.014  1.00  0.00     0.171 HD
HETATM   19  N12 UNL     1     -24.311  -6.745  -2.510  1.00  0.00    -0.281 N 
HETATM   20  C17 UNL     1     -23.976  -6.877  -3.786  1.00  0.00     0.279 A 
ATOM     21  H12 UNL     1     -24.162  -5.850  -2.042  1.00  0.00     0.173 HD
HETATM   22  O6  UNL     1     -23.473  -5.923  -4.454  1.00  0.00    -0.265 OA
HETATM   23  N13 UNL     1     -23.810  -8.184  -5.758  1.00  0.00    -0.343 N 
ATOM     24  H13 UNL     1     -23.408  -7.390  -6.255  1.00  0.00     0.166 HD
BRANCH  17  25
HETATM   25  N9  UNL     1     -25.162  -7.696  -0.669  1.00  0.00    -0.315 NA
HETATM   26  C16 UNL     1     -25.568  -7.539   0.563  1.00  0.00     0.415 C 
HETATM   27  O5  UNL     1     -26.829  -7.423   0.831  1.00  0.00    -0.228 OA
HETATM   28  N10 UNL     1     -24.732  -7.472   1.748  1.00  0.00    -0.246 N 
ATOM     29  H10 UNL     1     -23.719  -7.552   1.652  1.00  0.00     0.192 HD
BRANCH  28  30
HETATM   30  N11 UNL     1     -25.280  -7.303   2.993  1.00  0.00    -0.340 N 
ATOM     31 2H11 UNL     1     -26.219  -6.911   3.062  1.00  0.00     0.177 HD
ATOM     32 1H11 UNL     1     -24.765  -7.562   3.834  1.00  0.00     0.177 HD
ENDBRANCH  28  30
ENDBRANCH  17  25
ENDBRANCH   7  10
ENDBRANCH   5   6
ENDBRANCH   3   5
BRANCH   1  33
HETATM   33  C8  UNL     1     -26.734  -6.546 -11.706  1.00  0.00     0.227 C 
BRANCH  33  34
HETATM   34  C7  UNL     1     -27.286  -5.250 -11.277  1.00  0.00     0.253 C 
HETATM   35  N4  UNL     1     -26.593  -4.066 -11.627  1.00  0.00    -0.261 N 
HETATM   36  C6  UNL     1     -25.380  -4.138 -12.385  1.00  0.00     0.150 C 
HETATM   37  N14 UNL     1     -27.096  -2.837 -11.231  1.00  0.00    -0.102 NA
HETATM   38  C5  UNL     1     -24.671  -2.806 -12.263  1.00  0.00     0.051 C 
HETATM   39  C4  UNL     1     -24.762  -2.344 -10.823  1.00  0.00     0.132 C 
HETATM   40  C19 UNL     1     -26.182  -2.091 -10.406  1.00  0.00     0.254 C 
HETATM   41  O2  UNL     1     -28.357  -5.218 -10.611  1.00  0.00    -0.270 OA
BRANCH  39  42
HETATM   42  N3  UNL     1     -24.145  -3.343  -9.999  1.00  0.00    -0.351 N 
HETATM   43  C3  UNL     1     -23.476  -3.020  -8.780  1.00  0.00     0.250 C 
HETATM   44  O1  UNL     1     -23.437  -1.807  -8.437  1.00  0.00    -0.271 OA
ATOM     45  H3  UNL     1     -24.185  -4.319 -10.294  1.00  0.00     0.163 HD
BRANCH  43  46
HETATM   46  C2  UNL     1     -22.839  -4.020  -7.921  1.00  0.00     0.299 C 
BRANCH  46  47
HETATM   47  C1  UNL     1     -23.559  -5.350  -7.923  1.00  0.00     0.272 C 
BRANCH  47  48
HETATM   48  N1  UNL     1     -24.773  -5.180  -7.136  1.00  0.00    -0.077 N 
ATOM     49  H13 UNL     1     -24.623  -4.649  -6.278  1.00  0.00     0.274 HD
ATOM     50  H12 UNL     1     -25.445  -4.545  -7.568  1.00  0.00     0.274 HD
ATOM     51  H11 UNL     1     -25.154  -6.111  -6.968  1.00  0.00     0.274 HD
ENDBRANCH  47  48
ENDBRANCH  46  47
BRANCH  46  52
HETATM   52  N2  UNL     1     -22.788  -3.522  -6.563  1.00  0.00    -0.065 N 
ATOM     53  H23 UNL     1     -23.462  -2.774  -6.397  1.00  0.00     0.275 HD
ATOM     54  H22 UNL     1     -23.153  -4.193  -5.887  1.00  0.00     0.275 HD
ATOM     55  H21 UNL     1     -21.831  -3.239  -6.354  1.00  0.00     0.275 HD
ENDBRANCH  46  52
ENDBRANCH  43  46
ENDBRANCH  39  42
BRANCH  40  56
HETATM   56  O7  UNL     1     -26.463  -0.738 -10.574  1.00  0.00    -0.376 OA
ATOM     57  H7  UNL     1     -26.790  -0.600 -11.455  1.00  0.00     0.211 HD
ENDBRANCH  40  56
ENDBRANCH  33  34
ENDBRANCH   1  33
TORSDOF 13
ENDMDL
MODEL 2
REMARK VINA RESULT: -8.010634949      1.877      2.630
REMARK  13 active torsions:
REMARK  status: ('A' for Active; 'I' for Inactive)
REMARK    1  A    between atoms: N1_1  and  C1_5 
REMARK    2  A    between atoms: C1_5  and  C2_6 
REMARK    3  A    between atoms: C2_6  and  N2_7 
REMARK    4  A    between atoms: C2_6  and  C3_11 
REMARK       I    between atoms: C3_11  and  N3_13 
REMARK    5  A    between atoms: N3_13  and  C4_15 
REMARK       I    between atoms: N4_18  and  C7_19 
REMARK    6  A    between atoms: C7_19  and  C8_21 
REMARK    7  A    between atoms: C8_21  and  N5_22 
REMARK       I    between atoms: N5_22  and  C9_24 
REMARK    8  A    between atoms: C9_24  and  C10_26 
REMARK    9  A    between atoms: C10_26  and  N6_27 
REMARK       I    between atoms: N6_27  and  C11_29 
REMARK   10  A    between atoms: C11_29  and  C12_31 
REMARK   11  A    between atoms: C15_38  and  N9_39 
REMARK       I    between atoms: N9_39  and  C16_40 
REMARK       I    between atoms: C16_40  and  N10_42 
REMARK   12  A    between atoms: N10_42  and  N11_44 
REMARK   13  A    between atoms: C19_55  and  O7_56 
ROOT
HETATM    1  N5  UNL     1     -26.280  -8.104 -10.614  1.00  0.00    -0.351 N 
ATOM      2  H5  UNL     1     -26.342  -9.075 -10.308  1.00  0.00     0.163 HD
HETATM    3  C9  UNL     1     -25.069  -7.424 -10.485  1.00  0.00     0.235 C 
HETATM    4  O3  UNL     1     -24.978  -6.226 -10.883  1.00  0.00    -0.272 OA
ENDROOT
BRANCH   3   5
HETATM    5  C10 UNL     1     -23.865  -8.019  -9.909  1.00  0.00     0.225 C 
BRANCH   5   6
HETATM    6  N6  UNL     1     -23.918  -8.359  -8.510  1.00  0.00    -0.347 N 
HETATM    7  C11 UNL     1     -23.766  -7.419  -7.469  1.00  0.00     0.270 C 
HETATM    8  O4  UNL     1     -23.561  -6.220  -7.763  1.00  0.00    -0.266 OA
ATOM      9  H6  UNL     1     -24.074  -9.336  -8.258  1.00  0.00     0.163 HD
BRANCH   7  10
HETATM   10  C12 UNL     1     -23.844  -7.823  -6.081  1.00  0.00     0.117 A 
HETATM   11  C13 UNL     1     -23.590  -9.094  -5.614  1.00  0.00     0.125 A 
HETATM   12  N7  UNL     1     -23.700  -9.340  -4.291  1.00  0.00    -0.348 N 
HETATM   13  C14 UNL     1     -24.049  -8.373  -3.421  1.00  0.00     0.141 A 
ATOM     14  H7  UNL     1     -23.514 -10.280  -3.942  1.00  0.00     0.167 HD
HETATM   15  N8  UNL     1     -24.161  -8.595  -2.119  1.00  0.00    -0.300 N 
HETATM   16  C18 UNL     1     -24.299  -7.112  -3.894  1.00  0.00     0.146 A 
HETATM   17  C15 UNL     1     -24.512  -7.653  -1.194  1.00  0.00     0.268 A 
ATOM     18  H8  UNL     1     -23.970  -9.540  -1.783  1.00  0.00     0.171 HD
HETATM   19  N12 UNL     1     -24.757  -6.405  -1.679  1.00  0.00    -0.281 N 
HETATM   20  C17 UNL     1     -24.656  -6.143  -2.974  1.00  0.00     0.279 A 
ATOM     21  H12 UNL     1     -25.021  -5.660  -1.035  1.00  0.00     0.173 HD
HETATM   22  O6  UNL     1     -24.879  -4.988  -3.449  1.00  0.00    -0.265 OA
HETATM   23  N13 UNL     1     -24.200  -6.834  -5.197  1.00  0.00    -0.343 N 
ATOM     24  H13 UNL     1     -24.389  -5.890  -5.533  1.00  0.00     0.166 HD
BRANCH  17  25
HETATM   25  N9  UNL     1     -24.595  -7.921  -0.037  1.00  0.00    -0.315 NA
HETATM   26  C16 UNL     1     -24.765  -8.262   1.213  1.00  0.00     0.415 C 
HETATM   27  O5  UNL     1     -25.182  -9.447   1.523  1.00  0.00    -0.228 OA
HETATM   28  N10 UNL     1     -24.532  -7.425   2.377  1.00  0.00    -0.246 N 
ATOM     29  H10 UNL     1     -24.201  -6.468   2.249  1.00  0.00     0.192 HD
BRANCH  28  30
HETATM   30  N11 UNL     1     -24.747  -7.899   3.644  1.00  0.00    -0.340 N 
ATOM     31 2H11 UNL     1     -24.272  -8.756   3.931  1.00  0.00     0.177 HD
ATOM     32 1H11 UNL     1     -25.367  -7.411   4.291  1.00  0.00     0.177 HD
ENDBRANCH  28  30
ENDBRANCH  17  25
ENDBRANCH   7  10
ENDBRANCH   5   6
ENDBRANCH   3   5
BRANCH   1  33
HETATM   33  C8  UNL     1     -27.438  -7.469 -11.166  1.00  0.00     0.227 C 
BRANCH  33  34
HETATM   34  C7  UNL     1     -28.284  -6.907 -10.100  1.00  0.00     0.253 C 
HETATM   35  N4  UNL     1     -28.773  -5.586 -10.244  1.00  0.00    -0.261 N 
HETATM   36  C6  UNL     1     -28.445  -4.819 -11.409  1.00  0.00     0.150 C 
HETATM   37  N14 UNL     1     -29.570  -5.040  -9.251  1.00  0.00    -0.102 NA
HETATM   38  C5  UNL     1     -28.748  -3.366 -11.113  1.00  0.00     0.051 C 
HETATM   39  C4  UNL     1     -28.270  -3.051  -9.711  1.00  0.00     0.132 C 
HETATM   40  C19 UNL     1     -29.014  -3.842  -8.676  1.00  0.00     0.254 C 
HETATM   41  O2  UNL     1     -28.556  -7.606  -9.086  1.00  0.00    -0.270 OA
BRANCH  39  42
HETATM   42  N3  UNL     1     -26.860  -3.313  -9.657  1.00  0.00    -0.351 N 
HETATM   43  C3  UNL     1     -25.887  -2.345 -10.049  1.00  0.00     0.250 C 
HETATM   44  O1  UNL     1     -26.306  -1.227 -10.456  1.00  0.00    -0.271 OA
ATOM     45  H3  UNL     1     -26.541  -4.225  -9.326  1.00  0.00     0.163 HD
BRANCH  43  46
HETATM   46  C2  UNL     1     -24.445  -2.588 -10.002  1.00  0.00     0.299 C 
BRANCH  46  47
HETATM   47  C1  UNL     1     -23.814  -2.682 -11.374  1.00  0.00     0.272 C 
BRANCH  47  48
HETATM   48  N1  UNL     1     -24.750  -3.403 -12.227  1.00  0.00    -0.077 N 
ATOM     49  H13 UNL     1     -25.064  -4.284 -11.821  1.00  0.00     0.274 HD
ATOM     50  H12 UNL     1     -25.664  -2.953 -12.288  1.00  0.00     0.274 HD
ATOM     51  H11 UNL     1     -24.299  -3.519 -13.135  1.00  0.00     0.274 HD
ENDBRANCH  47  48
ENDBRANCH  46  47
BRANCH  46  52
HETATM   52  N2  UNL     1     -24.189  -3.821  -9.289  1.00  0.00    -0.065 N 
ATOM     53  H23 UNL     1     -23.722  -4.518  -9.869  1.00  0.00     0.275 HD
ATOM     54  H22 UNL     1     -23.463  -3.719  -8.580  1.00  0.00     0.275 HD
ATOM     55  H21 UNL     1     -25.069  -4.162  -8.901  1.00  0.00     0.275 HD
ENDBRANCH  46  52
ENDBRANCH  43  46
ENDBRANCH  39  42
BRANCH  40  56
HETATM   56  O7  UNL     1     -30.069  -3.070  -8.197  1.00  0.00    -0.376 OA
ATOM     57  H7  UNL     1     -30.710  -3.644  -7.793  1.00  0.00     0.211 HD
ENDBRANCH  40  56
ENDBRANCH  33  34
ENDBRANCH   1  33
TORSDOF 13
ENDMDL
MODEL 3
REMARK VINA RESULT: -7.952620548      2.987     11.105
REMARK  13 active torsions:
REMARK  status: ('A' for Active; 'I' for Inactive)
REMARK    1  A    between atoms: N1_1  and  C1_5 
REMARK    2  A    between atoms: C1_5  and  C2_6 
REMARK    3  A    between atoms: C2_6  and  N2_7 
REMARK    4  A    between atoms: C2_6  and  C3_11 
REMARK       I    between atoms: C3_11  and  N3_13 
REMARK    5  A    between atoms: N3_13  and  C4_15 
REMARK       I    between atoms: N4_18  and  C7_19 
REMARK    6  A    between atoms: C7_19  and  C8_21 
REMARK    7  A    between atoms: C8_21  and  N5_22 
REMARK       I    between atoms: N5_22  and  C9_24 
REMARK    8  A    between atoms: C9_24  and  C10_26 
REMARK    9  A    between atoms: C10_26  and  N6_27 
REMARK       I    between atoms: N6_27  and  C11_29 
REMARK   10  A    between atoms: C11_29  and  C12_31 
REMARK   11  A    between atoms: C15_38  and  N9_39 
REMARK       I    between atoms: N9_39  and  C16_40 
REMARK       I    between atoms: C16_40  and  N10_42 
REMARK   12  A    between atoms: N10_42  and  N11_44 
REMARK   13  A    between atoms: C19_55  and  O7_56 
ROOT
HETATM    1  N5  UNL     1     -22.870  -5.457  -5.547  1.00  0.00    -0.351 N 
ATOM      2  H5  UNL     1     -22.600  -5.923  -6.413  1.00  0.00     0.163 HD
HETATM    3  C9  UNL     1     -22.685  -4.080  -5.427  1.00  0.00     0.235 C 
HETATM    4  O3  UNL     1     -23.038  -3.492  -4.363  1.00  0.00    -0.272 OA
ENDROOT
BRANCH   3   5
HETATM    5  C10 UNL     1     -22.098  -3.248  -6.475  1.00  0.00     0.225 C 
BRANCH   5   6
HETATM    6  N6  UNL     1     -22.972  -2.845  -7.546  1.00  0.00    -0.347 N 
HETATM    7  C11 UNL     1     -23.319  -3.680  -8.630  1.00  0.00     0.270 C 
HETATM    8  O4  UNL     1     -22.837  -4.834  -8.682  1.00  0.00    -0.266 OA
ATOM      9  H6  UNL     1     -23.363  -1.903  -7.520  1.00  0.00     0.163 HD
BRANCH   7  10
HETATM   10  C12 UNL     1     -24.216  -3.220  -9.669  1.00  0.00     0.117 A 
HETATM   11  C13 UNL     1     -25.055  -4.032 -10.402  1.00  0.00     0.125 A 
HETATM   12  N7  UNL     1     -25.844  -3.475 -11.346  1.00  0.00    -0.348 N 
HETATM   13  C14 UNL     1     -25.829  -2.150 -11.585  1.00  0.00     0.141 A 
ATOM     14  H7  UNL     1     -26.465  -4.072 -11.892  1.00  0.00     0.167 HD
HETATM   15  N8  UNL     1     -26.597  -1.586 -12.506  1.00  0.00    -0.300 N 
HETATM   16  C18 UNL     1     -24.994  -1.351 -10.851  1.00  0.00     0.146 A 
HETATM   17  C15 UNL     1     -26.622  -0.249 -12.790  1.00  0.00     0.268 A 
ATOM     18  H8  UNL     1     -27.215  -2.195 -13.044  1.00  0.00     0.171 HD
HETATM   19  N12 UNL     1     -25.787   0.531 -12.052  1.00  0.00    -0.281 N 
HETATM   20  C17 UNL     1     -25.004   0.005 -11.121  1.00  0.00     0.279 A 
ATOM     21  H12 UNL     1     -25.764   1.538 -12.218  1.00  0.00     0.173 HD
HETATM   22  O6  UNL     1     -24.217   0.712 -10.422  1.00  0.00    -0.265 OA
HETATM   23  N13 UNL     1     -24.200  -1.868  -9.909  1.00  0.00    -0.343 N 
ATOM     24  H13 UNL     1     -23.583  -1.261  -9.371  1.00  0.00     0.166 HD
BRANCH  17  25
HETATM   25  N9  UNL     1     -27.337   0.192 -13.634  1.00  0.00    -0.315 NA
HETATM   26  C16 UNL     1     -28.124   0.590 -14.598  1.00  0.00     0.415 C 
HETATM   27  O5  UNL     1     -29.103  -0.155 -15.001  1.00  0.00    -0.228 OA
HETATM   28  N10 UNL     1     -28.036   1.845 -15.324  1.00  0.00    -0.246 N 
ATOM     29  H10 UNL     1     -27.299   2.510 -15.088  1.00  0.00     0.192 HD
BRANCH  28  30
HETATM   30  N11 UNL     1     -28.925   2.151 -16.321  1.00  0.00    -0.340 N 
ATOM     31 2H11 UNL     1     -29.022   1.501 -17.102  1.00  0.00     0.177 HD
ATOM     32 1H11 UNL     1     -29.480   3.005 -16.287  1.00  0.00     0.177 HD
ENDBRANCH  28  30
ENDBRANCH  17  25
ENDBRANCH   7  10
ENDBRANCH   5   6
ENDBRANCH   3   5
BRANCH   1  33
HETATM   33  C8  UNL     1     -23.431  -6.232  -4.482  1.00  0.00     0.227 C 
BRANCH  33  34
HETATM   34  C7  UNL     1     -23.681  -7.616  -4.917  1.00  0.00     0.253 C 
HETATM   35  N4  UNL     1     -24.637  -8.388  -4.216  1.00  0.00    -0.261 N 
HETATM   36  C6  UNL     1     -25.345  -7.824  -3.106  1.00  0.00     0.150 C 
HETATM   37  N14 UNL     1     -24.886  -9.693  -4.611  1.00  0.00    -0.102 NA
HETATM   38  C5  UNL     1     -25.975  -8.958  -2.326  1.00  0.00     0.051 C 
HETATM   39  C4  UNL     1     -24.970 -10.087  -2.224  1.00  0.00     0.132 C 
HETATM   40  C19 UNL     1     -24.630 -10.656  -3.571  1.00  0.00     0.254 C 
HETATM   41  O2  UNL     1     -23.043  -8.086  -5.899  1.00  0.00    -0.270 OA
BRANCH  39  42
HETATM   42  N3  UNL     1     -23.802  -9.580  -1.561  1.00  0.00    -0.351 N 
HETATM   43  C3  UNL     1     -23.667  -9.590  -0.140  1.00  0.00     0.250 C 
HETATM   44  O1  UNL     1     -24.621 -10.065   0.536  1.00  0.00    -0.271 OA
ATOM     45  H3  UNL     1     -23.042  -9.198  -2.125  1.00  0.00     0.163 HD
BRANCH  43  46
HETATM   46  C2  UNL     1     -22.488  -9.079   0.561  1.00  0.00     0.299 C 
BRANCH  46  47
HETATM   47  C1  UNL     1     -22.656  -9.050   2.064  1.00  0.00     0.272 C 
BRANCH  47  48
HETATM   48  N1  UNL     1     -23.243  -7.760   2.404  1.00  0.00    -0.077 N 
ATOM     49  H13 UNL     1     -23.869  -7.402   1.682  1.00  0.00     0.274 HD
ATOM     50  H12 UNL     1     -23.929  -7.818   3.156  1.00  0.00     0.274 HD
ATOM     51  H11 UNL     1     -22.472  -7.126   2.614  1.00  0.00     0.274 HD
ENDBRANCH  47  48
ENDBRANCH  46  47
BRANCH  46  52
HETATM   52  N2  UNL     1     -22.201  -7.737   0.100  1.00  0.00    -0.065 N 
ATOM     53  H23 UNL     1     -22.221  -7.053   0.856  1.00  0.00     0.275 HD
ATOM     54  H22 UNL     1     -21.225  -7.618  -0.172  1.00  0.00     0.275 HD
ATOM     55  H21 UNL     1     -22.848  -7.506  -0.654  1.00  0.00     0.275 HD
ENDBRANCH  46  52
ENDBRANCH  43  46
ENDBRANCH  39  42
BRANCH  40  56
HETATM   56  O7  UNL     1     -25.441 -11.763  -3.805  1.00  0.00    -0.376 OA
ATOM     57  H7  UNL     1     -25.192 -12.154  -4.635  1.00  0.00     0.211 HD
ENDBRANCH  40  56
ENDBRANCH  33  34
ENDBRANCH   1  33
TORSDOF 13
ENDMDL
MODEL 4
REMARK VINA RESULT: -7.865145745      2.647      5.868
REMARK  13 active torsions:
REMARK  status: ('A' for Active; 'I' for Inactive)
REMARK    1  A    between atoms: N1_1  and  C1_5 
REMARK    2  A    between atoms: C1_5  and  C2_6 
REMARK    3  A    between atoms: C2_6  and  N2_7 
REMARK    4  A    between atoms: C2_6  and  C3_11 
REMARK       I    between atoms: C3_11  and  N3_13 
REMARK    5  A    between atoms: N3_13  and  C4_15 
REMARK       I    between atoms: N4_18  and  C7_19 
REMARK    6  A    between atoms: C7_19  and  C8_21 
REMARK    7  A    between atoms: C8_21  and  N5_22 
REMARK       I    between atoms: N5_22  and  C9_24 
REMARK    8  A    between atoms: C9_24  and  C10_26 
REMARK    9  A    between atoms: C10_26  and  N6_27 
REMARK       I    between atoms: N6_27  and  C11_29 
REMARK   10  A    between atoms: C11_29  and  C12_31 
REMARK   11  A    between atoms: C15_38  and  N9_39 
REMARK       I    between atoms: N9_39  and  C16_40 
REMARK       I    between atoms: C16_40  and  N10_42 
REMARK   12  A    between atoms: N10_42  and  N11_44 
REMARK   13  A    between atoms: C19_55  and  O7_56 
ROOT
HETATM    1  N5  UNL     1     -23.305  -2.960  -7.128  1.00  0.00    -0.351 N 
ATOM      2  H5  UNL     1     -24.072  -3.553  -6.812  1.00  0.00     0.163 HD
HETATM    3  C9  UNL     1     -22.143  -2.881  -6.360  1.00  0.00     0.235 C 
HETATM    4  O3  UNL     1     -21.179  -2.164  -6.757  1.00  0.00    -0.272 OA
ENDROOT
BRANCH   3   5
HETATM    5  C10 UNL     1     -21.958  -3.591  -5.097  1.00  0.00     0.225 C 
BRANCH   5   6
HETATM    6  N6  UNL     1     -22.467  -4.938  -5.032  1.00  0.00    -0.347 N 
HETATM    7  C11 UNL     1     -23.519  -5.337  -4.181  1.00  0.00     0.270 C 
HETATM    8  O4  UNL     1     -24.040  -4.487  -3.424  1.00  0.00    -0.266 OA
ATOM      9  H6  UNL     1     -22.043  -5.642  -5.637  1.00  0.00     0.163 HD
BRANCH   7  10
HETATM   10  C12 UNL     1     -23.995  -6.705  -4.173  1.00  0.00     0.117 A 
HETATM   11  C13 UNL     1     -24.655  -7.303  -3.121  1.00  0.00     0.125 A 
HETATM   12  N7  UNL     1     -25.047  -8.589  -3.243  1.00  0.00    -0.348 N 
HETATM   13  C14 UNL     1     -24.810  -9.296  -4.364  1.00  0.00     0.141 A 
ATOM     14  H7  UNL     1     -25.535  -9.037  -2.467  1.00  0.00     0.167 HD
HETATM   15  N8  UNL     1     -25.188 -10.559  -4.501  1.00  0.00    -0.300 N 
HETATM   16  C18 UNL     1     -24.154  -8.692  -5.404  1.00  0.00     0.146 A 
HETATM   17  C15 UNL     1     -24.973 -11.322  -5.615  1.00  0.00     0.268 A 
ATOM     18  H8  UNL     1     -25.677 -10.994  -3.718  1.00  0.00     0.171 HD
HETATM   19  N12 UNL     1     -24.321 -10.708  -6.639  1.00  0.00    -0.281 N 
HETATM   20  C17 UNL     1     -23.926  -9.446  -6.540  1.00  0.00     0.279 A 
ATOM     21  H12 UNL     1     -24.133 -11.227  -7.497  1.00  0.00     0.173 HD
HETATM   22  O6  UNL     1     -23.317  -8.854  -7.482  1.00  0.00    -0.265 OA
HETATM   23  N13 UNL     1     -23.752  -7.422  -5.318  1.00  0.00    -0.343 N 
ATOM     24  H13 UNL     1     -23.265  -6.986  -6.101  1.00  0.00     0.166 HD
BRANCH  17  25
HETATM   25  N9  UNL     1     -25.339 -12.453  -5.671  1.00  0.00    -0.315 NA
HETATM   26  C16 UNL     1     -25.655 -13.718  -5.760  1.00  0.00     0.415 C 
HETATM   27  O5  UNL     1     -24.831 -14.633  -5.363  1.00  0.00    -0.228 OA
HETATM   28  N10 UNL     1     -26.895 -14.265  -6.284  1.00  0.00    -0.246 N 
ATOM     29  H10 UNL     1     -27.618 -13.631  -6.626  1.00  0.00     0.192 HD
BRANCH  28  30
HETATM   30  N11 UNL     1     -27.110 -15.617  -6.325  1.00  0.00    -0.340 N 
ATOM     31 2H11 UNL     1     -26.350 -16.222  -6.638  1.00  0.00     0.177 HD
ATOM     32 1H11 UNL     1     -28.007 -16.017  -6.050  1.00  0.00     0.177 HD
ENDBRANCH  28  30
ENDBRANCH  17  25
ENDBRANCH   7  10
ENDBRANCH   5   6
ENDBRANCH   3   5
BRANCH   1  33
HETATM   33  C8  UNL     1     -23.445  -2.226  -8.349  1.00  0.00     0.227 C 
BRANCH  33  34
HETATM   34  C7  UNL     1     -23.509  -3.139  -9.503  1.00  0.00     0.253 C 
HETATM   35  N4  UNL     1     -24.510  -2.931 -10.481  1.00  0.00    -0.261 N 
HETATM   36  C6  UNL     1     -25.439  -1.850 -10.343  1.00  0.00     0.150 C 
HETATM   37  N14 UNL     1     -24.587  -3.781 -11.573  1.00  0.00    -0.102 NA
HETATM   38  C5  UNL     1     -26.601  -2.107 -11.278  1.00  0.00     0.051 C 
HETATM   39  C4  UNL     1     -26.969  -3.575 -11.195  1.00  0.00     0.132 C 
HETATM   40  C19 UNL     1     -25.853  -4.457 -11.675  1.00  0.00     0.254 C 
HETATM   41  O2  UNL     1     -22.677  -4.083  -9.598  1.00  0.00    -0.270 OA
BRANCH  39  42
HETATM   42  N3  UNL     1     -27.317  -3.866  -9.833  1.00  0.00    -0.351 N 
HETATM   43  C3  UNL     1     -28.539  -4.513  -9.480  1.00  0.00     0.250 C 
HETATM   44  O1  UNL     1     -29.325  -4.829 -10.414  1.00  0.00    -0.271 OA
ATOM     45  H3  UNL     1     -26.668  -3.601  -9.091  1.00  0.00     0.163 HD
BRANCH  43  46
HETATM   46  C2  UNL     1     -28.917  -4.822  -8.100  1.00  0.00     0.299 C 
BRANCH  46  47
HETATM   47  C1  UNL     1     -30.351  -4.458  -7.782  1.00  0.00     0.272 C 
BRANCH  47  48
HETATM   48  N1  UNL     1     -30.574  -3.112  -8.293  1.00  0.00    -0.077 N 
ATOM     49  H13 UNL     1     -30.689  -2.418  -7.554  1.00  0.00     0.274 HD
ATOM     50  H12 UNL     1     -29.745  -2.705  -8.726  1.00  0.00     0.274 HD
ATOM     51  H11 UNL     1     -31.373  -3.160  -8.924  1.00  0.00     0.274 HD
ENDBRANCH  47  48
ENDBRANCH  46  47
BRANCH  46  52
HETATM   52  N2  UNL     1     -28.045  -4.107  -7.193  1.00  0.00    -0.065 N 
ATOM     53  H23 UNL     1     -27.475  -3.408  -7.670  1.00  0.00     0.275 HD
ATOM     54  H22 UNL     1     -28.556  -3.475  -6.577  1.00  0.00     0.275 HD
ATOM     55  H21 UNL     1     -27.483  -4.784  -6.678  1.00  0.00     0.275 HD
ENDBRANCH  46  52
ENDBRANCH  43  46
ENDBRANCH  39  42
BRANCH  40  56
HETATM   56  O7  UNL     1     -26.069  -4.759 -13.017  1.00  0.00    -0.376 OA
ATOM     57  H7  UNL     1     -25.308  -4.488 -13.518  1.00  0.00     0.211 HD
ENDBRANCH  40  56
ENDBRANCH  33  34
ENDBRANCH   1  33
TORSDOF 13
ENDMDL
MODEL 5
REMARK VINA RESULT: -7.859719392      2.326      9.358
REMARK  13 active torsions:
REMARK  status: ('A' for Active; 'I' for Inactive)
REMARK    1  A    between atoms: N1_1  and  C1_5 
REMARK    2  A    between atoms: C1_5  and  C2_6 
REMARK    3  A    between atoms: C2_6  and  N2_7 
REMARK    4  A    between atoms: C2_6  and  C3_11 
REMARK       I    between atoms: C3_11  and  N3_13 
REMARK    5  A    between atoms: N3_13  and  C4_15 
REMARK       I    between atoms: N4_18  and  C7_19 
REMARK    6  A    between atoms: C7_19  and  C8_21 
REMARK    7  A    between atoms: C8_21  and  N5_22 
REMARK       I    between atoms: N5_22  and  C9_24 
REMARK    8  A    between atoms: C9_24  and  C10_26 
REMARK    9  A    between atoms: C10_26  and  N6_27 
REMARK       I    between atoms: N6_27  and  C11_29 
REMARK   10  A    between atoms: C11_29  and  C12_31 
REMARK   11  A    between atoms: C15_38  and  N9_39 
REMARK       I    between atoms: N9_39  and  C16_40 
REMARK       I    between atoms: C16_40  and  N10_42 
REMARK   12  A    between atoms: N10_42  and  N11_44 
REMARK   13  A    between atoms: C19_55  and  O7_56 
ROOT
HETATM    1  N5  UNL     1     -24.927 -12.005  -3.977  1.00  0.00    -0.351 N 
ATOM      2  H5  UNL     1     -24.260 -12.735  -4.227  1.00  0.00     0.163 HD
HETATM    3  C9  UNL     1     -25.226 -11.006  -4.903  1.00  0.00     0.235 C 
HETATM    4  O3  UNL     1     -26.069 -10.110  -4.607  1.00  0.00    -0.272 OA
ENDROOT
BRANCH   3   5
HETATM    5  C10 UNL     1     -24.616 -10.924  -6.229  1.00  0.00     0.225 C 
BRANCH   5   6
HETATM    6  N6  UNL     1     -24.983  -9.792  -7.040  1.00  0.00    -0.347 N 
HETATM    7  C11 UNL     1     -24.128  -9.204  -7.997  1.00  0.00     0.270 C 
HETATM    8  O4  UNL     1     -22.979  -9.676  -8.151  1.00  0.00    -0.266 OA
ATOM      9  H6  UNL     1     -25.914  -9.392  -6.917  1.00  0.00     0.163 HD
BRANCH   7  10
HETATM   10  C12 UNL     1     -24.562  -8.075  -8.793  1.00  0.00     0.117 A 
HETATM   11  C13 UNL     1     -25.448  -8.147  -9.845  1.00  0.00     0.125 A 
HETATM   12  N7  UNL     1     -25.770  -7.015 -10.508  1.00  0.00    -0.348 N 
HETATM   13  C14 UNL     1     -25.247  -5.823 -10.162  1.00  0.00     0.141 A 
ATOM     14  H7  UNL     1     -26.425  -7.064 -11.288  1.00  0.00     0.167 HD
HETATM   15  N8  UNL     1     -25.553  -4.702 -10.801  1.00  0.00    -0.300 N 
HETATM   16  C18 UNL     1     -24.368  -5.761  -9.114  1.00  0.00     0.146 A 
HETATM   17  C15 UNL     1     -25.052  -3.468 -10.493  1.00  0.00     0.268 A 
ATOM     18  H8  UNL     1     -26.211  -4.765 -11.578  1.00  0.00     0.171 HD
HETATM   19  N12 UNL     1     -24.181  -3.423  -9.450  1.00  0.00    -0.281 N 
HETATM   20  C17 UNL     1     -23.850  -4.522  -8.787  1.00  0.00     0.279 A 
ATOM     21  H12 UNL     1     -23.775  -2.528  -9.173  1.00  0.00     0.173 HD
HETATM   22  O6  UNL     1     -23.040  -4.504  -7.811  1.00  0.00    -0.265 OA
HETATM   23  N13 UNL     1     -24.027  -6.861  -8.437  1.00  0.00    -0.343 N 
ATOM     24  H13 UNL     1     -23.372  -6.799  -7.659  1.00  0.00     0.166 HD
BRANCH  17  25
HETATM   25  N9  UNL     1     -25.369  -2.500 -11.110  1.00  0.00    -0.315 NA
HETATM   26  C16 UNL     1     -25.785  -1.489 -11.824  1.00  0.00     0.415 C 
HETATM   27  O5  UNL     1     -27.051  -1.257 -11.965  1.00  0.00    -0.228 OA
HETATM   28  N10 UNL     1     -24.956  -0.527 -12.528  1.00  0.00    -0.246 N 
ATOM     29  H10 UNL     1     -23.940  -0.615 -12.486  1.00  0.00     0.192 HD
BRANCH  28  30
HETATM   30  N11 UNL     1     -25.514   0.497 -13.248  1.00  0.00    -0.340 N 
ATOM     31 2H11 UNL     1     -25.277   0.583 -14.237  1.00  0.00     0.177 HD
ATOM     32 1H11 UNL     1     -26.152   1.161 -12.811  1.00  0.00     0.177 HD
ENDBRANCH  28  30
ENDBRANCH  17  25
ENDBRANCH   7  10
ENDBRANCH   5   6
ENDBRANCH   3   5
BRANCH   1  33
HETATM   33  C8  UNL     1     -25.537 -12.029  -2.681  1.00  0.00     0.227 C 
BRANCH  33  34
HETATM   34  C7  UNL     1     -24.612 -11.511  -1.659  1.00  0.00     0.253 C 
HETATM   35  N4  UNL     1     -24.933 -10.299  -1.002  1.00  0.00    -0.261 N 
HETATM   36  C6  UNL     1     -26.138  -9.597  -1.332  1.00  0.00     0.150 C 
HETATM   37  N14 UNL     1     -24.075  -9.795  -0.038  1.00  0.00    -0.102 NA
HETATM   38  C5  UNL     1     -26.021  -8.187  -0.794  1.00  0.00     0.051 C 
HETATM   39  C4  UNL     1     -24.622  -7.679  -1.078  1.00  0.00     0.132 C 
HETATM   40  C19 UNL     1     -23.580  -8.480  -0.353  1.00  0.00     0.254 C 
HETATM   41  O2  UNL     1     -23.559 -12.151  -1.389  1.00  0.00    -0.270 OA
BRANCH  39  42
HETATM   42  N3  UNL     1     -24.418  -7.717  -2.498  1.00  0.00    -0.351 N 
HETATM   43  C3  UNL     1     -24.599  -6.568  -3.325  1.00  0.00     0.250 C 
HETATM   44  O1  UNL     1     -24.952  -5.494  -2.766  1.00  0.00    -0.271 OA
ATOM     45  H3  UNL     1     -24.134  -8.596  -2.931  1.00  0.00     0.163 HD
BRANCH  43  46
HETATM   46  C2  UNL     1     -24.397  -6.580  -4.775  1.00  0.00     0.299 C 
BRANCH  46  47
HETATM   47  C1  UNL     1     -22.970  -6.885  -5.173  1.00  0.00     0.272 C 
BRANCH  47  48
HETATM   48  N1  UNL     1     -22.207  -5.654  -5.012  1.00  0.00    -0.077 N 
ATOM     49  H13 UNL     1     -22.344  -5.215  -4.102  1.00  0.00     0.274 HD
ATOM     50  H12 UNL     1     -21.203  -5.813  -4.931  1.00  0.00     0.274 HD
ATOM     51  H11 UNL     1     -22.454  -5.045  -5.792  1.00  0.00     0.274 HD
ENDBRANCH  47  48
ENDBRANCH  46  47
BRANCH  46  52
HETATM   52  N2  UNL     1     -24.764  -5.290  -5.320  1.00  0.00    -0.065 N 
ATOM     53  H23 UNL     1     -25.517  -4.845  -4.795  1.00  0.00     0.275 HD
ATOM     54  H22 UNL     1     -24.046  -4.582  -5.164  1.00  0.00     0.275 HD
ATOM     55  H21 UNL     1     -24.991  -5.405  -6.307  1.00  0.00     0.275 HD
ENDBRANCH  46  52
ENDBRANCH  43  46
ENDBRANCH  39  42
BRANCH  40  56
HETATM   56  O7  UNL     1     -23.277  -7.840   0.845  1.00  0.00    -0.376 OA
ATOM     57  H7  UNL     1     -23.993  -7.976   1.454  1.00  0.00     0.211 HD
ENDBRANCH  40  56
ENDBRANCH  33  34
ENDBRANCH   1  33
TORSDOF 13
ENDMDL
