MODEL 1
REMARK VINA RESULT: -7.411530201      0.000      0.000
REMARK  4 active torsions:
REMARK  status: ('A' for Active; 'I' for Inactive)
REMARK    1  A    between atoms: C4_5  and  N1_6 
REMARK    2  A    between atoms: N2_9  and  C7_10 
REMARK    3  A    between atoms: C7_10  and  N3_11 
REMARK    4  A    between atoms: C8_12  and  C9_13 
ROOT
HETATM    1  N1  UNL     1      -1.682   6.034  13.013  1.00  0.00     0.099 N 
HETATM    2  C5  UNL     1      -2.357   5.772  11.790  1.00  0.00     0.317 C 
HETATM    3  C6  UNL     1      -3.171   4.530  11.670  1.00  0.00     0.094 C 
HETATM    4  N2  UNL     1      -3.430   3.864  12.836  1.00  0.00    -0.353 N 
HETATM    5  C11 UNL     1      -3.257   4.540  14.106  1.00  0.00     0.159 C 
HETATM    6  C12 UNL     1      -1.921   5.175  14.113  1.00  0.00     0.293 C 
ENDROOT
BRANCH   4   7
HETATM    7  C7  UNL     1      -4.527   2.998  13.016  1.00  0.00     0.194 C 
BRANCH   7   8
HETATM    8  N3  UNL     1      -4.375   1.641  13.374  1.00  0.00    -0.264 N 
HETATM    9  C8  UNL     1      -4.368   1.046  14.541  1.00  0.00     0.215 A 
HETATM   10  N4  UNL     1      -4.144  -0.290  14.366  1.00  0.00    -0.279 N 
HETATM   11  N5  UNL     1      -4.020  -0.489  13.078  1.00  0.00    -0.274 N 
ATOM     12  H4  UNL     1      -4.085  -0.997  15.098  1.00  0.00     0.188 HD
HETATM   13  C10 UNL     1      -4.158   0.686  12.395  1.00  0.00     0.199 A 
ATOM     14  H5  UNL     1      -3.844  -1.396  12.645  1.00  0.00     0.189 HD
HETATM   15  S1  UNL     1      -4.185   0.900  10.795  1.00  0.00    -0.039 SA
BRANCH   9  16
HETATM   16  C9  UNL     1      -4.614   1.611  15.876  1.00  0.00     0.451 C 
HETATM   17  F2  UNL     1      -5.506   2.639  15.917  1.00  0.00    -0.163 F 
HETATM   18  F3  UNL     1      -3.426   2.147  16.424  1.00  0.00    -0.163 F 
HETATM   19  F4  UNL     1      -4.980   0.573  16.762  1.00  0.00    -0.163 F 
ENDBRANCH   9  16
ENDBRANCH   7   8
ENDBRANCH   4   7
BRANCH   1  20
HETATM   20  C4  UNL     1      -1.821   7.434  13.391  1.00  0.00     0.223 C 
HETATM   21  C3  UNL     1      -0.539   8.155  12.960  1.00  0.00     0.038 C 
HETATM   22  C2  UNL     1      -0.897   9.633  12.985  1.00  0.00     0.039 C 
HETATM   23  C1  UNL     1      -1.146  10.014  14.415  1.00  0.00     0.170 C 
HETATM   24  F1  UNL     1      -0.062  10.815  14.798  1.00  0.00    -0.249 F 
HETATM   25  C14 UNL     1      -1.210   8.877  15.366  1.00  0.00     0.039 C 
HETATM   26  C13 UNL     1      -1.939   7.659  14.871  1.00  0.00     0.038 C 
ENDBRANCH   1  20
TORSDOF 4
ENDMDL
MODEL 2
REMARK VINA RESULT: -7.276840643      2.633      3.417
REMARK  4 active torsions:
REMARK  status: ('A' for Active; 'I' for Inactive)
REMARK    1  A    between atoms: C4_5  and  N1_6 
REMARK    2  A    between atoms: N2_9  and  C7_10 
REMARK    3  A    between atoms: C7_10  and  N3_11 
REMARK    4  A    between atoms: C8_12  and  C9_13 
ROOT
HETATM    1  N1  UNL     1      -2.505   5.784  13.069  1.00  0.00     0.099 N 
HETATM    2  C5  UNL     1      -2.196   4.934  14.165  1.00  0.00     0.317 C 
HETATM    3  C6  UNL     1      -3.293   4.143  14.792  1.00  0.00     0.094 C 
HETATM    4  N2  UNL     1      -4.469   4.086  14.096  1.00  0.00    -0.353 N 
HETATM    5  C11 UNL     1      -4.492   4.439  12.691  1.00  0.00     0.159 C 
HETATM    6  C12 UNL     1      -3.813   5.742  12.530  1.00  0.00     0.293 C 
ENDROOT
BRANCH   4   7
HETATM    7  C7  UNL     1      -5.416   3.053  14.242  1.00  0.00     0.194 C 
BRANCH   7   8
HETATM    8  N3  UNL     1      -5.116   1.831  14.882  1.00  0.00    -0.264 N 
HETATM    9  C8  UNL     1      -5.448   1.362  16.059  1.00  0.00     0.215 A 
HETATM   10  N4  UNL     1      -4.873   0.135  16.236  1.00  0.00    -0.279 N 
HETATM   11  N5  UNL     1      -4.193  -0.126  15.149  1.00  0.00    -0.274 N 
ATOM     12  H4  UNL     1      -4.957  -0.462  17.059  1.00  0.00     0.188 HD
HETATM   13  C10 UNL     1      -4.307   0.899  14.253  1.00  0.00     0.199 A 
ATOM     14  H5  UNL     1      -3.653  -0.978  14.993  1.00  0.00     0.189 HD
HETATM   15  S1  UNL     1      -3.728   0.962  12.747  1.00  0.00    -0.039 SA
BRANCH   9  16
HETATM   16  C9  UNL     1      -6.339   1.942  17.075  1.00  0.00     0.451 C 
HETATM   17  F2  UNL     1      -6.624   3.264  16.912  1.00  0.00    -0.163 F 
HETATM   18  F3  UNL     1      -5.759   1.858  18.361  1.00  0.00    -0.163 F 
HETATM   19  F4  UNL     1      -7.517   1.165  17.162  1.00  0.00    -0.163 F 
ENDBRANCH   9  16
ENDBRANCH   7   8
ENDBRANCH   4   7
BRANCH   1  20
HETATM   20  C4  UNL     1      -1.495   5.670  12.026  1.00  0.00     0.223 C 
HETATM   21  C3  UNL     1      -0.932   4.245  12.085  1.00  0.00     0.038 C 
HETATM   22  C2  UNL     1      -0.222   4.053  10.754  1.00  0.00     0.039 C 
HETATM   23  C1  UNL     1       0.957   4.981  10.732  1.00  0.00     0.170 C 
HETATM   24  F1  UNL     1       2.093   4.169  10.850  1.00  0.00    -0.249 F 
HETATM   25  C14 UNL     1       1.002   5.966  11.840  1.00  0.00     0.039 C 
HETATM   26  C13 UNL     1      -0.317   6.583  12.212  1.00  0.00     0.038 C 
ENDBRANCH   1  20
TORSDOF 4
ENDMDL
MODEL 3
REMARK VINA RESULT: -7.263663232      2.408      2.777
REMARK  4 active torsions:
REMARK  status: ('A' for Active; 'I' for Inactive)
REMARK    1  A    between atoms: C4_5  and  N1_6 
REMARK    2  A    between atoms: N2_9  and  C7_10 
REMARK    3  A    between atoms: C7_10  and  N3_11 
REMARK    4  A    between atoms: C8_12  and  C9_13 
ROOT
HETATM    1  N1  UNL     1      -1.854   6.261  13.017  1.00  0.00     0.099 N 
HETATM    2  C5  UNL     1      -2.667   5.969  11.889  1.00  0.00     0.317 C 
HETATM    3  C6  UNL     1      -3.433   4.690  11.867  1.00  0.00     0.094 C 
HETATM    4  N2  UNL     1      -3.510   4.013  13.053  1.00  0.00    -0.353 N 
HETATM    5  C11 UNL     1      -3.206   4.697  14.294  1.00  0.00     0.159 C 
HETATM    6  C12 UNL     1      -1.911   5.392  14.134  1.00  0.00     0.293 C 
ENDROOT
BRANCH   4   7
HETATM    7  C7  UNL     1      -4.534   3.098  13.367  1.00  0.00     0.194 C 
BRANCH   7   8
HETATM    8  N3  UNL     1      -4.321   1.703  13.411  1.00  0.00    -0.264 N 
HETATM    9  C8  UNL     1      -4.094   0.829  12.463  1.00  0.00     0.215 A 
HETATM   10  N4  UNL     1      -3.994  -0.418  13.012  1.00  0.00    -0.279 N 
HETATM   11  N5  UNL     1      -4.160  -0.280  14.303  1.00  0.00    -0.274 N 
ATOM     12  H4  UNL     1      -3.822  -1.290  12.512  1.00  0.00     0.188 HD
HETATM   13  C10 UNL     1      -4.366   1.033  14.622  1.00  0.00     0.199 A 
ATOM     14  H5  UNL     1      -4.138  -1.045  14.977  1.00  0.00     0.189 HD
HETATM   15  S1  UNL     1      -4.511   1.679  16.095  1.00  0.00    -0.039 SA
BRANCH   9  16
HETATM   16  C9  UNL     1      -3.897   1.047  11.022  1.00  0.00     0.451 C 
HETATM   17  F2  UNL     1      -4.857   1.797  10.411  1.00  0.00    -0.163 F 
HETATM   18  F3  UNL     1      -3.902  -0.180  10.321  1.00  0.00    -0.163 F 
HETATM   19  F4  UNL     1      -2.606   1.580  10.803  1.00  0.00    -0.163 F 
ENDBRANCH   9  16
ENDBRANCH   7   8
ENDBRANCH   4   7
BRANCH   1  20
HETATM   20  C4  UNL     1      -2.007   7.653  13.418  1.00  0.00     0.223 C 
HETATM   21  C3  UNL     1      -0.954   8.468  12.658  1.00  0.00     0.038 C 
HETATM   22  C2  UNL     1      -1.419   9.911  12.778  1.00  0.00     0.039 C 
HETATM   23  C1  UNL     1      -1.307  10.304  14.222  1.00  0.00     0.170 C 
HETATM   24  F1  UNL     1      -0.235  11.201  14.299  1.00  0.00    -0.249 F 
HETATM   25  C14 UNL     1      -1.017   9.189  15.156  1.00  0.00     0.039 C 
HETATM   26  C13 UNL     1      -1.744   7.903  14.875  1.00  0.00     0.038 C 
ENDBRANCH   1  20
TORSDOF 4
ENDMDL
MODEL 4
REMARK VINA RESULT: -7.068648629      1.449      1.963
REMARK  4 active torsions:
REMARK  status: ('A' for Active; 'I' for Inactive)
REMARK    1  A    between atoms: C4_5  and  N1_6 
REMARK    2  A    between atoms: N2_9  and  C7_10 
REMARK    3  A    between atoms: C7_10  and  N3_11 
REMARK    4  A    between atoms: C8_12  and  C9_13 
ROOT
HETATM    1  N1  UNL     1      -1.843   5.642  11.500  1.00  0.00     0.099 N 
HETATM    2  C5  UNL     1      -3.211   5.947  11.265  1.00  0.00     0.317 C 
HETATM    3  C6  UNL     1      -4.163   4.828  11.010  1.00  0.00     0.094 C 
HETATM    4  N2  UNL     1      -3.703   3.570  11.288  1.00  0.00    -0.353 N 
HETATM    5  C11 UNL     1      -2.535   3.400  12.130  1.00  0.00     0.159 C 
HETATM    6  C12 UNL     1      -1.465   4.283  11.619  1.00  0.00     0.293 C 
ENDROOT
BRANCH   4   7
HETATM    7  C7  UNL     1      -4.542   2.477  11.580  1.00  0.00     0.194 C 
BRANCH   7   8
HETATM    8  N3  UNL     1      -4.417   1.717  12.763  1.00  0.00    -0.264 N 
HETATM    9  C8  UNL     1      -4.567   2.040  14.023  1.00  0.00     0.215 A 
HETATM   10  N4  UNL     1      -4.295   0.952  14.805  1.00  0.00    -0.279 N 
HETATM   11  N5  UNL     1      -3.983  -0.028  13.996  1.00  0.00    -0.274 N 
ATOM     12  H4  UNL     1      -4.329   0.913  15.823  1.00  0.00     0.188 HD
HETATM   13  C10 UNL     1      -4.044   0.385  12.695  1.00  0.00     0.199 A 
ATOM     14  H5  UNL     1      -3.730  -0.970  14.296  1.00  0.00     0.189 HD
HETATM   15  S1  UNL     1      -3.844  -0.510  11.366  1.00  0.00    -0.039 SA
BRANCH   9  16
HETATM   16  C9  UNL     1      -5.013   3.312  14.612  1.00  0.00     0.451 C 
HETATM   17  F2  UNL     1      -5.742   4.111  13.785  1.00  0.00    -0.163 F 
HETATM   18  F3  UNL     1      -3.909   4.105  14.995  1.00  0.00    -0.163 F 
HETATM   19  F4  UNL     1      -5.702   3.051  15.819  1.00  0.00    -0.163 F 
ENDBRANCH   9  16
ENDBRANCH   7   8
ENDBRANCH   4   7
BRANCH   1  20
HETATM   20  C4  UNL     1      -1.318   6.440  12.600  1.00  0.00     0.223 C 
HETATM   21  C3  UNL     1      -2.516   6.960  13.403  1.00  0.00     0.038 C 
HETATM   22  C2  UNL     1      -1.928   7.407  14.732  1.00  0.00     0.039 C 
HETATM   23  C1  UNL     1      -1.045   8.591  14.460  1.00  0.00     0.170 C 
HETATM   24  F1  UNL     1      -1.714   9.703  14.988  1.00  0.00    -0.249 F 
HETATM   25  C14 UNL     1      -0.791   8.868  13.026  1.00  0.00     0.039 C 
HETATM   26  C13 UNL     1      -0.559   7.659  12.163  1.00  0.00     0.038 C 
ENDBRANCH   1  20
TORSDOF 4
ENDMDL
MODEL 5
REMARK VINA RESULT: -7.032078273      3.669      4.369
REMARK  4 active torsions:
REMARK  status: ('A' for Active; 'I' for Inactive)
REMARK    1  A    between atoms: C4_5  and  N1_6 
REMARK    2  A    between atoms: N2_9  and  C7_10 
REMARK    3  A    between atoms: C7_10  and  N3_11 
REMARK    4  A    between atoms: C8_12  and  C9_13 
ROOT
HETATM    1  N1  UNL     1      -0.756   3.878   9.537  1.00  0.00     0.099 N 
HETATM    2  C5  UNL     1      -1.908   4.633   9.190  1.00  0.00     0.317 C 
HETATM    3  C6  UNL     1      -3.239   4.184   9.689  1.00  0.00     0.094 C 
HETATM    4  N2  UNL     1      -3.224   3.230  10.669  1.00  0.00    -0.353 N 
HETATM    5  C11 UNL     1      -2.008   2.985  11.418  1.00  0.00     0.159 C 
HETATM    6  C12 UNL     1      -0.900   2.810  10.455  1.00  0.00     0.293 C 
ENDROOT
BRANCH   4   7
HETATM    7  C7  UNL     1      -4.278   3.031  11.584  1.00  0.00     0.194 C 
BRANCH   7   8
HETATM    8  N3  UNL     1      -4.205   2.092  12.635  1.00  0.00    -0.264 N 
HETATM    9  C8  UNL     1      -4.139   0.784  12.628  1.00  0.00     0.215 A 
HETATM   10  N4  UNL     1      -4.127   0.325  13.915  1.00  0.00    -0.279 N 
HETATM   11  N5  UNL     1      -4.184   1.376  14.694  1.00  0.00    -0.274 N 
ATOM     12  H4  UNL     1      -4.082  -0.649  14.212  1.00  0.00     0.188 HD
HETATM   13  C10 UNL     1      -4.231   2.522  13.951  1.00  0.00     0.199 A 
ATOM     14  H5  UNL     1      -4.191   1.343  15.714  1.00  0.00     0.189 HD
HETATM   15  S1  UNL     1      -4.202   4.045  14.485  1.00  0.00    -0.039 SA
BRANCH   9  16
HETATM   16  C9  UNL     1      -4.026  -0.137  11.487  1.00  0.00     0.451 C 
HETATM   17  F2  UNL     1      -4.901   0.089  10.468  1.00  0.00    -0.163 F 
HETATM   18  F3  UNL     1      -4.280  -1.468  11.887  1.00  0.00    -0.163 F 
HETATM   19  F4  UNL     1      -2.689  -0.150  11.029  1.00  0.00    -0.163 F 
ENDBRANCH   9  16
ENDBRANCH   7   8
ENDBRANCH   4   7
BRANCH   1  20
HETATM   20  C4  UNL     1       0.345   4.756   9.911  1.00  0.00     0.223 C 
HETATM   21  C3  UNL     1       1.366   3.910  10.681  1.00  0.00     0.038 C 
HETATM   22  C2  UNL     1       2.641   4.739  10.673  1.00  0.00     0.039 C 
HETATM   23  C1  UNL     1       2.388   5.966  11.500  1.00  0.00     0.170 C 
HETATM   24  F1  UNL     1       3.133   5.803  12.675  1.00  0.00    -0.249 F 
HETATM   25  C14 UNL     1       0.975   6.174  11.899  1.00  0.00     0.039 C 
HETATM   26  C13 UNL     1      -0.049   5.867  10.842  1.00  0.00     0.038 C 
ENDBRANCH   1  20
TORSDOF 4
ENDMDL
