MODEL 1
REMARK VINA RESULT: -7.824378189      0.000      0.000
REMARK  5 active torsions:
REMARK  status: ('A' for Active; 'I' for Inactive)
REMARK    1  A    between atoms: O1_1  and  C1_3 
REMARK    2  A    between atoms: C1_3  and  C2_4 
REMARK    3  A    between atoms: C4_11  and  C5_12 
REMARK    4  A    between atoms: N2_19  and  C11_20 
REMARK    5  A    between atoms: C11_20  and  N3_21 
ROOT
HETATM    1  C1  UNL     1       1.007  -9.874  19.798  1.00  0.00     0.256 C 
HETATM    2  C3  UNL     1       0.008 -10.370  20.860  1.00  0.00     0.192 C 
HETATM    3  N1  UNL     1      -1.226  -9.963  20.249  1.00  0.00    -0.370 N 
ATOM      4  H1  UNL     1      -2.100  -9.833  20.760  1.00  0.00     0.161 HD
HETATM    5  C4  UNL     1      -1.096  -9.778  18.957  1.00  0.00     0.117 C 
HETATM    6  N2  UNL     1       0.230 -10.060  18.564  1.00  0.00    -0.291 N 
ENDROOT
BRANCH   5   7
HETATM    7  C5  UNL     1      -2.223  -9.357  18.126  1.00  0.00     0.009 A 
HETATM    8  C6  UNL     1      -3.091  -8.407  18.599  1.00  0.00     0.015 A 
HETATM    9  C7  UNL     1      -4.167  -7.946  17.835  1.00  0.00     0.003 A 
HETATM   10  C8  UNL     1      -4.368  -8.443  16.590  1.00  0.00     0.024 A 
HETATM   11  C9  UNL     1      -3.511  -9.399  16.086  1.00  0.00     0.035 A 
HETATM   12 CL1  UNL     1      -3.797 -10.018  14.480  1.00  0.00    -0.084 Cl
HETATM   13  C10 UNL     1      -2.444  -9.846  16.864  1.00  0.00     0.039 A 
ENDBRANCH   5   7
BRANCH   6  14
HETATM   14  C11 UNL     1       0.790 -10.426  17.320  1.00  0.00     0.159 C 
BRANCH  14  15
HETATM   15  N3  UNL     1       1.566  -9.417  16.638  1.00  0.00    -0.275 NA
HETATM   16  C12 UNL     1       2.024 -10.046  15.400  1.00  0.00     0.122 C 
HETATM   17  C13 UNL     1       2.557  -9.011  14.428  1.00  0.00     0.182 C 
HETATM   18  O2  UNL     1       1.549  -8.149  14.000  1.00  0.00    -0.389 OA
HETATM   19  C14 UNL     1       0.411  -8.253  14.793  1.00  0.00     0.182 C 
HETATM   20  C15 UNL     1       0.732  -8.281  16.259  1.00  0.00     0.122 C 
ENDBRANCH  14  15
ENDBRANCH   6  14
BRANCH   1  21
HETATM   21  O1  UNL     1       1.312  -8.564  20.041  1.00  0.00    -0.362 OA
ATOM     22  H1  UNL     1       0.706  -7.967  19.619  1.00  0.00     0.213 HD
ENDBRANCH   1  21
BRANCH   1  23
HETATM   23  C2  UNL     1       2.201 -10.760  19.891  1.00  0.00     0.440 C 
HETATM   24  F1  UNL     1       1.973 -12.070  19.594  1.00  0.00    -0.166 F 
HETATM   25  F2  UNL     1       3.266 -10.249  19.139  1.00  0.00    -0.166 F 
HETATM   26  F3  UNL     1       2.641 -10.684  21.220  1.00  0.00    -0.166 F 
ENDBRANCH   1  23
TORSDOF 5
ENDMDL
MODEL 2
REMARK VINA RESULT: -7.598801533      3.697      5.196
REMARK  5 active torsions:
REMARK  status: ('A' for Active; 'I' for Inactive)
REMARK    1  A    between atoms: O1_1  and  C1_3 
REMARK    2  A    between atoms: C1_3  and  C2_4 
REMARK    3  A    between atoms: C4_11  and  C5_12 
REMARK    4  A    between atoms: N2_19  and  C11_20 
REMARK    5  A    between atoms: C11_20  and  N3_21 
ROOT
HETATM    1  C1  UNL     1      -2.125 -10.225  17.255  1.00  0.00     0.256 C 
HETATM    2  C3  UNL     1      -2.871  -9.938  18.571  1.00  0.00     0.192 C 
HETATM    3  N1  UNL     1      -1.757  -9.815  19.468  1.00  0.00    -0.370 N 
ATOM      4  H1  UNL     1      -1.824  -9.925  20.480  1.00  0.00     0.161 HD
HETATM    5  C4  UNL     1      -0.643  -9.545  18.831  1.00  0.00     0.117 C 
HETATM    6  N2  UNL     1      -0.896  -9.439  17.446  1.00  0.00    -0.291 N 
ENDROOT
BRANCH   5   7
HETATM    7  C5  UNL     1       0.626  -9.379  19.541  1.00  0.00     0.009 A 
HETATM    8  C6  UNL     1       1.070  -8.117  19.838  1.00  0.00     0.015 A 
HETATM    9  C7  UNL     1       2.259  -7.902  20.541  1.00  0.00     0.003 A 
HETATM   10  C8  UNL     1       3.002  -8.960  20.945  1.00  0.00     0.024 A 
HETATM   11  C9  UNL     1       2.580 -10.243  20.660  1.00  0.00     0.035 A 
HETATM   12 CL1  UNL     1       3.558 -11.584  21.194  1.00  0.00    -0.084 Cl
HETATM   13  C10 UNL     1       1.391 -10.437  19.958  1.00  0.00     0.039 A 
ENDBRANCH   5   7
BRANCH   6  14
HETATM   14  C11 UNL     1      -0.203  -8.782  16.405  1.00  0.00     0.159 C 
BRANCH  14  15
HETATM   15  N3  UNL     1       0.459  -9.624  15.437  1.00  0.00    -0.275 NA
HETATM   16  C12 UNL     1       1.150  -8.708  14.530  1.00  0.00     0.122 C 
HETATM   17  C13 UNL     1       2.159  -9.448  13.673  1.00  0.00     0.182 C 
HETATM   18  O2  UNL     1       3.190  -9.978  14.446  1.00  0.00    -0.389 OA
HETATM   19  C14 UNL     1       2.876  -9.969  15.801  1.00  0.00     0.182 C 
HETATM   20  C15 UNL     1       1.480 -10.452  16.071  1.00  0.00     0.122 C 
ENDBRANCH  14  15
ENDBRANCH   6  14
BRANCH   1  21
HETATM   21  O1  UNL     1      -1.887 -11.566  17.153  1.00  0.00    -0.362 OA
ATOM     22  H1  UNL     1      -1.038 -11.755  16.771  1.00  0.00     0.213 HD
ENDBRANCH   1  21
BRANCH   1  23
HETATM   23  C2  UNL     1      -2.991  -9.718  16.155  1.00  0.00     0.440 C 
HETATM   24  F1  UNL     1      -3.312  -8.396  16.235  1.00  0.00    -0.166 F 
HETATM   25  F2  UNL     1      -2.450 -10.031  14.903  1.00  0.00    -0.166 F 
HETATM   26  F3  UNL     1      -4.179 -10.460  16.220  1.00  0.00    -0.166 F 
ENDBRANCH   1  23
TORSDOF 5
ENDMDL
MODEL 3
REMARK VINA RESULT: -7.555263240      3.728      5.261
REMARK  5 active torsions:
REMARK  status: ('A' for Active; 'I' for Inactive)
REMARK    1  A    between atoms: O1_1  and  C1_3 
REMARK    2  A    between atoms: C1_3  and  C2_4 
REMARK    3  A    between atoms: C4_11  and  C5_12 
REMARK    4  A    between atoms: N2_19  and  C11_20 
REMARK    5  A    between atoms: C11_20  and  N3_21 
ROOT
HETATM    1  C1  UNL     1      -2.086 -10.174  17.185  1.00  0.00     0.256 C 
HETATM    2  C3  UNL     1      -2.865  -9.867  18.477  1.00  0.00     0.192 C 
HETATM    3  N1  UNL     1      -1.772  -9.644  19.380  1.00  0.00    -0.370 N 
ATOM      4  H1  UNL     1      -1.847  -9.710  20.396  1.00  0.00     0.161 HD
HETATM    5  C4  UNL     1      -0.664  -9.344  18.744  1.00  0.00     0.117 C 
HETATM    6  N2  UNL     1      -0.904  -9.316  17.353  1.00  0.00    -0.291 N 
ENDROOT
BRANCH   5   7
HETATM    7  C5  UNL     1       0.583  -9.077  19.460  1.00  0.00     0.009 A 
HETATM    8  C6  UNL     1       1.642  -9.935  19.310  1.00  0.00     0.015 A 
HETATM    9  C7  UNL     1       2.866  -9.712  19.946  1.00  0.00     0.003 A 
HETATM   10  C8  UNL     1       3.025  -8.622  20.735  1.00  0.00     0.024 A 
HETATM   11  C9  UNL     1       1.978  -7.740  20.904  1.00  0.00     0.035 A 
HETATM   12 CL1  UNL     1       2.214  -6.346  21.926  1.00  0.00    -0.084 Cl
HETATM   13  C10 UNL     1       0.764  -7.980  20.262  1.00  0.00     0.039 A 
ENDBRANCH   5   7
BRANCH   6  14
HETATM   14  C11 UNL     1      -0.232  -8.672  16.290  1.00  0.00     0.159 C 
BRANCH  14  15
HETATM   15  N3  UNL     1       0.413  -9.524  15.321  1.00  0.00    -0.275 NA
HETATM   16  C12 UNL     1       1.165  -8.624  14.447  1.00  0.00     0.122 C 
HETATM   17  C13 UNL     1       2.159  -9.394  13.598  1.00  0.00     0.182 C 
HETATM   18  O2  UNL     1       3.148  -9.984  14.383  1.00  0.00    -0.389 OA
HETATM   19  C14 UNL     1       2.803  -9.985  15.731  1.00  0.00     0.182 C 
HETATM   20  C15 UNL     1       1.381 -10.409  15.960  1.00  0.00     0.122 C 
ENDBRANCH  14  15
ENDBRANCH   6  14
BRANCH   1  21
HETATM   21  O1  UNL     1      -1.776 -11.504  17.149  1.00  0.00    -0.362 OA
ATOM     22  H1  UNL     1      -2.525 -12.056  17.340  1.00  0.00     0.213 HD
ENDBRANCH   1  21
BRANCH   1  23
HETATM   23  C2  UNL     1      -2.963  -9.766  16.052  1.00  0.00     0.440 C 
HETATM   24  F1  UNL     1      -3.382  -8.470  16.085  1.00  0.00    -0.166 F 
HETATM   25  F2  UNL     1      -2.372 -10.075  14.822  1.00  0.00    -0.166 F 
HETATM   26  F3  UNL     1      -4.093 -10.592  16.116  1.00  0.00    -0.166 F 
ENDBRANCH   1  23
TORSDOF 5
ENDMDL
MODEL 4
REMARK VINA RESULT: -7.460358253      3.479      5.081
REMARK  5 active torsions:
REMARK  status: ('A' for Active; 'I' for Inactive)
REMARK    1  A    between atoms: O1_1  and  C1_3 
REMARK    2  A    between atoms: C1_3  and  C2_4 
REMARK    3  A    between atoms: C4_11  and  C5_12 
REMARK    4  A    between atoms: N2_19  and  C11_20 
REMARK    5  A    between atoms: C11_20  and  N3_21 
ROOT
HETATM    1  C1  UNL     1      -2.332  -9.973  18.022  1.00  0.00     0.256 C 
HETATM    2  C3  UNL     1      -2.746  -8.704  18.790  1.00  0.00     0.192 C 
HETATM    3  N1  UNL     1      -1.624  -8.573  19.676  1.00  0.00    -0.370 N 
ATOM      4  H1  UNL     1      -1.644  -8.042  20.547  1.00  0.00     0.161 HD
HETATM    5  C4  UNL     1      -0.570  -9.215  19.232  1.00  0.00     0.117 C 
HETATM    6  N2  UNL     1      -0.869  -9.826  17.994  1.00  0.00    -0.291 N 
ENDROOT
BRANCH   5   7
HETATM    7  C5  UNL     1       0.691  -9.224  19.972  1.00  0.00     0.009 A 
HETATM    8  C6  UNL     1       1.272  -8.035  20.328  1.00  0.00     0.015 A 
HETATM    9  C7  UNL     1       2.460  -7.986  21.062  1.00  0.00     0.003 A 
HETATM   10  C8  UNL     1       3.066  -9.138  21.438  1.00  0.00     0.024 A 
HETATM   11  C9  UNL     1       2.505 -10.351  21.094  1.00  0.00     0.035 A 
HETATM   12 CL1  UNL     1       3.308 -11.816  21.594  1.00  0.00    -0.084 Cl
HETATM   13  C10 UNL     1       1.319 -10.379  20.362  1.00  0.00     0.039 A 
ENDBRANCH   5   7
BRANCH   6  14
HETATM   14  C11 UNL     1      -0.047 -10.251  16.926  1.00  0.00     0.159 C 
BRANCH  14  15
HETATM   15  N3  UNL     1       0.983  -9.335  16.499  1.00  0.00    -0.275 NA
HETATM   16  C12 UNL     1       1.744 -10.052  15.477  1.00  0.00     0.122 C 
HETATM   17  C13 UNL     1       2.637  -9.104  14.698  1.00  0.00     0.182 C 
HETATM   18  O2  UNL     1       1.887  -8.189  13.961  1.00  0.00    -0.389 OA
HETATM   19  C14 UNL     1       0.555  -8.172  14.364  1.00  0.00     0.182 C 
HETATM   20  C15 UNL     1       0.406  -8.157  15.858  1.00  0.00     0.122 C 
ENDBRANCH  14  15
ENDBRANCH   6  14
BRANCH   1  21
HETATM   21  O1  UNL     1      -2.742 -11.076  18.715  1.00  0.00    -0.362 OA
ATOM     22  H1  UNL     1      -2.013 -11.593  19.037  1.00  0.00     0.213 HD
ENDBRANCH   1  21
BRANCH   1  23
HETATM   23  C2  UNL     1      -2.965  -9.882  16.677  1.00  0.00     0.440 C 
HETATM   24  F1  UNL     1      -2.564  -8.822  15.920  1.00  0.00    -0.166 F 
HETATM   25  F2  UNL     1      -2.829 -11.085  15.974  1.00  0.00    -0.166 F 
HETATM   26  F3  UNL     1      -4.344  -9.761  16.902  1.00  0.00    -0.166 F 
ENDBRANCH   1  23
TORSDOF 5
ENDMDL
MODEL 5
REMARK VINA RESULT: -7.431095089      3.683      5.081
REMARK  5 active torsions:
REMARK  status: ('A' for Active; 'I' for Inactive)
REMARK    1  A    between atoms: O1_1  and  C1_3 
REMARK    2  A    between atoms: C1_3  and  C2_4 
REMARK    3  A    between atoms: C4_11  and  C5_12 
REMARK    4  A    between atoms: N2_19  and  C11_20 
REMARK    5  A    between atoms: C11_20  and  N3_21 
ROOT
HETATM    1  C1  UNL     1      -2.179 -10.211  17.158  1.00  0.00     0.256 C 
HETATM    2  C3  UNL     1      -2.990  -9.953  18.441  1.00  0.00     0.192 C 
HETATM    3  N1  UNL     1      -1.924  -9.652  19.354  1.00  0.00    -0.370 N 
ATOM      4  H1  UNL     1      -2.005  -9.720  20.369  1.00  0.00     0.161 HD
HETATM    5  C4  UNL     1      -0.833  -9.280  18.728  1.00  0.00     0.117 C 
HETATM    6  N2  UNL     1      -1.060  -9.273  17.334  1.00  0.00    -0.291 N 
ENDROOT
BRANCH   5   7
HETATM    7  C5  UNL     1       0.386  -8.927  19.455  1.00  0.00     0.009 A 
HETATM    8  C6  UNL     1       0.498  -7.681  20.017  1.00  0.00     0.015 A 
HETATM    9  C7  UNL     1       1.627  -7.302  20.747  1.00  0.00     0.003 A 
HETATM   10  C8  UNL     1       2.647  -8.179  20.913  1.00  0.00     0.024 A 
HETATM   11  C9  UNL     1       2.562  -9.440  20.360  1.00  0.00     0.035 A 
HETATM   12 CL1  UNL     1       3.891 -10.547  20.592  1.00  0.00    -0.084 Cl
HETATM   13  C10 UNL     1       1.428  -9.800  19.634  1.00  0.00     0.039 A 
ENDBRANCH   5   7
BRANCH   6  14
HETATM   14  C11 UNL     1      -0.422  -8.588  16.276  1.00  0.00     0.159 C 
BRANCH  14  15
HETATM   15  N3  UNL     1       1.012  -8.727  16.187  1.00  0.00    -0.275 NA
HETATM   16  C12 UNL     1       1.260 -10.165  16.086  1.00  0.00     0.122 C 
HETATM   17  C13 UNL     1       2.685 -10.442  15.644  1.00  0.00     0.182 C 
HETATM   18  O2  UNL     1       2.913  -9.982  14.348  1.00  0.00    -0.389 OA
HETATM   19  C14 UNL     1       1.903  -9.126  13.919  1.00  0.00     0.182 C 
HETATM   20  C15 UNL     1       1.523  -8.117  14.963  1.00  0.00     0.122 C 
ENDBRANCH  14  15
ENDBRANCH   6  14
BRANCH   1  21
HETATM   21  O1  UNL     1      -1.779 -11.516  17.131  1.00  0.00    -0.362 OA
ATOM     22  H1  UNL     1      -2.295 -12.066  17.708  1.00  0.00     0.213 HD
ENDBRANCH   1  21
BRANCH   1  23
HETATM   23  C2  UNL     1      -3.070  -9.866  16.015  1.00  0.00     0.440 C 
HETATM   24  F1  UNL     1      -3.654  -8.638  16.087  1.00  0.00    -0.166 F 
HETATM   25  F2  UNL     1      -2.411 -10.042  14.793  1.00  0.00    -0.166 F 
HETATM   26  F3  UNL     1      -4.086 -10.833  16.008  1.00  0.00    -0.166 F 
ENDBRANCH   1  23
TORSDOF 5
ENDMDL
