MODEL 1
REMARK VINA RESULT: -6.445536060      0.000      0.000
REMARK  5 active torsions:
REMARK  status: ('A' for Active; 'I' for Inactive)
REMARK    1  A    between atoms: O1_2  and  C2_3 
REMARK       I    between atoms: C2_3  and  N1_5 
REMARK       I    between atoms: N1_5  and  C3_7 
REMARK    2  A    between atoms: C3_7  and  C4_9 
REMARK    3  A    between atoms: C4_9  and  N2_12 
REMARK    4  A    between atoms: N2_12  and  O4_13 
REMARK    5  A    between atoms: N2_12  and  N3_15 
ROOT
HETATM    1  N2  UNL     1     -39.918 -34.325  22.301  1.00  0.00    -0.080 NA
ENDROOT
BRANCH   1   2
HETATM    2  C4  UNL     1     -38.846 -35.045  21.724  1.00  0.00     0.133 C 
HETATM    3  C5  UNL     1     -37.909 -33.959  21.138  1.00  0.00     0.047 C 
HETATM    4  C6  UNL     1     -37.965 -35.816  22.642  1.00  0.00     0.047 C 
BRANCH   2   5
HETATM    5  C3  UNL     1     -39.210 -35.854  20.538  1.00  0.00     0.252 C 
HETATM    6  N1  UNL     1     -40.513 -35.770  19.989  1.00  0.00    -0.271 N 
HETATM    7  C2  UNL     1     -40.898 -36.533  18.847  1.00  0.00     0.366 C 
ATOM      8  H1  UNL     1     -41.194 -35.146  20.421  1.00  0.00     0.174 HD
HETATM    9  O2  UNL     1     -42.061 -36.435  18.385  1.00  0.00    -0.238 OA
HETATM   10  O3  UNL     1     -38.379 -36.631  19.989  1.00  0.00    -0.271 OA
BRANCH   7  11
HETATM   11  O1  UNL     1     -39.985 -37.390  18.240  1.00  0.00    -0.309 OA
HETATM   12  C1  UNL     1     -40.410 -38.596  17.653  1.00  0.00     0.215 C 
ENDBRANCH   7  11
ENDBRANCH   2   5
ENDBRANCH   1   2
BRANCH   1  13
HETATM   13  O4  UNL     1     -39.902 -33.070  21.747  1.00  0.00    -0.287 OA
HETATM   14  C7  UNL     1     -41.133 -32.533  21.517  1.00  0.00     0.232 C 
ENDBRANCH   1  13
BRANCH   1  15
HETATM   15  N3  UNL     1     -40.111 -34.243  23.605  1.00  0.00    -0.227 N 
HETATM   16  C8  UNL     1     -39.136 -33.934  24.536  1.00  0.00     0.167 C 
HETATM   17  C9  UNL     1     -39.802 -34.244  25.872  1.00  0.00     0.315 C 
HETATM   18  F1  UNL     1     -40.762 -33.320  26.199  1.00  0.00    -0.197 F 
HETATM   19  F2  UNL     1     -38.842 -34.398  26.832  1.00  0.00    -0.197 F 
HETATM   20  C10 UNL     1     -40.439 -35.596  25.521  1.00  0.00     0.343 C 
HETATM   21  F3  UNL     1     -41.387 -35.961  26.430  1.00  0.00    -0.234 F 
HETATM   22  C11 UNL     1     -41.062 -35.187  24.177  1.00  0.00     0.375 C 
HETATM   23  F4  UNL     1     -41.325 -36.266  23.401  1.00  0.00    -0.177 F 
HETATM   24  F5  UNL     1     -42.259 -34.583  24.496  1.00  0.00    -0.177 F 
ENDBRANCH   1  15
TORSDOF 5
ENDMDL
MODEL 2
REMARK VINA RESULT: -6.383156914      2.712      4.673
REMARK  5 active torsions:
REMARK  status: ('A' for Active; 'I' for Inactive)
REMARK    1  A    between atoms: O1_2  and  C2_3 
REMARK       I    between atoms: C2_3  and  N1_5 
REMARK       I    between atoms: N1_5  and  C3_7 
REMARK    2  A    between atoms: C3_7  and  C4_9 
REMARK    3  A    between atoms: C4_9  and  N2_12 
REMARK    4  A    between atoms: N2_12  and  O4_13 
REMARK    5  A    between atoms: N2_12  and  N3_15 
ROOT
HETATM    1  N2  UNL     1     -39.361 -36.155  22.049  1.00  0.00    -0.080 NA
ENDROOT
BRANCH   1   2
HETATM    2  C4  UNL     1     -38.191 -35.541  21.546  1.00  0.00     0.133 C 
HETATM    3  C5  UNL     1     -38.081 -36.037  20.083  1.00  0.00     0.047 C 
HETATM    4  C6  UNL     1     -38.196 -34.059  21.418  1.00  0.00     0.047 C 
BRANCH   2   5
HETATM    5  C3  UNL     1     -36.929 -36.015  22.160  1.00  0.00     0.252 C 
HETATM    6  N1  UNL     1     -36.960 -36.896  23.267  1.00  0.00    -0.271 N 
HETATM    7  C2  UNL     1     -35.766 -37.373  23.882  1.00  0.00     0.366 C 
ATOM      8  H1  UNL     1     -37.862 -37.198  23.635  1.00  0.00     0.174 HD
HETATM    9  O2  UNL     1     -35.829 -38.154  24.864  1.00  0.00    -0.238 OA
HETATM   10  O3  UNL     1     -35.803 -35.651  21.717  1.00  0.00    -0.271 OA
BRANCH   7  11
HETATM   11  O1  UNL     1     -34.524 -36.975  23.397  1.00  0.00    -0.309 OA
HETATM   12  C1  UNL     1     -33.588 -36.348  24.241  1.00  0.00     0.215 C 
ENDBRANCH   7  11
ENDBRANCH   2   5
ENDBRANCH   1   2
BRANCH   1  13
HETATM   13  O4  UNL     1     -39.710 -37.142  21.162  1.00  0.00    -0.287 OA
HETATM   14  C7  UNL     1     -40.791 -37.885  21.530  1.00  0.00     0.232 C 
ENDBRANCH   1  13
BRANCH   1  15
HETATM   15  N3  UNL     1     -40.432 -35.475  22.414  1.00  0.00    -0.227 N 
HETATM   16  C8  UNL     1     -41.055 -34.504  21.652  1.00  0.00     0.167 C 
HETATM   17  C9  UNL     1     -42.035 -33.856  22.624  1.00  0.00     0.315 C 
HETATM   18  F1  UNL     1     -43.100 -34.674  22.908  1.00  0.00    -0.197 F 
HETATM   19  F2  UNL     1     -42.400 -32.628  22.150  1.00  0.00    -0.197 F 
HETATM   20  C10 UNL     1     -41.113 -33.713  23.843  1.00  0.00     0.343 C 
HETATM   21  F3  UNL     1     -41.816 -33.466  24.984  1.00  0.00    -0.234 F 
HETATM   22  C11 UNL     1     -40.529 -35.135  23.828  1.00  0.00     0.375 C 
HETATM   23  F4  UNL     1     -39.360 -35.202  24.508  1.00  0.00    -0.177 F 
HETATM   24  F5  UNL     1     -41.455 -35.918  24.483  1.00  0.00    -0.177 F 
ENDBRANCH   1  15
TORSDOF 5
ENDMDL
MODEL 3
REMARK VINA RESULT: -6.350604273      2.349      4.170
REMARK  5 active torsions:
REMARK  status: ('A' for Active; 'I' for Inactive)
REMARK    1  A    between atoms: O1_2  and  C2_3 
REMARK       I    between atoms: C2_3  and  N1_5 
REMARK       I    between atoms: N1_5  and  C3_7 
REMARK    2  A    between atoms: C3_7  and  C4_9 
REMARK    3  A    between atoms: C4_9  and  N2_12 
REMARK    4  A    between atoms: N2_12  and  O4_13 
REMARK    5  A    between atoms: N2_12  and  N3_15 
ROOT
HETATM    1  N2  UNL     1     -38.876 -34.956  22.912  1.00  0.00    -0.080 NA
ENDROOT
BRANCH   1   2
HETATM    2  C4  UNL     1     -39.211 -34.585  21.589  1.00  0.00     0.133 C 
HETATM    3  C5  UNL     1     -37.852 -34.446  20.861  1.00  0.00     0.047 C 
HETATM    4  C6  UNL     1     -39.955 -35.577  20.767  1.00  0.00     0.047 C 
BRANCH   2   5
HETATM    5  C3  UNL     1     -39.807 -33.235  21.456  1.00  0.00     0.252 C 
HETATM    6  N1  UNL     1     -39.649 -32.499  20.257  1.00  0.00    -0.271 N 
HETATM    7  C2  UNL     1     -40.209 -31.198  20.094  1.00  0.00     0.366 C 
ATOM      8  H1  UNL     1     -39.120 -32.911  19.489  1.00  0.00     0.174 HD
HETATM    9  O2  UNL     1     -40.050 -30.572  19.018  1.00  0.00    -0.238 OA
HETATM   10  O3  UNL     1     -40.466 -32.710  22.397  1.00  0.00    -0.271 OA
BRANCH   7  11
HETATM   11  O1  UNL     1     -40.936 -30.617  21.128  1.00  0.00    -0.309 OA
HETATM   12  C1  UNL     1     -42.226 -30.102  20.903  1.00  0.00     0.215 C 
ENDBRANCH   7  11
ENDBRANCH   2   5
ENDBRANCH   1   2
BRANCH   1  13
HETATM   13  O4  UNL     1     -38.020 -36.024  22.825  1.00  0.00    -0.287 OA
HETATM   14  C7  UNL     1     -36.960 -35.977  23.680  1.00  0.00     0.232 C 
ENDBRANCH   1  13
BRANCH   1  15
HETATM   15  N3  UNL     1     -39.780 -35.175  23.850  1.00  0.00    -0.227 N 
HETATM   16  C8  UNL     1     -41.123 -35.413  23.620  1.00  0.00     0.167 C 
HETATM   17  C9  UNL     1     -41.749 -35.319  25.007  1.00  0.00     0.315 C 
HETATM   18  F1  UNL     1     -41.434 -36.399  25.791  1.00  0.00    -0.197 F 
HETATM   19  F2  UNL     1     -43.093 -35.105  24.885  1.00  0.00    -0.197 F 
HETATM   20  C10 UNL     1     -41.042 -34.052  25.509  1.00  0.00     0.343 C 
HETATM   21  F3  UNL     1     -41.156 -33.910  26.860  1.00  0.00    -0.234 F 
HETATM   22  C11 UNL     1     -39.613 -34.434  25.093  1.00  0.00     0.375 C 
HETATM   23  F4  UNL     1     -38.812 -33.345  25.000  1.00  0.00    -0.177 F 
HETATM   24  F5  UNL     1     -39.137 -35.235  26.109  1.00  0.00    -0.177 F 
ENDBRANCH   1  15
TORSDOF 5
ENDMDL
MODEL 4
REMARK VINA RESULT: -6.304488599      2.532      4.351
REMARK  5 active torsions:
REMARK  status: ('A' for Active; 'I' for Inactive)
REMARK    1  A    between atoms: O1_2  and  C2_3 
REMARK       I    between atoms: C2_3  and  N1_5 
REMARK       I    between atoms: N1_5  and  C3_7 
REMARK    2  A    between atoms: C3_7  and  C4_9 
REMARK    3  A    between atoms: C4_9  and  N2_12 
REMARK    4  A    between atoms: N2_12  and  O4_13 
REMARK    5  A    between atoms: N2_12  and  N3_15 
ROOT
HETATM    1  N2  UNL     1     -39.477 -35.143  21.968  1.00  0.00    -0.080 NA
ENDROOT
BRANCH   1   2
HETATM    2  C4  UNL     1     -38.626 -36.154  21.464  1.00  0.00     0.133 C 
HETATM    3  C5  UNL     1     -39.271 -37.483  21.929  1.00  0.00     0.047 C 
HETATM    4  C6  UNL     1     -38.537 -36.301  19.986  1.00  0.00     0.047 C 
BRANCH   2   5
HETATM    5  C3  UNL     1     -37.280 -36.196  22.082  1.00  0.00     0.252 C 
HETATM    6  N1  UNL     1     -36.996 -37.121  23.115  1.00  0.00    -0.271 N 
HETATM    7  C2  UNL     1     -35.713 -37.190  23.731  1.00  0.00     0.366 C 
ATOM      8  H1  UNL     1     -37.731 -37.757  23.427  1.00  0.00     0.174 HD
HETATM    9  O2  UNL     1     -35.494 -38.022  24.645  1.00  0.00    -0.238 OA
HETATM   10  O3  UNL     1     -36.358 -35.417  21.707  1.00  0.00    -0.271 OA
BRANCH   7  11
HETATM   11  O1  UNL     1     -34.695 -36.334  23.321  1.00  0.00    -0.309 OA
HETATM   12  C1  UNL     1     -33.519 -36.195  24.082  1.00  0.00     0.215 C 
ENDBRANCH   7  11
ENDBRANCH   2   5
ENDBRANCH   1   2
BRANCH   1  13
HETATM   13  O4  UNL     1     -38.854 -33.942  21.737  1.00  0.00    -0.287 OA
HETATM   14  C7  UNL     1     -39.421 -33.185  20.756  1.00  0.00     0.232 C 
ENDBRANCH   1  13
BRANCH   1  15
HETATM   15  N3  UNL     1     -39.978 -35.166  23.190  1.00  0.00    -0.227 N 
HETATM   16  C8  UNL     1     -41.316 -35.013  23.504  1.00  0.00     0.167 C 
HETATM   17  C9  UNL     1     -41.314 -34.839  25.019  1.00  0.00     0.315 C 
HETATM   18  F1  UNL     1     -41.035 -36.012  25.674  1.00  0.00    -0.197 F 
HETATM   19  F2  UNL     1     -42.487 -34.259  25.411  1.00  0.00    -0.197 F 
HETATM   20  C10 UNL     1     -40.149 -33.847  25.150  1.00  0.00     0.343 C 
HETATM   21  F3  UNL     1     -39.696 -33.765  26.432  1.00  0.00    -0.234 F 
HETATM   22  C11 UNL     1     -39.152 -34.578  24.236  1.00  0.00     0.375 C 
HETATM   23  F4  UNL     1     -38.181 -33.745  23.791  1.00  0.00    -0.177 F 
HETATM   24  F5  UNL     1     -38.566 -35.540  25.030  1.00  0.00    -0.177 F 
ENDBRANCH   1  15
TORSDOF 5
ENDMDL
MODEL 5
REMARK VINA RESULT: -6.270925939      3.754      4.898
REMARK  5 active torsions:
REMARK  status: ('A' for Active; 'I' for Inactive)
REMARK    1  A    between atoms: O1_2  and  C2_3 
REMARK       I    between atoms: C2_3  and  N1_5 
REMARK       I    between atoms: N1_5  and  C3_7 
REMARK    2  A    between atoms: C3_7  and  C4_9 
REMARK    3  A    between atoms: C4_9  and  N2_12 
REMARK    4  A    between atoms: N2_12  and  O4_13 
REMARK    5  A    between atoms: N2_12  and  N3_15 
ROOT
HETATM    1  N2  UNL     1     -40.629 -35.663  22.678  1.00  0.00    -0.080 NA
ENDROOT
BRANCH   1   2
HETATM    2  C4  UNL     1     -41.671 -35.786  21.729  1.00  0.00     0.133 C 
HETATM    3  C5  UNL     1     -42.500 -34.487  21.882  1.00  0.00     0.047 C 
HETATM    4  C6  UNL     1     -41.291 -35.798  20.291  1.00  0.00     0.047 C 
BRANCH   2   5
HETATM    5  C3  UNL     1     -42.655 -36.853  22.025  1.00  0.00     0.252 C 
HETATM    6  N1  UNL     1     -43.678 -36.637  22.979  1.00  0.00    -0.271 N 
HETATM    7  C2  UNL     1     -44.642 -37.641  23.287  1.00  0.00     0.366 C 
ATOM      8  H1  UNL     1     -43.727 -35.738  23.459  1.00  0.00     0.174 HD
HETATM    9  O2  UNL     1     -45.537 -37.417  24.140  1.00  0.00    -0.238 OA
HETATM   10  O3  UNL     1     -42.610 -37.972  21.439  1.00  0.00    -0.271 OA
BRANCH   7  11
HETATM   11  O1  UNL     1     -44.596 -38.874  22.645  1.00  0.00    -0.309 OA
HETATM   12  C1  UNL     1     -45.723 -39.376  21.967  1.00  0.00     0.215 C 
ENDBRANCH   7  11
ENDBRANCH   2   5
ENDBRANCH   1   2
BRANCH   1  13
HETATM   13  O4  UNL     1     -41.152 -35.012  23.766  1.00  0.00    -0.287 OA
HETATM   14  C7  UNL     1     -40.526 -35.280  24.947  1.00  0.00     0.232 C 
ENDBRANCH   1  13
BRANCH   1  15
HETATM   15  N3  UNL     1     -39.440 -35.170  22.383  1.00  0.00    -0.227 N 
HETATM   16  C8  UNL     1     -39.217 -33.988  21.701  1.00  0.00     0.167 C 
HETATM   17  C9  UNL     1     -37.725 -34.029  21.386  1.00  0.00     0.315 C 
HETATM   18  F1  UNL     1     -36.955 -33.824  22.503  1.00  0.00    -0.197 F 
HETATM   19  F2  UNL     1     -37.452 -33.161  20.367  1.00  0.00    -0.197 F 
HETATM   20  C10 UNL     1     -37.617 -35.483  20.904  1.00  0.00     0.343 C 
HETATM   21  F3  UNL     1     -36.323 -35.909  20.868  1.00  0.00    -0.234 F 
HETATM   22  C11 UNL     1     -38.405 -36.139  22.049  1.00  0.00     0.375 C 
HETATM   23  F4  UNL     1     -38.866 -37.363  21.699  1.00  0.00    -0.177 F 
HETATM   24  F5  UNL     1     -37.497 -36.296  23.075  1.00  0.00    -0.177 F 
ENDBRANCH   1  15
TORSDOF 5
ENDMDL
