MODEL 1
REMARK VINA RESULT: -6.173824448      0.000      0.000
REMARK  5 active torsions:
REMARK  status: ('A' for Active; 'I' for Inactive)
REMARK    1  A    between atoms: C1_2  and  C2_3 
REMARK       I    between atoms: C1_2  and  N3_16 
REMARK    2  A    between atoms: C2_3  and  C3_4 
REMARK    3  A    between atoms: C2_3  and  N1_6 
REMARK    4  A    between atoms: N1_6  and  N2_8 
REMARK       I    between atoms: N2_8  and  C4_10 
REMARK    5  A    between atoms: C4_10  and  C5_12 
ROOT
HETATM    1  C2  UNL     1     -38.910 -35.104  22.145  1.00  0.00     0.205 C 
ENDROOT
BRANCH   1   2
HETATM    2  C1  UNL     1     -39.087 -34.469  23.524  1.00  0.00     0.246 C 
HETATM    3  O1  UNL     1     -38.086 -33.784  23.911  1.00  0.00    -0.271 OA
HETATM    4  N3  UNL     1     -40.228 -34.662  24.271  1.00  0.00    -0.327 N 
HETATM    5  C6  UNL     1     -41.377 -35.517  24.086  1.00  0.00     0.154 C 
HETATM    6  C8  UNL     1     -40.516 -33.968  25.509  1.00  0.00     0.296 C 
HETATM    7  C7  UNL     1     -41.578 -35.927  25.553  1.00  0.00     0.190 C 
HETATM    8  O3  UNL     1     -41.081 -34.918  26.335  1.00  0.00    -0.370 OA
ENDBRANCH   1   2
BRANCH   1   9
HETATM    9  C3  UNL     1     -39.136 -33.939  21.100  1.00  0.00     0.151 C 
HETATM   10 CL1  UNL     1     -37.609 -33.359  20.533  1.00  0.00    -0.128 Cl
ENDBRANCH   1   9
BRANCH   1  11
HETATM   11  N1  UNL     1     -37.679 -35.667  21.957  1.00  0.00    -0.319 N 
ATOM     12  H1  UNL     1     -37.286 -35.623  21.017  1.00  0.00     0.181 HD
BRANCH  11  13
HETATM   13  N2  UNL     1     -36.938 -36.275  22.900  1.00  0.00    -0.270 N 
HETATM   14  C4  UNL     1     -35.506 -36.274  22.624  1.00  0.00     0.290 C 
HETATM   15  O2  UNL     1     -35.068 -35.759  21.531  1.00  0.00    -0.267 OA
ATOM     16  H2  UNL     1     -37.341 -36.699  23.735  1.00  0.00     0.189 HD
BRANCH  14  17
HETATM   17  C5  UNL     1     -34.496 -36.817  23.540  1.00  0.00     0.271 C 
HETATM   18 CL2  UNL     1     -33.379 -35.574  24.083  1.00  0.00    -0.073 Cl
HETATM   19 CL3  UNL     1     -35.370 -37.407  25.018  1.00  0.00    -0.073 Cl
HETATM   20 CL4  UNL     1     -33.601 -38.147  22.819  1.00  0.00    -0.073 Cl
ENDBRANCH  14  17
ENDBRANCH  11  13
ENDBRANCH   1  11
TORSDOF 5
ENDMDL
MODEL 2
REMARK VINA RESULT: -6.107231041      0.068      1.181
REMARK  5 active torsions:
REMARK  status: ('A' for Active; 'I' for Inactive)
REMARK    1  A    between atoms: C1_2  and  C2_3 
REMARK       I    between atoms: C1_2  and  N3_16 
REMARK    2  A    between atoms: C2_3  and  C3_4 
REMARK    3  A    between atoms: C2_3  and  N1_6 
REMARK    4  A    between atoms: N1_6  and  N2_8 
REMARK       I    between atoms: N2_8  and  C4_10 
REMARK    5  A    between atoms: C4_10  and  C5_12 
ROOT
HETATM    1  C2  UNL     1     -38.922 -35.129  22.119  1.00  0.00     0.205 C 
ENDROOT
BRANCH   1   2
HETATM    2  C1  UNL     1     -39.116 -34.488  23.492  1.00  0.00     0.246 C 
HETATM    3  O1  UNL     1     -38.125 -33.789  23.881  1.00  0.00    -0.271 OA
HETATM    4  N3  UNL     1     -40.259 -34.689  24.233  1.00  0.00    -0.327 N 
HETATM    5  C6  UNL     1     -41.397 -35.559  24.047  1.00  0.00     0.154 C 
HETATM    6  C8  UNL     1     -40.563 -33.991  25.465  1.00  0.00     0.296 C 
HETATM    7  C7  UNL     1     -41.602 -35.961  25.514  1.00  0.00     0.190 C 
HETATM    8  O3  UNL     1     -41.122 -34.942  26.294  1.00  0.00    -0.370 OA
ENDBRANCH   1   2
BRANCH   1   9
HETATM    9  C3  UNL     1     -39.114 -33.964  21.067  1.00  0.00     0.151 C 
HETATM   10 CL1  UNL     1     -37.569 -33.380  20.555  1.00  0.00    -0.128 Cl
ENDBRANCH   1   9
BRANCH   1  11
HETATM   11  N1  UNL     1     -37.696 -35.710  21.954  1.00  0.00    -0.319 N 
ATOM     12  H1  UNL     1     -37.284 -35.668  21.022  1.00  0.00     0.181 HD
BRANCH  11  13
HETATM   13  N2  UNL     1     -36.984 -36.331  22.910  1.00  0.00    -0.270 N 
HETATM   14  C4  UNL     1     -35.544 -36.318  22.682  1.00  0.00     0.290 C 
HETATM   15  O2  UNL     1     -35.072 -35.782  21.614  1.00  0.00    -0.267 OA
ATOM     16  H2  UNL     1     -37.412 -36.772  23.724  1.00  0.00     0.189 HD
BRANCH  14  17
HETATM   17  C5  UNL     1     -34.562 -36.874  23.621  1.00  0.00     0.271 C 
HETATM   18 CL2  UNL     1     -33.611 -38.153  22.883  1.00  0.00    -0.073 Cl
HETATM   19 CL3  UNL     1     -33.401 -35.542  24.038  1.00  0.00    -0.073 Cl
HETATM   20 CL4  UNL     1     -35.322 -37.470  25.089  1.00  0.00    -0.073 Cl
ENDBRANCH  14  17
ENDBRANCH  11  13
ENDBRANCH   1  11
TORSDOF 5
ENDMDL
MODEL 3
REMARK VINA RESULT: -6.087998826      0.296      1.232
REMARK  5 active torsions:
REMARK  status: ('A' for Active; 'I' for Inactive)
REMARK    1  A    between atoms: C1_2  and  C2_3 
REMARK       I    between atoms: C1_2  and  N3_16 
REMARK    2  A    between atoms: C2_3  and  C3_4 
REMARK    3  A    between atoms: C2_3  and  N1_6 
REMARK    4  A    between atoms: N1_6  and  N2_8 
REMARK       I    between atoms: N2_8  and  C4_10 
REMARK    5  A    between atoms: C4_10  and  C5_12 
ROOT
HETATM    1  C2  UNL     1     -38.792 -35.080  22.125  1.00  0.00     0.205 C 
ENDROOT
BRANCH   1   2
HETATM    2  C1  UNL     1     -39.171 -34.426  23.452  1.00  0.00     0.246 C 
HETATM    3  O1  UNL     1     -38.254 -33.696  23.950  1.00  0.00    -0.271 OA
HETATM    4  N3  UNL     1     -40.392 -34.648  24.049  1.00  0.00    -0.327 N 
HETATM    5  C6  UNL     1     -41.476 -35.550  23.737  1.00  0.00     0.154 C 
HETATM    6  C8  UNL     1     -40.864 -33.941  25.222  1.00  0.00     0.296 C 
HETATM    7  C7  UNL     1     -41.853 -35.938  25.174  1.00  0.00     0.190 C 
HETATM    8  O3  UNL     1     -41.499 -34.897  25.990  1.00  0.00    -0.370 OA
ENDBRANCH   1   2
BRANCH   1   9
HETATM    9  C3  UNL     1     -39.159 -34.027  21.004  1.00  0.00     0.151 C 
HETATM   10 CL1  UNL     1     -37.721 -33.249  20.440  1.00  0.00    -0.128 Cl
ENDBRANCH   1   9
BRANCH   1  11
HETATM   11  N1  UNL     1     -37.469 -35.413  22.037  1.00  0.00    -0.319 N 
ATOM     12  H1  UNL     1     -36.992 -35.194  21.163  1.00  0.00     0.181 HD
BRANCH  11  13
HETATM   13  N2  UNL     1     -36.739 -36.003  23.000  1.00  0.00    -0.270 N 
HETATM   14  C4  UNL     1     -35.342 -36.213  22.643  1.00  0.00     0.290 C 
HETATM   15  O2  UNL     1     -34.925 -35.880  21.474  1.00  0.00    -0.267 OA
ATOM     16  H2  UNL     1     -37.129 -36.280  23.901  1.00  0.00     0.189 HD
BRANCH  14  17
HETATM   17  C5  UNL     1     -34.340 -36.777  23.556  1.00  0.00     0.271 C 
HETATM   18 CL2  UNL     1     -35.093 -37.568  24.933  1.00  0.00    -0.073 Cl
HETATM   19 CL3  UNL     1     -33.444 -38.066  22.646  1.00  0.00    -0.073 Cl
HETATM   20 CL4  UNL     1     -33.205 -35.560  24.119  1.00  0.00    -0.073 Cl
ENDBRANCH  14  17
ENDBRANCH  11  13
ENDBRANCH   1  11
TORSDOF 5
ENDMDL
MODEL 4
REMARK VINA RESULT: -6.067237148      2.442      4.100
REMARK  5 active torsions:
REMARK  status: ('A' for Active; 'I' for Inactive)
REMARK    1  A    between atoms: C1_2  and  C2_3 
REMARK       I    between atoms: C1_2  and  N3_16 
REMARK    2  A    between atoms: C2_3  and  C3_4 
REMARK    3  A    between atoms: C2_3  and  N1_6 
REMARK    4  A    between atoms: N1_6  and  N2_8 
REMARK       I    between atoms: N2_8  and  C4_10 
REMARK    5  A    between atoms: C4_10  and  C5_12 
ROOT
HETATM    1  C2  UNL     1     -40.132 -33.998  25.745  1.00  0.00     0.205 C 
ENDROOT
BRANCH   1   2
HETATM    2  C1  UNL     1     -41.134 -35.039  25.248  1.00  0.00     0.246 C 
HETATM    3  O1  UNL     1     -41.285 -36.029  26.034  1.00  0.00    -0.271 OA
HETATM    4  N3  UNL     1     -41.779 -34.905  24.038  1.00  0.00    -0.327 N 
HETATM    5  C6  UNL     1     -41.625 -33.965  22.953  1.00  0.00     0.154 C 
HETATM    6  C8  UNL     1     -42.845 -35.775  23.586  1.00  0.00     0.296 C 
HETATM    7  C7  UNL     1     -41.820 -34.947  21.789  1.00  0.00     0.190 C 
HETATM    8  O3  UNL     1     -42.606 -35.974  22.241  1.00  0.00    -0.370 OA
ENDBRANCH   1   2
BRANCH   1   9
HETATM    9  C3  UNL     1     -40.283 -33.969  27.319  1.00  0.00     0.151 C 
HETATM   10 CL1  UNL     1     -38.967 -34.821  28.047  1.00  0.00    -0.128 Cl
ENDBRANCH   1   9
BRANCH   1  11
HETATM   11  N1  UNL     1     -38.838 -34.278  25.405  1.00  0.00    -0.319 N 
ATOM     12  H1  UNL     1     -38.124 -33.616  25.710  1.00  0.00     0.181 HD
BRANCH  11  13
HETATM   13  N2  UNL     1     -38.421 -35.348  24.706  1.00  0.00    -0.270 N 
HETATM   14  C4  UNL     1     -37.997 -35.040  23.345  1.00  0.00     0.290 C 
HETATM   15  O2  UNL     1     -38.085 -33.836  22.906  1.00  0.00    -0.267 OA
ATOM     16  H2  UNL     1     -38.403 -36.291  25.093  1.00  0.00     0.189 HD
BRANCH  14  17
HETATM   17  C5  UNL     1     -37.440 -36.033  22.419  1.00  0.00     0.271 C 
HETATM   18 CL2  UNL     1     -36.436 -35.280  21.189  1.00  0.00    -0.073 Cl
HETATM   19 CL3  UNL     1     -36.350 -37.118  23.382  1.00  0.00    -0.073 Cl
HETATM   20 CL4  UNL     1     -38.696 -36.995  21.653  1.00  0.00    -0.073 Cl
ENDBRANCH  14  17
ENDBRANCH  11  13
ENDBRANCH   1  11
TORSDOF 5
ENDMDL
MODEL 5
REMARK VINA RESULT: -6.040161938      2.461      4.091
REMARK  5 active torsions:
REMARK  status: ('A' for Active; 'I' for Inactive)
REMARK    1  A    between atoms: C1_2  and  C2_3 
REMARK       I    between atoms: C1_2  and  N3_16 
REMARK    2  A    between atoms: C2_3  and  C3_4 
REMARK    3  A    between atoms: C2_3  and  N1_6 
REMARK    4  A    between atoms: N1_6  and  N2_8 
REMARK       I    between atoms: N2_8  and  C4_10 
REMARK    5  A    between atoms: C4_10  and  C5_12 
ROOT
HETATM    1  C2  UNL     1     -40.128 -34.010  25.698  1.00  0.00     0.205 C 
ENDROOT
BRANCH   1   2
HETATM    2  C1  UNL     1     -41.114 -35.058  25.182  1.00  0.00     0.246 C 
HETATM    3  O1  UNL     1     -41.281 -36.043  25.972  1.00  0.00    -0.271 OA
HETATM    4  N3  UNL     1     -41.729 -34.935  23.956  1.00  0.00    -0.327 N 
HETATM    5  C6  UNL     1     -41.551 -34.002  22.869  1.00  0.00     0.154 C 
HETATM    6  C8  UNL     1     -42.781 -35.812  23.484  1.00  0.00     0.296 C 
HETATM    7  C7  UNL     1     -41.714 -34.993  21.707  1.00  0.00     0.190 C 
HETATM    8  O3  UNL     1     -42.507 -36.019  22.147  1.00  0.00    -0.370 OA
ENDBRANCH   1   2
BRANCH   1   9
HETATM    9  C3  UNL     1     -40.301 -33.989  27.269  1.00  0.00     0.151 C 
HETATM   10 CL1  UNL     1     -38.957 -34.781  28.014  1.00  0.00    -0.128 Cl
ENDBRANCH   1   9
BRANCH   1  11
HETATM   11  N1  UNL     1     -38.828 -34.277  25.374  1.00  0.00    -0.319 N 
ATOM     12  H1  UNL     1     -38.127 -33.598  25.671  1.00  0.00     0.181 HD
BRANCH  11  13
HETATM   13  N2  UNL     1     -38.388 -35.354  24.701  1.00  0.00    -0.270 N 
HETATM   14  C4  UNL     1     -37.903 -35.059  23.357  1.00  0.00     0.290 C 
HETATM   15  O2  UNL     1     -37.964 -33.857  22.908  1.00  0.00    -0.267 OA
ATOM     16  H2  UNL     1     -38.393 -36.295  25.094  1.00  0.00     0.189 HD
BRANCH  14  17
HETATM   17  C5  UNL     1     -37.314 -36.062  22.462  1.00  0.00     0.271 C 
HETATM   18 CL2  UNL     1     -36.342 -37.227  23.347  1.00  0.00    -0.073 Cl
HETATM   19 CL3  UNL     1     -38.683 -36.991  21.717  1.00  0.00    -0.073 Cl
HETATM   20 CL4  UNL     1     -36.348 -35.324  21.193  1.00  0.00    -0.073 Cl
ENDBRANCH  14  17
ENDBRANCH  11  13
ENDBRANCH   1  11
TORSDOF 5
ENDMDL
