MODEL 1
REMARK VINA RESULT: -6.937441413      0.000      0.000
REMARK  5 active torsions:
REMARK  status: ('A' for Active; 'I' for Inactive)
REMARK       I    between atoms: C2_2  and  N1_4 
REMARK    1  A    between atoms: N1_4  and  N2_6 
REMARK    2  A    between atoms: N2_6  and  S1_8 
REMARK    3  A    between atoms: S1_8  and  C3_11 
REMARK    4  A    between atoms: C6_14  and  N3_15 
REMARK       I    between atoms: N3_15  and  C7_17 
REMARK    5  A    between atoms: C7_17  and  C8_19 
ROOT
HETATM    1  C3  UNL     1      10.074   2.507  -7.189  1.00  0.00     0.081 A 
HETATM    2  C4  UNL     1       9.153   3.250  -6.487  1.00  0.00     0.027 A 
HETATM    3  C5  UNL     1       7.891   2.778  -6.196  1.00  0.00     0.031 A 
HETATM    4  C6  UNL     1       7.510   1.500  -6.621  1.00  0.00     0.035 A 
HETATM    5  C12 UNL     1       8.415   0.751  -7.319  1.00  0.00     0.031 A 
HETATM    6  C13 UNL     1       9.694   1.267  -7.596  1.00  0.00     0.027 A 
ENDROOT
BRANCH   1   7
HETATM    7  S1  UNL     1      11.645   3.195  -7.507  1.00  0.00     0.276 S 
HETATM    8  O2  UNL     1      11.573   4.654  -7.145  1.00  0.00    -0.199 OA
HETATM    9  O3  UNL     1      12.622   2.525  -6.574  1.00  0.00    -0.199 OA
BRANCH   7  10
HETATM   10  N2  UNL     1      12.136   2.966  -9.152  1.00  0.00    -0.220 N 
ATOM     11  H2  UNL     1      13.065   3.136  -9.536  1.00  0.00     0.200 HD
BRANCH  10  12
HETATM   12  N1  UNL     1      11.017   2.504  -9.853  1.00  0.00    -0.261 N 
HETATM   13  C2  UNL     1      11.116   2.181 -11.224  1.00  0.00     0.232 C 
HETATM   14  C1  UNL     1       9.905   1.690 -11.949  1.00  0.00     0.119 C 
HETATM   15  O1  UNL     1      12.179   2.284 -11.878  1.00  0.00    -0.272 OA
ATOM     16  H1  UNL     1      10.123   2.401  -9.372  1.00  0.00     0.190 HD
ENDBRANCH  10  12
ENDBRANCH   7  10
ENDBRANCH   1   7
BRANCH   4  17
HETATM   17  N3  UNL     1       6.192   1.078  -6.256  1.00  0.00    -0.322 N 
HETATM   18  C7  UNL     1       5.070   1.058  -7.069  1.00  0.00     0.264 C 
HETATM   19  O4  UNL     1       5.200   1.459  -8.260  1.00  0.00    -0.267 OA
ATOM     20  H3  UNL     1       6.066   0.759  -5.296  1.00  0.00     0.169 HD
BRANCH  18  21
HETATM   21  C8  UNL     1       3.749   0.617  -6.676  1.00  0.00     0.090 A 
HETATM   22  S2  UNL     1       2.815  -0.561  -7.591  1.00  0.00    -0.095 SA
HETATM   23  C9  UNL     1       1.427  -0.632  -6.633  1.00  0.00     0.052 A 
HETATM   24  C10 UNL     1       1.702   0.243  -5.636  1.00  0.00     0.028 A 
HETATM   25  C11 UNL     1       2.892   0.886  -5.654  1.00  0.00     0.034 A 
HETATM   26 BR1  UNL     1       3.336   2.161  -4.235  1.00  0.00    -0.049 Br
ENDBRANCH  18  21
ENDBRANCH   4  17
TORSDOF 5
ENDMDL
MODEL 2
REMARK VINA RESULT: -6.863951834      5.983      8.654
REMARK  5 active torsions:
REMARK  status: ('A' for Active; 'I' for Inactive)
REMARK       I    between atoms: C2_2  and  N1_4 
REMARK    1  A    between atoms: N1_4  and  N2_6 
REMARK    2  A    between atoms: N2_6  and  S1_8 
REMARK    3  A    between atoms: S1_8  and  C3_11 
REMARK    4  A    between atoms: C6_14  and  N3_15 
REMARK       I    between atoms: N3_15  and  C7_17 
REMARK    5  A    between atoms: C7_17  and  C8_19 
ROOT
HETATM    1  C3  UNL     1       6.587  -3.599  -5.047  1.00  0.00     0.081 A 
HETATM    2  C4  UNL     1       5.905  -3.684  -6.239  1.00  0.00     0.027 A 
HETATM    3  C5  UNL     1       6.116  -2.798  -7.274  1.00  0.00     0.031 A 
HETATM    4  C6  UNL     1       7.052  -1.768  -7.130  1.00  0.00     0.035 A 
HETATM    5  C12 UNL     1       7.737  -1.672  -5.951  1.00  0.00     0.031 A 
HETATM    6  C13 UNL     1       7.494  -2.595  -4.917  1.00  0.00     0.027 A 
ENDROOT
BRANCH   1   7
HETATM    7  S1  UNL     1       6.247  -4.768  -3.798  1.00  0.00     0.276 S 
HETATM    8  O2  UNL     1       6.397  -4.064  -2.477  1.00  0.00    -0.199 OA
HETATM    9  O3  UNL     1       4.804  -5.179  -3.953  1.00  0.00    -0.199 OA
BRANCH   7  10
HETATM   10  N2  UNL     1       7.278  -6.155  -3.906  1.00  0.00    -0.220 N 
ATOM     11  H2  UNL     1       6.981  -7.125  -4.011  1.00  0.00     0.200 HD
BRANCH  10  12
HETATM   12  N1  UNL     1       8.597  -5.694  -3.820  1.00  0.00    -0.261 N 
HETATM   13  C2  UNL     1       9.444  -6.139  -2.782  1.00  0.00     0.232 C 
HETATM   14  C1  UNL     1      10.847  -5.630  -2.715  1.00  0.00     0.119 C 
HETATM   15  O1  UNL     1       9.080  -6.948  -1.899  1.00  0.00    -0.272 OA
ATOM     16  H1  UNL     1       8.948  -5.032  -4.513  1.00  0.00     0.190 HD
ENDBRANCH  10  12
ENDBRANCH   7  10
ENDBRANCH   1   7
BRANCH   4  17
HETATM   17  N3  UNL     1       7.227  -0.908  -8.260  1.00  0.00    -0.322 N 
HETATM   18  C7  UNL     1       8.351  -0.809  -9.065  1.00  0.00     0.264 C 
HETATM   19  O4  UNL     1       9.342  -1.539  -8.782  1.00  0.00    -0.267 OA
ATOM     20  H3  UNL     1       6.440  -0.305  -8.499  1.00  0.00     0.169 HD
BRANCH  18  21
HETATM   21  C8  UNL     1       8.496   0.063 -10.210  1.00  0.00     0.090 A 
HETATM   22  S2  UNL     1       7.566  -0.127 -11.692  1.00  0.00    -0.095 SA
HETATM   23  C9  UNL     1       8.189   1.160 -12.589  1.00  0.00     0.052 A 
HETATM   24  C10 UNL     1       9.094   1.708 -11.743  1.00  0.00     0.028 A 
HETATM   25  C11 UNL     1       9.255   1.149 -10.522  1.00  0.00     0.034 A 
HETATM   26 BR1  UNL     1      10.551   1.906  -9.264  1.00  0.00    -0.049 Br
ENDBRANCH  18  21
ENDBRANCH   4  17
TORSDOF 5
ENDMDL
MODEL 3
REMARK VINA RESULT: -6.862680616      4.008      8.938
REMARK  5 active torsions:
REMARK  status: ('A' for Active; 'I' for Inactive)
REMARK       I    between atoms: C2_2  and  N1_4 
REMARK    1  A    between atoms: N1_4  and  N2_6 
REMARK    2  A    between atoms: N2_6  and  S1_8 
REMARK    3  A    between atoms: S1_8  and  C3_11 
REMARK    4  A    between atoms: C6_14  and  N3_15 
REMARK       I    between atoms: N3_15  and  C7_17 
REMARK    5  A    between atoms: C7_17  and  C8_19 
ROOT
HETATM    1  C3  UNL     1       4.126   1.549  -5.148  1.00  0.00     0.081 A 
HETATM    2  C4  UNL     1       4.058   1.316  -6.502  1.00  0.00     0.027 A 
HETATM    3  C5  UNL     1       5.109   1.592  -7.352  1.00  0.00     0.031 A 
HETATM    4  C6  UNL     1       6.296   2.129  -6.840  1.00  0.00     0.035 A 
HETATM    5  C12 UNL     1       6.376   2.365  -5.497  1.00  0.00     0.031 A 
HETATM    6  C13 UNL     1       5.283   2.070  -4.662  1.00  0.00     0.027 A 
ENDROOT
BRANCH   1   7
HETATM    7  S1  UNL     1       2.742   1.167  -4.158  1.00  0.00     0.276 S 
HETATM    8  O2  UNL     1       1.850   2.378  -4.154  1.00  0.00    -0.199 OA
HETATM    9  O3  UNL     1       2.005   0.040  -4.839  1.00  0.00    -0.199 OA
BRANCH   7  10
HETATM   10  N2  UNL     1       3.196   0.700  -2.554  1.00  0.00    -0.220 N 
ATOM     11  H2  UNL     1       4.090   0.887  -2.098  1.00  0.00     0.200 HD
BRANCH  10  12
HETATM   12  N1  UNL     1       2.107   0.018  -2.000  1.00  0.00    -0.261 N 
HETATM   13  C2  UNL     1       2.230  -1.336  -1.621  1.00  0.00     0.232 C 
HETATM   14  C1  UNL     1       1.051  -2.040  -1.033  1.00  0.00     0.119 C 
HETATM   15  O1  UNL     1       3.288  -1.992  -1.752  1.00  0.00    -0.272 OA
ATOM     16  H1  UNL     1       1.219   0.502  -1.871  1.00  0.00     0.190 HD
ENDBRANCH  10  12
ENDBRANCH   7  10
ENDBRANCH   1   7
BRANCH   4  17
HETATM   17  N3  UNL     1       7.343   2.362  -7.786  1.00  0.00    -0.322 N 
HETATM   18  C7  UNL     1       8.497   1.613  -7.953  1.00  0.00     0.264 C 
HETATM   19  O4  UNL     1       8.666   0.618  -7.193  1.00  0.00    -0.267 OA
ATOM     20  H3  UNL     1       7.229   3.166  -8.403  1.00  0.00     0.169 HD
BRANCH  18  21
HETATM   21  C8  UNL     1       9.537   1.866  -8.926  1.00  0.00     0.090 A 
HETATM   22  S2  UNL     1       9.333   1.586 -10.651  1.00  0.00    -0.095 SA
HETATM   23  C9  UNL     1      10.855   2.064 -11.202  1.00  0.00     0.052 A 
HETATM   24  C10 UNL     1      11.489   2.427 -10.062  1.00  0.00     0.028 A 
HETATM   25  C11 UNL     1      10.817   2.327  -8.892  1.00  0.00     0.034 A 
HETATM   26 BR1  UNL     1      11.691   2.839  -7.215  1.00  0.00    -0.049 Br
ENDBRANCH  18  21
ENDBRANCH   4  17
TORSDOF 5
ENDMDL
MODEL 4
REMARK VINA RESULT: -6.862139517      3.840      8.225
REMARK  5 active torsions:
REMARK  status: ('A' for Active; 'I' for Inactive)
REMARK       I    between atoms: C2_2  and  N1_4 
REMARK    1  A    between atoms: N1_4  and  N2_6 
REMARK    2  A    between atoms: N2_6  and  S1_8 
REMARK    3  A    between atoms: S1_8  and  C3_11 
REMARK    4  A    between atoms: C6_14  and  N3_15 
REMARK       I    between atoms: N3_15  and  C7_17 
REMARK    5  A    between atoms: C7_17  and  C8_19 
ROOT
HETATM    1  C3  UNL     1       4.191   1.511  -5.152  1.00  0.00     0.081 A 
HETATM    2  C4  UNL     1       5.396   2.097  -4.837  1.00  0.00     0.027 A 
HETATM    3  C5  UNL     1       6.383   2.307  -5.777  1.00  0.00     0.031 A 
HETATM    4  C6  UNL     1       6.173   1.918  -7.105  1.00  0.00     0.035 A 
HETATM    5  C12 UNL     1       4.981   1.336  -7.432  1.00  0.00     0.031 A 
HETATM    6  C13 UNL     1       3.998   1.138  -6.444  1.00  0.00     0.027 A 
ENDROOT
BRANCH   1   7
HETATM    7  S1  UNL     1       3.009   1.289  -3.889  1.00  0.00     0.276 S 
HETATM    8  O2  UNL     1       3.370   2.227  -2.770  1.00  0.00    -0.199 OA
HETATM    9  O3  UNL     1       1.674   1.713  -4.449  1.00  0.00    -0.199 OA
BRANCH   7  10
HETATM   10  N2  UNL     1       2.935  -0.355  -3.348  1.00  0.00    -0.220 N 
ATOM     11  H2  UNL     1       2.301  -1.077  -3.689  1.00  0.00     0.200 HD
BRANCH  10  12
HETATM   12  N1  UNL     1       3.910  -0.504  -2.356  1.00  0.00    -0.261 N 
HETATM   13  C2  UNL     1       5.163  -1.076  -2.665  1.00  0.00     0.232 C 
HETATM   14  C1  UNL     1       6.185  -1.224  -1.585  1.00  0.00     0.119 C 
HETATM   15  O1  UNL     1       5.472  -1.474  -3.811  1.00  0.00    -0.272 OA
ATOM     16  H1  UNL     1       3.713  -0.199  -1.403  1.00  0.00     0.190 HD
ENDBRANCH  10  12
ENDBRANCH   7  10
ENDBRANCH   1   7
BRANCH   4  17
HETATM   17  N3  UNL     1       7.238   2.195  -8.020  1.00  0.00    -0.322 N 
HETATM   18  C7  UNL     1       8.430   1.499  -8.145  1.00  0.00     0.264 C 
HETATM   19  O4  UNL     1       8.622   0.518  -7.372  1.00  0.00    -0.267 OA
ATOM     20  H3  UNL     1       7.105   2.988  -8.647  1.00  0.00     0.169 HD
BRANCH  18  21
HETATM   21  C8  UNL     1       9.487   1.795  -9.088  1.00  0.00     0.090 A 
HETATM   22  S2  UNL     1       9.324   1.560 -10.824  1.00  0.00    -0.095 SA
HETATM   23  C9  UNL     1      10.850   2.075 -11.328  1.00  0.00     0.052 A 
HETATM   24  C10 UNL     1      11.453   2.416 -10.165  1.00  0.00     0.028 A 
HETATM   25  C11 UNL     1      10.758   2.273  -9.013  1.00  0.00     0.034 A 
HETATM   26 BR1  UNL     1      11.588   2.752  -7.305  1.00  0.00    -0.049 Br
ENDBRANCH  18  21
ENDBRANCH   4  17
TORSDOF 5
ENDMDL
MODEL 5
REMARK VINA RESULT: -6.856794560      2.236      3.220
REMARK  5 active torsions:
REMARK  status: ('A' for Active; 'I' for Inactive)
REMARK       I    between atoms: C2_2  and  N1_4 
REMARK    1  A    between atoms: N1_4  and  N2_6 
REMARK    2  A    between atoms: N2_6  and  S1_8 
REMARK    3  A    between atoms: S1_8  and  C3_11 
REMARK    4  A    between atoms: C6_14  and  N3_15 
REMARK       I    between atoms: N3_15  and  C7_17 
REMARK    5  A    between atoms: C7_17  and  C8_19 
ROOT
HETATM    1  C3  UNL     1       9.782   2.239  -7.960  1.00  0.00     0.081 A 
HETATM    2  C4  UNL     1       9.295   2.764  -6.785  1.00  0.00     0.027 A 
HETATM    3  C5  UNL     1       7.950   2.771  -6.481  1.00  0.00     0.031 A 
HETATM    4  C6  UNL     1       7.029   2.232  -7.387  1.00  0.00     0.035 A 
HETATM    5  C12 UNL     1       7.499   1.708  -8.558  1.00  0.00     0.031 A 
HETATM    6  C13 UNL     1       8.879   1.718  -8.832  1.00  0.00     0.027 A 
ENDROOT
BRANCH   1   7
HETATM    7  S1  UNL     1      11.502   2.278  -8.250  1.00  0.00     0.276 S 
HETATM    8  O2  UNL     1      11.903   0.912  -8.735  1.00  0.00    -0.199 OA
HETATM    9  O3  UNL     1      11.743   3.265  -9.365  1.00  0.00    -0.199 OA
BRANCH   7  10
HETATM   10  N2  UNL     1      12.390   2.743  -6.838  1.00  0.00    -0.220 N 
ATOM     11  H2  UNL     1      12.426   2.240  -5.951  1.00  0.00     0.200 HD
BRANCH  10  12
HETATM   12  N1  UNL     1      13.050   3.939  -7.143  1.00  0.00    -0.261 N 
HETATM   13  C2  UNL     1      13.910   4.541  -6.199  1.00  0.00     0.232 C 
HETATM   14  C1  UNL     1      14.601   5.818  -6.551  1.00  0.00     0.119 C 
HETATM   15  O1  UNL     1      14.130   4.059  -5.065  1.00  0.00    -0.272 OA
ATOM     16  H1  UNL     1      12.908   4.378  -8.052  1.00  0.00     0.190 HD
ENDBRANCH  10  12
ENDBRANCH   7  10
ENDBRANCH   1   7
BRANCH   4  17
HETATM   17  N3  UNL     1       5.656   2.258  -6.983  1.00  0.00    -0.322 N 
HETATM   18  C7  UNL     1       4.984   1.290  -6.255  1.00  0.00     0.264 C 
HETATM   19  O4  UNL     1       5.631   0.261  -5.908  1.00  0.00    -0.267 OA
ATOM     20  H3  UNL     1       5.116   3.077  -7.262  1.00  0.00     0.169 HD
BRANCH  18  21
HETATM   21  C8  UNL     1       3.596   1.347  -5.852  1.00  0.00     0.090 A 
HETATM   22  S2  UNL     1       2.269   0.832  -6.887  1.00  0.00    -0.095 SA
HETATM   23  C9  UNL     1       0.966   1.143  -5.859  1.00  0.00     0.052 A 
HETATM   24  C10 UNL     1       1.567   1.633  -4.749  1.00  0.00     0.028 A 
HETATM   25  C11 UNL     1       2.916   1.740  -4.740  1.00  0.00     0.034 A 
HETATM   26 BR1  UNL     1       3.831   2.443  -3.158  1.00  0.00    -0.049 Br
ENDBRANCH  18  21
ENDBRANCH   4  17
TORSDOF 5
ENDMDL
