MODEL 1
REMARK VINA RESULT: -7.334205929      0.000      0.000
REMARK  7 active torsions:
REMARK  status: ('A' for Active; 'I' for Inactive)
REMARK    1  A    between atoms: N1_1  and  S1_4 
REMARK    2  A    between atoms: S1_4  and  C1_7 
REMARK    3  A    between atoms: C5_11  and  C6_12 
REMARK    4  A    between atoms: C6_12  and  N2_13 
REMARK    5  A    between atoms: N2_13  and  N3_15 
REMARK    6  A    between atoms: N3_15  and  C7_17 
REMARK    7  A    between atoms: N5_22  and  C9_24 
ROOT
HETATM    1  N3  UNL     1       3.156  -0.846  -1.324  1.00  0.00    -0.273 N 
ATOM      2  H3  UNL     1       2.649  -0.151  -0.777  1.00  0.00     0.189 HD
ENDROOT
BRANCH   1   3
HETATM    3  N2  UNL     1       3.208  -2.102  -0.912  1.00  0.00    -0.309 N 
ATOM      4  H2  UNL     1       2.857  -2.184   0.041  1.00  0.00     0.186 HD
BRANCH   3   5
HETATM    5  C6  UNL     1       3.554  -3.188  -1.341  1.00  0.00     0.118 C 
BRANCH   5   6
HETATM    6  C5  UNL     1       4.800  -3.907  -1.176  1.00  0.00    -0.018 A 
HETATM    7  C4  UNL     1       4.828  -5.202  -0.716  1.00  0.00     0.013 A 
HETATM    8  C3  UNL     1       6.055  -5.843  -0.604  1.00  0.00     0.002 A 
HETATM    9  C2  UNL     1       7.225  -5.198  -0.944  1.00  0.00     0.025 A 
HETATM   10  C1  UNL     1       7.225  -3.893  -1.408  1.00  0.00     0.080 A 
HETATM   11  C15 UNL     1       6.014  -3.268  -1.516  1.00  0.00     0.038 A 
BRANCH  10  12
HETATM   12  S1  UNL     1       8.746  -3.144  -1.850  1.00  0.00     0.256 S 
HETATM   13  O1  UNL     1       9.111  -2.007  -0.960  1.00  0.00    -0.201 OA
HETATM   14  O2  UNL     1       9.857  -4.180  -1.750  1.00  0.00    -0.201 OA
BRANCH  12  15
HETATM   15  N1  UNL     1       8.702  -2.589  -3.485  1.00  0.00    -0.324 N 
ATOM     16  H12 UNL     1       9.128  -3.075  -4.274  1.00  0.00     0.169 HD
ATOM     17  H11 UNL     1       8.188  -1.709  -3.524  1.00  0.00     0.169 HD
ENDBRANCH  12  15
ENDBRANCH  10  12
ENDBRANCH   5   6
ENDBRANCH   3   5
ENDBRANCH   1   3
BRANCH   1  18
HETATM   18  C7  UNL     1       3.760  -0.491  -2.445  1.00  0.00     0.230 A 
HETATM   19  O3  UNL     1       4.967  -0.055  -2.587  1.00  0.00    -0.208 OA
HETATM   20  N4  UNL     1       5.415   0.248  -3.711  1.00  0.00    -0.236 N 
HETATM   21  C8  UNL     1       4.632   0.121  -4.782  1.00  0.00     0.173 A 
ATOM     22  H4  UNL     1       6.371   0.590  -3.810  1.00  0.00     0.197 HD
HETATM   23  N5  UNL     1       4.900   0.374  -6.041  1.00  0.00    -0.335 N 
HETATM   24  S2  UNL     1       3.195  -0.471  -4.054  1.00  0.00    -0.005 SA
ATOM     25  H5  UNL     1       4.206   0.228  -6.774  1.00  0.00     0.168 HD
BRANCH  23  26
HETATM   26  C9  UNL     1       6.183   0.855  -6.332  1.00  0.00     0.034 A 
HETATM   27  C10 UNL     1       6.592   2.158  -6.163  1.00  0.00     0.031 A 
HETATM   28  C11 UNL     1       7.876   2.554  -6.475  1.00  0.00     0.021 A 
HETATM   29  C12 UNL     1       8.804   1.654  -6.972  1.00  0.00     0.011 A 
HETATM   30 BR1  UNL     1      10.595   2.199  -7.412  1.00  0.00    -0.051 Br
HETATM   31  C13 UNL     1       8.417   0.346  -7.149  1.00  0.00     0.021 A 
HETATM   32  C14 UNL     1       7.115  -0.054  -6.833  1.00  0.00     0.031 A 
ENDBRANCH  23  26
ENDBRANCH   1  18
TORSDOF 7
ENDMDL
MODEL 2
REMARK VINA RESULT: -7.234781482      2.969      3.812
REMARK  7 active torsions:
REMARK  status: ('A' for Active; 'I' for Inactive)
REMARK    1  A    between atoms: N1_1  and  S1_4 
REMARK    2  A    between atoms: S1_4  and  C1_7 
REMARK    3  A    between atoms: C5_11  and  C6_12 
REMARK    4  A    between atoms: C6_12  and  N2_13 
REMARK    5  A    between atoms: N2_13  and  N3_15 
REMARK    6  A    between atoms: N3_15  and  C7_17 
REMARK    7  A    between atoms: N5_22  and  C9_24 
ROOT
HETATM    1  N3  UNL     1       5.702  -3.205  -6.292  1.00  0.00    -0.273 N 
ATOM      2  H3  UNL     1       4.687  -3.106  -6.296  1.00  0.00     0.189 HD
ENDROOT
BRANCH   1   3
HETATM    3  N2  UNL     1       6.255  -4.321  -5.847  1.00  0.00    -0.309 N 
ATOM      4  H2  UNL     1       6.905  -4.701  -6.535  1.00  0.00     0.186 HD
BRANCH   3   5
HETATM    5  C6  UNL     1       6.215  -5.026  -4.855  1.00  0.00     0.118 C 
BRANCH   5   6
HETATM    6  C5  UNL     1       7.035  -5.014  -3.662  1.00  0.00    -0.018 A 
HETATM    7  C4  UNL     1       7.847  -6.074  -3.336  1.00  0.00     0.013 A 
HETATM    8  C3  UNL     1       8.627  -5.989  -2.190  1.00  0.00     0.002 A 
HETATM    9  C2  UNL     1       8.590  -4.867  -1.391  1.00  0.00     0.025 A 
HETATM   10  C1  UNL     1       7.780  -3.786  -1.694  1.00  0.00     0.080 A 
HETATM   11  C15 UNL     1       7.015  -3.876  -2.823  1.00  0.00     0.038 A 
BRANCH  10  12
HETATM   12  S1  UNL     1       7.803  -2.380  -0.649  1.00  0.00     0.256 S 
HETATM   13  O1  UNL     1       7.389  -2.690   0.748  1.00  0.00    -0.201 OA
HETATM   14  O2  UNL     1       9.220  -1.825  -0.595  1.00  0.00    -0.201 OA
BRANCH  12  15
HETATM   15  N1  UNL     1       6.784  -1.134  -1.276  1.00  0.00    -0.324 N 
ATOM     16  H12 UNL     1       5.926  -0.809  -0.831  1.00  0.00     0.169 HD
ATOM     17  H11 UNL     1       7.181  -0.787  -2.149  1.00  0.00     0.169 HD
ENDBRANCH  12  15
ENDBRANCH  10  12
ENDBRANCH   5   6
ENDBRANCH   3   5
ENDBRANCH   1   3
BRANCH   1  18
HETATM   18  C7  UNL     1       6.463  -2.218  -6.733  1.00  0.00     0.230 A 
HETATM   19  O3  UNL     1       7.345  -1.546  -6.071  1.00  0.00    -0.208 OA
HETATM   20  N4  UNL     1       7.998  -0.632  -6.613  1.00  0.00    -0.236 N 
HETATM   21  C8  UNL     1       7.779  -0.344  -7.895  1.00  0.00     0.173 A 
ATOM     22  H4  UNL     1       8.694  -0.109  -6.080  1.00  0.00     0.197 HD
HETATM   23  N5  UNL     1       8.350   0.563  -8.651  1.00  0.00    -0.335 N 
HETATM   24  S2  UNL     1       6.559  -1.490  -8.272  1.00  0.00    -0.005 SA
ATOM     25  H5  UNL     1       8.092   0.680  -9.631  1.00  0.00     0.168 HD
BRANCH  23  26
HETATM   26  C9  UNL     1       9.331   1.363  -8.053  1.00  0.00     0.034 A 
HETATM   27  C10 UNL     1       9.132   2.152  -6.942  1.00  0.00     0.031 A 
HETATM   28  C11 UNL     1      10.152   2.914  -6.410  1.00  0.00     0.021 A 
HETATM   29  C12 UNL     1      11.416   2.915  -6.975  1.00  0.00     0.011 A 
HETATM   30 BR1  UNL     1      12.842   3.978  -6.243  1.00  0.00    -0.051 Br
HETATM   31  C13 UNL     1      11.638   2.134  -8.086  1.00  0.00     0.021 A 
HETATM   32  C14 UNL     1      10.603   1.363  -8.624  1.00  0.00     0.031 A 
ENDBRANCH  23  26
ENDBRANCH   1  18
TORSDOF 7
ENDMDL
MODEL 3
REMARK VINA RESULT: -7.157916399      2.914      3.582
REMARK  7 active torsions:
REMARK  status: ('A' for Active; 'I' for Inactive)
REMARK    1  A    between atoms: N1_1  and  S1_4 
REMARK    2  A    between atoms: S1_4  and  C1_7 
REMARK    3  A    between atoms: C5_11  and  C6_12 
REMARK    4  A    between atoms: C6_12  and  N2_13 
REMARK    5  A    between atoms: N2_13  and  N3_15 
REMARK    6  A    between atoms: N3_15  and  C7_17 
REMARK    7  A    between atoms: N5_22  and  C9_24 
ROOT
HETATM    1  N3  UNL     1       5.317  -4.645  -5.588  1.00  0.00    -0.273 N 
ATOM      2  H3  UNL     1       4.308  -4.726  -5.472  1.00  0.00     0.189 HD
ENDROOT
BRANCH   1   3
HETATM    3  N2  UNL     1       6.114  -5.601  -5.142  1.00  0.00    -0.309 N 
ATOM      4  H2  UNL     1       6.500  -6.140  -5.917  1.00  0.00     0.186 HD
BRANCH   3   5
HETATM    5  C6  UNL     1       6.520  -6.026  -4.076  1.00  0.00     0.118 C 
BRANCH   5   6
HETATM    6  C5  UNL     1       7.571  -5.534  -3.209  1.00  0.00    -0.018 A 
HETATM    7  C4  UNL     1       8.814  -6.120  -3.181  1.00  0.00     0.013 A 
HETATM    8  C3  UNL     1       9.785  -5.584  -2.345  1.00  0.00     0.002 A 
HETATM    9  C2  UNL     1       9.513  -4.487  -1.556  1.00  0.00     0.025 A 
HETATM   10  C1  UNL     1       8.269  -3.879  -1.564  1.00  0.00     0.080 A 
HETATM   11  C15 UNL     1       7.317  -4.411  -2.389  1.00  0.00     0.038 A 
BRANCH  10  12
HETATM   12  S1  UNL     1       8.000  -2.471  -0.557  1.00  0.00     0.256 S 
HETATM   13  O1  UNL     1       7.420  -2.811   0.772  1.00  0.00    -0.201 OA
HETATM   14  O2  UNL     1       9.332  -1.775  -0.312  1.00  0.00    -0.201 OA
BRANCH  12  15
HETATM   15  N1  UNL     1       6.964  -1.339  -1.351  1.00  0.00    -0.324 N 
ATOM     16  H12 UNL     1       7.254  -0.418  -1.678  1.00  0.00     0.169 HD
ATOM     17  H11 UNL     1       6.032  -1.744  -1.434  1.00  0.00     0.169 HD
ENDBRANCH  12  15
ENDBRANCH  10  12
ENDBRANCH   5   6
ENDBRANCH   3   5
ENDBRANCH   1   3
BRANCH   1  18
HETATM   18  C7  UNL     1       5.829  -3.582  -6.185  1.00  0.00     0.230 A 
HETATM   19  O3  UNL     1       6.853  -2.886  -5.817  1.00  0.00    -0.208 OA
HETATM   20  N4  UNL     1       7.231  -1.897  -6.478  1.00  0.00    -0.236 N 
HETATM   21  C8  UNL     1       6.565  -1.554  -7.580  1.00  0.00     0.173 A 
ATOM     22  H4  UNL     1       8.042  -1.357  -6.177  1.00  0.00     0.197 HD
HETATM   23  N5  UNL     1       6.793  -0.567  -8.413  1.00  0.00    -0.335 N 
HETATM   24  S2  UNL     1       5.347  -2.762  -7.602  1.00  0.00    -0.005 SA
ATOM     25  H5  UNL     1       6.205  -0.415  -9.232  1.00  0.00     0.168 HD
BRANCH  23  26
HETATM   26  C9  UNL     1       7.881   0.267  -8.128  1.00  0.00     0.034 A 
HETATM   27  C10 UNL     1       7.885   1.252  -7.167  1.00  0.00     0.031 A 
HETATM   28  C11 UNL     1       9.000   2.035  -6.946  1.00  0.00     0.021 A 
HETATM   29  C12 UNL     1      10.159   1.858  -7.683  1.00  0.00     0.011 A 
HETATM   30 BR1  UNL     1      11.716   2.947  -7.383  1.00  0.00    -0.051 Br
HETATM   31  C13 UNL     1      10.177   0.878  -8.648  1.00  0.00     0.021 A 
HETATM   32  C14 UNL     1       9.046   0.086  -8.872  1.00  0.00     0.031 A 
ENDBRANCH  23  26
ENDBRANCH   1  18
TORSDOF 7
ENDMDL
MODEL 4
REMARK VINA RESULT: -7.056526452      3.459      4.195
REMARK  7 active torsions:
REMARK  status: ('A' for Active; 'I' for Inactive)
REMARK    1  A    between atoms: N1_1  and  S1_4 
REMARK    2  A    between atoms: S1_4  and  C1_7 
REMARK    3  A    between atoms: C5_11  and  C6_12 
REMARK    4  A    between atoms: C6_12  and  N2_13 
REMARK    5  A    between atoms: N2_13  and  N3_15 
REMARK    6  A    between atoms: N3_15  and  C7_17 
REMARK    7  A    between atoms: N5_22  and  C9_24 
ROOT
HETATM    1  N3  UNL     1       6.511  -3.005  -6.222  1.00  0.00    -0.273 N 
ATOM      2  H3  UNL     1       6.544  -3.874  -6.754  1.00  0.00     0.189 HD
ENDROOT
BRANCH   1   3
HETATM    3  N2  UNL     1       5.779  -2.929  -5.123  1.00  0.00    -0.309 N 
ATOM      4  H2  UNL     1       4.879  -2.490  -5.319  1.00  0.00     0.186 HD
BRANCH   3   5
HETATM    5  C6  UNL     1       5.866  -3.230  -3.947  1.00  0.00     0.118 C 
BRANCH   5   6
HETATM    6  C5  UNL     1       7.022  -3.285  -3.076  1.00  0.00    -0.018 A 
HETATM    7  C4  UNL     1       7.281  -2.293  -2.161  1.00  0.00     0.013 A 
HETATM    8  C3  UNL     1       8.394  -2.419  -1.339  1.00  0.00     0.002 A 
HETATM    9  C2  UNL     1       9.225  -3.514  -1.436  1.00  0.00     0.025 A 
HETATM   10  C1  UNL     1       8.988  -4.527  -2.350  1.00  0.00     0.080 A 
HETATM   11  C15 UNL     1       7.892  -4.397  -3.156  1.00  0.00     0.038 A 
BRANCH  10  12
HETATM   12  S1  UNL     1      10.070  -5.903  -2.400  1.00  0.00     0.256 S 
HETATM   13  O1  UNL     1       9.675  -6.985  -1.456  1.00  0.00    -0.201 OA
HETATM   14  O2  UNL     1      10.058  -6.494  -3.804  1.00  0.00    -0.201 OA
BRANCH  12  15
HETATM   15  N1  UNL     1      11.692  -5.420  -2.057  1.00  0.00    -0.324 N 
ATOM     16  H12 UNL     1      12.467  -6.063  -1.893  1.00  0.00     0.169 HD
ATOM     17  H11 UNL     1      11.741  -4.401  -2.047  1.00  0.00     0.169 HD
ENDBRANCH  12  15
ENDBRANCH  10  12
ENDBRANCH   5   6
ENDBRANCH   3   5
ENDBRANCH   1   3
BRANCH   1  18
HETATM   18  C7  UNL     1       7.202  -1.954  -6.630  1.00  0.00     0.230 A 
HETATM   19  O3  UNL     1       8.116  -1.311  -5.983  1.00  0.00    -0.208 OA
HETATM   20  N4  UNL     1       8.693  -0.327  -6.490  1.00  0.00    -0.236 N 
HETATM   21  C8  UNL     1       8.358   0.065  -7.719  1.00  0.00     0.173 A 
ATOM     22  H4  UNL     1       9.415   0.172  -5.970  1.00  0.00     0.197 HD
HETATM   23  N5  UNL     1       8.835   1.056  -8.433  1.00  0.00    -0.335 N 
HETATM   24  S2  UNL     1       7.146  -1.089  -8.099  1.00  0.00    -0.005 SA
ATOM     25  H5  UNL     1       8.492   1.249  -9.373  1.00  0.00     0.168 HD
BRANCH  23  26
HETATM   26  C9  UNL     1       9.838   1.837  -7.844  1.00  0.00     0.034 A 
HETATM   27  C10 UNL     1       9.691   2.562  -6.684  1.00  0.00     0.031 A 
HETATM   28  C11 UNL     1      10.729   3.309  -6.167  1.00  0.00     0.021 A 
HETATM   29  C12 UNL     1      11.961   3.358  -6.798  1.00  0.00     0.011 A 
HETATM   30 BR1  UNL     1      13.413   4.399  -6.085  1.00  0.00    -0.051 Br
HETATM   31  C13 UNL     1      12.131   2.640  -7.958  1.00  0.00     0.021 A 
HETATM   32  C14 UNL     1      11.077   1.884  -8.481  1.00  0.00     0.031 A 
ENDBRANCH  23  26
ENDBRANCH   1  18
TORSDOF 7
ENDMDL
MODEL 5
REMARK VINA RESULT: -7.006357186      1.441      1.743
REMARK  7 active torsions:
REMARK  status: ('A' for Active; 'I' for Inactive)
REMARK    1  A    between atoms: N1_1  and  S1_4 
REMARK    2  A    between atoms: S1_4  and  C1_7 
REMARK    3  A    between atoms: C5_11  and  C6_12 
REMARK    4  A    between atoms: C6_12  and  N2_13 
REMARK    5  A    between atoms: N2_13  and  N3_15 
REMARK    6  A    between atoms: N3_15  and  C7_17 
REMARK    7  A    between atoms: N5_22  and  C9_24 
ROOT
HETATM    1  N3  UNL     1       3.372  -1.092  -1.333  1.00  0.00    -0.273 N 
ATOM      2  H3  UNL     1       2.723  -0.481  -0.838  1.00  0.00     0.189 HD
ENDROOT
BRANCH   1   3
HETATM    3  N2  UNL     1       3.637  -2.298  -0.860  1.00  0.00    -0.309 N 
ATOM      4  H2  UNL     1       3.049  -2.506  -0.053  1.00  0.00     0.186 HD
BRANCH   3   5
HETATM    5  C6  UNL     1       4.379  -3.231  -1.106  1.00  0.00     0.118 C 
BRANCH   5   6
HETATM    6  C5  UNL     1       5.818  -3.344  -0.982  1.00  0.00    -0.018 A 
HETATM    7  C4  UNL     1       6.531  -2.538  -0.127  1.00  0.00     0.013 A 
HETATM    8  C3  UNL     1       7.906  -2.714  -0.037  1.00  0.00     0.002 A 
HETATM    9  C2  UNL     1       8.547  -3.674  -0.790  1.00  0.00     0.025 A 
HETATM   10  C1  UNL     1       7.854  -4.496  -1.661  1.00  0.00     0.080 A 
HETATM   11  C15 UNL     1       6.500  -4.319  -1.745  1.00  0.00     0.038 A 
BRANCH  10  12
HETATM   12  S1  UNL     1       8.728  -5.714  -2.566  1.00  0.00     0.256 S 
HETATM   13  O1  UNL     1       9.987  -5.194  -3.169  1.00  0.00    -0.201 OA
HETATM   14  O2  UNL     1       9.105  -6.854  -1.630  1.00  0.00    -0.201 OA
BRANCH  12  15
HETATM   15  N1  UNL     1       7.737  -6.377  -3.816  1.00  0.00    -0.324 N 
ATOM     16  H12 UNL     1       6.719  -6.418  -3.788  1.00  0.00     0.169 HD
ATOM     17  H11 UNL     1       8.335  -6.714  -4.571  1.00  0.00     0.169 HD
ENDBRANCH  12  15
ENDBRANCH  10  12
ENDBRANCH   5   6
ENDBRANCH   3   5
ENDBRANCH   1   3
BRANCH   1  18
HETATM   18  C7  UNL     1       3.947  -0.678  -2.450  1.00  0.00     0.230 A 
HETATM   19  O3  UNL     1       5.152  -0.239  -2.601  1.00  0.00    -0.208 OA
HETATM   20  N4  UNL     1       5.570   0.124  -3.719  1.00  0.00    -0.236 N 
HETATM   21  C8  UNL     1       4.757   0.059  -4.773  1.00  0.00     0.173 A 
ATOM     22  H4  UNL     1       6.525   0.467  -3.826  1.00  0.00     0.197 HD
HETATM   23  N5  UNL     1       4.992   0.380  -6.022  1.00  0.00    -0.335 N 
HETATM   24  S2  UNL     1       3.338  -0.566  -4.039  1.00  0.00    -0.005 SA
ATOM     25  H5  UNL     1       4.277   0.277  -6.743  1.00  0.00     0.168 HD
BRANCH  23  26
HETATM   26  C9  UNL     1       6.268   0.871  -6.323  1.00  0.00     0.034 A 
HETATM   27  C10 UNL     1       6.668   2.177  -6.154  1.00  0.00     0.031 A 
HETATM   28  C11 UNL     1       7.947   2.584  -6.475  1.00  0.00     0.021 A 
HETATM   29  C12 UNL     1       8.878   1.692  -6.980  1.00  0.00     0.011 A 
HETATM   30 BR1  UNL     1      10.662   2.252  -7.433  1.00  0.00    -0.051 Br
HETATM   31  C13 UNL     1       8.500   0.381  -7.156  1.00  0.00     0.021 A 
HETATM   32  C14 UNL     1       7.204  -0.029  -6.831  1.00  0.00     0.031 A 
ENDBRANCH  23  26
ENDBRANCH   1  18
TORSDOF 7
ENDMDL
