MODEL 1
REMARK VINA RESULT: -6.880782759      0.000      0.000
REMARK  7 active torsions:
REMARK  status: ('A' for Active; 'I' for Inactive)
REMARK    1  A    between atoms: C3_6  and  C4_7 
REMARK    2  A    between atoms: C5_8  and  C6_9 
REMARK    3  A    between atoms: C6_9  and  C7_10 
REMARK    4  A    between atoms: C7_10  and  C8_11 
REMARK    5  A    between atoms: C8_11  and  C9_12 
REMARK    6  A    between atoms: C9_12  and  N2_13 
REMARK    7  A    between atoms: N2_13  and  C10_15 
ROOT
HETATM    1  C6  UNL     1      32.382  11.399 -35.367  1.00  0.00     0.027 C 
ENDROOT
BRANCH   1   2
HETATM    2  C5  UNL     1      30.998  10.979 -35.557  1.00  0.00    -0.026 C 
HETATM    3  C4  UNL     1      30.378   9.963 -35.000  1.00  0.00     0.014 C 
BRANCH   3   4
HETATM    4  C3  UNL     1      28.992   9.628 -35.261  1.00  0.00     0.047 A 
HETATM    5  C2  UNL     1      27.935  10.484 -35.117  1.00  0.00     0.110 A 
HETATM    6  N1  UNL     1      26.657  10.083 -35.386  1.00  0.00    -0.318 N 
HETATM    7  C1  UNL     1      26.379   8.841 -35.802  1.00  0.00     0.327 A 
ATOM      8  H1  UNL     1      25.893  10.749 -35.267  1.00  0.00     0.170 HD
HETATM    9  O1  UNL     1      25.178   8.479 -36.049  1.00  0.00    -0.247 OA
HETATM   10  N5  UNL     1      27.398   7.979 -35.951  1.00  0.00    -0.275 N 
HETATM   11  C14 UNL     1      28.667   8.334 -35.697  1.00  0.00     0.260 A 
ATOM     12  H5  UNL     1      27.203   7.029 -36.267  1.00  0.00     0.173 HD
HETATM   13  O2  UNL     1      29.631   7.527 -35.836  1.00  0.00    -0.267 OA
ENDBRANCH   3   4
ENDBRANCH   1   2
BRANCH   1  14
HETATM   14  C7  UNL     1      33.170  11.718 -36.593  1.00  0.00     0.005 C 
BRANCH  14  15
HETATM   15  C8  UNL     1      32.768  10.868 -37.742  1.00  0.00     0.020 C 
BRANCH  15  16
HETATM   16  C9  UNL     1      33.802   9.803 -38.067  1.00  0.00     0.121 C 
BRANCH  16  17
HETATM   17  N2  UNL     1      33.414   8.485 -37.711  1.00  0.00    -0.375 N 
ATOM     18  H2  UNL     1      33.109   7.859 -38.456  1.00  0.00     0.161 HD
BRANCH  17  19
HETATM   19  C10 UNL     1      33.420   8.019 -36.485  1.00  0.00     0.115 A 
HETATM   20  C11 UNL     1      34.507   8.289 -35.661  1.00  0.00     0.051 A 
HETATM   21  C12 UNL     1      34.549   7.820 -34.378  1.00  0.00     0.022 A 
HETATM   22  C13 UNL     1      33.501   7.066 -33.886  1.00  0.00     0.107 A 
HETATM   23  N3  UNL     1      32.483   6.842 -34.732  1.00  0.00    -0.310 N 
HETATM   24  N4  UNL     1      32.421   7.285 -35.974  1.00  0.00    -0.286 N 
ATOM     25  H3  UNL     1      31.698   6.288 -34.389  1.00  0.00     0.186 HD
ATOM     26  H4  UNL     1      31.607   7.068 -36.549  1.00  0.00     0.188 HD
ENDBRANCH  17  19
ENDBRANCH  16  17
ENDBRANCH  15  16
ENDBRANCH  14  15
ENDBRANCH   1  14
TORSDOF 7
ENDMDL
MODEL 2
REMARK VINA RESULT: -6.842437164      2.725      5.702
REMARK  7 active torsions:
REMARK  status: ('A' for Active; 'I' for Inactive)
REMARK    1  A    between atoms: C3_6  and  C4_7 
REMARK    2  A    between atoms: C5_8  and  C6_9 
REMARK    3  A    between atoms: C6_9  and  C7_10 
REMARK    4  A    between atoms: C7_10  and  C8_11 
REMARK    5  A    between atoms: C8_11  and  C9_12 
REMARK    6  A    between atoms: C9_12  and  N2_13 
REMARK    7  A    between atoms: N2_13  and  C10_15 
ROOT
HETATM    1  C6  UNL     1      28.956  11.290 -34.308  1.00  0.00     0.027 C 
ENDROOT
BRANCH   1   2
HETATM    2  C5  UNL     1      30.068  10.361 -34.141  1.00  0.00    -0.026 C 
HETATM    3  C4  UNL     1      31.197  10.323 -34.813  1.00  0.00     0.014 C 
BRANCH   3   4
HETATM    4  C3  UNL     1      32.243   9.350 -34.570  1.00  0.00     0.047 A 
HETATM    5  C2  UNL     1      32.269   8.468 -33.524  1.00  0.00     0.110 A 
HETATM    6  N1  UNL     1      33.298   7.582 -33.371  1.00  0.00    -0.318 N 
HETATM    7  C1  UNL     1      34.324   7.534 -34.231  1.00  0.00     0.327 A 
ATOM      8  H1  UNL     1      33.285   6.940 -32.579  1.00  0.00     0.170 HD
HETATM    9  O1  UNL     1      35.279   6.700 -34.075  1.00  0.00    -0.247 OA
HETATM   10  N5  UNL     1      34.323   8.389 -35.267  1.00  0.00    -0.275 N 
HETATM   11  C14 UNL     1      33.332   9.274 -35.453  1.00  0.00     0.260 A 
ATOM     12  H5  UNL     1      35.097   8.365 -35.932  1.00  0.00     0.173 HD
HETATM   13  O2  UNL     1      33.325  10.081 -36.426  1.00  0.00    -0.267 OA
ENDBRANCH   3   4
ENDBRANCH   1   2
BRANCH   1  14
HETATM   14  C7  UNL     1      27.681  10.734 -34.846  1.00  0.00     0.005 C 
BRANCH  14  15
HETATM   15  C8  UNL     1      27.439   9.349 -34.368  1.00  0.00     0.020 C 
BRANCH  15  16
HETATM   16  C9  UNL     1      27.094   8.395 -35.500  1.00  0.00     0.121 C 
BRANCH  16  17
HETATM   17  N2  UNL     1      27.708   7.119 -35.393  1.00  0.00    -0.375 N 
ATOM     18  H2  UNL     1      27.410   6.509 -34.632  1.00  0.00     0.161 HD
BRANCH  17  19
HETATM   19  C10 UNL     1      28.632   6.673 -36.209  1.00  0.00     0.115 A 
HETATM   20  C11 UNL     1      29.828   7.372 -36.329  1.00  0.00     0.051 A 
HETATM   21  C12 UNL     1      30.814   6.939 -37.170  1.00  0.00     0.022 A 
HETATM   22  C13 UNL     1      30.628   5.791 -37.915  1.00  0.00     0.107 A 
HETATM   23  N3  UNL     1      29.452   5.163 -37.753  1.00  0.00    -0.310 N 
HETATM   24  N4  UNL     1      28.486   5.563 -36.947  1.00  0.00    -0.286 N 
ATOM     25  H3  UNL     1      29.294   4.312 -38.294  1.00  0.00     0.186 HD
ATOM     26  H4  UNL     1      27.623   5.024 -36.885  1.00  0.00     0.188 HD
ENDBRANCH  17  19
ENDBRANCH  16  17
ENDBRANCH  15  16
ENDBRANCH  14  15
ENDBRANCH   1  14
TORSDOF 7
ENDMDL
MODEL 3
REMARK VINA RESULT: -6.671905293      1.044      1.439
REMARK  7 active torsions:
REMARK  status: ('A' for Active; 'I' for Inactive)
REMARK    1  A    between atoms: C3_6  and  C4_7 
REMARK    2  A    between atoms: C5_8  and  C6_9 
REMARK    3  A    between atoms: C6_9  and  C7_10 
REMARK    4  A    between atoms: C7_10  and  C8_11 
REMARK    5  A    between atoms: C8_11  and  C9_12 
REMARK    6  A    between atoms: C9_12  and  N2_13 
REMARK    7  A    between atoms: N2_13  and  C10_15 
ROOT
HETATM    1  C6  UNL     1      32.562  11.581 -35.390  1.00  0.00     0.027 C 
ENDROOT
BRANCH   1   2
HETATM    2  C5  UNL     1      31.231  11.029 -35.621  1.00  0.00    -0.026 C 
HETATM    3  C4  UNL     1      30.502  10.309 -34.799  1.00  0.00     0.014 C 
BRANCH   3   4
HETATM    4  C3  UNL     1      29.184   9.803 -35.130  1.00  0.00     0.047 A 
HETATM    5  C2  UNL     1      28.935   8.679 -35.869  1.00  0.00     0.110 A 
HETATM    6  N1  UNL     1      27.657   8.274 -36.133  1.00  0.00    -0.318 N 
HETATM    7  C1  UNL     1      26.593   8.953 -35.685  1.00  0.00     0.327 A 
ATOM      8  H1  UNL     1      27.509   7.431 -36.688  1.00  0.00     0.170 HD
HETATM    9  O1  UNL     1      25.404   8.563 -35.940  1.00  0.00    -0.247 OA
HETATM   10  N5  UNL     1      26.809  10.061 -34.956  1.00  0.00    -0.275 N 
HETATM   11  C14 UNL     1      28.048  10.492 -34.675  1.00  0.00     0.260 A 
ATOM     12  H5  UNL     1      26.009  10.589 -34.607  1.00  0.00     0.173 HD
HETATM   13  O2  UNL     1      28.258  11.534 -33.990  1.00  0.00    -0.267 OA
ENDBRANCH   3   4
ENDBRANCH   1   2
BRANCH   1  14
HETATM   14  C7  UNL     1      33.414  11.825 -36.590  1.00  0.00     0.005 C 
BRANCH  14  15
HETATM   15  C8  UNL     1      32.968  11.019 -37.755  1.00  0.00     0.020 C 
BRANCH  15  16
HETATM   16  C9  UNL     1      33.879   9.833 -38.024  1.00  0.00     0.121 C 
BRANCH  16  17
HETATM   17  N2  UNL     1      33.328   8.578 -37.652  1.00  0.00    -0.375 N 
ATOM     18  H2  UNL     1      32.875   8.022 -38.377  1.00  0.00     0.161 HD
BRANCH  17  19
HETATM   19  C10 UNL     1      33.362   8.087 -36.436  1.00  0.00     0.115 A 
HETATM   20  C11 UNL     1      34.497   8.281 -35.657  1.00  0.00     0.051 A 
HETATM   21  C12 UNL     1      34.570   7.784 -34.386  1.00  0.00     0.022 A 
HETATM   22  C13 UNL     1      33.505   7.078 -33.861  1.00  0.00     0.107 A 
HETATM   23  N3  UNL     1      32.440   6.926 -34.665  1.00  0.00    -0.310 N 
HETATM   24  N4  UNL     1      32.348   7.397 -35.895  1.00  0.00    -0.286 N 
ATOM     25  H3  UNL     1      31.642   6.407 -34.297  1.00  0.00     0.186 HD
ATOM     26  H4  UNL     1      31.499   7.235 -36.436  1.00  0.00     0.188 HD
ENDBRANCH  17  19
ENDBRANCH  16  17
ENDBRANCH  15  16
ENDBRANCH  14  15
ENDBRANCH   1  14
TORSDOF 7
ENDMDL
MODEL 4
REMARK VINA RESULT: -6.651277299      3.157      5.356
REMARK  7 active torsions:
REMARK  status: ('A' for Active; 'I' for Inactive)
REMARK    1  A    between atoms: C3_6  and  C4_7 
REMARK    2  A    between atoms: C5_8  and  C6_9 
REMARK    3  A    between atoms: C6_9  and  C7_10 
REMARK    4  A    between atoms: C7_10  and  C8_11 
REMARK    5  A    between atoms: C8_11  and  C9_12 
REMARK    6  A    between atoms: C9_12  and  N2_13 
REMARK    7  A    between atoms: N2_13  and  C10_15 
ROOT
HETATM    1  C6  UNL     1      33.546   8.693 -35.877  1.00  0.00     0.027 C 
ENDROOT
BRANCH   1   2
HETATM    2  C5  UNL     1      32.608   8.081 -36.813  1.00  0.00    -0.026 C 
HETATM    3  C4  UNL     1      32.707   6.912 -37.406  1.00  0.00     0.014 C 
BRANCH   3   4
HETATM    4  C3  UNL     1      31.715   6.394 -38.328  1.00  0.00     0.047 A 
HETATM    5  C2  UNL     1      31.081   7.127 -39.293  1.00  0.00     0.110 A 
HETATM    6  N1  UNL     1      30.156   6.556 -40.122  1.00  0.00    -0.318 N 
HETATM    7  C1  UNL     1      29.828   5.261 -40.031  1.00  0.00     0.327 A 
ATOM      8  H1  UNL     1      29.702   7.133 -40.831  1.00  0.00     0.170 HD
HETATM    9  O1  UNL     1      28.961   4.741 -40.812  1.00  0.00    -0.247 OA
HETATM   10  N5  UNL     1      30.436   4.518 -39.090  1.00  0.00    -0.275 N 
HETATM   11  C14 UNL     1      31.349   5.041 -38.257  1.00  0.00     0.260 A 
ATOM     12  H5  UNL     1      30.198   3.530 -39.008  1.00  0.00     0.173 HD
HETATM   13  O2  UNL     1      31.925   4.347 -37.371  1.00  0.00    -0.267 OA
ENDBRANCH   3   4
ENDBRANCH   1   2
BRANCH   1  14
HETATM   14  C7  UNL     1      34.263   7.781 -34.940  1.00  0.00     0.005 C 
BRANCH  14  15
HETATM   15  C8  UNL     1      33.351   7.218 -33.913  1.00  0.00     0.020 C 
BRANCH  15  16
HETATM   16  C9  UNL     1      32.506   8.284 -33.237  1.00  0.00     0.121 C 
BRANCH  16  17
HETATM   17  N2  UNL     1      31.106   8.060 -33.323  1.00  0.00    -0.375 N 
ATOM     18  H2  UNL     1      30.778   7.095 -33.343  1.00  0.00     0.161 HD
BRANCH  17  19
HETATM   19  C10 UNL     1      30.207   9.013 -33.377  1.00  0.00     0.115 A 
HETATM   20  C11 UNL     1      30.303   9.981 -34.370  1.00  0.00     0.051 A 
HETATM   21  C12 UNL     1      29.384  10.990 -34.458  1.00  0.00     0.022 A 
HETATM   22  C13 UNL     1      28.345  11.056 -33.551  1.00  0.00     0.107 A 
HETATM   23  N3  UNL     1      28.310  10.091 -32.618  1.00  0.00    -0.310 N 
HETATM   24  N4  UNL     1      29.186   9.108 -32.514  1.00  0.00    -0.286 N 
ATOM     25  H3  UNL     1      27.551  10.120 -31.937  1.00  0.00     0.186 HD
ATOM     26  H4  UNL     1      29.083   8.416 -31.772  1.00  0.00     0.188 HD
ENDBRANCH  17  19
ENDBRANCH  16  17
ENDBRANCH  15  16
ENDBRANCH  14  15
ENDBRANCH   1  14
TORSDOF 7
ENDMDL
MODEL 5
REMARK VINA RESULT: -6.444059843      3.129      4.952
REMARK  7 active torsions:
REMARK  status: ('A' for Active; 'I' for Inactive)
REMARK    1  A    between atoms: C3_6  and  C4_7 
REMARK    2  A    between atoms: C5_8  and  C6_9 
REMARK    3  A    between atoms: C6_9  and  C7_10 
REMARK    4  A    between atoms: C7_10  and  C8_11 
REMARK    5  A    between atoms: C8_11  and  C9_12 
REMARK    6  A    between atoms: C9_12  and  N2_13 
REMARK    7  A    between atoms: N2_13  and  C10_15 
ROOT
HETATM    1  C6  UNL     1      29.337   9.786 -35.715  1.00  0.00     0.027 C 
ENDROOT
BRANCH   1   2
HETATM    2  C5  UNL     1      29.714   8.652 -36.553  1.00  0.00    -0.026 C 
HETATM    3  C4  UNL     1      30.918   8.300 -36.941  1.00  0.00     0.014 C 
BRANCH   3   4
HETATM    4  C3  UNL     1      31.186   7.149 -37.782  1.00  0.00     0.047 A 
HETATM    5  C2  UNL     1      30.935   7.082 -39.125  1.00  0.00     0.110 A 
HETATM    6  N1  UNL     1      31.219   5.954 -39.842  1.00  0.00    -0.318 N 
HETATM    7  C1  UNL     1      31.754   4.868 -39.269  1.00  0.00     0.327 A 
ATOM      8  H1  UNL     1      31.018   5.939 -40.842  1.00  0.00     0.170 HD
HETATM    9  O1  UNL     1      32.014   3.820 -39.953  1.00  0.00    -0.247 OA
HETATM   10  N5  UNL     1      32.010   4.907 -37.951  1.00  0.00    -0.275 N 
HETATM   11  C14 UNL     1      31.746   5.995 -37.212  1.00  0.00     0.260 A 
ATOM     12  H5  UNL     1      32.418   4.088 -37.500  1.00  0.00     0.173 HD
HETATM   13  O2  UNL     1      31.985   6.038 -35.971  1.00  0.00    -0.267 OA
ENDBRANCH   3   4
ENDBRANCH   1   2
BRANCH   1  14
HETATM   14  C7  UNL     1      28.441   9.507 -34.556  1.00  0.00     0.005 C 
BRANCH  14  15
HETATM   15  C8  UNL     1      29.043   8.524 -33.620  1.00  0.00     0.020 C 
BRANCH  15  16
HETATM   16  C9  UNL     1      30.186   9.115 -32.811  1.00  0.00     0.121 C 
BRANCH  16  17
HETATM   17  N2  UNL     1      31.258   8.215 -32.573  1.00  0.00    -0.375 N 
ATOM     18  H2  UNL     1      31.163   7.555 -31.801  1.00  0.00     0.161 HD
BRANCH  17  19
HETATM   19  C10 UNL     1      32.362   8.177 -33.280  1.00  0.00     0.115 A 
HETATM   20  C11 UNL     1      32.682   9.254 -34.098  1.00  0.00     0.051 A 
HETATM   21  C12 UNL     1      33.824   9.250 -34.849  1.00  0.00     0.022 A 
HETATM   22  C13 UNL     1      34.676   8.164 -34.800  1.00  0.00     0.107 A 
HETATM   23  N3  UNL     1      34.309   7.158 -33.991  1.00  0.00    -0.310 N 
HETATM   24  N4  UNL     1      33.212   7.140 -33.257  1.00  0.00    -0.286 N 
ATOM     25  H3  UNL     1      34.924   6.345 -33.939  1.00  0.00     0.186 HD
ATOM     26  H4  UNL     1      33.010   6.332 -32.668  1.00  0.00     0.188 HD
ENDBRANCH  17  19
ENDBRANCH  16  17
ENDBRANCH  15  16
ENDBRANCH  14  15
ENDBRANCH   1  14
TORSDOF 7
ENDMDL
