MODEL 1
REMARK VINA RESULT: -5.819895925      0.000      0.000
REMARK  6 active torsions:
REMARK  status: ('A' for Active; 'I' for Inactive)
REMARK    1  A    between atoms: C2_2  and  N1_3 
REMARK       I    between atoms: N1_3  and  C3_5 
REMARK       I    between atoms: C3_5  and  N3_9 
REMARK    2  A    between atoms: N3_9  and  C4_11 
REMARK    3  A    between atoms: C5_15  and  O1_16 
REMARK    4  A    between atoms: C5_15  and  C6_18 
REMARK    5  A    between atoms: C6_18  and  C7_19 
REMARK    6  A    between atoms: C6_18  and  N5_21 
ROOT
HETATM    1  C4  UNL     1      -3.966 -15.941  -9.243  1.00  0.00     0.322 C 
HETATM    2  N4  UNL     1      -4.163 -15.411 -10.587  1.00  0.00    -0.017 N 
ATOM      3  H41 UNL     1      -4.638 -14.515 -10.698  1.00  0.00     0.283 HD
ATOM      4  H42 UNL     1      -4.832 -15.869 -11.204  1.00  0.00     0.283 HD
HETATM    5  C5  UNL     1      -2.747 -15.497 -10.900  1.00  0.00     0.273 C 
HETATM    6  C11 UNL     1      -2.685 -16.567  -9.800  1.00  0.00     0.174 C 
HETATM    7 BR2  UNL     1      -3.130 -18.352 -10.390  1.00  0.00    -0.082 Br
ENDROOT
BRANCH   1   8
HETATM    8  N3  UNL     1      -3.750 -14.979  -8.206  1.00  0.00    -0.196 N 
HETATM    9  C3  UNL     1      -4.485 -15.121  -7.011  1.00  0.00     0.669 C 
HETATM   10  N1  UNL     1      -5.889 -14.939  -7.027  1.00  0.00    -0.227 N 
HETATM   11  N2  UNL     1      -3.871 -15.414  -5.927  1.00  0.00    -0.235 N 
ATOM     12  H1  UNL     1      -6.459 -15.592  -7.565  1.00  0.00     0.177 HD
ATOM     13  H22 UNL     1      -4.403 -15.517  -5.063  1.00  0.00     0.174 HD
ATOM     14  H21 UNL     1      -2.860 -15.545  -5.916  1.00  0.00     0.174 HD
ATOM     15  H3  UNL     1      -3.085 -14.216  -8.328  1.00  0.00     0.180 HD
BRANCH  10  16
HETATM   16  C2  UNL     1      -6.549 -13.874  -6.318  1.00  0.00     0.133 C 
HETATM   17  C1  UNL     1      -7.240 -14.395  -5.050  1.00  0.00     0.027 C 
ENDBRANCH  10  16
ENDBRANCH   1   8
BRANCH   5  18
HETATM   18  O1  UNL     1      -2.020 -14.373 -10.539  1.00  0.00    -0.362 OA
ATOM     19  H1  UNL     1      -1.138 -14.354 -10.890  1.00  0.00     0.212 HD
ENDBRANCH   5  18
BRANCH   5  20
HETATM   20  C6  UNL     1      -2.358 -16.053 -12.222  1.00  0.00     0.263 C 
BRANCH  20  21
HETATM   21  C7  UNL     1      -0.869 -15.736 -12.390  1.00  0.00     0.123 C 
HETATM   22 BR1  UNL     1       0.259 -17.259 -12.144  1.00  0.00    -0.094 Br
ENDBRANCH  20  21
BRANCH  20  23
HETATM   23  N5  UNL     1      -3.125 -15.550 -13.329  1.00  0.00    -0.069 N 
HETATM   24  C8  UNL     1      -3.306 -14.116 -13.341  1.00  0.00     0.272 C 
HETATM   25  C9  UNL     1      -2.473 -15.889 -14.586  1.00  0.00     0.272 C 
HETATM   26  C10 UNL     1      -4.456 -16.137 -13.388  1.00  0.00     0.272 C 
ENDBRANCH  20  23
ENDBRANCH   5  20
TORSDOF 6
ENDMDL
MODEL 2
REMARK VINA RESULT: -5.281390158      2.467      3.342
REMARK  6 active torsions:
REMARK  status: ('A' for Active; 'I' for Inactive)
REMARK    1  A    between atoms: C2_2  and  N1_3 
REMARK       I    between atoms: N1_3  and  C3_5 
REMARK       I    between atoms: C3_5  and  N3_9 
REMARK    2  A    between atoms: N3_9  and  C4_11 
REMARK    3  A    between atoms: C5_15  and  O1_16 
REMARK    4  A    between atoms: C5_15  and  C6_18 
REMARK    5  A    between atoms: C6_18  and  C7_19 
REMARK    6  A    between atoms: C6_18  and  N5_21 
ROOT
HETATM    1  C4  UNL     1      -2.787 -15.101  -9.724  1.00  0.00     0.322 C 
HETATM    2  N4  UNL     1      -1.460 -15.681  -9.891  1.00  0.00    -0.017 N 
ATOM      3  H41 UNL     1      -1.116 -16.334  -9.186  1.00  0.00     0.283 HD
ATOM      4  H42 UNL     1      -0.642 -15.084  -9.769  1.00  0.00     0.283 HD
HETATM    5  C5  UNL     1      -1.772 -16.181 -11.217  1.00  0.00     0.273 C 
HETATM    6  C11 UNL     1      -2.848 -15.086 -11.253  1.00  0.00     0.174 C 
HETATM    7 BR2  UNL     1      -2.215 -13.356 -11.834  1.00  0.00    -0.082 Br
ENDROOT
BRANCH   1   8
HETATM    8  N3  UNL     1      -3.771 -15.933  -9.102  1.00  0.00    -0.196 N 
HETATM    9  C3  UNL     1      -4.640 -15.340  -8.163  1.00  0.00     0.669 C 
HETATM   10  N1  UNL     1      -4.122 -14.860  -6.936  1.00  0.00    -0.227 N 
HETATM   11  N2  UNL     1      -5.886 -15.242  -8.436  1.00  0.00    -0.235 N 
ATOM     12  H1  UNL     1      -3.462 -14.083  -6.956  1.00  0.00     0.177 HD
ATOM     13  H22 UNL     1      -6.515 -14.812  -7.757  1.00  0.00     0.174 HD
ATOM     14  H21 UNL     1      -6.259 -15.587  -9.320  1.00  0.00     0.174 HD
ATOM     15  H3  UNL     1      -3.840 -16.925  -9.330  1.00  0.00     0.180 HD
BRANCH  10  16
HETATM   16  C2  UNL     1      -4.486 -15.420  -5.660  1.00  0.00     0.133 C 
HETATM   17  C1  UNL     1      -4.124 -14.466  -4.512  1.00  0.00     0.027 C 
ENDBRANCH  10  16
ENDBRANCH   1   8
BRANCH   5  18
HETATM   18  O1  UNL     1      -2.349 -17.442 -11.224  1.00  0.00    -0.362 OA
ATOM     19  H1  UNL     1      -1.766 -18.132 -11.519  1.00  0.00     0.212 HD
ENDBRANCH   5  18
BRANCH   5  20
HETATM   20  C6  UNL     1      -0.763 -15.987 -12.292  1.00  0.00     0.263 C 
BRANCH  20  21
HETATM   21  C7  UNL     1      -1.254 -16.812 -13.484  1.00  0.00     0.123 C 
HETATM   22 BR1  UNL     1      -1.874 -15.740 -14.939  1.00  0.00    -0.094 Br
ENDBRANCH  20  21
BRANCH  20  23
HETATM   23  N5  UNL     1       0.578 -16.352 -11.922  1.00  0.00    -0.069 N 
HETATM   24  C8  UNL     1       0.758 -17.749 -11.596  1.00  0.00     0.272 C 
HETATM   25  C9  UNL     1       1.494 -16.068 -13.018  1.00  0.00     0.272 C 
HETATM   26  C10 UNL     1       1.060 -15.592 -10.778  1.00  0.00     0.272 C 
ENDBRANCH  20  23
ENDBRANCH   5  20
TORSDOF 6
ENDMDL
MODEL 3
REMARK VINA RESULT: -5.211676862      2.356      3.099
REMARK  6 active torsions:
REMARK  status: ('A' for Active; 'I' for Inactive)
REMARK    1  A    between atoms: C2_2  and  N1_3 
REMARK       I    between atoms: N1_3  and  C3_5 
REMARK       I    between atoms: C3_5  and  N3_9 
REMARK    2  A    between atoms: N3_9  and  C4_11 
REMARK    3  A    between atoms: C5_15  and  O1_16 
REMARK    4  A    between atoms: C5_15  and  C6_18 
REMARK    5  A    between atoms: C6_18  and  C7_19 
REMARK    6  A    between atoms: C6_18  and  N5_21 
ROOT
HETATM    1  C4  UNL     1      -3.234 -15.074  -9.242  1.00  0.00     0.322 C 
HETATM    2  N4  UNL     1      -2.013 -15.776  -9.623  1.00  0.00    -0.017 N 
ATOM      3  H41 UNL     1      -1.596 -16.433  -8.963  1.00  0.00     0.283 HD
ATOM      4  H42 UNL     1      -1.142 -15.250  -9.685  1.00  0.00     0.283 HD
HETATM    5  C5  UNL     1      -2.610 -16.289 -10.843  1.00  0.00     0.273 C 
HETATM    6  C11 UNL     1      -3.581 -15.105 -10.732  1.00  0.00     0.174 C 
HETATM    7 BR2  UNL     1      -2.930 -13.458 -11.505  1.00  0.00    -0.082 Br
ENDROOT
BRANCH   1   8
HETATM    8  N3  UNL     1      -4.146 -15.795  -8.408  1.00  0.00    -0.196 N 
HETATM    9  C3  UNL     1      -4.681 -15.130  -7.286  1.00  0.00     0.669 C 
HETATM   10  N1  UNL     1      -3.830 -14.769  -6.215  1.00  0.00    -0.227 N 
HETATM   11  N2  UNL     1      -5.932 -14.861  -7.254  1.00  0.00    -0.235 N 
ATOM     12  H1  UNL     1      -3.094 -14.084  -6.387  1.00  0.00     0.177 HD
ATOM     13  H22 UNL     1      -6.319 -14.379  -6.442  1.00  0.00     0.174 HD
ATOM     14  H21 UNL     1      -6.545 -15.121  -8.025  1.00  0.00     0.174 HD
ATOM     15  H3  UNL     1      -4.401 -16.760  -8.620  1.00  0.00     0.180 HD
BRANCH  10  16
HETATM   16  C2  UNL     1      -3.955 -15.324  -4.893  1.00  0.00     0.133 C 
HETATM   17  C1  UNL     1      -4.451 -14.270  -3.892  1.00  0.00     0.027 C 
ENDBRANCH  10  16
ENDBRANCH   1   8
BRANCH   5  18
HETATM   18  O1  UNL     1      -3.278 -17.493 -10.681  1.00  0.00    -0.362 OA
ATOM     19  H1  UNL     1      -2.792 -18.142 -10.184  1.00  0.00     0.212 HD
ENDBRANCH   5  18
BRANCH   5  20
HETATM   20  C6  UNL     1      -1.810 -16.222 -12.094  1.00  0.00     0.263 C 
BRANCH  20  21
HETATM   21  C7  UNL     1      -2.486 -17.178 -13.079  1.00  0.00     0.123 C 
HETATM   22 BR1  UNL     1      -3.670 -16.298 -14.293  1.00  0.00    -0.094 Br
ENDBRANCH  20  21
BRANCH  20  23
HETATM   23  N5  UNL     1      -0.418 -16.543 -11.928  1.00  0.00    -0.069 N 
HETATM   24  C8  UNL     1      -0.158 -17.876 -11.433  1.00  0.00     0.272 C 
HETATM   25  C9  UNL     1       0.275 -16.440 -13.205  1.00  0.00     0.272 C 
HETATM   26  C10 UNL     1       0.256 -15.624 -11.022  1.00  0.00     0.272 C 
ENDBRANCH  20  23
ENDBRANCH   5  20
TORSDOF 6
ENDMDL
MODEL 4
REMARK VINA RESULT: -5.093690813      2.890      3.637
REMARK  6 active torsions:
REMARK  status: ('A' for Active; 'I' for Inactive)
REMARK    1  A    between atoms: C2_2  and  N1_3 
REMARK       I    between atoms: N1_3  and  C3_5 
REMARK       I    between atoms: C3_5  and  N3_9 
REMARK    2  A    between atoms: N3_9  and  C4_11 
REMARK    3  A    between atoms: C5_15  and  O1_16 
REMARK    4  A    between atoms: C5_15  and  C6_18 
REMARK    5  A    between atoms: C6_18  and  C7_19 
REMARK    6  A    between atoms: C6_18  and  N5_21 
ROOT
HETATM    1  C4  UNL     1      -3.334 -14.294 -11.285  1.00  0.00     0.322 C 
HETATM    2  N4  UNL     1      -3.311 -12.894 -11.694  1.00  0.00    -0.017 N 
ATOM      3  H41 UNL     1      -3.313 -12.171 -10.974  1.00  0.00     0.283 HD
ATOM      4  H42 UNL     1      -4.141 -12.494 -12.130  1.00  0.00     0.283 HD
HETATM    5  C5  UNL     1      -2.116 -13.080 -12.498  1.00  0.00     0.273 C 
HETATM    6  C11 UNL     1      -2.522 -14.559 -12.554  1.00  0.00     0.174 C 
HETATM    7 BR2  UNL     1      -3.777 -14.995 -13.956  1.00  0.00    -0.082 Br
ENDROOT
BRANCH   1   8
HETATM    8  N3  UNL     1      -2.650 -14.612 -10.069  1.00  0.00    -0.196 N 
HETATM    9  C3  UNL     1      -3.236 -15.567  -9.212  1.00  0.00     0.669 C 
HETATM   10  N1  UNL     1      -4.459 -15.269  -8.566  1.00  0.00    -0.227 N 
HETATM   11  N2  UNL     1      -2.652 -16.691  -9.034  1.00  0.00    -0.235 N 
ATOM     12  H1  UNL     1      -5.293 -15.134  -9.138  1.00  0.00     0.177 HD
ATOM     13  H22 UNL     1      -3.076 -17.382  -8.414  1.00  0.00     0.174 HD
ATOM     14  H21 UNL     1      -1.771 -16.905  -9.500  1.00  0.00     0.174 HD
ATOM     15  H3  UNL     1      -1.767 -14.161  -9.830  1.00  0.00     0.180 HD
BRANCH  10  16
HETATM   16  C2  UNL     1      -4.581 -15.150  -7.136  1.00  0.00     0.133 C 
HETATM   17  C1  UNL     1      -5.905 -14.477  -6.745  1.00  0.00     0.027 C 
ENDBRANCH  10  16
ENDBRANCH   1   8
BRANCH   5  18
HETATM   18  O1  UNL     1      -0.932 -12.918 -11.795  1.00  0.00    -0.362 OA
ATOM     19  H1  UNL     1      -0.589 -13.723 -11.425  1.00  0.00     0.212 HD
ENDBRANCH   5  18
BRANCH   5  20
HETATM   20  C6  UNL     1      -2.086 -12.472 -13.854  1.00  0.00     0.263 C 
BRANCH  20  21
HETATM   21  C7  UNL     1      -0.625 -12.523 -14.306  1.00  0.00     0.123 C 
HETATM   22 BR1  UNL     1      -0.310 -13.791 -15.700  1.00  0.00    -0.094 Br
ENDBRANCH  20  21
BRANCH  20  23
HETATM   23  N5  UNL     1      -2.605 -11.132 -13.918  1.00  0.00    -0.069 N 
HETATM   24  C8  UNL     1      -1.825 -10.145 -13.206  1.00  0.00     0.272 C 
HETATM   25  C9  UNL     1      -2.665 -10.684 -15.301  1.00  0.00     0.272 C 
HETATM   26  C10 UNL     1      -3.962 -11.042 -13.399  1.00  0.00     0.272 C 
ENDBRANCH  20  23
ENDBRANCH   5  20
TORSDOF 6
ENDMDL
MODEL 5
REMARK VINA RESULT: -4.973646184      3.816      6.265
REMARK  6 active torsions:
REMARK  status: ('A' for Active; 'I' for Inactive)
REMARK    1  A    between atoms: C2_2  and  N1_3 
REMARK       I    between atoms: N1_3  and  C3_5 
REMARK       I    between atoms: C3_5  and  N3_9 
REMARK    2  A    between atoms: N3_9  and  C4_11 
REMARK    3  A    between atoms: C5_15  and  O1_16 
REMARK    4  A    between atoms: C5_15  and  C6_18 
REMARK    5  A    between atoms: C6_18  and  C7_19 
REMARK    6  A    between atoms: C6_18  and  N5_21 
ROOT
HETATM    1  C4  UNL     1      -1.880 -12.029 -13.399  1.00  0.00     0.322 C 
HETATM    2  N4  UNL     1      -1.301 -12.987 -12.464  1.00  0.00    -0.017 N 
ATOM      3  H41 UNL     1      -0.839 -12.638 -11.624  1.00  0.00     0.283 HD
ATOM      4  H42 UNL     1      -0.463 -13.499 -12.740  1.00  0.00     0.283 HD
HETATM    5  C5  UNL     1      -2.552 -13.711 -12.328  1.00  0.00     0.273 C 
HETATM    6  C11 UNL     1      -2.914 -13.117 -13.697  1.00  0.00     0.174 C 
HETATM    7 BR2  UNL     1      -2.261 -14.128 -15.209  1.00  0.00    -0.082 Br
ENDROOT
BRANCH   1   8
HETATM    8  N3  UNL     1      -2.427 -10.836 -12.828  1.00  0.00    -0.196 N 
HETATM    9  C3  UNL     1      -3.643 -10.351 -13.353  1.00  0.00     0.669 C 
HETATM   10  N1  UNL     1      -3.686  -9.857 -14.678  1.00  0.00    -0.227 N 
HETATM   11  N2  UNL     1      -4.692 -10.366 -12.620  1.00  0.00    -0.235 N 
ATOM     12  H1  UNL     1      -3.505 -10.505 -15.445  1.00  0.00     0.177 HD
ATOM     13  H22 UNL     1      -5.572 -10.015 -13.000  1.00  0.00     0.174 HD
ATOM     14  H21 UNL     1      -4.662 -10.722 -11.666  1.00  0.00     0.174 HD
ATOM     15  H3  UNL     1      -1.952 -10.353 -12.066  1.00  0.00     0.180 HD
BRANCH  10  16
HETATM   16  C2  UNL     1      -3.973  -8.483 -14.993  1.00  0.00     0.133 C 
HETATM   17  C1  UNL     1      -3.095  -7.528 -14.170  1.00  0.00     0.027 C 
ENDBRANCH  10  16
ENDBRANCH   1   8
BRANCH   5  18
HETATM   18  O1  UNL     1      -3.386 -13.215 -11.338  1.00  0.00    -0.362 OA
ATOM     19  H1  UNL     1      -4.127 -13.776 -11.139  1.00  0.00     0.212 HD
ENDBRANCH   5  18
BRANCH   5  20
HETATM   20  C6  UNL     1      -2.507 -15.196 -12.374  1.00  0.00     0.263 C 
BRANCH  20  21
HETATM   21  C7  UNL     1      -3.936 -15.669 -12.096  1.00  0.00     0.123 C 
HETATM   22 BR1  UNL     1      -4.675 -16.713 -13.515  1.00  0.00    -0.094 Br
ENDBRANCH  20  21
BRANCH  20  23
HETATM   23  N5  UNL     1      -1.573 -15.793 -11.457  1.00  0.00    -0.069 N 
HETATM   24  C8  UNL     1      -1.948 -15.700 -10.064  1.00  0.00     0.272 C 
HETATM   25  C9  UNL     1      -1.425 -17.212 -11.746  1.00  0.00     0.272 C 
HETATM   26  C10 UNL     1      -0.243 -15.211 -11.569  1.00  0.00     0.272 C 
ENDBRANCH  20  23
ENDBRANCH   5  20
TORSDOF 6
ENDMDL
