MODEL 1
REMARK VINA RESULT: -5.145806097      0.000      0.000
REMARK  6 active torsions:
REMARK  status: ('A' for Active; 'I' for Inactive)
REMARK    1  A    between atoms: N1_2  and  C3_4 
REMARK    2  A    between atoms: C3_4  and  C4_5 
REMARK    3  A    between atoms: C4_5  and  C5_6 
REMARK    4  A    between atoms: C5_6  and  C6_7 
REMARK    5  A    between atoms: C7_10  and  N3_11 
REMARK    6  A    between atoms: C9_17  and  C10_18 
ROOT
HETATM    1  C6  UNL     1      -3.236 -16.070  -9.814  1.00  0.00     0.072 A 
HETATM    2  N2  UNL     1      -4.386 -16.008  -9.107  1.00  0.00    -0.190 N 
ATOM      3  H2  UNL     1      -4.783 -16.751  -8.532  1.00  0.00     0.184 HD
HETATM    4  C7  UNL     1      -4.904 -14.795  -9.301  1.00  0.00     0.676 A 
HETATM    5  N4  UNL     1      -4.119 -14.089 -10.109  1.00  0.00    -0.190 N 
ATOM      6  H4  UNL     1      -4.280 -13.131 -10.421  1.00  0.00     0.184 HD
HETATM    7  C8  UNL     1      -3.052 -14.882 -10.445  1.00  0.00     0.078 A 
HETATM    8  C9  UNL     1      -2.102 -14.462 -11.222  1.00  0.00     0.062 C 
ENDROOT
BRANCH   1   9
HETATM    9  C5  UNL     1      -2.505 -17.154  -9.830  1.00  0.00     0.007 C 
BRANCH   9  10
HETATM   10  C4  UNL     1      -3.044 -18.416 -10.431  1.00  0.00     0.059 C 
BRANCH  10  11
HETATM   11  C3  UNL     1      -2.550 -18.510 -11.853  1.00  0.00     0.275 C 
BRANCH  11  12
HETATM   12  N1  UNL     1      -3.689 -18.557 -12.731  1.00  0.00     0.080 N 
HETATM   13  C1  UNL     1      -3.537 -19.624 -13.689  1.00  0.00     0.309 C 
HETATM   14  C2  UNL     1      -3.928 -17.284 -13.340  1.00  0.00     0.309 C 
ENDBRANCH  11  12
ENDBRANCH  10  11
ENDBRANCH   9  10
ENDBRANCH   1   9
BRANCH   8  15
HETATM   15  C10 UNL     1      -0.919 -15.151 -11.660  1.00  0.00     0.036 A 
HETATM   16  C11 UNL     1      -0.639 -15.688 -12.912  1.00  0.00     0.051 A 
HETATM   17  C12 UNL     1       0.579 -16.297 -12.901  1.00  0.00     0.047 A 
HETATM   18 BR1  UNL     1       1.500 -17.202 -14.304  1.00  0.00    -0.048 Br
HETATM   19  C13 UNL     1       1.074 -16.142 -11.628  1.00  0.00     0.097 A 
HETATM   20 BR2  UNL     1       2.743 -16.760 -10.938  1.00  0.00    -0.030 Br
HETATM   21  N5  UNL     1       0.177 -15.462 -10.903  1.00  0.00    -0.349 N 
ATOM     22  H5  UNL     1       0.295 -15.210  -9.921  1.00  0.00     0.166 HD
ENDBRANCH   8  15
BRANCH   4  23
HETATM   23  N3  UNL     1      -6.019 -14.364  -8.776  1.00  0.00    -0.234 N 
ATOM     24  H32 UNL     1      -6.952 -14.582  -9.125  1.00  0.00     0.174 HD
ATOM     25  H31 UNL     1      -6.085 -13.760  -7.956  1.00  0.00     0.174 HD
ENDBRANCH   4  23
TORSDOF 6
ENDMDL
MODEL 2
REMARK VINA RESULT: -5.119157029      2.209      4.204
REMARK  6 active torsions:
REMARK  status: ('A' for Active; 'I' for Inactive)
REMARK    1  A    between atoms: N1_2  and  C3_4 
REMARK    2  A    between atoms: C3_4  and  C4_5 
REMARK    3  A    between atoms: C4_5  and  C5_6 
REMARK    4  A    between atoms: C5_6  and  C6_7 
REMARK    5  A    between atoms: C7_10  and  N3_11 
REMARK    6  A    between atoms: C9_17  and  C10_18 
ROOT
HETATM    1  C6  UNL     1      -3.769 -16.213 -11.002  1.00  0.00     0.072 A 
HETATM    2  N2  UNL     1      -4.170 -15.338 -10.054  1.00  0.00    -0.190 N 
ATOM      3  H2  UNL     1      -4.745 -14.508 -10.201  1.00  0.00     0.184 HD
HETATM    4  C7  UNL     1      -3.674 -15.761  -8.890  1.00  0.00     0.676 A 
HETATM    5  N4  UNL     1      -2.972 -16.875  -9.073  1.00  0.00    -0.190 N 
ATOM      6  H4  UNL     1      -2.486 -17.407  -8.351  1.00  0.00     0.184 HD
HETATM    7  C8  UNL     1      -3.021 -17.179 -10.410  1.00  0.00     0.078 A 
HETATM    8  C9  UNL     1      -2.432 -18.226 -10.898  1.00  0.00     0.062 C 
ENDROOT
BRANCH   1   9
HETATM    9  C5  UNL     1      -4.092 -16.049 -12.258  1.00  0.00     0.007 C 
BRANCH   9  10
HETATM   10  C4  UNL     1      -3.624 -14.838 -13.005  1.00  0.00     0.059 C 
BRANCH  10  11
HETATM   11  C3  UNL     1      -2.210 -15.087 -13.468  1.00  0.00     0.275 C 
BRANCH  11  12
HETATM   12  N1  UNL     1      -1.344 -14.132 -12.827  1.00  0.00     0.080 N 
HETATM   13  C1  UNL     1      -0.487 -14.797 -11.876  1.00  0.00     0.309 C 
HETATM   14  C2  UNL     1      -2.092 -13.055 -12.255  1.00  0.00     0.309 C 
ENDBRANCH  11  12
ENDBRANCH  10  11
ENDBRANCH   9  10
ENDBRANCH   1   9
BRANCH   8  15
HETATM   15  C10 UNL     1      -2.394 -18.694 -12.256  1.00  0.00     0.036 A 
HETATM   16  C11 UNL     1      -3.300 -19.517 -12.918  1.00  0.00     0.051 A 
HETATM   17  C12 UNL     1      -2.875 -19.758 -14.190  1.00  0.00     0.047 A 
HETATM   18 BR1  UNL     1      -3.682 -20.802 -15.565  1.00  0.00    -0.048 Br
HETATM   19  C13 UNL     1      -1.688 -19.080 -14.332  1.00  0.00     0.097 A 
HETATM   20 BR2  UNL     1      -0.566 -18.995 -15.874  1.00  0.00    -0.030 Br
HETATM   21  N5  UNL     1      -1.414 -18.453 -13.180  1.00  0.00    -0.349 N 
ATOM     22  H5  UNL     1      -0.590 -17.877 -13.015  1.00  0.00     0.166 HD
ENDBRANCH   8  15
BRANCH   4  23
HETATM   23  N3  UNL     1      -3.851 -15.168  -7.740  1.00  0.00    -0.234 N 
ATOM     24  H32 UNL     1      -3.880 -14.158  -7.602  1.00  0.00     0.174 HD
ATOM     25  H31 UNL     1      -3.981 -15.647  -6.849  1.00  0.00     0.174 HD
ENDBRANCH   4  23
TORSDOF 6
ENDMDL
MODEL 3
REMARK VINA RESULT: -4.996237520      3.447      5.718
REMARK  6 active torsions:
REMARK  status: ('A' for Active; 'I' for Inactive)
REMARK    1  A    between atoms: N1_2  and  C3_4 
REMARK    2  A    between atoms: C3_4  and  C4_5 
REMARK    3  A    between atoms: C4_5  and  C5_6 
REMARK    4  A    between atoms: C5_6  and  C6_7 
REMARK    5  A    between atoms: C7_10  and  N3_11 
REMARK    6  A    between atoms: C9_17  and  C10_18 
ROOT
HETATM    1  C6  UNL     1      -2.115 -15.717 -11.290  1.00  0.00     0.072 A 
HETATM    2  N2  UNL     1      -1.197 -15.382 -10.357  1.00  0.00    -0.190 N 
ATOM      3  H2  UNL     1      -1.388 -15.060  -9.408  1.00  0.00     0.184 HD
HETATM    4  C7  UNL     1       0.006 -15.551 -10.908  1.00  0.00     0.676 A 
HETATM    5  N4  UNL     1      -0.123 -15.981 -12.160  1.00  0.00    -0.190 N 
ATOM      6  H4  UNL     1       0.637 -16.190 -12.808  1.00  0.00     0.184 HD
HETATM    7  C8  UNL     1      -1.465 -16.094 -12.420  1.00  0.00     0.078 A 
HETATM    8  C9  UNL     1      -1.909 -16.504 -13.568  1.00  0.00     0.062 C 
ENDROOT
BRANCH   1   9
HETATM    9  C5  UNL     1      -3.396 -15.638 -11.042  1.00  0.00     0.007 C 
BRANCH   9  10
HETATM   10  C4  UNL     1      -3.966 -16.284  -9.816  1.00  0.00     0.059 C 
BRANCH  10  11
HETATM   11  C3  UNL     1      -3.889 -15.293  -8.682  1.00  0.00     0.275 C 
BRANCH  11  12
HETATM   12  N1  UNL     1      -5.135 -15.326  -7.960  1.00  0.00     0.080 N 
HETATM   13  C1  UNL     1      -6.059 -14.368  -8.516  1.00  0.00     0.309 C 
HETATM   14  C2  UNL     1      -4.925 -15.155  -6.555  1.00  0.00     0.309 C 
ENDBRANCH  11  12
ENDBRANCH  10  11
ENDBRANCH   9  10
ENDBRANCH   1   9
BRANCH   8  15
HETATM   15  C10 UNL     1      -3.267 -16.691 -14.000  1.00  0.00     0.036 A 
HETATM   16  C11 UNL     1      -4.006 -17.869 -14.060  1.00  0.00     0.051 A 
HETATM   17  C12 UNL     1      -5.245 -17.620 -14.568  1.00  0.00     0.047 A 
HETATM   18 BR1  UNL     1      -6.692 -18.820 -14.888  1.00  0.00    -0.048 Br
HETATM   19  C13 UNL     1      -5.288 -16.272 -14.833  1.00  0.00     0.097 A 
HETATM   20 BR2  UNL     1      -6.740 -15.268 -15.558  1.00  0.00    -0.030 Br
HETATM   21  N5  UNL     1      -4.111 -15.733 -14.491  1.00  0.00    -0.349 N 
ATOM     22  H5  UNL     1      -3.876 -14.745 -14.584  1.00  0.00     0.166 HD
ENDBRANCH   8  15
BRANCH   4  23
HETATM   23  N3  UNL     1       1.144 -15.326 -10.308  1.00  0.00    -0.234 N 
ATOM     24  H32 UNL     1       1.406 -14.446  -9.863  1.00  0.00     0.174 HD
ATOM     25  H31 UNL     1       1.901 -16.004 -10.215  1.00  0.00     0.174 HD
ENDBRANCH   4  23
TORSDOF 6
ENDMDL
MODEL 4
REMARK VINA RESULT: -4.989138318      1.779      2.135
REMARK  6 active torsions:
REMARK  status: ('A' for Active; 'I' for Inactive)
REMARK    1  A    between atoms: N1_2  and  C3_4 
REMARK    2  A    between atoms: C3_4  and  C4_5 
REMARK    3  A    between atoms: C4_5  and  C5_6 
REMARK    4  A    between atoms: C5_6  and  C6_7 
REMARK    5  A    between atoms: C7_10  and  N3_11 
REMARK    6  A    between atoms: C9_17  and  C10_18 
ROOT
HETATM    1  C6  UNL     1      -3.749 -15.534 -10.626  1.00  0.00     0.072 A 
HETATM    2  N2  UNL     1      -4.828 -15.292  -9.849  1.00  0.00    -0.190 N 
ATOM      3  H2  UNL     1      -5.786 -15.155 -10.171  1.00  0.00     0.184 HD
HETATM    4  C7  UNL     1      -4.406 -15.266  -8.584  1.00  0.00     0.676 A 
HETATM    5  N4  UNL     1      -3.095 -15.483  -8.538  1.00  0.00    -0.190 N 
ATOM      6  H4  UNL     1      -2.518 -15.515  -7.696  1.00  0.00     0.184 HD
HETATM    7  C8  UNL     1      -2.660 -15.657  -9.826  1.00  0.00     0.078 A 
HETATM    8  C9  UNL     1      -1.415 -15.897 -10.104  1.00  0.00     0.062 C 
ENDROOT
BRANCH   1   9
HETATM    9  C5  UNL     1      -3.850 -15.602 -11.928  1.00  0.00     0.007 C 
BRANCH   9  10
HETATM   10  C4  UNL     1      -4.351 -16.855 -12.579  1.00  0.00     0.059 C 
BRANCH  10  11
HETATM   11  C3  UNL     1      -3.622 -17.030 -13.888  1.00  0.00     0.275 C 
BRANCH  11  12
HETATM   12  N1  UNL     1      -3.762 -18.399 -14.310  1.00  0.00     0.080 N 
HETATM   13  C1  UNL     1      -5.125 -18.663 -14.701  1.00  0.00     0.309 C 
HETATM   14  C2  UNL     1      -3.279 -19.302 -13.311  1.00  0.00     0.309 C 
ENDBRANCH  11  12
ENDBRANCH  10  11
ENDBRANCH   9  10
ENDBRANCH   1   9
BRANCH   8  15
HETATM   15  C10 UNL     1      -0.798 -16.115 -11.383  1.00  0.00     0.036 A 
HETATM   16  C11 UNL     1      -0.325 -15.173 -12.292  1.00  0.00     0.051 A 
HETATM   17  C12 UNL     1       0.151 -15.794 -13.407  1.00  0.00     0.047 A 
HETATM   18 BR1  UNL     1       0.919 -15.045 -14.982  1.00  0.00    -0.048 Br
HETATM   19  C13 UNL     1      -0.024 -17.142 -13.200  1.00  0.00     0.097 A 
HETATM   20 BR2  UNL     1       0.433 -18.575 -14.375  1.00  0.00    -0.030 Br
HETATM   21  N5  UNL     1      -0.587 -17.319 -11.998  1.00  0.00    -0.349 N 
ATOM     22  H5  UNL     1      -0.824 -18.225 -11.596  1.00  0.00     0.166 HD
ENDBRANCH   8  15
BRANCH   4  23
HETATM   23  N3  UNL     1      -5.168 -15.057  -7.545  1.00  0.00    -0.234 N 
ATOM     24  H32 UNL     1      -5.413 -14.139  -7.174  1.00  0.00     0.174 HD
ATOM     25  H31 UNL     1      -5.605 -15.789  -6.983  1.00  0.00     0.174 HD
ENDBRANCH   4  23
TORSDOF 6
ENDMDL
MODEL 5
REMARK VINA RESULT: -4.978576416      2.259      4.016
REMARK  6 active torsions:
REMARK  status: ('A' for Active; 'I' for Inactive)
REMARK    1  A    between atoms: N1_2  and  C3_4 
REMARK    2  A    between atoms: C3_4  and  C4_5 
REMARK    3  A    between atoms: C4_5  and  C5_6 
REMARK    4  A    between atoms: C5_6  and  C6_7 
REMARK    5  A    between atoms: C7_10  and  N3_11 
REMARK    6  A    between atoms: C9_17  and  C10_18 
ROOT
HETATM    1  C6  UNL     1      -3.547 -15.049 -10.443  1.00  0.00     0.072 A 
HETATM    2  N2  UNL     1      -4.509 -14.563  -9.629  1.00  0.00    -0.190 N 
ATOM      3  H2  UNL     1      -5.191 -13.842  -9.863  1.00  0.00     0.184 HD
HETATM    4  C7  UNL     1      -4.401 -15.201  -8.464  1.00  0.00     0.676 A 
HETATM    5  N4  UNL     1      -3.401 -16.075  -8.515  1.00  0.00    -0.190 N 
ATOM      6  H4  UNL     1      -3.100 -16.694  -7.761  1.00  0.00     0.184 HD
HETATM    7  C8  UNL     1      -2.846 -15.994  -9.766  1.00  0.00     0.078 A 
HETATM    8  C9  UNL     1      -1.845 -16.739 -10.123  1.00  0.00     0.062 C 
ENDROOT
BRANCH   1   9
HETATM    9  C5  UNL     1      -3.395 -14.599 -11.661  1.00  0.00     0.007 C 
BRANCH   9  10
HETATM   10  C4  UNL     1      -2.598 -13.355 -11.909  1.00  0.00     0.059 C 
BRANCH  10  11
HETATM   11  C3  UNL     1      -2.867 -12.896 -13.321  1.00  0.00     0.275 C 
BRANCH  11  12
HETATM   12  N1  UNL     1      -3.131 -11.481 -13.300  1.00  0.00     0.080 N 
HETATM   13  C1  UNL     1      -4.268 -11.174 -14.134  1.00  0.00     0.309 C 
HETATM   14  C2  UNL     1      -1.963 -10.730 -13.641  1.00  0.00     0.309 C 
ENDBRANCH  11  12
ENDBRANCH  10  11
ENDBRANCH   9  10
ENDBRANCH   1   9
BRANCH   8  15
HETATM   15  C10 UNL     1      -1.159 -16.791 -11.385  1.00  0.00     0.036 A 
HETATM   16  C11 UNL     1      -0.021 -16.097 -11.785  1.00  0.00     0.051 A 
HETATM   17  C12 UNL     1       0.283 -16.399 -13.078  1.00  0.00     0.047 A 
HETATM   18 BR1  UNL     1       1.714 -15.770 -14.169  1.00  0.00    -0.048 Br
HETATM   19  C13 UNL     1      -0.673 -17.293 -13.498  1.00  0.00     0.097 A 
HETATM   20 BR2  UNL     1      -0.829 -18.118 -15.212  1.00  0.00    -0.030 Br
HETATM   21  N5  UNL     1      -1.521 -17.517 -12.486  1.00  0.00    -0.349 N 
ATOM     22  H5  UNL     1      -2.325 -18.142 -12.531  1.00  0.00     0.166 HD
ENDBRANCH   8  15
BRANCH   4  23
HETATM   23  N3  UNL     1      -5.165 -14.998  -7.424  1.00  0.00    -0.234 N 
ATOM     24  H32 UNL     1      -5.954 -14.353  -7.396  1.00  0.00     0.174 HD
ATOM     25  H31 UNL     1      -5.060 -15.461  -6.521  1.00  0.00     0.174 HD
ENDBRANCH   4  23
TORSDOF 6
ENDMDL
