MODEL 1
REMARK VINA RESULT: -10.223732804      0.000      0.000
REMARK  6 active torsions:
REMARK  status: ('A' for Active; 'I' for Inactive)
REMARK    1  A    between atoms: C2_2  and  O2_4 
REMARK    2  A    between atoms: O2_4  and  C3_5 
REMARK    3  A    between atoms: C9_13  and  O5_14 
REMARK    4  A    between atoms: O5_14  and  C10_15 
REMARK    5  A    between atoms: C10_15  and  C11_17 
REMARK    6  A    between atoms: C17_23  and  C18_24 
ROOT
HETATM    1  C3  UNL     1      10.583  10.708  13.282  1.00  0.00     0.305 C 
HETATM    2  O3  UNL     1      11.065   9.376  13.268  1.00  0.00    -0.341 OA
HETATM    3  C4  UNL     1       9.929   9.003  12.617  1.00  0.00     0.226 C 
HETATM    4  C5  UNL     1       9.991  10.355  11.933  1.00  0.00     0.031 C 
HETATM    5  C6  UNL     1       9.490  10.193  10.732  1.00  0.00     0.149 C 
HETATM    6  O4  UNL     1       9.155   8.853  10.460  1.00  0.00    -0.320 OA
HETATM    7  C7  UNL     1       9.951   8.119  11.429  1.00  0.00     0.234 C 
HETATM    8  C8  UNL     1       9.153   6.829  11.677  1.00  0.00     0.110 C 
HETATM    9  C9  UNL     1       9.077   6.153  10.319  1.00  0.00     0.174 C 
HETATM   10  C17 UNL     1      10.377   6.131   9.622  1.00  0.00     0.223 C 
HETATM   11  O7  UNL     1      11.052   7.359   9.697  1.00  0.00    -0.225 OA
HETATM   12  O8  UNL     1      11.173   7.759  10.944  1.00  0.00    -0.196 OA
ENDROOT
BRANCH   9  13
HETATM   13  O5  UNL     1       8.105   6.886   9.536  1.00  0.00    -0.309 OA
BRANCH  13  14
HETATM   14  C10 UNL     1       6.765   6.583   9.590  1.00  0.00     0.293 C 
HETATM   15  O6  UNL     1       6.390   5.468   9.143  1.00  0.00    -0.259 OA
BRANCH  14  16
HETATM   16  C11 UNL     1       5.770   7.516  10.149  1.00  0.00     0.039 A 
HETATM   17  C12 UNL     1       6.121   8.603  10.889  1.00  0.00     0.017 A 
HETATM   18  C13 UNL     1       5.153   9.460  11.399  1.00  0.00     0.001 A 
HETATM   19  C14 UNL     1       3.816   9.239  11.175  1.00  0.00     0.000 A 
HETATM   20  C15 UNL     1       3.466   8.142  10.430  1.00  0.00     0.001 A 
HETATM   21  C16 UNL     1       4.432   7.291   9.923  1.00  0.00     0.017 A 
ENDBRANCH  14  16
ENDBRANCH  13  14
ENDBRANCH   9  13
BRANCH   1  22
HETATM   22  O2  UNL     1       9.529  10.939  14.192  1.00  0.00    -0.286 OA
BRANCH  22  23
HETATM   23  C2  UNL     1       8.538  11.865  13.963  1.00  0.00     0.257 C 
HETATM   24  C1  UNL     1       8.789  13.308  13.723  1.00  0.00     0.126 C 
HETATM   25  O1  UNL     1       7.341  11.478  13.954  1.00  0.00    -0.266 OA
ENDBRANCH  22  23
ENDBRANCH   1  22
BRANCH  10  26
HETATM   26  C18 UNL     1      11.275   5.012   9.997  1.00  0.00    -0.024 A 
HETATM   27  C19 UNL     1      10.776   3.806  10.371  1.00  0.00     0.010 A 
HETATM   28  C20 UNL     1      11.651   2.767  10.714  1.00  0.00     0.001 A 
HETATM   29  C21 UNL     1      13.013   2.925  10.684  1.00  0.00     0.000 A 
HETATM   30  C22 UNL     1      13.486   4.153  10.304  1.00  0.00     0.001 A 
HETATM   31  C23 UNL     1      12.658   5.189   9.964  1.00  0.00     0.010 A 
ENDBRANCH  10  26
TORSDOF 6
ENDMDL
MODEL 2
REMARK VINA RESULT: -10.208987769      0.046      1.195
REMARK  6 active torsions:
REMARK  status: ('A' for Active; 'I' for Inactive)
REMARK    1  A    between atoms: C2_2  and  O2_4 
REMARK    2  A    between atoms: O2_4  and  C3_5 
REMARK    3  A    between atoms: C9_13  and  O5_14 
REMARK    4  A    between atoms: O5_14  and  C10_15 
REMARK    5  A    between atoms: C10_15  and  C11_17 
REMARK    6  A    between atoms: C17_23  and  C18_24 
ROOT
HETATM    1  C3  UNL     1      10.627  10.718  13.301  1.00  0.00     0.305 C 
HETATM    2  O3  UNL     1      11.110   9.386  13.272  1.00  0.00    -0.341 OA
HETATM    3  C4  UNL     1       9.966   9.017  12.634  1.00  0.00     0.226 C 
HETATM    4  C5  UNL     1      10.018  10.373  11.957  1.00  0.00     0.031 C 
HETATM    5  C6  UNL     1       9.502  10.219  10.762  1.00  0.00     0.149 C 
HETATM    6  O4  UNL     1       9.165   8.880  10.486  1.00  0.00    -0.320 OA
HETATM    7  C7  UNL     1       9.973   8.141  11.440  1.00  0.00     0.234 C 
HETATM    8  C8  UNL     1       9.180   6.849  11.689  1.00  0.00     0.110 C 
HETATM    9  C9  UNL     1       9.086   6.181  10.328  1.00  0.00     0.174 C 
HETATM   10  C17 UNL     1      10.377   6.165   9.614  1.00  0.00     0.223 C 
HETATM   11  O7  UNL     1      11.053   7.393   9.688  1.00  0.00    -0.225 OA
HETATM   12  O8  UNL     1      11.189   7.785  10.936  1.00  0.00    -0.196 OA
ENDROOT
BRANCH   9  13
HETATM   13  O5  UNL     1       8.104   6.918   9.562  1.00  0.00    -0.309 OA
BRANCH  13  14
HETATM   14  C10 UNL     1       6.772   6.580   9.591  1.00  0.00     0.293 C 
HETATM   15  O6  UNL     1       6.435   5.456   9.138  1.00  0.00    -0.259 OA
BRANCH  14  16
HETATM   16  C11 UNL     1       5.742   7.486  10.130  1.00  0.00     0.039 A 
HETATM   17  C12 UNL     1       4.412   7.289   9.922  1.00  0.00     0.017 A 
HETATM   18  C13 UNL     1       3.470   8.167  10.447  1.00  0.00     0.001 A 
HETATM   19  C14 UNL     1       3.850   9.257  11.190  1.00  0.00     0.000 A 
HETATM   20  C15 UNL     1       5.191   9.454  11.398  1.00  0.00     0.001 A 
HETATM   21  C16 UNL     1       6.126   8.579  10.874  1.00  0.00     0.017 A 
ENDBRANCH  14  16
ENDBRANCH  13  14
ENDBRANCH   9  13
BRANCH   1  22
HETATM   22  O2  UNL     1       9.585  10.942  14.226  1.00  0.00    -0.286 OA
BRANCH  22  23
HETATM   23  C2  UNL     1       8.561  11.831  13.993  1.00  0.00     0.257 C 
HETATM   24  C1  UNL     1       8.762  13.282  13.749  1.00  0.00     0.126 C 
HETATM   25  O1  UNL     1       7.379  11.402  13.984  1.00  0.00    -0.266 OA
ENDBRANCH  22  23
ENDBRANCH   1  22
BRANCH  10  26
HETATM   26  C18 UNL     1      11.281   5.044   9.971  1.00  0.00    -0.024 A 
HETATM   27  C19 UNL     1      12.629   5.189   9.933  1.00  0.00     0.010 A 
HETATM   28  C20 UNL     1      13.456   4.113  10.283  1.00  0.00     0.001 A 
HETATM   29  C21 UNL     1      12.944   2.900  10.668  1.00  0.00     0.000 A 
HETATM   30  C22 UNL     1      11.580   2.784  10.695  1.00  0.00     0.001 A 
HETATM   31  C23 UNL     1      10.745   3.815  10.359  1.00  0.00     0.010 A 
ENDBRANCH  10  26
TORSDOF 6
ENDMDL
MODEL 3
REMARK VINA RESULT: -10.060943783      0.665      1.103
REMARK  6 active torsions:
REMARK  status: ('A' for Active; 'I' for Inactive)
REMARK    1  A    between atoms: C2_2  and  O2_4 
REMARK    2  A    between atoms: O2_4  and  C3_5 
REMARK    3  A    between atoms: C9_13  and  O5_14 
REMARK    4  A    between atoms: O5_14  and  C10_15 
REMARK    5  A    between atoms: C10_15  and  C11_17 
REMARK    6  A    between atoms: C17_23  and  C18_24 
ROOT
HETATM    1  C3  UNL     1      11.154  10.872  13.079  1.00  0.00     0.305 C 
HETATM    2  O3  UNL     1      11.604   9.529  13.080  1.00  0.00    -0.341 OA
HETATM    3  C4  UNL     1      10.419   9.164  12.518  1.00  0.00     0.226 C 
HETATM    4  C5  UNL     1      10.465  10.490  11.786  1.00  0.00     0.031 C 
HETATM    5  C6  UNL     1       9.882  10.302  10.627  1.00  0.00     0.149 C 
HETATM    6  O4  UNL     1       9.499   8.962  10.423  1.00  0.00    -0.320 OA
HETATM    7  C7  UNL     1      10.341   8.241  11.362  1.00  0.00     0.234 C 
HETATM    8  C8  UNL     1       9.533   6.980  11.706  1.00  0.00     0.110 C 
HETATM    9  C9  UNL     1       9.351   6.262  10.380  1.00  0.00     0.174 C 
HETATM   10  C17 UNL     1      10.601   6.185   9.599  1.00  0.00     0.223 C 
HETATM   11  O7  UNL     1      11.307   7.398   9.588  1.00  0.00    -0.225 OA
HETATM   12  O8  UNL     1      11.520   7.836  10.809  1.00  0.00    -0.196 OA
ENDROOT
BRANCH   9  13
HETATM   13  O5  UNL     1       8.346   6.993   9.638  1.00  0.00    -0.309 OA
BRANCH  13  14
HETATM   14  C10 UNL     1       7.018   6.641   9.693  1.00  0.00     0.293 C 
HETATM   15  O6  UNL     1       6.691   5.494   9.293  1.00  0.00    -0.259 OA
BRANCH  14  16
HETATM   16  C11 UNL     1       5.981   7.559  10.199  1.00  0.00     0.039 A 
HETATM   17  C12 UNL     1       6.281   8.692  10.889  1.00  0.00     0.017 A 
HETATM   18  C13 UNL     1       5.275   9.534  11.350  1.00  0.00     0.001 A 
HETATM   19  C14 UNL     1       3.951   9.249  11.125  1.00  0.00     0.000 A 
HETATM   20  C15 UNL     1       3.651   8.106  10.430  1.00  0.00     0.001 A 
HETATM   21  C16 UNL     1       4.655   7.270   9.972  1.00  0.00     0.017 A 
ENDBRANCH  14  16
ENDBRANCH  13  14
ENDBRANCH   9  13
BRANCH   1  22
HETATM   22  O2  UNL     1      10.169  11.159  14.049  1.00  0.00    -0.286 OA
BRANCH  22  23
HETATM   23  C2  UNL     1       9.219  12.139  13.878  1.00  0.00     0.257 C 
HETATM   24  C1  UNL     1       7.787  11.868  13.600  1.00  0.00     0.126 C 
HETATM   25  O1  UNL     1       9.573  13.343  13.960  1.00  0.00    -0.266 OA
ENDBRANCH  22  23
ENDBRANCH   1  22
BRANCH  10  26
HETATM   26  C18 UNL     1      11.496   5.057   9.953  1.00  0.00    -0.024 A 
HETATM   27  C19 UNL     1      12.845   5.195   9.921  1.00  0.00     0.010 A 
HETATM   28  C20 UNL     1      13.665   4.111  10.266  1.00  0.00     0.001 A 
HETATM   29  C21 UNL     1      13.145   2.900  10.643  1.00  0.00     0.000 A 
HETATM   30  C22 UNL     1      11.779   2.791  10.665  1.00  0.00     0.001 A 
HETATM   31  C23 UNL     1      10.952   3.830  10.333  1.00  0.00     0.010 A 
ENDBRANCH  10  26
TORSDOF 6
ENDMDL
MODEL 4
REMARK VINA RESULT: -10.011819693      1.143      1.514
REMARK  6 active torsions:
REMARK  status: ('A' for Active; 'I' for Inactive)
REMARK    1  A    between atoms: C2_2  and  O2_4 
REMARK    2  A    between atoms: O2_4  and  C3_5 
REMARK    3  A    between atoms: C9_13  and  O5_14 
REMARK    4  A    between atoms: O5_14  and  C10_15 
REMARK    5  A    between atoms: C10_15  and  C11_17 
REMARK    6  A    between atoms: C17_23  and  C18_24 
ROOT
HETATM    1  C3  UNL     1      11.606  11.075  12.685  1.00  0.00     0.305 C 
HETATM    2  O3  UNL     1      12.049   9.731  12.735  1.00  0.00    -0.341 OA
HETATM    3  C4  UNL     1      10.827   9.342  12.281  1.00  0.00     0.226 C 
HETATM    4  C5  UNL     1      10.828  10.622  11.467  1.00  0.00     0.031 C 
HETATM    5  C6  UNL     1      10.164  10.369  10.365  1.00  0.00     0.149 C 
HETATM    6  O4  UNL     1       9.763   9.023  10.270  1.00  0.00    -0.320 OA
HETATM    7  C7  UNL     1      10.664   8.352  11.191  1.00  0.00     0.234 C 
HETATM    8  C8  UNL     1       9.876   7.122  11.666  1.00  0.00     0.110 C 
HETATM    9  C9  UNL     1       9.599   6.327  10.401  1.00  0.00     0.174 C 
HETATM   10  C17 UNL     1      10.791   6.192   9.542  1.00  0.00     0.223 C 
HETATM   11  O7  UNL     1      11.500   7.395   9.408  1.00  0.00    -0.225 OA
HETATM   12  O8  UNL     1      11.800   7.904  10.584  1.00  0.00    -0.196 OA
ENDROOT
BRANCH   9  13
HETATM   13  O5  UNL     1       8.548   7.020   9.688  1.00  0.00    -0.309 OA
BRANCH  13  14
HETATM   14  C10 UNL     1       7.237   6.615   9.773  1.00  0.00     0.293 C 
HETATM   15  O6  UNL     1       6.961   5.428   9.460  1.00  0.00    -0.259 OA
BRANCH  14  16
HETATM   16  C11 UNL     1       6.161   7.522  10.212  1.00  0.00     0.039 A 
HETATM   17  C12 UNL     1       6.407   8.667  10.906  1.00  0.00     0.017 A 
HETATM   18  C13 UNL     1       5.364   9.497  11.303  1.00  0.00     0.001 A 
HETATM   19  C14 UNL     1       4.059   9.190  11.009  1.00  0.00     0.000 A 
HETATM   20  C15 UNL     1       3.814   8.036  10.310  1.00  0.00     0.001 A 
HETATM   21  C16 UNL     1       4.854   7.212   9.916  1.00  0.00     0.017 A 
ENDBRANCH  14  16
ENDBRANCH  13  14
ENDBRANCH   9  13
BRANCH   1  22
HETATM   22  O2  UNL     1      10.692  11.428  13.701  1.00  0.00    -0.286 OA
BRANCH  22  23
HETATM   23  C2  UNL     1      11.092  11.843  14.950  1.00  0.00     0.257 C 
HETATM   24  C1  UNL     1      11.252  13.266  15.340  1.00  0.00     0.126 C 
HETATM   25  O1  UNL     1      11.341  10.973  15.824  1.00  0.00    -0.266 OA
ENDBRANCH  22  23
ENDBRANCH   1  22
BRANCH  10  26
HETATM   26  C18 UNL     1      11.704   5.079   9.901  1.00  0.00    -0.024 A 
HETATM   27  C19 UNL     1      13.051   5.239   9.874  1.00  0.00     0.010 A 
HETATM   28  C20 UNL     1      13.887   4.170  10.225  1.00  0.00     0.001 A 
HETATM   29  C21 UNL     1      13.386   2.951  10.601  1.00  0.00     0.000 A 
HETATM   30  C22 UNL     1      12.022   2.819  10.617  1.00  0.00     0.001 A 
HETATM   31  C23 UNL     1      11.179   3.843  10.280  1.00  0.00     0.010 A 
ENDBRANCH  10  26
TORSDOF 6
ENDMDL
MODEL 5
REMARK VINA RESULT: -9.952620151      1.051      1.449
REMARK  6 active torsions:
REMARK  status: ('A' for Active; 'I' for Inactive)
REMARK    1  A    between atoms: C2_2  and  O2_4 
REMARK    2  A    between atoms: O2_4  and  C3_5 
REMARK    3  A    between atoms: C9_13  and  O5_14 
REMARK    4  A    between atoms: O5_14  and  C10_15 
REMARK    5  A    between atoms: C10_15  and  C11_17 
REMARK    6  A    between atoms: C17_23  and  C18_24 
ROOT
HETATM    1  C3  UNL     1      11.545  11.034  12.795  1.00  0.00     0.305 C 
HETATM    2  O3  UNL     1      11.959   9.680  12.843  1.00  0.00    -0.341 OA
HETATM    3  C4  UNL     1      10.736   9.321  12.368  1.00  0.00     0.226 C 
HETATM    4  C5  UNL     1      10.776  10.605  11.563  1.00  0.00     0.031 C 
HETATM    5  C6  UNL     1      10.124  10.373  10.449  1.00  0.00     0.149 C 
HETATM    6  O4  UNL     1       9.696   9.037  10.340  1.00  0.00    -0.320 OA
HETATM    7  C7  UNL     1      10.569   8.341  11.269  1.00  0.00     0.234 C 
HETATM    8  C8  UNL     1       9.749   7.124  11.724  1.00  0.00     0.110 C 
HETATM    9  C9  UNL     1       9.474   6.343  10.450  1.00  0.00     0.174 C 
HETATM   10  C17 UNL     1      10.676   6.189   9.608  1.00  0.00     0.223 C 
HETATM   11  O7  UNL     1      11.412   7.378   9.493  1.00  0.00    -0.225 OA
HETATM   12  O8  UNL     1      11.704   7.873  10.676  1.00  0.00    -0.196 OA
ENDROOT
BRANCH   9  13
HETATM   13  O5  UNL     1       8.448   7.063   9.726  1.00  0.00    -0.309 OA
BRANCH  13  14
HETATM   14  C10 UNL     1       7.136   6.655   9.746  1.00  0.00     0.293 C 
HETATM   15  O6  UNL     1       6.873   5.483   9.371  1.00  0.00    -0.259 OA
BRANCH  14  16
HETATM   16  C11 UNL     1       6.044   7.541  10.189  1.00  0.00     0.039 A 
HETATM   17  C12 UNL     1       4.736   7.283   9.916  1.00  0.00     0.017 A 
HETATM   18  C13 UNL     1       3.734   8.143  10.351  1.00  0.00     0.001 A 
HETATM   19  C14 UNL     1       4.030   9.276  11.067  1.00  0.00     0.000 A 
HETATM   20  C15 UNL     1       5.349   9.534  11.340  1.00  0.00     0.001 A 
HETATM   21  C16 UNL     1       6.344   8.676  10.906  1.00  0.00     0.017 A 
ENDBRANCH  14  16
ENDBRANCH  13  14
ENDBRANCH   9  13
BRANCH   1  22
HETATM   22  O2  UNL     1      10.624  11.400  13.799  1.00  0.00    -0.286 OA
BRANCH  22  23
HETATM   23  C2  UNL     1      10.989  12.102  14.924  1.00  0.00     0.257 C 
HETATM   24  C1  UNL     1      11.051  13.583  14.994  1.00  0.00     0.126 C 
HETATM   25  O1  UNL     1      11.291  11.462  15.964  1.00  0.00    -0.266 OA
ENDBRANCH  22  23
ENDBRANCH   1  22
BRANCH  10  26
HETATM   26  C18 UNL     1      11.560   5.055   9.973  1.00  0.00    -0.024 A 
HETATM   27  C19 UNL     1      11.046   3.853  10.337  1.00  0.00     0.010 A 
HETATM   28  C20 UNL     1      11.908   2.799  10.670  1.00  0.00     0.001 A 
HETATM   29  C21 UNL     1      13.272   2.940  10.640  1.00  0.00     0.000 A 
HETATM   30  C22 UNL     1      13.760   4.166  10.270  1.00  0.00     0.001 A 
HETATM   31  C23 UNL     1      12.945   5.214   9.940  1.00  0.00     0.010 A 
ENDBRANCH  10  26
TORSDOF 6
ENDMDL
