MODEL 1
REMARK VINA RESULT: -3.997603215      0.000      0.000
REMARK  3 active torsions:
REMARK  status: ('A' for Active; 'I' for Inactive)
REMARK    1  A    between atoms: C1_2  and  C2_4 
REMARK    2  A    between atoms: C2_4  and  N2_5 
REMARK    3  A    between atoms: C2_4  and  C3_9 
ROOT
HETATM    1  C3  UNL     1      21.581  45.474  12.371  1.00  0.00     0.117 C 
HETATM    2  C4  UNL     1      21.937  46.761  11.614  1.00  0.00     0.055 C 
HETATM    3  C5  UNL     1      20.760  47.676  11.486  1.00  0.00     0.234 C 
HETATM    4  N3  UNL     1      20.803  48.356  10.209  1.00  0.00    -0.073 N 
ATOM      5  H31 UNL     1      21.462  47.919   9.566  1.00  0.00     0.277 HD
ATOM      6  H32 UNL     1      21.247  49.272  10.278  1.00  0.00     0.277 HD
HETATM    7  C6  UNL     1      19.454  48.443   9.636  1.00  0.00     0.259 C 
HETATM    8  C7  UNL     1      19.021  47.155   9.009  1.00  0.00     0.259 C 
HETATM    9  N4  UNL     1      17.809  46.663   9.647  1.00  0.00    -0.072 N 
ATOM     10  H41 UNL     1      17.119  47.406   9.757  1.00  0.00     0.277 HD
ATOM     11  H42 UNL     1      17.968  46.448  10.632  1.00  0.00     0.277 HD
HETATM   12  C8  UNL     1      17.257  45.533   8.945  1.00  0.00     0.259 C 
HETATM   13  C9  UNL     1      17.910  44.284   9.529  1.00  0.00     0.259 C 
HETATM   14  N5  UNL     1      17.812  44.301  10.972  1.00  0.00    -0.072 N 
ATOM     15  H51 UNL     1      16.853  44.189  11.302  1.00  0.00     0.277 HD
ATOM     16  H52 UNL     1      17.987  45.226  11.366  1.00  0.00     0.277 HD
HETATM   17  C10 UNL     1      18.703  43.295  11.502  1.00  0.00     0.251 C 
HETATM   18  C11 UNL     1      20.139  43.733  11.520  1.00  0.00     0.142 C 
HETATM   19  N6  UNL     1      20.253  45.049  12.066  1.00  0.00    -0.413 N 
ATOM     20  H6  UNL     1      19.440  45.644  12.227  1.00  0.00     0.153 HD
ENDROOT
BRANCH   1  21
HETATM   21  C2  UNL     1      21.819  45.778  13.831  1.00  0.00     0.293 C 
BRANCH  21  22
HETATM   22  C1  UNL     1      21.834  44.618  14.706  1.00  0.00     0.263 C 
HETATM   23  N1  UNL     1      20.995  43.470  14.562  1.00  0.00    -0.060 NA
HETATM   24  O1  UNL     1      22.630  44.576  15.678  1.00  0.00    -0.274 OA
ENDBRANCH  21  22
BRANCH  21  25
HETATM   25  N2  UNL     1      23.088  46.466  13.937  1.00  0.00    -0.065 N 
ATOM     26  H23 UNL     1      23.718  46.018  14.603  1.00  0.00     0.275 HD
ATOM     27  H22 UNL     1      23.661  46.354  13.100  1.00  0.00     0.275 HD
ATOM     28  H21 UNL     1      22.918  47.446  14.163  1.00  0.00     0.275 HD
ENDBRANCH  21  25
ENDBRANCH   1  21
TORSDOF 3
ENDMDL
MODEL 2
REMARK VINA RESULT: -3.982644867      2.602      5.254
REMARK  3 active torsions:
REMARK  status: ('A' for Active; 'I' for Inactive)
REMARK    1  A    between atoms: C1_2  and  C2_4 
REMARK    2  A    between atoms: C2_4  and  N2_5 
REMARK    3  A    between atoms: C2_4  and  C3_9 
ROOT
HETATM    1  C3  UNL     1      19.628  46.146  10.593  1.00  0.00     0.117 C 
HETATM    2  C4  UNL     1      20.391  47.100  11.523  1.00  0.00     0.055 C 
HETATM    3  C5  UNL     1      21.670  46.498  12.012  1.00  0.00     0.234 C 
HETATM    4  N3  UNL     1      21.921  46.917  13.375  1.00  0.00    -0.073 N 
ATOM      5  H31 UNL     1      21.092  47.325  13.807  1.00  0.00     0.277 HD
ATOM      6  H32 UNL     1      22.529  47.735  13.417  1.00  0.00     0.277 HD
HETATM    7  C6  UNL     1      22.453  45.797  14.159  1.00  0.00     0.259 C 
HETATM    8  C7  UNL     1      21.382  44.841  14.581  1.00  0.00     0.259 C 
HETATM    9  N4  UNL     1      21.655  43.511  14.058  1.00  0.00    -0.072 N 
ATOM     10  H41 UNL     1      22.628  43.245  14.207  1.00  0.00     0.277 HD
ATOM     11  H42 UNL     1      21.642  43.502  13.038  1.00  0.00     0.277 HD
HETATM   12  C8  UNL     1      20.754  42.528  14.603  1.00  0.00     0.259 C 
HETATM   13  C9  UNL     1      19.533  42.489  13.689  1.00  0.00     0.259 C 
HETATM   14  N5  UNL     1      19.948  42.340  12.312  1.00  0.00    -0.072 N 
ATOM     15  H51 UNL     1      20.359  41.426  12.122  1.00  0.00     0.277 HD
ATOM     16  H52 UNL     1      20.763  42.909  12.085  1.00  0.00     0.277 HD
HETATM   17  C10 UNL     1      18.816  42.628  11.461  1.00  0.00     0.251 C 
HETATM   18  C11 UNL     1      18.560  44.098  11.302  1.00  0.00     0.142 C 
HETATM   19  N6  UNL     1      19.777  44.790  11.015  1.00  0.00    -0.413 N 
ATOM     20  H6  UNL     1      20.691  44.345  11.104  1.00  0.00     0.153 HD
ENDROOT
BRANCH   1  21
HETATM   21  C2  UNL     1      20.145  46.427   9.203  1.00  0.00     0.293 C 
BRANCH  21  22
HETATM   22  C1  UNL     1      19.127  46.483   8.167  1.00  0.00     0.263 C 
HETATM   23  N1  UNL     1      18.061  47.435   8.116  1.00  0.00    -0.060 NA
HETATM   24  O1  UNL     1      19.143  45.653   7.225  1.00  0.00    -0.274 OA
ENDBRANCH  21  22
BRANCH  21  25
HETATM   25  N2  UNL     1      20.848  47.692   9.242  1.00  0.00    -0.065 N 
ATOM     26  H23 UNL     1      20.250  48.476   8.982  1.00  0.00     0.275 HD
ATOM     27  H22 UNL     1      21.066  47.986  10.194  1.00  0.00     0.275 HD
ATOM     28  H21 UNL     1      21.680  47.627   8.655  1.00  0.00     0.275 HD
ENDBRANCH  21  25
ENDBRANCH   1  21
TORSDOF 3
ENDMDL
MODEL 3
REMARK VINA RESULT: -3.164889287      6.602      9.646
REMARK  3 active torsions:
REMARK  status: ('A' for Active; 'I' for Inactive)
REMARK    1  A    between atoms: C1_2  and  C2_4 
REMARK    2  A    between atoms: C2_4  and  N2_5 
REMARK    3  A    between atoms: C2_4  and  C3_9 
ROOT
HETATM    1  C3  UNL     1      19.985  39.122  13.755  1.00  0.00     0.117 C 
HETATM    2  C4  UNL     1      19.119  38.165  12.922  1.00  0.00     0.055 C 
HETATM    3  C5  UNL     1      18.016  37.563  13.732  1.00  0.00     0.234 C 
HETATM    4  N3  UNL     1      17.784  36.198  13.309  1.00  0.00    -0.073 N 
ATOM      5  H31 UNL     1      18.548  35.842  12.733  1.00  0.00     0.277 HD
ATOM      6  H32 UNL     1      17.035  36.134  12.619  1.00  0.00     0.277 HD
HETATM    7  C6  UNL     1      17.532  35.342  14.474  1.00  0.00     0.259 C 
HETATM    8  C7  UNL     1      18.793  34.974  15.191  1.00  0.00     0.259 C 
HETATM    9  N4  UNL     1      18.744  35.435  16.570  1.00  0.00    -0.072 N 
ATOM     10  H41 UNL     1      17.852  35.204  17.008  1.00  0.00     0.277 HD
ATOM     11  H42 UNL     1      18.688  36.452  16.621  1.00  0.00     0.277 HD
HETATM   12  C8  UNL     1      19.852  34.930  17.340  1.00  0.00     0.259 C 
HETATM   13  C9  UNL     1      20.992  35.933  17.189  1.00  0.00     0.259 C 
HETATM   14  N5  UNL     1      20.519  37.270  17.473  1.00  0.00    -0.072 N 
ATOM     15  H51 UNL     1      20.278  37.401  18.456  1.00  0.00     0.277 HD
ATOM     16  H52 UNL     1      19.596  37.451  17.079  1.00  0.00     0.277 HD
HETATM   17  C10 UNL     1      21.513  38.213  17.015  1.00  0.00     0.251 C 
HETATM   18  C11 UNL     1      21.471  38.435  15.531  1.00  0.00     0.142 C 
HETATM   19  N6  UNL     1      20.127  38.650  15.095  1.00  0.00    -0.413 N 
ATOM     20  H6  UNL     1      19.324  38.478  15.700  1.00  0.00     0.153 HD
ENDROOT
BRANCH   1  21
HETATM   21  C2  UNL     1      19.328  40.476  13.638  1.00  0.00     0.293 C 
BRANCH  21  22
HETATM   22  C1  UNL     1      20.205  41.608  13.887  1.00  0.00     0.263 C 
HETATM   23  N1  UNL     1      20.184  42.838  13.158  1.00  0.00    -0.060 NA
HETATM   24  O1  UNL     1      21.063  41.548  14.803  1.00  0.00    -0.274 OA
ENDBRANCH  21  22
BRANCH  21  25
HETATM   25  N2  UNL     1      18.783  40.588  12.302  1.00  0.00    -0.065 N 
ATOM     26  H23 UNL     1      17.928  40.043  12.184  1.00  0.00     0.275 HD
ATOM     27  H22 UNL     1      18.391  41.511  12.118  1.00  0.00     0.275 HD
ATOM     28  H21 UNL     1      19.503  40.330  11.626  1.00  0.00     0.275 HD
ENDBRANCH  21  25
ENDBRANCH   1  21
TORSDOF 3
ENDMDL
MODEL 4
REMARK VINA RESULT: -2.992577087      1.865      4.015
REMARK  3 active torsions:
REMARK  status: ('A' for Active; 'I' for Inactive)
REMARK    1  A    between atoms: C1_2  and  C2_4 
REMARK    2  A    between atoms: C2_4  and  N2_5 
REMARK    3  A    between atoms: C2_4  and  C3_9 
ROOT
HETATM    1  C3  UNL     1      19.640  43.696  12.374  1.00  0.00     0.117 C 
HETATM    2  C4  UNL     1      18.309  43.772  11.612  1.00  0.00     0.055 C 
HETATM    3  C5  UNL     1      18.511  44.118  10.172  1.00  0.00     0.234 C 
HETATM    4  N3  UNL     1      17.426  44.959   9.712  1.00  0.00    -0.073 N 
ATOM      5  H31 UNL     1      16.884  45.341  10.487  1.00  0.00     0.277 HD
ATOM      6  H32 UNL     1      16.686  44.418   9.265  1.00  0.00     0.277 HD
HETATM    7  C6  UNL     1      17.941  46.014   8.831  1.00  0.00     0.259 C 
HETATM    8  C7  UNL     1      18.571  47.135   9.598  1.00  0.00     0.259 C 
HETATM    9  N4  UNL     1      19.964  47.293   9.210  1.00  0.00    -0.072 N 
ATOM     10  H41 UNL     1      20.072  47.277   8.196  1.00  0.00     0.277 HD
ATOM     11  H42 UNL     1      20.511  46.463   9.441  1.00  0.00     0.277 HD
HETATM   12  C8  UNL     1      20.545  48.481   9.782  1.00  0.00     0.259 C 
HETATM   13  C9  UNL     1      21.110  48.088  11.144  1.00  0.00     0.259 C 
HETATM   14  N5  UNL     1      21.947  46.916  11.016  1.00  0.00    -0.072 N 
ATOM     15  H51 UNL     1      22.806  47.102  10.499  1.00  0.00     0.277 HD
ATOM     16  H52 UNL     1      21.552  46.219  10.384  1.00  0.00     0.277 HD
HETATM   17  C10 UNL     1      22.197  46.387  12.338  1.00  0.00     0.251 C 
HETATM   18  C11 UNL     1      21.044  45.595  12.881  1.00  0.00     0.142 C 
HETATM   19  N6  UNL     1      20.561  44.676  11.898  1.00  0.00    -0.413 N 
ATOM     20  H6  UNL     1      20.856  44.718  10.922  1.00  0.00     0.153 HD
ENDROOT
BRANCH   1  21
HETATM   21  C2  UNL     1      20.115  42.270  12.228  1.00  0.00     0.293 C 
BRANCH  21  22
HETATM   22  C1  UNL     1      20.101  41.488  13.453  1.00  0.00     0.263 C 
HETATM   23  N1  UNL     1      19.472  40.212  13.604  1.00  0.00    -0.060 NA
HETATM   24  O1  UNL     1      20.671  41.924  14.483  1.00  0.00    -0.274 OA
ENDBRANCH  21  22
BRANCH  21  25
HETATM   25  N2  UNL     1      19.272  41.623  11.245  1.00  0.00    -0.065 N 
ATOM     26  H23 UNL     1      19.456  40.622  11.175  1.00  0.00     0.275 HD
ATOM     27  H22 UNL     1      18.298  41.569  11.544  1.00  0.00     0.275 HD
ATOM     28  H21 UNL     1      19.378  42.100  10.350  1.00  0.00     0.275 HD
ENDBRANCH  21  25
ENDBRANCH   1  21
TORSDOF 3
ENDMDL
MODEL 5
REMARK VINA RESULT: -2.248601117      2.366      6.100
REMARK  3 active torsions:
REMARK  status: ('A' for Active; 'I' for Inactive)
REMARK    1  A    between atoms: C1_2  and  C2_4 
REMARK    2  A    between atoms: C2_4  and  N2_5 
REMARK    3  A    between atoms: C2_4  and  C3_9 
ROOT
HETATM    1  C3  UNL     1      19.640  45.263  10.407  1.00  0.00     0.117 C 
HETATM    2  C4  UNL     1      19.391  43.785  10.744  1.00  0.00     0.055 C 
HETATM    3  C5  UNL     1      18.982  43.600  12.171  1.00  0.00     0.234 C 
HETATM    4  N3  UNL     1      19.537  42.366  12.685  1.00  0.00    -0.073 N 
ATOM      5  H31 UNL     1      20.271  41.997  12.080  1.00  0.00     0.277 HD
ATOM      6  H32 UNL     1      18.878  41.590  12.610  1.00  0.00     0.277 HD
HETATM    7  C6  UNL     1      20.006  42.556  14.062  1.00  0.00     0.259 C 
HETATM    8  C7  UNL     1      21.330  43.251  14.119  1.00  0.00     0.259 C 
HETATM    9  N4  UNL     1      21.220  44.489  14.875  1.00  0.00    -0.072 N 
ATOM     10  H41 UNL     1      20.707  44.349  15.746  1.00  0.00     0.277 HD
ATOM     11  H42 UNL     1      20.585  45.147  14.422  1.00  0.00     0.277 HD
HETATM   12  C8  UNL     1      22.510  45.084  15.116  1.00  0.00     0.259 C 
HETATM   13  C9  UNL     1      22.808  45.995  13.928  1.00  0.00     0.259 C 
HETATM   14  N5  UNL     1      21.688  46.876  13.684  1.00  0.00    -0.072 N 
ATOM     15  H51 UNL     1      21.561  47.565  14.426  1.00  0.00     0.277 HD
ATOM     16  H52 UNL     1      20.789  46.403  13.779  1.00  0.00     0.277 HD
HETATM   17  C10 UNL     1      21.861  47.485  12.385  1.00  0.00     0.251 C 
HETATM   18  C11 UNL     1      21.483  46.573  11.255  1.00  0.00     0.142 C 
HETATM   19  N6  UNL     1      20.223  45.950  11.514  1.00  0.00    -0.413 N 
ATOM     20  H6  UNL     1      19.771  45.994  12.427  1.00  0.00     0.153 HD
ENDROOT
BRANCH   1  21
HETATM   21  C2  UNL     1      18.305  45.813   9.965  1.00  0.00     0.293 C 
BRANCH  21  22
HETATM   22  C1  UNL     1      18.352  47.140   9.375  1.00  0.00     0.263 C 
HETATM   23  N1  UNL     1      18.158  47.429   7.988  1.00  0.00    -0.060 NA
HETATM   24  O1  UNL     1      18.576  48.142  10.099  1.00  0.00    -0.274 OA
ENDBRANCH  21  22
BRANCH  21  25
HETATM   25  N2  UNL     1      17.744  44.889   9.002  1.00  0.00    -0.065 N 
ATOM     26  H23 UNL     1      17.166  44.173   9.442  1.00  0.00     0.275 HD
ATOM     27  H22 UNL     1      17.023  45.320   8.424  1.00  0.00     0.275 HD
ATOM     28  H21 UNL     1      18.500  44.489   8.446  1.00  0.00     0.275 HD
ENDBRANCH  21  25
ENDBRANCH   1  21
TORSDOF 3
ENDMDL
