MODEL 1
REMARK VINA RESULT: -5.942298743      0.000      0.000
REMARK  5 active torsions:
REMARK  status: ('A' for Active; 'I' for Inactive)
REMARK    1  A    between atoms: N1_1  and  N2_4 
REMARK    2  A    between atoms: N2_4  and  N3_5 
REMARK    3  A    between atoms: N3_5  and  C1_7 
REMARK    4  A    between atoms: C1_7  and  O1_8 
REMARK    5  A    between atoms: C3_14  and  N4_15 
REMARK       I    between atoms: N4_15  and  C4_17 
ROOT
HETATM    1  C1  UNL     1      19.472  47.027   9.468  1.00  0.00     0.255 C 
HETATM    2  C2  UNL     1      19.226  45.839  10.374  1.00  0.00     0.232 C 
HETATM    3  S1  UNL     1      20.656  45.435  11.324  1.00  0.00     0.190 S 
HETATM    4  O2  UNL     1      21.828  45.235  10.426  1.00  0.00    -0.224 OA
HETATM    5  O3  UNL     1      20.379  44.122  12.022  1.00  0.00    -0.224 OA
HETATM    6  C3  UNL     1      21.041  46.616  12.563  1.00  0.00     0.313 C 
HETATM    7  N7  UNL     1      21.085  47.966  12.128  1.00  0.00    -0.309 N 
ATOM      8  H7  UNL     1      21.875  48.496  12.496  1.00  0.00     0.167 HD
HETATM    9  C5  UNL     1      20.234  48.713  11.275  1.00  0.00     0.322 C 
HETATM   10  O4  UNL     1      20.256  49.986  11.412  1.00  0.00    -0.247 OA
HETATM   11  N8  UNL     1      19.355  48.213  10.283  1.00  0.00    -0.291 N 
ATOM     12  H8  UNL     1      18.519  48.773  10.121  1.00  0.00     0.169 HD
ENDROOT
BRANCH   1  13
HETATM   13  N3  UNL     1      18.558  47.101   8.374  1.00  0.00    -0.197 N 
ATOM     14  H3  UNL     1      18.460  47.964   7.838  1.00  0.00     0.202 HD
BRANCH  13  15
HETATM   15  N2  UNL     1      17.891  46.111   8.088  1.00  0.00    -0.244 NA
BRANCH  15  16
HETATM   16  N1  UNL     1      17.262  45.048   7.900  1.00  0.00    -0.261 N 
ATOM     17  H12 UNL     1      17.354  44.982   8.914  1.00  0.00     0.193 HD
ATOM     18  H11 UNL     1      16.750  44.203   7.645  1.00  0.00     0.193 HD
ENDBRANCH  15  16
ENDBRANCH  13  15
ENDBRANCH   1  13
BRANCH   1  19
HETATM   19  O1  UNL     1      20.788  46.874   8.981  1.00  0.00    -0.351 OA
ATOM     20  H1  UNL     1      21.407  47.229   9.610  1.00  0.00     0.214 HD
ENDBRANCH   1  19
BRANCH   6  21
HETATM   21  N4  UNL     1      22.343  46.265  13.100  1.00  0.00    -0.331 N 
HETATM   22  C4  UNL     1      22.500  45.822  14.443  1.00  0.00     0.184 C 
HETATM   23  N5  UNL     1      21.918  44.746  14.845  1.00  0.00    -0.374 N 
HETATM   24  N6  UNL     1      23.311  46.600  15.308  1.00  0.00    -0.064 NA
ATOM     25  H52 UNL     1      21.334  44.186  14.224  1.00  0.00     0.158 HD
ATOM     26  H51 UNL     1      22.030  44.428  15.808  1.00  0.00     0.158 HD
ATOM     27  H4  UNL     1      23.165  46.339  12.500  1.00  0.00     0.165 HD
ENDBRANCH   6  21
TORSDOF 5
ENDMDL
MODEL 2
REMARK VINA RESULT: -5.812756749      1.805      3.026
REMARK  5 active torsions:
REMARK  status: ('A' for Active; 'I' for Inactive)
REMARK    1  A    between atoms: N1_1  and  N2_4 
REMARK    2  A    between atoms: N2_4  and  N3_5 
REMARK    3  A    between atoms: N3_5  and  C1_7 
REMARK    4  A    between atoms: C1_7  and  O1_8 
REMARK    5  A    between atoms: C3_14  and  N4_15 
REMARK       I    between atoms: N4_15  and  C4_17 
ROOT
HETATM    1  C1  UNL     1      19.538  45.863   9.846  1.00  0.00     0.255 C 
HETATM    2  C2  UNL     1      20.851  46.611   9.753  1.00  0.00     0.232 C 
HETATM    3  S1  UNL     1      21.342  47.266  11.315  1.00  0.00     0.190 S 
HETATM    4  O2  UNL     1      20.249  48.102  11.886  1.00  0.00    -0.224 OA
HETATM    5  O3  UNL     1      22.533  48.167  11.072  1.00  0.00    -0.224 OA
HETATM    6  C3  UNL     1      21.836  46.044  12.473  1.00  0.00     0.313 C 
HETATM    7  N7  UNL     1      20.935  44.960  12.638  1.00  0.00    -0.309 N 
ATOM      8  H7  UNL     1      20.787  44.686  13.609  1.00  0.00     0.167 HD
HETATM    9  C5  UNL     1      20.204  44.187  11.701  1.00  0.00     0.322 C 
HETATM   10  O4  UNL     1      19.833  43.022  12.080  1.00  0.00    -0.247 OA
HETATM   11  N8  UNL     1      19.832  44.556  10.385  1.00  0.00    -0.291 N 
ATOM     12  H8  UNL     1      19.762  43.785   9.720  1.00  0.00     0.169 HD
ENDROOT
BRANCH   1  13
HETATM   13  N3  UNL     1      18.873  45.729   8.590  1.00  0.00    -0.197 N 
ATOM     14  H3  UNL     1      18.875  44.837   8.096  1.00  0.00     0.202 HD
BRANCH  13  15
HETATM   15  N2  UNL     1      18.301  46.705   8.113  1.00  0.00    -0.244 NA
BRANCH  15  16
HETATM   16  N1  UNL     1      17.770  47.766   7.721  1.00  0.00    -0.261 N 
ATOM     17  H12 UNL     1      17.726  47.947   8.725  1.00  0.00     0.193 HD
ATOM     18  H11 UNL     1      17.351  48.597   7.304  1.00  0.00     0.193 HD
ENDBRANCH  15  16
ENDBRANCH  13  15
ENDBRANCH   1  13
BRANCH   1  19
HETATM   19  O1  UNL     1      18.733  46.607  10.736  1.00  0.00    -0.351 OA
ATOM     20  H1  UNL     1      18.048  46.052  11.091  1.00  0.00     0.214 HD
ENDBRANCH   1  19
BRANCH   6  21
HETATM   21  N4  UNL     1      21.994  46.707  13.754  1.00  0.00    -0.331 N 
HETATM   22  C4  UNL     1      22.841  46.178  14.767  1.00  0.00     0.184 C 
HETATM   23  N5  UNL     1      24.104  46.042  14.554  1.00  0.00    -0.374 N 
HETATM   24  N6  UNL     1      22.249  45.812  16.003  1.00  0.00    -0.064 NA
ATOM     25  H52 UNL     1      24.530  46.305  13.665  1.00  0.00     0.158 HD
ATOM     26  H51 UNL     1      24.712  45.663  15.279  1.00  0.00     0.158 HD
ATOM     27  H4  UNL     1      21.485  47.573  13.933  1.00  0.00     0.165 HD
ENDBRANCH   6  21
TORSDOF 5
ENDMDL
MODEL 3
REMARK VINA RESULT: -4.996237729      1.526      5.812
REMARK  5 active torsions:
REMARK  status: ('A' for Active; 'I' for Inactive)
REMARK    1  A    between atoms: N1_1  and  N2_4 
REMARK    2  A    between atoms: N2_4  and  N3_5 
REMARK    3  A    between atoms: N3_5  and  C1_7 
REMARK    4  A    between atoms: C1_7  and  O1_8 
REMARK    5  A    between atoms: C3_14  and  N4_15 
REMARK       I    between atoms: N4_15  and  C4_17 
ROOT
HETATM    1  C1  UNL     1      21.759  46.140  12.218  1.00  0.00     0.255 C 
HETATM    2  C2  UNL     1      20.968  47.430  12.287  1.00  0.00     0.232 C 
HETATM    3  S1  UNL     1      20.148  47.774  10.764  1.00  0.00     0.190 S 
HETATM    4  O2  UNL     1      21.127  47.765   9.642  1.00  0.00    -0.224 OA
HETATM    5  O3  UNL     1      19.575  49.171  10.866  1.00  0.00    -0.224 OA
HETATM    6  C3  UNL     1      18.817  46.687  10.413  1.00  0.00     0.313 C 
HETATM    7  N7  UNL     1      19.112  45.304  10.529  1.00  0.00    -0.309 N 
ATOM      8  H7  UNL     1      18.737  44.733   9.771  1.00  0.00     0.167 HD
HETATM    9  C5  UNL     1      19.833  44.568  11.504  1.00  0.00     0.322 C 
HETATM   10  O4  UNL     1      19.567  43.320  11.595  1.00  0.00    -0.247 OA
HETATM   11  N8  UNL     1      20.820  45.057  12.394  1.00  0.00    -0.291 N 
ATOM     12  H8  UNL     1      20.876  44.574  13.290  1.00  0.00     0.169 HD
ENDROOT
BRANCH   1  13
HETATM   13  N3  UNL     1      22.786  46.054  13.207  1.00  0.00    -0.197 N 
ATOM     14  H3  UNL     1      23.731  45.770  12.948  1.00  0.00     0.202 HD
BRANCH  13  15
HETATM   15  N2  UNL     1      22.514  46.328  14.372  1.00  0.00    -0.244 NA
BRANCH  15  16
HETATM   16  N1  UNL     1      22.362  46.595  15.583  1.00  0.00    -0.261 N 
ATOM     17  H12 UNL     1      21.466  46.949  15.246  1.00  0.00     0.193 HD
ATOM     18  H11 UNL     1      22.333  46.773  16.587  1.00  0.00     0.193 HD
ENDBRANCH  15  16
ENDBRANCH  13  15
ENDBRANCH   1  13
BRANCH   1  19
HETATM   19  O1  UNL     1      22.333  46.109  10.929  1.00  0.00    -0.351 OA
ATOM     20  H1  UNL     1      22.325  46.981  10.551  1.00  0.00     0.214 HD
ENDBRANCH   1  19
BRANCH   6  21
HETATM   21  N4  UNL     1      18.394  46.952   9.051  1.00  0.00    -0.331 N 
HETATM   22  C4  UNL     1      18.152  45.898   8.127  1.00  0.00     0.184 C 
HETATM   23  N5  UNL     1      17.234  45.025   8.362  1.00  0.00    -0.374 N 
HETATM   24  N6  UNL     1      18.948  45.847   6.955  1.00  0.00    -0.064 NA
ATOM     25  H52 UNL     1      16.662  45.061   9.205  1.00  0.00     0.158 HD
ATOM     26  H51 UNL     1      17.060  44.268   7.700  1.00  0.00     0.158 HD
ATOM     27  H4  UNL     1      18.268  47.919   8.748  1.00  0.00     0.165 HD
ENDBRANCH   6  21
TORSDOF 5
ENDMDL
MODEL 4
REMARK VINA RESULT: -4.641817720      1.681      5.962
REMARK  5 active torsions:
REMARK  status: ('A' for Active; 'I' for Inactive)
REMARK    1  A    between atoms: N1_1  and  N2_4 
REMARK    2  A    between atoms: N2_4  and  N3_5 
REMARK    3  A    between atoms: N3_5  and  C1_7 
REMARK    4  A    between atoms: C1_7  and  O1_8 
REMARK    5  A    between atoms: C3_14  and  N4_15 
REMARK       I    between atoms: N4_15  and  C4_17 
ROOT
HETATM    1  C1  UNL     1      22.035  46.080  13.166  1.00  0.00     0.255 C 
HETATM    2  C2  UNL     1      21.225  47.359  13.125  1.00  0.00     0.232 C 
HETATM    3  S1  UNL     1      20.816  47.820  11.473  1.00  0.00     0.190 S 
HETATM    4  O2  UNL     1      22.050  47.899  10.642  1.00  0.00    -0.224 OA
HETATM    5  O3  UNL     1      20.206  49.203  11.528  1.00  0.00    -0.224 OA
HETATM    6  C3  UNL     1      19.643  46.761  10.711  1.00  0.00     0.313 C 
HETATM    7  N7  UNL     1      19.929  45.373  10.795  1.00  0.00    -0.309 N 
ATOM      8  H7  UNL     1      19.772  44.863   9.925  1.00  0.00     0.167 HD
HETATM    9  C5  UNL     1      20.391  44.565  11.864  1.00  0.00     0.322 C 
HETATM   10  O4  UNL     1      20.137  43.313  11.791  1.00  0.00    -0.247 OA
HETATM   11  N8  UNL     1      21.106  44.985  13.012  1.00  0.00    -0.291 N 
ATOM     12  H8  UNL     1      20.940  44.433  13.854  1.00  0.00     0.169 HD
ENDROOT
BRANCH   1  13
HETATM   13  N3  UNL     1      22.775  45.919  14.376  1.00  0.00    -0.197 N 
ATOM     14  H3  UNL     1      23.523  45.228  14.437  1.00  0.00     0.202 HD
BRANCH  13  15
HETATM   15  N2  UNL     1      22.498  46.624  15.341  1.00  0.00    -0.244 NA
BRANCH  15  16
HETATM   16  N1  UNL     1      22.167  47.238  16.378  1.00  0.00    -0.261 N 
ATOM     17  H12 UNL     1      21.230  47.014  16.041  1.00  0.00     0.193 HD
ATOM     18  H11 UNL     1      21.998  47.752  17.243  1.00  0.00     0.193 HD
ENDBRANCH  15  16
ENDBRANCH  13  15
ENDBRANCH   1  13
BRANCH   1  19
HETATM   19  O1  UNL     1      22.921  46.149  12.069  1.00  0.00    -0.351 OA
ATOM     20  H1  UNL     1      22.549  45.688  11.326  1.00  0.00     0.214 HD
ENDBRANCH   1  19
BRANCH   6  21
HETATM   21  N4  UNL     1      19.578  47.131   9.309  1.00  0.00    -0.331 N 
HETATM   22  C4  UNL     1      18.519  46.686   8.469  1.00  0.00     0.184 C 
HETATM   23  N5  UNL     1      17.301  47.015   8.730  1.00  0.00    -0.374 N 
HETATM   24  N6  UNL     1      18.852  45.881   7.351  1.00  0.00    -0.064 NA
ATOM     25  H52 UNL     1      17.061  47.594   9.534  1.00  0.00     0.158 HD
ATOM     26  H51 UNL     1      16.541  46.697   8.128  1.00  0.00     0.158 HD
ATOM     27  H4  UNL     1      20.310  47.723   8.916  1.00  0.00     0.165 HD
ENDBRANCH   6  21
TORSDOF 5
ENDMDL
MODEL 5
REMARK VINA RESULT: -4.116562991      3.101      5.293
REMARK  5 active torsions:
REMARK  status: ('A' for Active; 'I' for Inactive)
REMARK    1  A    between atoms: N1_1  and  N2_4 
REMARK    2  A    between atoms: N2_4  and  N3_5 
REMARK    3  A    between atoms: N3_5  and  C1_7 
REMARK    4  A    between atoms: C1_7  and  O1_8 
REMARK    5  A    between atoms: C3_14  and  N4_15 
REMARK       I    between atoms: N4_15  and  C4_17 
ROOT
HETATM    1  C1  UNL     1      19.825  42.900  12.012  1.00  0.00     0.255 C 
HETATM    2  C2  UNL     1      20.377  44.124  12.713  1.00  0.00     0.232 C 
HETATM    3  S1  UNL     1      20.754  45.415  11.573  1.00  0.00     0.190 S 
HETATM    4  O2  UNL     1      21.664  44.909  10.508  1.00  0.00    -0.224 OA
HETATM    5  O3  UNL     1      21.492  46.492  12.338  1.00  0.00    -0.224 OA
HETATM    6  C3  UNL     1      19.339  46.161  10.853  1.00  0.00     0.313 C 
HETATM    7  N7  UNL     1      18.387  45.262  10.306  1.00  0.00    -0.309 N 
ATOM      8  H7  UNL     1      18.019  45.547   9.397  1.00  0.00     0.167 HD
HETATM    9  C5  UNL     1      17.852  44.040  10.788  1.00  0.00     0.322 C 
HETATM   10  O4  UNL     1      16.716  43.684  10.318  1.00  0.00    -0.247 OA
HETATM   11  N8  UNL     1      18.432  43.163  11.736  1.00  0.00    -0.291 N 
ATOM     12  H8  UNL     1      17.769  42.639  12.307  1.00  0.00     0.169 HD
ENDROOT
BRANCH   1  13
HETATM   13  N3  UNL     1      19.948  41.705  12.783  1.00  0.00    -0.197 N 
ATOM     14  H3  UNL     1      20.585  41.664  13.578  1.00  0.00     0.202 HD
BRANCH  13  15
HETATM   15  N2  UNL     1      19.275  40.726  12.473  1.00  0.00    -0.244 NA
BRANCH  15  16
HETATM   16  N1  UNL     1      18.656  39.664  12.246  1.00  0.00    -0.261 N 
ATOM     17  H12 UNL     1      18.083  39.999  13.021  1.00  0.00     0.193 HD
ATOM     18  H11 UNL     1      18.219  38.781  11.983  1.00  0.00     0.193 HD
ENDBRANCH  15  16
ENDBRANCH  13  15
ENDBRANCH   1  13
BRANCH   1  19
HETATM   19  O1  UNL     1      20.563  42.776  10.816  1.00  0.00    -0.351 OA
ATOM     20  H1  UNL     1      20.143  43.275  10.125  1.00  0.00     0.214 HD
ENDBRANCH   1  19
BRANCH   6  21
HETATM   21  N4  UNL     1      19.807  47.034   9.793  1.00  0.00    -0.331 N 
HETATM   22  C4  UNL     1      19.649  48.446   9.866  1.00  0.00     0.184 C 
HETATM   23  N5  UNL     1      20.205  49.114  10.817  1.00  0.00    -0.374 N 
HETATM   24  N6  UNL     1      18.868  49.079   8.866  1.00  0.00    -0.064 NA
ATOM     25  H52 UNL     1      20.767  48.659  11.536  1.00  0.00     0.158 HD
ATOM     26  H51 UNL     1      20.092  50.127  10.870  1.00  0.00     0.158 HD
ATOM     27  H4  UNL     1      20.259  46.625   8.975  1.00  0.00     0.165 HD
ENDBRANCH   6  21
TORSDOF 5
ENDMDL
