MODEL 1
REMARK VINA RESULT: -4.782011701      0.000      0.000
REMARK  6 active torsions:
REMARK  status: ('A' for Active; 'I' for Inactive)
REMARK    1  A    between atoms: C3_3  and  C4_4 
REMARK    2  A    between atoms: C4_4  and  C5_5 
REMARK       I    between atoms: C5_5  and  N1_7 
REMARK    3  A    between atoms: N1_7  and  N2_9 
REMARK    4  A    between atoms: C11_18  and  N3_19 
REMARK    5  A    between atoms: N3_19  and  S1_21 
REMARK    6  A    between atoms: S1_21  and  N4_22 
ROOT
HETATM    1  C1  UNL     1     -29.325 -20.410 -18.221  1.00  0.00     0.112 C 
HETATM    2  C2  UNL     1     -30.616 -21.109 -18.348  1.00  0.00    -0.109 C 
HETATM    3  C3  UNL     1     -31.667 -21.682 -18.471  1.00  0.00    -0.072 C 
ENDROOT
BRANCH   3   4
HETATM    4  C4  UNL     1     -32.919 -22.378 -18.641  1.00  0.00     0.209 C 
HETATM    5  C6  UNL     1     -33.610 -22.408 -17.328  1.00  0.00     0.174 C 
HETATM    6  O2  UNL     1     -34.305 -21.561 -16.793  1.00  0.00    -0.294 OA
HETATM    7  C7  UNL     1     -33.293 -23.721 -16.742  1.00  0.00     0.035 C 
HETATM    8  C8  UNL     1     -34.542 -24.304 -16.110  1.00  0.00     0.027 C 
HETATM    9  C9  UNL     1     -32.225 -23.672 -15.694  1.00  0.00     0.027 C 
HETATM   10  C10 UNL     1     -32.956 -24.530 -17.914  1.00  0.00     0.018 C 
HETATM   11  C11 UNL     1     -32.743 -23.804 -18.987  1.00  0.00     0.056 C 
BRANCH   4  12
HETATM   12  C5  UNL     1     -33.765 -21.769 -19.699  1.00  0.00     0.270 C 
HETATM   13  O1  UNL     1     -34.541 -20.853 -19.355  1.00  0.00    -0.269 OA
HETATM   14  N1  UNL     1     -33.720 -22.178 -21.039  1.00  0.00    -0.275 N 
ATOM     15  H1  UNL     1     -33.086 -22.926 -21.319  1.00  0.00     0.189 HD
BRANCH  14  16
HETATM   16  N2  UNL     1     -34.530 -21.577 -21.985  1.00  0.00    -0.343 N 
ATOM     17  H22 UNL     1     -35.165 -22.161 -22.529  1.00  0.00     0.176 HD
ATOM     18  H21 UNL     1     -34.492 -20.568 -22.135  1.00  0.00     0.176 HD
ENDBRANCH  14  16
ENDBRANCH   4  12
BRANCH  11  19
HETATM   19  N3  UNL     1     -32.390 -24.294 -20.312  1.00  0.00    -0.269 N 
ATOM     20  H3  UNL     1     -31.544 -23.964 -20.778  1.00  0.00     0.180 HD
BRANCH  19  21
HETATM   21  S1  UNL     1     -33.414 -25.429 -21.073  1.00  0.00     0.317 S 
HETATM   22  O3  UNL     1     -34.540 -24.720 -21.749  1.00  0.00    -0.183 OA
HETATM   23  O4  UNL     1     -33.901 -26.401 -20.035  1.00  0.00    -0.183 OA
BRANCH  21  24
HETATM   24  N4  UNL     1     -32.525 -26.313 -22.266  1.00  0.00    -0.311 N 
ATOM     25  H42 UNL     1     -31.920 -25.884 -22.967  1.00  0.00     0.170 HD
ATOM     26  H41 UNL     1     -32.701 -27.312 -22.158  1.00  0.00     0.170 HD
ENDBRANCH  21  24
ENDBRANCH  19  21
ENDBRANCH  11  19
ENDBRANCH   3   4
TORSDOF 6
ENDMDL
MODEL 2
REMARK VINA RESULT: -4.631428903      1.453      1.501
REMARK  6 active torsions:
REMARK  status: ('A' for Active; 'I' for Inactive)
REMARK    1  A    between atoms: C3_3  and  C4_4 
REMARK    2  A    between atoms: C4_4  and  C5_5 
REMARK       I    between atoms: C5_5  and  N1_7 
REMARK    3  A    between atoms: N1_7  and  N2_9 
REMARK    4  A    between atoms: C11_18  and  N3_19 
REMARK    5  A    between atoms: N3_19  and  S1_21 
REMARK    6  A    between atoms: S1_21  and  N4_22 
ROOT
HETATM    1  C1  UNL     1     -29.260 -20.277 -16.072  1.00  0.00     0.112 C 
HETATM    2  C2  UNL     1     -30.483 -20.975 -16.506  1.00  0.00    -0.109 C 
HETATM    3  C3  UNL     1     -31.494 -21.532 -16.848  1.00  0.00    -0.072 C 
ENDROOT
BRANCH   3   4
HETATM    4  C4  UNL     1     -32.717 -22.180 -17.252  1.00  0.00     0.209 C 
HETATM    5  C6  UNL     1     -33.518 -22.453 -16.032  1.00  0.00     0.174 C 
HETATM    6  O2  UNL     1     -34.266 -21.719 -15.411  1.00  0.00    -0.294 OA
HETATM    7  C7  UNL     1     -33.235 -23.853 -15.676  1.00  0.00     0.035 C 
HETATM    8  C8  UNL     1     -34.525 -24.541 -15.274  1.00  0.00     0.027 C 
HETATM    9  C9  UNL     1     -32.261 -24.004 -14.549  1.00  0.00     0.027 C 
HETATM   10  C10 UNL     1     -32.788 -24.431 -16.945  1.00  0.00     0.018 C 
HETATM   11  C11 UNL     1     -32.493 -23.518 -17.841  1.00  0.00     0.056 C 
BRANCH   4  12
HETATM   12  C5  UNL     1     -33.478 -21.382 -18.247  1.00  0.00     0.270 C 
HETATM   13  O1  UNL     1     -34.542 -20.853 -17.864  1.00  0.00    -0.269 OA
HETATM   14  N1  UNL     1     -33.049 -21.206 -19.571  1.00  0.00    -0.275 N 
ATOM     15  H1  UNL     1     -32.180 -21.639 -19.882  1.00  0.00     0.189 HD
BRANCH  14  16
HETATM   16  N2  UNL     1     -33.796 -20.452 -20.457  1.00  0.00    -0.343 N 
ATOM     17  H22 UNL     1     -34.691 -20.820 -20.780  1.00  0.00     0.176 HD
ATOM     18  H21 UNL     1     -33.456 -19.546 -20.781  1.00  0.00     0.176 HD
ENDBRANCH  14  16
ENDBRANCH   4  12
BRANCH  11  19
HETATM   19  N3  UNL     1     -32.022 -23.752 -19.199  1.00  0.00    -0.269 N 
ATOM     20  H3  UNL     1     -31.056 -23.548 -19.455  1.00  0.00     0.180 HD
BRANCH  19  21
HETATM   21  S1  UNL     1     -33.113 -24.376 -20.356  1.00  0.00     0.317 S 
HETATM   22  O3  UNL     1     -33.493 -23.303 -21.321  1.00  0.00    -0.183 OA
HETATM   23  O4  UNL     1     -34.307 -24.934 -19.632  1.00  0.00    -0.183 OA
BRANCH  21  24
HETATM   24  N4  UNL     1     -32.363 -25.665 -21.233  1.00  0.00    -0.311 N 
ATOM     25  H42 UNL     1     -31.729 -26.350 -20.820  1.00  0.00     0.170 HD
ATOM     26  H41 UNL     1     -32.651 -25.631 -22.211  1.00  0.00     0.170 HD
ENDBRANCH  21  24
ENDBRANCH  19  21
ENDBRANCH  11  19
ENDBRANCH   3   4
TORSDOF 6
ENDMDL
MODEL 3
REMARK VINA RESULT: -3.933568263      1.602      1.724
REMARK  6 active torsions:
REMARK  status: ('A' for Active; 'I' for Inactive)
REMARK    1  A    between atoms: C3_3  and  C4_4 
REMARK    2  A    between atoms: C4_4  and  C5_5 
REMARK       I    between atoms: C5_5  and  N1_7 
REMARK    3  A    between atoms: N1_7  and  N2_9 
REMARK    4  A    between atoms: C11_18  and  N3_19 
REMARK    5  A    between atoms: N3_19  and  S1_21 
REMARK    6  A    between atoms: S1_21  and  N4_22 
ROOT
HETATM    1  C1  UNL     1     -29.071 -22.528 -19.681  1.00  0.00     0.112 C 
HETATM    2  C2  UNL     1     -30.436 -22.504 -19.127  1.00  0.00    -0.109 C 
HETATM    3  C3  UNL     1     -31.543 -22.478 -18.656  1.00  0.00    -0.072 C 
ENDROOT
BRANCH   3   4
HETATM    4  C4  UNL     1     -32.862 -22.432 -18.075  1.00  0.00     0.209 C 
HETATM    5  C6  UNL     1     -32.714 -22.426 -16.597  1.00  0.00     0.174 C 
HETATM    6  O2  UNL     1     -32.491 -21.498 -15.840  1.00  0.00    -0.294 OA
HETATM    7  C7  UNL     1     -32.894 -23.825 -16.175  1.00  0.00     0.035 C 
HETATM    8  C8  UNL     1     -33.758 -23.868 -14.930  1.00  0.00     0.027 C 
HETATM    9  C9  UNL     1     -31.611 -24.533 -15.871  1.00  0.00     0.027 C 
HETATM   10  C10 UNL     1     -33.659 -24.406 -17.280  1.00  0.00     0.018 C 
HETATM   11  C11 UNL     1     -33.657 -23.647 -18.351  1.00  0.00     0.056 C 
BRANCH   4  12
HETATM   12  C5  UNL     1     -33.652 -21.269 -18.556  1.00  0.00     0.270 C 
HETATM   13  O1  UNL     1     -34.542 -20.829 -17.800  1.00  0.00    -0.269 OA
HETATM   14  N1  UNL     1     -33.434 -20.665 -19.803  1.00  0.00    -0.275 N 
ATOM     15  H1  UNL     1     -32.706 -21.026 -20.419  1.00  0.00     0.189 HD
BRANCH  14  16
HETATM   16  N2  UNL     1     -34.197 -19.584 -20.203  1.00  0.00    -0.343 N 
ATOM     17  H22 UNL     1     -34.907 -19.223 -19.566  1.00  0.00     0.176 HD
ATOM     18  H21 UNL     1     -34.053 -19.157 -21.118  1.00  0.00     0.176 HD
ENDBRANCH  14  16
ENDBRANCH   4  12
BRANCH  11  19
HETATM   19  N3  UNL     1     -34.319 -23.929 -19.617  1.00  0.00    -0.269 N 
ATOM     20  H3  UNL     1     -35.132 -23.385 -19.909  1.00  0.00     0.180 HD
BRANCH  19  21
HETATM   21  S1  UNL     1     -33.713 -25.182 -20.606  1.00  0.00     0.317 S 
HETATM   22  O3  UNL     1     -33.936 -26.501 -19.943  1.00  0.00    -0.183 OA
HETATM   23  O4  UNL     1     -32.256 -24.920 -20.867  1.00  0.00    -0.183 OA
BRANCH  21  24
HETATM   24  N4  UNL     1     -34.541 -25.183 -22.126  1.00  0.00    -0.311 N 
ATOM     25  H42 UNL     1     -35.027 -25.991 -22.515  1.00  0.00     0.170 HD
ATOM     26  H41 UNL     1     -34.466 -24.264 -22.561  1.00  0.00     0.170 HD
ENDBRANCH  21  24
ENDBRANCH  19  21
ENDBRANCH  11  19
ENDBRANCH   3   4
TORSDOF 6
ENDMDL
MODEL 4
REMARK VINA RESULT: -3.793264429      1.343      1.493
REMARK  6 active torsions:
REMARK  status: ('A' for Active; 'I' for Inactive)
REMARK    1  A    between atoms: C3_3  and  C4_4 
REMARK    2  A    between atoms: C4_4  and  C5_5 
REMARK       I    between atoms: C5_5  and  N1_7 
REMARK    3  A    between atoms: N1_7  and  N2_9 
REMARK    4  A    between atoms: C11_18  and  N3_19 
REMARK    5  A    between atoms: N3_19  and  S1_21 
REMARK    6  A    between atoms: S1_21  and  N4_22 
ROOT
HETATM    1  C1  UNL     1     -28.625 -20.188 -19.005  1.00  0.00     0.112 C 
HETATM    2  C2  UNL     1     -29.869 -20.862 -18.592  1.00  0.00    -0.109 C 
HETATM    3  C3  UNL     1     -30.887 -21.420 -18.274  1.00  0.00    -0.072 C 
ENDROOT
BRANCH   3   4
HETATM    4  C4  UNL     1     -32.105 -22.103 -17.912  1.00  0.00     0.209 C 
HETATM    5  C6  UNL     1     -32.318 -21.923 -16.454  1.00  0.00     0.174 C 
HETATM    6  O2  UNL     1     -32.817 -20.991 -15.848  1.00  0.00    -0.294 OA
HETATM    7  C7  UNL     1     -31.789 -23.143 -15.822  1.00  0.00     0.035 C 
HETATM    8  C8  UNL     1     -32.739 -23.598 -14.732  1.00  0.00     0.027 C 
HETATM    9  C9  UNL     1     -30.434 -22.967 -15.210  1.00  0.00     0.027 C 
HETATM   10  C10 UNL     1     -31.840 -24.124 -16.908  1.00  0.00     0.018 C 
HETATM   11  C11 UNL     1     -32.016 -23.568 -18.084  1.00  0.00     0.056 C 
BRANCH   4  12
HETATM   12  C5  UNL     1     -33.271 -21.636 -18.704  1.00  0.00     0.270 C 
HETATM   13  O1  UNL     1     -34.374 -21.581 -18.122  1.00  0.00    -0.269 OA
HETATM   14  N1  UNL     1     -33.176 -21.263 -20.052  1.00  0.00    -0.275 N 
ATOM     15  H1  UNL     1     -32.275 -21.308 -20.527  1.00  0.00     0.189 HD
BRANCH  14  16
HETATM   16  N2  UNL     1     -34.294 -20.834 -20.744  1.00  0.00    -0.343 N 
ATOM     17  H22 UNL     1     -34.870 -21.527 -21.222  1.00  0.00     0.176 HD
ATOM     18  H21 UNL     1     -34.537 -19.844 -20.775  1.00  0.00     0.176 HD
ENDBRANCH  14  16
ENDBRANCH   4  12
BRANCH  11  19
HETATM   19  N3  UNL     1     -32.112 -24.256 -19.364  1.00  0.00    -0.269 N 
ATOM     20  H3  UNL     1     -31.310 -24.295 -19.993  1.00  0.00     0.180 HD
BRANCH  19  21
HETATM   21  S1  UNL     1     -33.590 -24.996 -19.796  1.00  0.00     0.317 S 
HETATM   22  O3  UNL     1     -34.530 -23.969 -20.335  1.00  0.00    -0.183 OA
HETATM   23  O4  UNL     1     -34.146 -25.690 -18.584  1.00  0.00    -0.183 OA
BRANCH  21  24
HETATM   24  N4  UNL     1     -33.314 -26.186 -21.021  1.00  0.00    -0.311 N 
ATOM     25  H42 UNL     1     -33.145 -25.971 -22.004  1.00  0.00     0.170 HD
ATOM     26  H41 UNL     1     -33.346 -27.119 -20.611  1.00  0.00     0.170 HD
ENDBRANCH  21  24
ENDBRANCH  19  21
ENDBRANCH  11  19
ENDBRANCH   3   4
TORSDOF 6
ENDMDL
MODEL 5
REMARK VINA RESULT: -3.745630197      3.451      4.948
REMARK  6 active torsions:
REMARK  status: ('A' for Active; 'I' for Inactive)
REMARK    1  A    between atoms: C3_3  and  C4_4 
REMARK    2  A    between atoms: C4_4  and  C5_5 
REMARK       I    between atoms: C5_5  and  N1_7 
REMARK    3  A    between atoms: N1_7  and  N2_9 
REMARK    4  A    between atoms: C11_18  and  N3_19 
REMARK    5  A    between atoms: N3_19  and  S1_21 
REMARK    6  A    between atoms: S1_21  and  N4_22 
ROOT
HETATM    1  C1  UNL     1     -33.010 -26.189 -15.648  1.00  0.00     0.112 C 
HETATM    2  C2  UNL     1     -32.761 -24.860 -16.234  1.00  0.00    -0.109 C 
HETATM    3  C3  UNL     1     -32.570 -23.766 -16.699  1.00  0.00    -0.072 C 
ENDROOT
BRANCH   3   4
HETATM    4  C4  UNL     1     -32.349 -22.446 -17.234  1.00  0.00     0.209 C 
HETATM    5  C6  UNL     1     -33.654 -21.914 -17.700  1.00  0.00     0.174 C 
HETATM    6  O2  UNL     1     -34.542 -21.367 -17.070  1.00  0.00    -0.294 OA
HETATM    7  C7  UNL     1     -33.697 -22.178 -19.148  1.00  0.00     0.035 C 
HETATM    8  C8  UNL     1     -34.258 -20.965 -19.864  1.00  0.00     0.027 C 
HETATM    9  C9  UNL     1     -34.534 -23.362 -19.521  1.00  0.00     0.027 C 
HETATM   10  C10 UNL     1     -32.281 -22.300 -19.501  1.00  0.00     0.018 C 
HETATM   11  C11 UNL     1     -31.509 -22.451 -18.450  1.00  0.00     0.056 C 
BRANCH   4  12
HETATM   12  C5  UNL     1     -31.700 -21.539 -16.253  1.00  0.00     0.270 C 
HETATM   13  O1  UNL     1     -32.141 -21.549 -15.085  1.00  0.00    -0.269 OA
HETATM   14  N1  UNL     1     -30.632 -20.694 -16.588  1.00  0.00    -0.275 N 
ATOM     15  H1  UNL     1     -30.273 -20.687 -17.542  1.00  0.00     0.189 HD
BRANCH  14  16
HETATM   16  N2  UNL     1     -30.063 -19.869 -15.635  1.00  0.00    -0.343 N 
ATOM     17  H22 UNL     1     -30.557 -19.019 -15.364  1.00  0.00     0.176 HD
ATOM     18  H21 UNL     1     -29.166 -20.108 -15.212  1.00  0.00     0.176 HD
ENDBRANCH  14  16
ENDBRANCH   4  12
BRANCH  11  19
HETATM   19  N3  UNL     1     -30.060 -22.599 -18.451  1.00  0.00    -0.269 N 
ATOM     20  H3  UNL     1     -29.615 -23.339 -17.908  1.00  0.00     0.180 HD
BRANCH  19  21
HETATM   21  S1  UNL     1     -29.119 -21.514 -19.375  1.00  0.00     0.317 S 
HETATM   22  O3  UNL     1     -28.501 -20.492 -18.478  1.00  0.00    -0.183 OA
HETATM   23  O4  UNL     1     -30.000 -20.889 -20.420  1.00  0.00    -0.183 OA
BRANCH  21  24
HETATM   24  N4  UNL     1     -27.853 -22.376 -20.181  1.00  0.00    -0.311 N 
ATOM     25  H42 UNL     1     -28.001 -23.024 -20.955  1.00  0.00     0.170 HD
ATOM     26  H41 UNL     1     -26.953 -22.136 -19.766  1.00  0.00     0.170 HD
ENDBRANCH  21  24
ENDBRANCH  19  21
ENDBRANCH  11  19
ENDBRANCH   3   4
TORSDOF 6
ENDMDL
