MODEL 1
REMARK VINA RESULT: -4.988939572      0.000      0.000
REMARK  0 active torsions:
REMARK  status: ('A' for Active; 'I' for Inactive)
ROOT
HETATM    1  C1  UNL     1       4.919  11.297   0.555  1.00  0.00     0.040 C 
HETATM    2  C2  UNL     1       3.591  10.607   0.762  1.00  0.00     0.181 C 
HETATM    3  C3  UNL     1       2.967  11.121   2.056  1.00  0.00     0.032 C 
HETATM    4  C4  UNL     1       1.945  10.116   2.589  1.00  0.00     0.004 C 
HETATM    5  C5  UNL     1       1.361   9.448   1.353  1.00  0.00     0.027 C 
HETATM    6  C6  UNL     1       2.390   8.614   0.626  1.00  0.00     0.232 C 
HETATM    7  N1  UNL     1       3.734   9.156   0.807  1.00  0.00    -0.071 N 
ATOM      8  H11 UNL     1       4.199   8.819   1.650  1.00  0.00     0.277 HD
ATOM      9  H12 UNL     1       4.413   8.793   0.138  1.00  0.00     0.277 HD
ENDROOT
TORSDOF 0
ENDMDL
MODEL 2
REMARK VINA RESULT: -4.972750700      1.153      1.952
REMARK  0 active torsions:
REMARK  status: ('A' for Active; 'I' for Inactive)
ROOT
HETATM    1  C1  UNL     1       4.864  11.176   0.641  1.00  0.00     0.040 C 
HETATM    2  C2  UNL     1       3.692  10.418   1.221  1.00  0.00     0.181 C 
HETATM    3  C3  UNL     1       3.515   9.117   0.444  1.00  0.00     0.032 C 
HETATM    4  C4  UNL     1       2.086   8.594   0.601  1.00  0.00     0.004 C 
HETATM    5  C5  UNL     1       1.650   9.037   1.990  1.00  0.00     0.027 C 
HETATM    6  C6  UNL     1       1.532  10.539   2.089  1.00  0.00     0.232 C 
HETATM    7  N1  UNL     1       2.464  11.205   1.183  1.00  0.00    -0.071 N 
ATOM      8  H11 UNL     1       2.094  11.336   0.241  1.00  0.00     0.277 HD
ATOM      9  H12 UNL     1       2.606  12.192   1.397  1.00  0.00     0.277 HD
ENDROOT
TORSDOF 0
ENDMDL
MODEL 3
REMARK VINA RESULT: -4.609989582      1.316      3.208
REMARK  0 active torsions:
REMARK  status: ('A' for Active; 'I' for Inactive)
ROOT
HETATM    1  C1  UNL     1       1.024   9.483   1.735  1.00  0.00     0.040 C 
HETATM    2  C2  UNL     1       2.333  10.082   1.277  1.00  0.00     0.181 C 
HETATM    3  C3  UNL     1       3.181   8.983   0.643  1.00  0.00     0.032 C 
HETATM    4  C4  UNL     1       4.659   9.373   0.662  1.00  0.00     0.004 C 
HETATM    5  C5  UNL     1       4.672  10.890   0.539  1.00  0.00     0.027 C 
HETATM    6  C6  UNL     1       4.074  11.556   1.756  1.00  0.00     0.232 C 
HETATM    7  N1  UNL     1       3.056  10.711   2.376  1.00  0.00    -0.071 N 
ATOM      8  H11 UNL     1       3.435  10.045   3.049  1.00  0.00     0.277 HD
ATOM      9  H12 UNL     1       2.452  11.213   3.027  1.00  0.00     0.277 HD
ENDROOT
TORSDOF 0
ENDMDL
MODEL 4
REMARK VINA RESULT: -4.520348999      1.149      1.419
REMARK  0 active torsions:
REMARK  status: ('A' for Active; 'I' for Inactive)
ROOT
HETATM    1  C1  UNL     1       4.715   9.050  -0.025  1.00  0.00     0.040 C 
HETATM    2  C2  UNL     1       3.431   9.537   0.604  1.00  0.00     0.181 C 
HETATM    3  C3  UNL     1       3.726  10.801   1.407  1.00  0.00     0.032 C 
HETATM    4  C4  UNL     1       2.647  11.021   2.467  1.00  0.00     0.004 C 
HETATM    5  C5  UNL     1       1.371  10.456   1.860  1.00  0.00     0.027 C 
HETATM    6  C6  UNL     1       1.449   8.957   1.685  1.00  0.00     0.232 C 
HETATM    7  N1  UNL     1       2.825   8.522   1.457  1.00  0.00    -0.071 N 
ATOM      8  H11 UNL     1       3.345   8.350   2.318  1.00  0.00     0.277 HD
ATOM      9  H12 UNL     1       2.896   7.577   1.080  1.00  0.00     0.277 HD
ENDROOT
TORSDOF 0
ENDMDL
MODEL 5
REMARK VINA RESULT: -4.477029862      1.179      2.632
REMARK  0 active torsions:
REMARK  status: ('A' for Active; 'I' for Inactive)
ROOT
HETATM    1  C1  UNL     1       1.293  10.470   2.222  1.00  0.00     0.040 C 
HETATM    2  C2  UNL     1       2.636  10.001   1.714  1.00  0.00     0.181 C 
HETATM    3  C3  UNL     1       3.576  11.201   1.631  1.00  0.00     0.032 C 
HETATM    4  C4  UNL     1       4.714  10.918   0.650  1.00  0.00     0.004 C 
HETATM    5  C5  UNL     1       4.957   9.419   0.743  1.00  0.00     0.027 C 
HETATM    6  C6  UNL     1       3.782   8.627   0.220  1.00  0.00     0.232 C 
HETATM    7  N1  UNL     1       2.528   9.350   0.413  1.00  0.00    -0.071 N 
ATOM      8  H11 UNL     1       2.307   9.992  -0.347  1.00  0.00     0.277 HD
ATOM      9  H12 UNL     1       1.699   8.761   0.321  1.00  0.00     0.277 HD
ENDROOT
TORSDOF 0
ENDMDL
