MODEL 1
REMARK VINA RESULT: -6.116186999      0.000      0.000
REMARK  2 active torsions:
REMARK  status: ('A' for Active; 'I' for Inactive)
REMARK    1  A    between atoms: C2_2  and  C3_3 
REMARK    2  A    between atoms: N1_4  and  C4_6 
ROOT
HETATM    1  C4  UNL     1       3.764   8.469   1.167  1.00  0.00     0.081 C 
HETATM    2  C5  UNL     1       2.351   8.712   1.618  1.00  0.00     0.025 C 
HETATM    3  C6  UNL     1       1.581   7.409   1.627  1.00  0.00     0.002 C 
HETATM    4  C7  UNL     1       1.633   6.844   0.233  1.00  0.00     0.000 C 
HETATM    5  C8  UNL     1       3.053   6.384  -0.024  1.00  0.00     0.002 C 
HETATM    6  C9  UNL     1       4.055   7.035   0.870  1.00  0.00     0.025 C 
ENDROOT
BRANCH   1   7
HETATM    7  N1  UNL     1       4.046   9.343   0.057  1.00  0.00    -0.394 N 
HETATM    8  C3  UNL     1       5.218   9.860  -0.139  1.00  0.00     0.082 C 
ATOM      9  H1  UNL     1       3.296   9.563  -0.599  1.00  0.00     0.159 HD
BRANCH   8  10
HETATM   10  C2  UNL     1       5.509  10.741  -1.256  1.00  0.00     0.006 C 
HETATM   11  C1  UNL     1       4.559  11.197  -2.042  1.00  0.00     0.012 C 
ENDBRANCH   8  10
ENDBRANCH   1   7
TORSDOF 2
ENDMDL
MODEL 2
REMARK VINA RESULT: -5.227022233      1.365      2.156
REMARK  2 active torsions:
REMARK  status: ('A' for Active; 'I' for Inactive)
REMARK    1  A    between atoms: C2_2  and  C3_3 
REMARK    2  A    between atoms: N1_4  and  C4_6 
ROOT
HETATM    1  C4  UNL     1       2.985   7.734  -0.037  1.00  0.00     0.081 C 
HETATM    2  C5  UNL     1       2.866   6.346   0.529  1.00  0.00     0.025 C 
HETATM    3  C6  UNL     1       1.629   6.247   1.395  1.00  0.00     0.002 C 
HETATM    4  C7  UNL     1       1.753   7.283   2.480  1.00  0.00     0.000 C 
HETATM    5  C8  UNL     1       1.594   8.645   1.835  1.00  0.00     0.002 C 
HETATM    6  C9  UNL     1       1.870   8.639   0.368  1.00  0.00     0.025 C 
ENDROOT
BRANCH   1   7
HETATM    7  N1  UNL     1       4.286   8.254   0.302  1.00  0.00    -0.394 N 
HETATM    8  C3  UNL     1       4.707   9.401  -0.128  1.00  0.00     0.082 C 
ATOM      9  H1  UNL     1       4.897   7.700   0.903  1.00  0.00     0.159 HD
BRANCH   8  10
HETATM   10  C2  UNL     1       6.016   9.932   0.210  1.00  0.00     0.006 C 
HETATM   11  C1  UNL     1       6.747  10.580  -0.670  1.00  0.00     0.012 C 
ENDBRANCH   8  10
ENDBRANCH   1   7
TORSDOF 2
ENDMDL
MODEL 3
REMARK VINA RESULT: -3.924697635      1.007      2.060
REMARK  2 active torsions:
REMARK  status: ('A' for Active; 'I' for Inactive)
REMARK    1  A    between atoms: C2_2  and  C3_3 
REMARK    2  A    between atoms: N1_4  and  C4_6 
ROOT
HETATM    1  C4  UNL     1       3.111   6.788  -0.043  1.00  0.00     0.081 C 
HETATM    2  C5  UNL     1       3.418   6.347   1.361  1.00  0.00     0.025 C 
HETATM    3  C6  UNL     1       2.178   6.457   2.220  1.00  0.00     0.002 C 
HETATM    4  C7  UNL     1       1.722   7.891   2.173  1.00  0.00     0.000 C 
HETATM    5  C8  UNL     1       1.183   8.157   0.783  1.00  0.00     0.002 C 
HETATM    6  C9  UNL     1       1.688   7.194  -0.240  1.00  0.00     0.025 C 
ENDROOT
BRANCH   1   7
HETATM    7  N1  UNL     1       4.047   7.820  -0.413  1.00  0.00    -0.394 N 
HETATM    8  C3  UNL     1       4.593   8.606   0.460  1.00  0.00     0.082 C 
ATOM      9  H1  UNL     1       4.289   7.934  -1.397  1.00  0.00     0.159 HD
BRANCH   8  10
HETATM   10  C2  UNL     1       5.538   9.647   0.094  1.00  0.00     0.006 C 
HETATM   11  C1  UNL     1       5.314  10.459  -0.915  1.00  0.00     0.012 C 
ENDBRANCH   8  10
ENDBRANCH   1   7
TORSDOF 2
ENDMDL
MODEL 4
REMARK VINA RESULT: -3.909395317      1.342      1.893
REMARK  2 active torsions:
REMARK  status: ('A' for Active; 'I' for Inactive)
REMARK    1  A    between atoms: C2_2  and  C3_3 
REMARK    2  A    between atoms: N1_4  and  C4_6 
ROOT
HETATM    1  C4  UNL     1       2.328   8.732   1.235  1.00  0.00     0.081 C 
HETATM    2  C5  UNL     1       2.107   8.287  -0.183  1.00  0.00     0.025 C 
HETATM    3  C6  UNL     1       1.560   6.876  -0.202  1.00  0.00     0.002 C 
HETATM    4  C7  UNL     1       2.554   5.997   0.511  1.00  0.00     0.000 C 
HETATM    5  C8  UNL     1       2.506   6.349   1.983  1.00  0.00     0.002 C 
HETATM    6  C9  UNL     1       1.942   7.706   2.248  1.00  0.00     0.025 C 
ENDROOT
BRANCH   1   7
HETATM    7  N1  UNL     1       3.696   9.169   1.368  1.00  0.00    -0.394 N 
HETATM    8  C3  UNL     1       4.485   9.298   0.349  1.00  0.00     0.082 C 
ATOM      9  H1  UNL     1       4.055   9.385   2.298  1.00  0.00     0.159 HD
BRANCH   8  10
HETATM   10  C2  UNL     1       5.863   9.739   0.475  1.00  0.00     0.006 C 
HETATM   11  C1  UNL     1       6.474  10.380  -0.495  1.00  0.00     0.012 C 
ENDBRANCH   8  10
ENDBRANCH   1   7
TORSDOF 2
ENDMDL
MODEL 5
REMARK VINA RESULT: -3.883871293      1.409      4.517
REMARK  2 active torsions:
REMARK  status: ('A' for Active; 'I' for Inactive)
REMARK    1  A    between atoms: C2_2  and  C3_3 
REMARK    2  A    between atoms: N1_4  and  C4_6 
ROOT
HETATM    1  C4  UNL     1       5.440   9.205  -0.096  1.00  0.00     0.081 C 
HETATM    2  C5  UNL     1       4.685   8.758  -1.317  1.00  0.00     0.025 C 
HETATM    3  C6  UNL     1       4.989   9.679  -2.478  1.00  0.00     0.002 C 
HETATM    4  C7  UNL     1       4.602  11.073  -2.061  1.00  0.00     0.000 C 
HETATM    5  C8  UNL     1       5.593  11.531  -1.011  1.00  0.00     0.002 C 
HETATM    6  C9  UNL     1       6.298  10.403  -0.334  1.00  0.00     0.025 C 
ENDROOT
BRANCH   1   7
HETATM    7  N1  UNL     1       4.500   9.389   0.981  1.00  0.00    -0.394 N 
HETATM    8  C3  UNL     1       3.424   8.676   1.091  1.00  0.00     0.082 C 
ATOM      9  H1  UNL     1       4.688  10.106   1.681  1.00  0.00     0.159 HD
BRANCH   8  10
HETATM   10  C2  UNL     1       2.473   8.855   2.174  1.00  0.00     0.006 C 
HETATM   11  C1  UNL     1       1.245   8.394   2.097  1.00  0.00     0.012 C 
ENDBRANCH   8  10
ENDBRANCH   1   7
TORSDOF 2
ENDMDL
