MODEL 1
REMARK VINA RESULT: -6.007497317      0.000      0.000
REMARK  3 active torsions:
REMARK  status: ('A' for Active; 'I' for Inactive)
REMARK    1  A    between atoms: C2_2  and  C3_3 
REMARK    2  A    between atoms: C3_3  and  N1_4 
REMARK    3  A    between atoms: C3_3  and  C4_8 
ROOT
HETATM    1  C3  UNL     1       4.587   8.721   0.870  1.00  0.00     0.209 C 
ENDROOT
BRANCH   1   2
HETATM    2  C2  UNL     1       5.296   9.698  -0.013  1.00  0.00    -0.004 C 
HETATM    3  C1  UNL     1       4.766  10.118  -1.155  1.00  0.00     0.009 C 
ENDBRANCH   1   2
BRANCH   1   4
HETATM    4  N1  UNL     1       5.289   7.450   0.676  1.00  0.00    -0.071 N 
ATOM      5  H13 UNL     1       4.768   6.773   0.119  1.00  0.00     0.275 HD
ATOM      6  H12 UNL     1       6.096   7.515   0.056  1.00  0.00     0.275 HD
ATOM      7  H11 UNL     1       5.515   7.125   1.616  1.00  0.00     0.275 HD
ENDBRANCH   1   4
BRANCH   1   8
HETATM    8  C4  UNL     1       3.142   8.565   0.376  1.00  0.00     0.020 C 
HETATM    9  C5  UNL     1       2.176   9.065   1.380  1.00  0.00     0.007 C 
HETATM   10  C6  UNL     1       1.491   8.066   2.217  1.00  0.00     0.000 C 
HETATM   11  C7  UNL     1       1.308   6.720   1.631  1.00  0.00     0.000 C 
HETATM   12  C8  UNL     1       1.548   6.636   0.152  1.00  0.00     0.000 C 
HETATM   13  C9  UNL     1       2.922   7.186  -0.126  1.00  0.00     0.007 C 
ENDBRANCH   1   8
TORSDOF 3
ENDMDL
MODEL 2
REMARK VINA RESULT: -5.449039201      1.136      1.156
REMARK  3 active torsions:
REMARK  status: ('A' for Active; 'I' for Inactive)
REMARK    1  A    between atoms: C2_2  and  C3_3 
REMARK    2  A    between atoms: C3_3  and  N1_4 
REMARK    3  A    between atoms: C3_3  and  C4_8 
ROOT
HETATM    1  C3  UNL     1       4.199   9.602   0.383  1.00  0.00     0.209 C 
ENDROOT
BRANCH   1   2
HETATM    2  C2  UNL     1       5.140  10.010  -0.706  1.00  0.00    -0.004 C 
HETATM    3  C1  UNL     1       4.779  10.860  -1.659  1.00  0.00     0.009 C 
ENDBRANCH   1   2
BRANCH   1   4
HETATM    4  N1  UNL     1       5.055   9.110   1.464  1.00  0.00    -0.071 N 
ATOM      5  H13 UNL     1       4.829   9.499   2.379  1.00  0.00     0.275 HD
ATOM      6  H12 UNL     1       4.890   8.133   1.708  1.00  0.00     0.275 HD
ATOM      7  H11 UNL     1       6.009   9.303   1.157  1.00  0.00     0.275 HD
ENDBRANCH   1   4
BRANCH   1   8
HETATM    8  C4  UNL     1       3.329   8.443  -0.123  1.00  0.00     0.020 C 
HETATM    9  C5  UNL     1       1.938   8.565   0.367  1.00  0.00     0.007 C 
HETATM   10  C6  UNL     1       1.547   7.726   1.513  1.00  0.00     0.000 C 
HETATM   11  C7  UNL     1       2.273   6.449   1.680  1.00  0.00     0.000 C 
HETATM   12  C8  UNL     1       3.082   6.019   0.491  1.00  0.00     0.000 C 
HETATM   13  C9  UNL     1       4.009   7.149   0.129  1.00  0.00     0.007 C 
ENDBRANCH   1   8
TORSDOF 3
ENDMDL
MODEL 3
REMARK VINA RESULT: -5.286356131      1.397      2.178
REMARK  3 active torsions:
REMARK  status: ('A' for Active; 'I' for Inactive)
REMARK    1  A    between atoms: C2_2  and  C3_3 
REMARK    2  A    between atoms: C3_3  and  N1_4 
REMARK    3  A    between atoms: C3_3  and  C4_8 
ROOT
HETATM    1  C3  UNL     1       4.743   9.003  -0.351  1.00  0.00     0.209 C 
ENDROOT
BRANCH   1   2
HETATM    2  C2  UNL     1       5.731   9.990   0.184  1.00  0.00    -0.004 C 
HETATM    3  C1  UNL     1       6.723  10.459  -0.562  1.00  0.00     0.009 C 
ENDBRANCH   1   2
BRANCH   1   4
HETATM    4  N1  UNL     1       3.665   9.812  -0.922  1.00  0.00    -0.071 N 
ATOM      5  H13 UNL     1       3.465  10.663  -0.396  1.00  0.00     0.275 HD
ATOM      6  H12 UNL     1       3.915  10.272  -1.798  1.00  0.00     0.275 HD
ATOM      7  H11 UNL     1       2.869   9.178  -1.001  1.00  0.00     0.275 HD
ENDBRANCH   1   4
BRANCH   1   8
HETATM    8  C4  UNL     1       4.177   8.185   0.819  1.00  0.00     0.020 C 
HETATM    9  C5  UNL     1       3.845   6.806   0.397  1.00  0.00     0.007 C 
HETATM   10  C6  UNL     1       2.429   6.502   0.127  1.00  0.00     0.000 C 
HETATM   11  C7  UNL     1       1.426   7.307   0.856  1.00  0.00     0.000 C 
HETATM   12  C8  UNL     1       1.966   8.100   2.011  1.00  0.00     0.000 C 
HETATM   13  C9  UNL     1       3.100   8.948   1.499  1.00  0.00     0.007 C 
ENDBRANCH   1   8
TORSDOF 3
ENDMDL
MODEL 4
REMARK VINA RESULT: -5.006455569      1.367      2.372
REMARK  3 active torsions:
REMARK  status: ('A' for Active; 'I' for Inactive)
REMARK    1  A    between atoms: C2_2  and  C3_3 
REMARK    2  A    between atoms: C3_3  and  N1_4 
REMARK    3  A    between atoms: C3_3  and  C4_8 
ROOT
HETATM    1  C3  UNL     1       5.203  10.161   0.078  1.00  0.00     0.209 C 
ENDROOT
BRANCH   1   2
HETATM    2  C2  UNL     1       4.542  10.004  -1.255  1.00  0.00    -0.004 C 
HETATM    3  C1  UNL     1       4.614  10.949  -2.185  1.00  0.00     0.009 C 
ENDBRANCH   1   2
BRANCH   1   4
HETATM    4  N1  UNL     1       6.629   9.938  -0.173  1.00  0.00    -0.071 N 
ATOM      5  H13 UNL     1       6.893  10.028  -1.153  1.00  0.00     0.275 HD
ATOM      6  H12 UNL     1       7.231  10.682   0.181  1.00  0.00     0.275 HD
ATOM      7  H11 UNL     1       6.828   9.021   0.226  1.00  0.00     0.275 HD
ENDBRANCH   1   4
BRANCH   1   8
HETATM    8  C4  UNL     1       4.691   9.060   1.018  1.00  0.00     0.020 C 
HETATM    9  C5  UNL     1       4.386   7.819   0.271  1.00  0.00     0.007 C 
HETATM   10  C6  UNL     1       2.973   7.545  -0.040  1.00  0.00     0.000 C 
HETATM   11  C7  UNL     1       1.967   8.110   0.886  1.00  0.00     0.000 C 
HETATM   12  C8  UNL     1       2.516   8.608   2.191  1.00  0.00     0.000 C 
HETATM   13  C9  UNL     1       3.612   9.594   1.886  1.00  0.00     0.007 C 
ENDBRANCH   1   8
TORSDOF 3
ENDMDL
MODEL 5
REMARK VINA RESULT: -4.621548155      1.427      1.673
REMARK  3 active torsions:
REMARK  status: ('A' for Active; 'I' for Inactive)
REMARK    1  A    between atoms: C2_2  and  C3_3 
REMARK    2  A    between atoms: C3_3  and  N1_4 
REMARK    3  A    between atoms: C3_3  and  C4_8 
ROOT
HETATM    1  C3  UNL     1       4.299   8.190  -0.313  1.00  0.00     0.209 C 
ENDROOT
BRANCH   1   2
HETATM    2  C2  UNL     1       4.849   8.430   1.058  1.00  0.00    -0.004 C 
HETATM    3  C1  UNL     1       5.021   9.656   1.536  1.00  0.00     0.009 C 
ENDBRANCH   1   2
BRANCH   1   4
HETATM    4  N1  UNL     1       4.225   9.515  -0.932  1.00  0.00    -0.071 N 
ATOM      5  H13 UNL     1       5.135   9.947  -1.090  1.00  0.00     0.275 HD
ATOM      6  H12 UNL     1       3.932   9.498  -1.909  1.00  0.00     0.275 HD
ATOM      7  H11 UNL     1       3.610  10.058  -0.326  1.00  0.00     0.275 HD
ENDBRANCH   1   4
BRANCH   1   8
HETATM    8  C4  UNL     1       2.877   7.627  -0.184  1.00  0.00     0.020 C 
HETATM    9  C5  UNL     1       1.924   8.674   0.248  1.00  0.00     0.007 C 
HETATM   10  C6  UNL     1       1.531   8.688   1.667  1.00  0.00     0.000 C 
HETATM   11  C7  UNL     1       1.571   7.393   2.381  1.00  0.00     0.000 C 
HETATM   12  C8  UNL     1       1.691   6.186   1.497  1.00  0.00     0.000 C 
HETATM   13  C9  UNL     1       2.895   6.377   0.614  1.00  0.00     0.007 C 
ENDBRANCH   1   8
TORSDOF 3
ENDMDL
