MODEL 1
REMARK VINA RESULT: -8.536474620      0.000      0.000
REMARK  15 active torsions:
REMARK  status: ('A' for Active; 'I' for Inactive)
REMARK       I    between atoms: C2_2  and  N1_4 
REMARK    1  A    between atoms: N1_4  and  C3_6 
REMARK    2  A    between atoms: C3_6  and  C5_8 
REMARK       I    between atoms: C5_8  and  N2_10 
REMARK    3  A    between atoms: N2_10  and  C6_12 
REMARK    4  A    between atoms: C6_12  and  C7_13 
REMARK    5  A    between atoms: C7_13  and  C8_14 
REMARK    6  A    between atoms: C8_14  and  C9_15 
REMARK    7  A    between atoms: C9_15  and  C10_16 
REMARK    8  A    between atoms: C10_16  and  C11_17 
REMARK    9  A    between atoms: C11_17  and  N3_18 
REMARK       I    between atoms: N3_18  and  C12_19 
REMARK   10  A    between atoms: C12_19  and  C13_21 
REMARK   11  A    between atoms: C13_21  and  C14_22 
REMARK   12  A    between atoms: C13_21  and  C26_40 
REMARK   13  A    between atoms: C14_22  and  C15_23 
REMARK   14  A    between atoms: C15_23  and  C16_24 
REMARK   15  A    between atoms: C16_24  and  C17_25 
REMARK       I    between atoms: C17_25  and  N4_27 
ROOT
HETATM    1  C13 UNL     1       4.353  18.797   3.785  1.00  0.00     0.162 C 
ENDROOT
BRANCH   1   2
HETATM    2  C12 UNL     1       5.675  19.017   4.536  1.00  0.00     0.302 C 
HETATM    3  N3  UNL     1       6.697  18.164   4.492  1.00  0.00    -0.387 NA
HETATM    4  O3  UNL     1       5.598  20.136   5.178  1.00  0.00    -0.256 OA
BRANCH   3   5
HETATM    5  C11 UNL     1       7.744  17.291   4.449  1.00  0.00     0.159 C 
BRANCH   5   6
HETATM    6  C10 UNL     1       7.422  15.800   4.715  1.00  0.00     0.059 C 
BRANCH   6   7
HETATM    7  C9  UNL     1       8.579  14.912   4.654  1.00  0.00     0.006 C 
BRANCH   7   8
HETATM    8  C8  UNL     1       9.161  14.451   5.928  1.00  0.00     0.002 C 
BRANCH   8   9
HETATM    9  C7  UNL     1       9.952  15.377   6.724  1.00  0.00     0.020 C 
BRANCH   9  10
HETATM   10  C6  UNL     1       9.588  15.630   8.116  1.00  0.00     0.122 C 
BRANCH  10  11
HETATM   11  N2  UNL     1       8.192  15.599   8.458  1.00  0.00    -0.359 N 
HETATM   12  C5  UNL     1       7.420  16.775   8.391  1.00  0.00     0.240 C 
HETATM   13  O2  UNL     1       7.925  17.848   8.034  1.00  0.00    -0.271 OA
ATOM     14  H2  UNL     1       7.759  14.722   8.751  1.00  0.00     0.162 HD
BRANCH  12  15
HETATM   15  C3  UNL     1       5.970  16.749   8.754  1.00  0.00     0.172 C 
HETATM   16  C4  UNL     1       5.168  16.715   7.500  1.00  0.00     0.042 C 
BRANCH  15  17
HETATM   17  N1  UNL     1       5.657  17.921   9.548  1.00  0.00    -0.349 N 
HETATM   18  C2  UNL     1       4.715  17.845  10.596  1.00  0.00     0.214 C 
HETATM   19  C1  UNL     1       4.374  19.026  11.437  1.00  0.00     0.117 C 
HETATM   20  O1  UNL     1       4.143  16.745  10.828  1.00  0.00    -0.274 OA
ATOM     21  H1  UNL     1       6.121  18.806   9.348  1.00  0.00     0.163 HD
ENDBRANCH  15  17
ENDBRANCH  12  15
ENDBRANCH  10  11
ENDBRANCH   9  10
ENDBRANCH   8   9
ENDBRANCH   7   8
ENDBRANCH   6   7
ENDBRANCH   5   6
ENDBRANCH   3   5
ENDBRANCH   1   2
BRANCH   1  22
HETATM   22  C14 UNL     1       4.713  17.742   2.745  1.00  0.00     0.023 C 
BRANCH  22  23
HETATM   23  C15 UNL     1       4.790  18.352   1.374  1.00  0.00     0.010 C 
BRANCH  23  24
HETATM   24  C16 UNL     1       6.171  18.198   0.814  1.00  0.00     0.103 C 
BRANCH  24  25
HETATM   25  C17 UNL     1       6.370  16.837   0.283  1.00  0.00     0.219 C 
HETATM   26  O4  UNL     1       5.461  16.102  -0.174  1.00  0.00    -0.273 OA
HETATM   27  N4  UNL     1       7.732  16.326   0.300  1.00  0.00    -0.349 N 
HETATM   28  C18 UNL     1       7.793  14.985  -0.193  1.00  0.00     0.152 C 
HETATM   29  C25 UNL     1       8.744  17.249   0.785  1.00  0.00     0.141 C 
HETATM   30  C19 UNL     1       8.918  14.759  -1.210  1.00  0.00     0.122 C 
HETATM   31  N5  UNL     1       9.162  15.955  -1.855  1.00  0.00    -0.394 N 
HETATM   32  C23 UNL     1      10.022  14.100  -0.450  1.00  0.00     0.133 C 
HETATM   33  C20 UNL     1      10.344  16.678  -1.749  1.00  0.00     0.062 C 
ATOM     34  H5  UNL     1       8.425  16.334  -2.450  1.00  0.00     0.159 HD
HETATM   35  C21 UNL     1      10.948  16.904  -0.424  1.00  0.00     0.048 C 
HETATM   36  C22 UNL     1      12.190  15.998  -0.333  1.00  0.00     0.086 C 
HETATM   37  C24 UNL     1      10.119  16.700   0.787  1.00  0.00     0.076 C 
HETATM   38  S1  UNL     1      11.673  14.431  -1.140  1.00  0.00    -0.151 SA
HETATM   39  S2  UNL     1      10.027  14.924   1.197  1.00  0.00    -0.144 SA
ENDBRANCH  24  25
ENDBRANCH  23  24
ENDBRANCH  22  23
ENDBRANCH   1  22
BRANCH   1  40
HETATM   40  C26 UNL     1       3.272  18.349   4.640  1.00  0.00     0.137 C 
HETATM   41  C27 UNL     1       2.457  17.132   4.417  1.00  0.00     0.091 C 
HETATM   42  O5  UNL     1       2.987  19.021   5.645  1.00  0.00    -0.297 OA
ENDBRANCH   1  40
TORSDOF 15
ENDMDL
MODEL 2
REMARK VINA RESULT: -8.468439223      4.120     10.530
REMARK  15 active torsions:
REMARK  status: ('A' for Active; 'I' for Inactive)
REMARK       I    between atoms: C2_2  and  N1_4 
REMARK    1  A    between atoms: N1_4  and  C3_6 
REMARK    2  A    between atoms: C3_6  and  C5_8 
REMARK       I    between atoms: C5_8  and  N2_10 
REMARK    3  A    between atoms: N2_10  and  C6_12 
REMARK    4  A    between atoms: C6_12  and  C7_13 
REMARK    5  A    between atoms: C7_13  and  C8_14 
REMARK    6  A    between atoms: C8_14  and  C9_15 
REMARK    7  A    between atoms: C9_15  and  C10_16 
REMARK    8  A    between atoms: C10_16  and  C11_17 
REMARK    9  A    between atoms: C11_17  and  N3_18 
REMARK       I    between atoms: N3_18  and  C12_19 
REMARK   10  A    between atoms: C12_19  and  C13_21 
REMARK   11  A    between atoms: C13_21  and  C14_22 
REMARK   12  A    between atoms: C13_21  and  C26_40 
REMARK   13  A    between atoms: C14_22  and  C15_23 
REMARK   14  A    between atoms: C15_23  and  C16_24 
REMARK   15  A    between atoms: C16_24  and  C17_25 
REMARK       I    between atoms: C17_25  and  N4_27 
ROOT
HETATM    1  C13 UNL     1       8.409  15.897   0.183  1.00  0.00     0.162 C 
ENDROOT
BRANCH   1   2
HETATM    2  C12 UNL     1       9.302  16.802  -0.680  1.00  0.00     0.302 C 
HETATM    3  N3  UNL     1       9.369  16.721  -2.007  1.00  0.00    -0.387 NA
HETATM    4  O3  UNL     1       9.934  17.616   0.101  1.00  0.00    -0.256 OA
BRANCH   3   5
HETATM    5  C11 UNL     1       9.439  16.637  -3.367  1.00  0.00     0.159 C 
BRANCH   5   6
HETATM    6  C10 UNL     1       8.661  15.477  -4.037  1.00  0.00     0.059 C 
BRANCH   6   7
HETATM    7  C9  UNL     1       7.905  15.864  -5.224  1.00  0.00     0.006 C 
BRANCH   7   8
HETATM    8  C8  UNL     1       8.617  16.604  -6.283  1.00  0.00     0.002 C 
BRANCH   8   9
HETATM    9  C7  UNL     1       9.433  15.870  -7.237  1.00  0.00     0.020 C 
BRANCH   9  10
HETATM   10  C6  UNL     1      10.885  15.833  -7.071  1.00  0.00     0.122 C 
BRANCH  10  11
HETATM   11  N2  UNL     1      11.502  14.551  -6.863  1.00  0.00    -0.359 N 
HETATM   12  C5  UNL     1      12.575  14.420  -5.960  1.00  0.00     0.240 C 
HETATM   13  O2  UNL     1      13.000  15.399  -5.331  1.00  0.00    -0.271 OA
ATOM     14  H2  UNL     1      11.162  13.734  -7.371  1.00  0.00     0.162 HD
BRANCH  12  15
HETATM   15  C3  UNL     1      13.225  13.092  -5.747  1.00  0.00     0.172 C 
HETATM   16  C4  UNL     1      12.943  12.231  -6.930  1.00  0.00     0.042 C 
BRANCH  15  17
HETATM   17  N1  UNL     1      12.710  12.499  -4.529  1.00  0.00    -0.349 N 
HETATM   18  C2  UNL     1      13.484  12.499  -3.349  1.00  0.00     0.214 C 
HETATM   19  C1  UNL     1      12.984  11.906  -2.077  1.00  0.00     0.117 C 
HETATM   20  O1  UNL     1      14.633  13.016  -3.371  1.00  0.00    -0.274 OA
ATOM     21  H1  UNL     1      11.781  12.079  -4.524  1.00  0.00     0.163 HD
ENDBRANCH  15  17
ENDBRANCH  12  15
ENDBRANCH  10  11
ENDBRANCH   9  10
ENDBRANCH   8   9
ENDBRANCH   7   8
ENDBRANCH   6   7
ENDBRANCH   5   6
ENDBRANCH   3   5
ENDBRANCH   1   2
BRANCH   1  22
HETATM   22  C14 UNL     1       7.023  16.096  -0.419  1.00  0.00     0.023 C 
BRANCH  22  23
HETATM   23  C15 UNL     1       6.238  17.100   0.376  1.00  0.00     0.010 C 
BRANCH  23  24
HETATM   24  C16 UNL     1       5.773  16.494   1.665  1.00  0.00     0.103 C 
BRANCH  24  25
HETATM   25  C17 UNL     1       6.133  17.357   2.806  1.00  0.00     0.219 C 
HETATM   26  O4  UNL     1       5.649  18.493   3.031  1.00  0.00    -0.273 OA
HETATM   27  N4  UNL     1       7.126  16.831   3.730  1.00  0.00    -0.349 N 
HETATM   28  C18 UNL     1       7.428  17.771   4.763  1.00  0.00     0.152 C 
HETATM   29  C25 UNL     1       7.601  15.486   3.445  1.00  0.00     0.141 C 
HETATM   30  C19 UNL     1       7.438  17.152   6.166  1.00  0.00     0.122 C 
HETATM   31  N5  UNL     1       6.575  16.075   6.169  1.00  0.00    -0.394 N 
HETATM   32  C23 UNL     1       8.877  16.936   6.502  1.00  0.00     0.133 C 
HETATM   33  C20 UNL     1       6.968  14.753   6.338  1.00  0.00     0.062 C 
ATOM     34  H5  UNL     1       5.580  16.262   6.037  1.00  0.00     0.159 HD
HETATM   35  C21 UNL     1       8.123  14.231   5.587  1.00  0.00     0.048 C 
HETATM   36  C22 UNL     1       9.283  14.082   6.589  1.00  0.00     0.086 C 
HETATM   37  C24 UNL     1       8.608  14.980   4.404  1.00  0.00     0.076 C 
HETATM   38  S1  UNL     1       9.150  15.564   7.666  1.00  0.00    -0.151 SA
HETATM   39  S2  UNL     1       9.655  16.379   4.928  1.00  0.00    -0.144 SA
ENDBRANCH  24  25
ENDBRANCH  23  24
ENDBRANCH  22  23
ENDBRANCH   1  22
BRANCH   1  40
HETATM   40  C26 UNL     1       8.803  14.503   0.154  1.00  0.00     0.137 C 
HETATM   41  C27 UNL     1      10.193  14.012   0.008  1.00  0.00     0.091 C 
HETATM   42  O5  UNL     1       7.923  13.632   0.257  1.00  0.00    -0.297 OA
ENDBRANCH   1  40
TORSDOF 15
ENDMDL
MODEL 3
REMARK VINA RESULT: -8.356649137      3.172      9.226
REMARK  15 active torsions:
REMARK  status: ('A' for Active; 'I' for Inactive)
REMARK       I    between atoms: C2_2  and  N1_4 
REMARK    1  A    between atoms: N1_4  and  C3_6 
REMARK    2  A    between atoms: C3_6  and  C5_8 
REMARK       I    between atoms: C5_8  and  N2_10 
REMARK    3  A    between atoms: N2_10  and  C6_12 
REMARK    4  A    between atoms: C6_12  and  C7_13 
REMARK    5  A    between atoms: C7_13  and  C8_14 
REMARK    6  A    between atoms: C8_14  and  C9_15 
REMARK    7  A    between atoms: C9_15  and  C10_16 
REMARK    8  A    between atoms: C10_16  and  C11_17 
REMARK    9  A    between atoms: C11_17  and  N3_18 
REMARK       I    between atoms: N3_18  and  C12_19 
REMARK   10  A    between atoms: C12_19  and  C13_21 
REMARK   11  A    between atoms: C13_21  and  C14_22 
REMARK   12  A    between atoms: C13_21  and  C26_40 
REMARK   13  A    between atoms: C14_22  and  C15_23 
REMARK   14  A    between atoms: C15_23  and  C16_24 
REMARK   15  A    between atoms: C16_24  and  C17_25 
REMARK       I    between atoms: C17_25  and  N4_27 
ROOT
HETATM    1  C13 UNL     1       5.961  17.594   1.343  1.00  0.00     0.162 C 
ENDROOT
BRANCH   1   2
HETATM    2  C12 UNL     1       7.390  18.070   1.042  1.00  0.00     0.302 C 
HETATM    3  N3  UNL     1       8.477  17.530   1.590  1.00  0.00    -0.387 NA
HETATM    4  O3  UNL     1       7.326  19.042   0.193  1.00  0.00    -0.256 OA
BRANCH   3   5
HETATM    5  C11 UNL     1       9.591  16.979   2.152  1.00  0.00     0.159 C 
BRANCH   5   6
HETATM    6  C10 UNL     1       9.552  15.456   2.431  1.00  0.00     0.059 C 
BRANCH   6   7
HETATM    7  C9  UNL     1       8.872  14.671   1.405  1.00  0.00     0.006 C 
BRANCH   7   8
HETATM    8  C8  UNL     1       9.628  14.324   0.188  1.00  0.00     0.002 C 
BRANCH   8   9
HETATM    9  C7  UNL     1      11.082  14.324   0.232  1.00  0.00     0.020 C 
BRANCH   9  10
HETATM   10  C6  UNL     1      11.835  15.179  -0.683  1.00  0.00     0.122 C 
BRANCH  10  11
HETATM   11  N2  UNL     1      11.117  15.797  -1.765  1.00  0.00    -0.359 N 
HETATM   12  C5  UNL     1      11.067  15.174  -3.027  1.00  0.00     0.240 C 
HETATM   13  O2  UNL     1      11.632  14.090  -3.225  1.00  0.00    -0.271 OA
ATOM     14  H2  UNL     1      10.644  16.688  -1.617  1.00  0.00     0.162 HD
BRANCH  12  15
HETATM   15  C3  UNL     1      10.329  15.817  -4.158  1.00  0.00     0.172 C 
HETATM   16  C4  UNL     1       9.011  16.292  -3.653  1.00  0.00     0.042 C 
BRANCH  15  17
HETATM   17  N1  UNL     1      10.167  14.855  -5.229  1.00  0.00    -0.349 N 
HETATM   18  C2  UNL     1      10.537  15.185  -6.551  1.00  0.00     0.214 C 
HETATM   19  C1  UNL     1      10.392  14.219  -7.675  1.00  0.00     0.117 C 
HETATM   20  O1  UNL     1      11.004  16.332  -6.787  1.00  0.00    -0.274 OA
ATOM     21  H1  UNL     1       9.784  13.932  -5.027  1.00  0.00     0.163 HD
ENDBRANCH  15  17
ENDBRANCH  12  15
ENDBRANCH  10  11
ENDBRANCH   9  10
ENDBRANCH   8   9
ENDBRANCH   7   8
ENDBRANCH   6   7
ENDBRANCH   5   6
ENDBRANCH   3   5
ENDBRANCH   1   2
BRANCH   1  22
HETATM   22  C14 UNL     1       5.194  18.895   1.545  1.00  0.00     0.023 C 
BRANCH  22  23
HETATM   23  C15 UNL     1       4.742  19.030   2.972  1.00  0.00     0.010 C 
BRANCH  23  24
HETATM   24  C16 UNL     1       4.465  17.679   3.559  1.00  0.00     0.103 C 
BRANCH  24  25
HETATM   25  C17 UNL     1       4.460  17.743   5.033  1.00  0.00     0.219 C 
HETATM   26  O4  UNL     1       3.468  18.055   5.737  1.00  0.00    -0.273 OA
HETATM   27  N4  UNL     1       5.709  17.415   5.701  1.00  0.00    -0.349 N 
HETATM   28  C18 UNL     1       5.595  17.558   7.119  1.00  0.00     0.152 C 
HETATM   29  C25 UNL     1       6.799  17.004   4.832  1.00  0.00     0.141 C 
HETATM   30  C19 UNL     1       6.171  16.370   7.900  1.00  0.00     0.122 C 
HETATM   31  N5  UNL     1       6.068  15.244   7.108  1.00  0.00    -0.394 N 
HETATM   32  C23 UNL     1       7.518  16.811   8.370  1.00  0.00     0.133 C 
HETATM   33  C20 UNL     1       7.152  14.541   6.596  1.00  0.00     0.062 C 
ATOM     34  H5  UNL     1       5.133  14.904   6.884  1.00  0.00     0.159 HD
HETATM   35  C21 UNL     1       8.265  15.271   5.964  1.00  0.00     0.048 C 
HETATM   36  C22 UNL     1       9.452  15.219   6.943  1.00  0.00     0.086 C 
HETATM   37  C24 UNL     1       8.055  16.676   5.544  1.00  0.00     0.076 C 
HETATM   38  S1  UNL     1       8.690  15.438   8.599  1.00  0.00    -0.151 SA
HETATM   39  S2  UNL     1       8.212  17.794   6.976  1.00  0.00    -0.144 SA
ENDBRANCH  24  25
ENDBRANCH  23  24
ENDBRANCH  22  23
ENDBRANCH   1  22
BRANCH   1  40
HETATM   40  C26 UNL     1       5.382  16.799   0.278  1.00  0.00     0.137 C 
HETATM   41  C27 UNL     1       4.051  17.029  -0.331  1.00  0.00     0.091 C 
HETATM   42  O5  UNL     1       6.034  15.845  -0.177  1.00  0.00    -0.297 OA
ENDBRANCH   1  40
TORSDOF 15
ENDMDL
MODEL 4
REMARK VINA RESULT: -8.342424209      2.068      3.857
REMARK  15 active torsions:
REMARK  status: ('A' for Active; 'I' for Inactive)
REMARK       I    between atoms: C2_2  and  N1_4 
REMARK    1  A    between atoms: N1_4  and  C3_6 
REMARK    2  A    between atoms: C3_6  and  C5_8 
REMARK       I    between atoms: C5_8  and  N2_10 
REMARK    3  A    between atoms: N2_10  and  C6_12 
REMARK    4  A    between atoms: C6_12  and  C7_13 
REMARK    5  A    between atoms: C7_13  and  C8_14 
REMARK    6  A    between atoms: C8_14  and  C9_15 
REMARK    7  A    between atoms: C9_15  and  C10_16 
REMARK    8  A    between atoms: C10_16  and  C11_17 
REMARK    9  A    between atoms: C11_17  and  N3_18 
REMARK       I    between atoms: N3_18  and  C12_19 
REMARK   10  A    between atoms: C12_19  and  C13_21 
REMARK   11  A    between atoms: C13_21  and  C14_22 
REMARK   12  A    between atoms: C13_21  and  C26_40 
REMARK   13  A    between atoms: C14_22  and  C15_23 
REMARK   14  A    between atoms: C15_23  and  C16_24 
REMARK   15  A    between atoms: C16_24  and  C17_25 
REMARK       I    between atoms: C17_25  and  N4_27 
ROOT
HETATM    1  C13 UNL     1       8.048  16.503   2.021  1.00  0.00     0.162 C 
ENDROOT
BRANCH   1   2
HETATM    2  C12 UNL     1       7.445  16.643   3.427  1.00  0.00     0.302 C 
HETATM    3  N3  UNL     1       7.398  15.648   4.311  1.00  0.00    -0.387 NA
HETATM    4  O3  UNL     1       7.021  17.856   3.571  1.00  0.00    -0.256 OA
BRANCH   3   5
HETATM    5  C11 UNL     1       7.349  14.629   5.217  1.00  0.00     0.159 C 
BRANCH   5   6
HETATM    6  C10 UNL     1       8.704  14.069   5.712  1.00  0.00     0.059 C 
BRANCH   6   7
HETATM    7  C9  UNL     1       9.809  15.022   5.659  1.00  0.00     0.006 C 
BRANCH   7   8
HETATM    8  C8  UNL     1      10.051  15.863   6.845  1.00  0.00     0.002 C 
BRANCH   8   9
HETATM    9  C7  UNL     1       9.360  15.556   8.087  1.00  0.00     0.020 C 
BRANCH   9  10
HETATM   10  C6  UNL     1       8.503  16.563   8.709  1.00  0.00     0.122 C 
BRANCH  10  11
HETATM   11  N2  UNL     1       7.091  16.498   8.442  1.00  0.00    -0.359 N 
HETATM   12  C5  UNL     1       6.509  17.367   7.498  1.00  0.00     0.240 C 
HETATM   13  O2  UNL     1       7.197  18.193   6.884  1.00  0.00    -0.271 OA
ATOM     14  H2  UNL     1       6.510  15.821   8.937  1.00  0.00     0.162 HD
BRANCH  12  15
HETATM   15  C3  UNL     1       5.040  17.309   7.224  1.00  0.00     0.172 C 
HETATM   16  C4  UNL     1       4.488  16.080   7.860  1.00  0.00     0.042 C 
BRANCH  15  17
HETATM   17  N1  UNL     1       4.824  17.302   5.791  1.00  0.00    -0.349 N 
HETATM   18  C2  UNL     1       3.905  18.196   5.201  1.00  0.00     0.214 C 
HETATM   19  C1  UNL     1       3.662  18.224   3.732  1.00  0.00     0.117 C 
HETATM   20  O1  UNL     1       3.269  18.996   5.940  1.00  0.00    -0.274 OA
ATOM     21  H1  UNL     1       5.340  16.647   5.204  1.00  0.00     0.163 HD
ENDBRANCH  15  17
ENDBRANCH  12  15
ENDBRANCH  10  11
ENDBRANCH   9  10
ENDBRANCH   8   9
ENDBRANCH   7   8
ENDBRANCH   6   7
ENDBRANCH   5   6
ENDBRANCH   3   5
ENDBRANCH   1   2
BRANCH   1  22
HETATM   22  C14 UNL     1       7.101  17.321   1.151  1.00  0.00     0.023 C 
BRANCH  22  23
HETATM   23  C15 UNL     1       6.581  16.495   0.010  1.00  0.00     0.010 C 
BRANCH  23  24
HETATM   24  C16 UNL     1       7.463  15.305  -0.216  1.00  0.00     0.103 C 
BRANCH  24  25
HETATM   25  C17 UNL     1       8.336  15.517  -1.386  1.00  0.00     0.219 C 
HETATM   26  O4  UNL     1       8.064  16.257  -2.363  1.00  0.00    -0.273 OA
HETATM   27  N4  UNL     1       9.604  14.805  -1.387  1.00  0.00    -0.349 N 
HETATM   28  C18 UNL     1      10.339  15.049  -2.588  1.00  0.00     0.152 C 
HETATM   29  C25 UNL     1       9.882  14.014  -0.199  1.00  0.00     0.141 C 
HETATM   30  C19 UNL     1      11.815  15.386  -2.342  1.00  0.00     0.122 C 
HETATM   31  N5  UNL     1      11.921  15.977  -1.099  1.00  0.00    -0.394 N 
HETATM   32  C23 UNL     1      12.568  14.126  -2.618  1.00  0.00     0.133 C 
HETATM   33  C20 UNL     1      12.586  15.415  -0.016  1.00  0.00     0.062 C 
ATOM     34  H5  UNL     1      11.480  16.888  -0.966  1.00  0.00     0.159 HD
HETATM   35  C21 UNL     1      12.364  14.000   0.325  1.00  0.00     0.048 C 
HETATM   36  C22 UNL     1      13.632  13.232  -0.092  1.00  0.00     0.086 C 
HETATM   37  C24 UNL     1      11.181  13.304  -0.231  1.00  0.00     0.076 C 
HETATM   38  S1  UNL     1      14.126  13.996  -1.688  1.00  0.00    -0.151 SA
HETATM   39  S2  UNL     1      11.506  12.779  -1.948  1.00  0.00    -0.144 SA
ENDBRANCH  24  25
ENDBRANCH  23  24
ENDBRANCH  22  23
ENDBRANCH   1  22
BRANCH   1  40
HETATM   40  C26 UNL     1       9.409  16.992   1.926  1.00  0.00     0.137 C 
HETATM   41  C27 UNL     1       9.856  18.106   1.058  1.00  0.00     0.091 C 
HETATM   42  O5  UNL     1      10.288  16.452   2.619  1.00  0.00    -0.297 OA
ENDBRANCH   1  40
TORSDOF 15
ENDMDL
MODEL 5
REMARK VINA RESULT: -8.341106689      1.758      3.202
REMARK  15 active torsions:
REMARK  status: ('A' for Active; 'I' for Inactive)
REMARK       I    between atoms: C2_2  and  N1_4 
REMARK    1  A    between atoms: N1_4  and  C3_6 
REMARK    2  A    between atoms: C3_6  and  C5_8 
REMARK       I    between atoms: C5_8  and  N2_10 
REMARK    3  A    between atoms: N2_10  and  C6_12 
REMARK    4  A    between atoms: C6_12  and  C7_13 
REMARK    5  A    between atoms: C7_13  and  C8_14 
REMARK    6  A    between atoms: C8_14  and  C9_15 
REMARK    7  A    between atoms: C9_15  and  C10_16 
REMARK    8  A    between atoms: C10_16  and  C11_17 
REMARK    9  A    between atoms: C11_17  and  N3_18 
REMARK       I    between atoms: N3_18  and  C12_19 
REMARK   10  A    between atoms: C12_19  and  C13_21 
REMARK   11  A    between atoms: C13_21  and  C14_22 
REMARK   12  A    between atoms: C13_21  and  C26_40 
REMARK   13  A    between atoms: C14_22  and  C15_23 
REMARK   14  A    between atoms: C15_23  and  C16_24 
REMARK   15  A    between atoms: C16_24  and  C17_25 
REMARK       I    between atoms: C17_25  and  N4_27 
ROOT
HETATM    1  C13 UNL     1       6.880  17.923   3.746  1.00  0.00     0.162 C 
ENDROOT
BRANCH   1   2
HETATM    2  C12 UNL     1       8.024  16.896   3.761  1.00  0.00     0.302 C 
HETATM    3  N3  UNL     1       7.925  15.693   4.323  1.00  0.00    -0.387 NA
HETATM    4  O3  UNL     1       9.040  17.408   3.148  1.00  0.00    -0.256 OA
BRANCH   3   5
HETATM    5  C11 UNL     1       7.826  14.461   4.900  1.00  0.00     0.159 C 
BRANCH   5   6
HETATM    6  C10 UNL     1       8.972  14.041   5.853  1.00  0.00     0.059 C 
BRANCH   6   7
HETATM    7  C9  UNL     1       9.775  15.151   6.358  1.00  0.00     0.006 C 
BRANCH   7   8
HETATM    8  C8  UNL     1       9.695  15.460   7.798  1.00  0.00     0.002 C 
BRANCH   8   9
HETATM    9  C7  UNL     1       8.815  16.528   8.247  1.00  0.00     0.020 C 
BRANCH   9  10
HETATM   10  C6  UNL     1       7.565  16.199   8.928  1.00  0.00     0.122 C 
BRANCH  10  11
HETATM   11  N2  UNL     1       6.420  17.026   8.661  1.00  0.00    -0.359 N 
HETATM   12  C5  UNL     1       5.325  16.508   7.941  1.00  0.00     0.240 C 
HETATM   13  O2  UNL     1       5.329  15.339   7.531  1.00  0.00    -0.271 OA
ATOM     14  H2  UNL     1       6.399  17.990   8.994  1.00  0.00     0.162 HD
BRANCH  12  15
HETATM   15  C3  UNL     1       4.136  17.367   7.653  1.00  0.00     0.172 C 
HETATM   16  C4  UNL     1       3.224  17.323   8.830  1.00  0.00     0.042 C 
BRANCH  15  17
HETATM   17  N1  UNL     1       3.477  16.881   6.457  1.00  0.00    -0.349 N 
HETATM   18  C2  UNL     1       2.702  17.752   5.662  1.00  0.00     0.214 C 
HETATM   19  C1  UNL     1       2.016  17.290   4.423  1.00  0.00     0.117 C 
HETATM   20  O1  UNL     1       2.586  18.958   6.010  1.00  0.00    -0.274 OA
ATOM     21  H1  UNL     1       3.573  15.902   6.188  1.00  0.00     0.163 HD
ENDBRANCH  15  17
ENDBRANCH  12  15
ENDBRANCH  10  11
ENDBRANCH   9  10
ENDBRANCH   8   9
ENDBRANCH   7   8
ENDBRANCH   6   7
ENDBRANCH   5   6
ENDBRANCH   3   5
ENDBRANCH   1   2
BRANCH   1  22
HETATM   22  C14 UNL     1       5.656  17.077   3.418  1.00  0.00     0.023 C 
BRANCH  22  23
HETATM   23  C15 UNL     1       5.086  17.463   2.082  1.00  0.00     0.010 C 
BRANCH  23  24
HETATM   24  C16 UNL     1       5.686  16.619   0.998  1.00  0.00     0.103 C 
BRANCH  24  25
HETATM   25  C17 UNL     1       6.796  17.331   0.338  1.00  0.00     0.219 C 
HETATM   26  O4  UNL     1       6.889  18.578   0.229  1.00  0.00    -0.273 OA
HETATM   27  N4  UNL     1       7.853  16.505  -0.224  1.00  0.00    -0.349 N 
HETATM   28  C18 UNL     1       8.845  17.300  -0.878  1.00  0.00     0.152 C 
HETATM   29  C25 UNL     1       7.715  15.074  -0.011  1.00  0.00     0.141 C 
HETATM   30  C19 UNL     1      10.281  16.911  -0.506  1.00  0.00     0.122 C 
HETATM   31  N5  UNL     1      10.267  16.377   0.766  1.00  0.00    -0.394 N 
HETATM   32  C23 UNL     1      10.781  16.080  -1.642  1.00  0.00     0.133 C 
HETATM   33  C20 UNL     1      10.569  15.054   1.067  1.00  0.00     0.062 C 
ATOM     34  H5  UNL     1      10.019  16.995   1.539  1.00  0.00     0.159 HD
HETATM   35  C21 UNL     1       9.982  13.969   0.262  1.00  0.00     0.048 C 
HETATM   36  C22 UNL     1      11.109  13.403  -0.622  1.00  0.00     0.086 C 
HETATM   37  C24 UNL     1       8.808  14.263  -0.592  1.00  0.00     0.076 C 
HETATM   38  S1  UNL     1      12.060  14.881  -1.153  1.00  0.00    -0.151 SA
HETATM   39  S2  UNL     1       9.341  15.050  -2.149  1.00  0.00    -0.144 SA
ENDBRANCH  24  25
ENDBRANCH  23  24
ENDBRANCH  22  23
ENDBRANCH   1  22
BRANCH   1  40
HETATM   40  C26 UNL     1       6.718  18.622   5.005  1.00  0.00     0.137 C 
HETATM   41  C27 UNL     1       5.789  19.752   5.239  1.00  0.00     0.091 C 
HETATM   42  O5  UNL     1       7.399  18.264   5.980  1.00  0.00    -0.297 OA
ENDBRANCH   1  40
TORSDOF 15
ENDMDL
