MODEL 1
REMARK VINA RESULT: -5.309346167      0.000      0.000
REMARK  3 active torsions:
REMARK  status: ('A' for Active; 'I' for Inactive)
REMARK    1  A    between atoms: N1_1  and  C1_5 
REMARK    2  A    between atoms: C1_5  and  C2_6 
REMARK    3  A    between atoms: N2_10  and  C6_11 
ROOT
HETATM    1  C2  UNL     1      11.384  10.340  48.730  1.00  0.00     0.039 C 
HETATM    2  C3  UNL     1      10.311  11.220  49.332  1.00  0.00     0.010 C 
HETATM    3  C4  UNL     1      10.303  12.517  48.594  1.00  0.00     0.031 C 
HETATM    4  C5  UNL     1      11.611  12.697  47.838  1.00  0.00     0.273 C 
HETATM    5  N2  UNL     1      11.809  11.686  46.843  1.00  0.00     0.093 N 
HETATM    6  C12 UNL     1      11.282  10.411  47.215  1.00  0.00     0.279 C 
ENDROOT
BRANCH   5   7
HETATM    7  C6  UNL     1      11.452  12.181  45.569  1.00  0.00     0.223 C 
HETATM    8  C7  UNL     1      12.267  11.621  44.428  1.00  0.00     0.036 C 
HETATM    9  C8  UNL     1      11.607  12.146  43.153  1.00  0.00     0.002 C 
HETATM   10  C9  UNL     1      11.515  13.637  43.127  1.00  0.00     0.000 C 
HETATM   11  C10 UNL     1      10.917  14.230  44.388  1.00  0.00     0.002 C 
HETATM   12  C11 UNL     1      11.732  13.693  45.548  1.00  0.00     0.036 C 
ENDBRANCH   5   7
BRANCH   1  13
HETATM   13  C1  UNL     1      11.239   8.937  49.254  1.00  0.00     0.236 C 
BRANCH  13  14
HETATM   14  N1  UNL     1      11.494   8.045  48.128  1.00  0.00    -0.079 N 
ATOM     15  H13 UNL     1      11.895   8.520  47.319  1.00  0.00     0.274 HD
ATOM     16  H12 UNL     1      12.266   7.399  48.291  1.00  0.00     0.274 HD
ATOM     17  H11 UNL     1      10.612   7.574  47.923  1.00  0.00     0.274 HD
ENDBRANCH  13  14
ENDBRANCH   1  13
TORSDOF 3
ENDMDL
MODEL 2
REMARK VINA RESULT: -5.151316386      1.075      1.246
REMARK  3 active torsions:
REMARK  status: ('A' for Active; 'I' for Inactive)
REMARK    1  A    between atoms: N1_1  and  C1_5 
REMARK    2  A    between atoms: C1_5  and  C2_6 
REMARK    3  A    between atoms: N2_10  and  C6_11 
ROOT
HETATM    1  C2  UNL     1      11.464  10.112  47.536  1.00  0.00     0.039 C 
HETATM    2  C3  UNL     1      10.660  10.801  48.615  1.00  0.00     0.010 C 
HETATM    3  C4  UNL     1      10.737  12.273  48.387  1.00  0.00     0.031 C 
HETATM    4  C5  UNL     1      11.915  12.601  47.480  1.00  0.00     0.273 C 
HETATM    5  N2  UNL     1      11.782  12.013  46.182  1.00  0.00     0.093 N 
HETATM    6  C12 UNL     1      11.127  10.744  46.195  1.00  0.00     0.279 C 
ENDROOT
BRANCH   5   7
HETATM    7  C6  UNL     1      11.304  12.972  45.261  1.00  0.00     0.223 C 
HETATM    8  C7  UNL     1      11.616  12.665  43.816  1.00  0.00     0.036 C 
HETATM    9  C8  UNL     1      10.868  13.718  42.999  1.00  0.00     0.002 C 
HETATM   10  C9  UNL     1      11.232  15.113  43.390  1.00  0.00     0.000 C 
HETATM   11  C10 UNL     1      11.158  15.363  44.883  1.00  0.00     0.002 C 
HETATM   12  C11 UNL     1      12.019  14.304  45.543  1.00  0.00     0.036 C 
ENDBRANCH   5   7
BRANCH   1  13
HETATM   13  C1  UNL     1      11.185   8.634  47.564  1.00  0.00     0.236 C 
BRANCH  13  14
HETATM   14  N1  UNL     1      10.832   8.251  46.200  1.00  0.00    -0.079 N 
ATOM     15  H13 UNL     1      10.265   7.405  46.153  1.00  0.00     0.274 HD
ATOM     16  H12 UNL     1      10.157   8.881  45.767  1.00  0.00     0.274 HD
ATOM     17  H11 UNL     1      11.707   8.180  45.682  1.00  0.00     0.274 HD
ENDBRANCH  13  14
ENDBRANCH   1  13
TORSDOF 3
ENDMDL
MODEL 3
REMARK VINA RESULT: -5.070632367      1.685      2.732
REMARK  3 active torsions:
REMARK  status: ('A' for Active; 'I' for Inactive)
REMARK    1  A    between atoms: N1_1  and  C1_5 
REMARK    2  A    between atoms: C1_5  and  C2_6 
REMARK    3  A    between atoms: N2_10  and  C6_11 
ROOT
HETATM    1  C2  UNL     1      11.549  10.926  46.587  1.00  0.00     0.039 C 
HETATM    2  C3  UNL     1      10.839  12.160  47.094  1.00  0.00     0.010 C 
HETATM    3  C4  UNL     1      11.375  13.342  46.358  1.00  0.00     0.031 C 
HETATM    4  C5  UNL     1      12.713  12.998  45.718  1.00  0.00     0.273 C 
HETATM    5  N2  UNL     1      12.597  11.954  44.745  1.00  0.00     0.093 N 
HETATM    6  C12 UNL     1      11.604  10.980  45.069  1.00  0.00     0.279 C 
ENDROOT
BRANCH   5   7
HETATM    7  C6  UNL     1      12.556  12.505  43.445  1.00  0.00     0.223 C 
HETATM    8  C7  UNL     1      11.178  12.914  42.980  1.00  0.00     0.036 C 
HETATM    9  C8  UNL     1      11.388  13.634  41.649  1.00  0.00     0.002 C 
HETATM   10  C9  UNL     1      12.114  12.792  40.650  1.00  0.00     0.000 C 
HETATM   11  C10 UNL     1      13.385  12.171  41.191  1.00  0.00     0.002 C 
HETATM   12  C11 UNL     1      13.000  11.420  42.450  1.00  0.00     0.036 C 
ENDBRANCH   5   7
BRANCH   1  13
HETATM   13  C1  UNL     1      10.849   9.695  47.096  1.00  0.00     0.236 C 
BRANCH  13  14
HETATM   14  N1  UNL     1      10.737   8.782  45.963  1.00  0.00    -0.079 N 
ATOM     15  H13 UNL     1      10.248   9.187  45.165  1.00  0.00     0.274 HD
ATOM     16  H12 UNL     1      11.626   8.610  45.493  1.00  0.00     0.274 HD
ATOM     17  H11 UNL     1      10.297   7.932  46.316  1.00  0.00     0.274 HD
ENDBRANCH  13  14
ENDBRANCH   1  13
TORSDOF 3
ENDMDL
MODEL 4
REMARK VINA RESULT: -5.027366397      1.580      5.118
REMARK  3 active torsions:
REMARK  status: ('A' for Active; 'I' for Inactive)
REMARK    1  A    between atoms: N1_1  and  C1_5 
REMARK    2  A    between atoms: C1_5  and  C2_6 
REMARK    3  A    between atoms: N2_10  and  C6_11 
ROOT
HETATM    1  C2  UNL     1      11.877  12.386  44.522  1.00  0.00     0.039 C 
HETATM    2  C3  UNL     1      12.720  13.316  45.366  1.00  0.00     0.010 C 
HETATM    3  C4  UNL     1      12.204  13.272  46.765  1.00  0.00     0.031 C 
HETATM    4  C5  UNL     1      10.791  12.707  46.786  1.00  0.00     0.273 C 
HETATM    5  N2  UNL     1      10.738  11.357  46.311  1.00  0.00     0.093 N 
HETATM    6  C12 UNL     1      11.684  11.080  45.277  1.00  0.00     0.279 C 
ENDROOT
BRANCH   5   7
HETATM    7  C6  UNL     1      10.698  10.460  47.401  1.00  0.00     0.223 C 
HETATM    8  C7  UNL     1      11.186  11.038  48.708  1.00  0.00     0.036 C 
HETATM    9  C8  UNL     1      10.894   9.974  49.765  1.00  0.00     0.002 C 
HETATM   10  C9  UNL     1      11.519   8.656  49.441  1.00  0.00     0.000 C 
HETATM   11  C10 UNL     1      11.234   8.181  48.031  1.00  0.00     0.002 C 
HETATM   12  C11 UNL     1      11.661   9.299  47.101  1.00  0.00     0.036 C 
ENDBRANCH   5   7
BRANCH   1  13
HETATM   13  C1  UNL     1      12.530  12.188  43.182  1.00  0.00     0.236 C 
BRANCH  13  14
HETATM   14  N1  UNL     1      11.710  11.221  42.458  1.00  0.00    -0.079 N 
ATOM     15  H13 UNL     1      12.038  10.260  42.557  1.00  0.00     0.274 HD
ATOM     16  H12 UNL     1      10.788  11.084  42.872  1.00  0.00     0.274 HD
ATOM     17  H11 UNL     1      11.674  11.538  41.489  1.00  0.00     0.274 HD
ENDBRANCH  13  14
ENDBRANCH   1  13
TORSDOF 3
ENDMDL
MODEL 5
REMARK VINA RESULT: -5.005833103      1.806      5.513
REMARK  3 active torsions:
REMARK  status: ('A' for Active; 'I' for Inactive)
REMARK    1  A    between atoms: N1_1  and  C1_5 
REMARK    2  A    between atoms: C1_5  and  C2_6 
REMARK    3  A    between atoms: N2_10  and  C6_11 
ROOT
HETATM    1  C2  UNL     1      11.518  14.960  44.560  1.00  0.00     0.039 C 
HETATM    2  C3  UNL     1      11.093  14.269  43.284  1.00  0.00     0.010 C 
HETATM    3  C4  UNL     1      11.338  12.805  43.442  1.00  0.00     0.031 C 
HETATM    4  C5  UNL     1      12.316  12.558  44.581  1.00  0.00     0.273 C 
HETATM    5  N2  UNL     1      11.806  13.004  45.842  1.00  0.00     0.093 N 
HETATM    6  C12 UNL     1      10.986  14.170  45.745  1.00  0.00     0.279 C 
ENDROOT
BRANCH   5   7
HETATM    7  C6  UNL     1      11.282  11.911  46.569  1.00  0.00     0.223 C 
HETATM    8  C7  UNL     1      11.638  11.905  48.037  1.00  0.00     0.036 C 
HETATM    9  C8  UNL     1      10.837  10.757  48.650  1.00  0.00     0.002 C 
HETATM   10  C9  UNL     1      11.104   9.449  47.981  1.00  0.00     0.000 C 
HETATM   11  C10 UNL     1      10.990   9.506  46.471  1.00  0.00     0.002 C 
HETATM   12  C11 UNL     1      11.905  10.622  46.008  1.00  0.00     0.036 C 
ENDBRANCH   5   7
BRANCH   1  13
HETATM   13  C1  UNL     1      11.033  16.384  44.549  1.00  0.00     0.236 C 
BRANCH  13  14
HETATM   14  N1  UNL     1      10.302  16.583  45.797  1.00  0.00    -0.079 N 
ATOM     15  H13 UNL     1      10.455  15.839  46.477  1.00  0.00     0.274 HD
ATOM     16  H12 UNL     1      10.668  17.349  46.361  1.00  0.00     0.274 HD
ATOM     17  H11 UNL     1       9.321  16.702  45.543  1.00  0.00     0.274 HD
ENDBRANCH  13  14
ENDBRANCH   1  13
TORSDOF 3
ENDMDL
