MODEL 1
REMARK VINA RESULT: -9.053530582      0.000      0.000
REMARK  13 active torsions:
REMARK  status: ('A' for Active; 'I' for Inactive)
REMARK    1  A    between atoms: C2_2  and  C3_3 
REMARK    2  A    between atoms: C3_3  and  C4_4 
REMARK    3  A    between atoms: C4_4  and  C5_5 
REMARK    4  A    between atoms: C5_5  and  O1_6 
REMARK    5  A    between atoms: O1_6  and  C6_7 
REMARK       I    between atoms: C6_7  and  N1_9 
REMARK       I    between atoms: N2_12  and  C9_13 
REMARK    6  A    between atoms: C9_13  and  C10_15 
REMARK    7  A    between atoms: N3_22  and  C17_23 
REMARK    8  A    between atoms: C17_23  and  C18_24 
REMARK       I    between atoms: C18_24  and  N4_26 
REMARK    9  A    between atoms: N4_26  and  C19_28 
REMARK   10  A    between atoms: C19_28  and  C27_36 
REMARK   11  A    between atoms: C20_29  and  C21_30 
REMARK   12  A    between atoms: C27_36  and  C28_38 
REMARK   13  A    between atoms: C28_38  and  O6_40 
ROOT
HETATM    1  C10 UNL     1     -17.979  -1.248   4.360  1.00  0.00     0.314 C 
HETATM    2  C11 UNL     1     -16.608  -1.228   5.040  1.00  0.00     0.046 C 
HETATM    3  C12 UNL     1     -16.594  -0.609   6.378  1.00  0.00     0.014 C 
HETATM    4  C13 UNL     1     -17.792  -0.845   7.214  1.00  0.00    -0.014 A 
HETATM    5  C14 UNL     1     -17.617  -1.589   8.552  1.00  0.00     0.012 A 
HETATM    6  C15 UNL     1     -17.896  -0.151   8.545  1.00  0.00     0.012 A 
HETATM    7  C16 UNL     1     -19.035  -1.188   6.484  1.00  0.00     0.283 C 
HETATM    8  N3  UNL     1     -18.917  -1.894   5.249  1.00  0.00     0.111 N 
ENDROOT
BRANCH   8   9
HETATM    9  C17 UNL     1     -18.358  -3.183   5.544  1.00  0.00     0.376 C 
BRANCH   9  10
HETATM   10  C18 UNL     1     -18.195  -4.075   4.344  1.00  0.00     0.250 C 
HETATM   11  O4  UNL     1     -19.184  -4.272   3.667  1.00  0.00    -0.271 OA
HETATM   12  N4  UNL     1     -16.910  -4.609   4.090  1.00  0.00    -0.322 N 
ATOM     13  H4  UNL     1     -16.223  -4.310   4.783  1.00  0.00     0.169 HD
BRANCH  12  14
HETATM   14  C19 UNL     1     -16.352  -5.451   3.115  1.00  0.00     0.086 C 
HETATM   15  C20 UNL     1     -16.034  -5.027   1.783  1.00  0.00     0.012 C 
BRANCH  15  16
HETATM   16  C21 UNL     1     -16.743  -4.538   0.622  1.00  0.00     0.010 C 
HETATM   17  C22 UNL     1     -16.140  -4.665  -0.738  1.00  0.00     0.008 C 
HETATM   18  C23 UNL     1     -17.285  -4.481  -1.739  1.00  0.00     0.001 C 
HETATM   19  C24 UNL     1     -17.721  -3.050  -1.598  1.00  0.00     0.000 C 
HETATM   20  C25 UNL     1     -17.055  -2.306  -0.478  1.00  0.00     0.001 C 
HETATM   21  C26 UNL     1     -16.962  -2.995   0.827  1.00  0.00     0.008 C 
ENDBRANCH  15  16
BRANCH  14  22
HETATM   22  C27 UNL     1     -16.597  -6.887   3.436  1.00  0.00     0.245 C 
HETATM   23  O5  UNL     1     -15.696  -7.717   3.172  1.00  0.00    -0.282 OA
BRANCH  22  24
HETATM   24  C28 UNL     1     -17.782  -7.488   4.054  1.00  0.00     0.203 C 
HETATM   25  N5  UNL     1     -17.991  -7.490   5.425  1.00  0.00    -0.071 NA
BRANCH  24  26
HETATM   26  O6  UNL     1     -18.941  -7.193   3.339  1.00  0.00    -0.345 OA
ATOM     27  H6  UNL     1     -19.305  -6.353   3.591  1.00  0.00     0.219 HD
ENDBRANCH  24  26
ENDBRANCH  22  24
ENDBRANCH  14  22
ENDBRANCH  12  14
ENDBRANCH   9  10
ENDBRANCH   8   9
BRANCH   1  28
HETATM   28  C9  UNL     1     -18.337   0.091   3.900  1.00  0.00     0.253 C 
HETATM   29  N2  UNL     1     -18.981   0.356   2.685  1.00  0.00    -0.347 N 
HETATM   30  C8  UNL     1     -19.214   1.714   2.255  1.00  0.00     0.145 C 
HETATM   31  C29 UNL     1     -19.467  -0.707   1.857  1.00  0.00     0.145 C 
HETATM   32  C7  UNL     1     -18.635   1.882   0.820  1.00  0.00     0.148 C 
HETATM   33  N1  UNL     1     -19.247   0.886  -0.041  1.00  0.00    -0.325 N 
HETATM   34  C6  UNL     1     -19.191   1.023  -1.442  1.00  0.00     0.362 C 
HETATM   35  C30 UNL     1     -19.937  -0.262   0.502  1.00  0.00     0.148 C 
HETATM   36  O2  UNL     1     -19.785   0.120  -2.151  1.00  0.00    -0.238 OA
HETATM   37  O3  UNL     1     -18.050   1.083   4.633  1.00  0.00    -0.271 OA
BRANCH  34  38
HETATM   38  O1  UNL     1     -18.581   2.003  -2.173  1.00  0.00    -0.304 OA
BRANCH  38  39
HETATM   39  C5  UNL     1     -17.474   1.768  -2.974  1.00  0.00     0.180 C 
BRANCH  39  40
HETATM   40  C4  UNL     1     -17.686   1.693  -4.442  1.00  0.00     0.027 C 
BRANCH  40  41
HETATM   41  C3  UNL     1     -17.137   0.463  -5.111  1.00  0.00     0.002 C 
BRANCH  41  42
HETATM   42  C2  UNL     1     -18.246  -0.307  -5.807  1.00  0.00    -0.004 C 
HETATM   43  C1  UNL     1     -18.605  -1.530  -4.996  1.00  0.00     0.005 C 
ENDBRANCH  41  42
ENDBRANCH  40  41
ENDBRANCH  39  40
ENDBRANCH  38  39
ENDBRANCH  34  38
ENDBRANCH   1  28
TORSDOF 13
ENDMDL
MODEL 2
REMARK VINA RESULT: -8.866341888      3.740     10.737
REMARK  13 active torsions:
REMARK  status: ('A' for Active; 'I' for Inactive)
REMARK    1  A    between atoms: C2_2  and  C3_3 
REMARK    2  A    between atoms: C3_3  and  C4_4 
REMARK    3  A    between atoms: C4_4  and  C5_5 
REMARK    4  A    between atoms: C5_5  and  O1_6 
REMARK    5  A    between atoms: O1_6  and  C6_7 
REMARK       I    between atoms: C6_7  and  N1_9 
REMARK       I    between atoms: N2_12  and  C9_13 
REMARK    6  A    between atoms: C9_13  and  C10_15 
REMARK    7  A    between atoms: N3_22  and  C17_23 
REMARK    8  A    between atoms: C17_23  and  C18_24 
REMARK       I    between atoms: C18_24  and  N4_26 
REMARK    9  A    between atoms: N4_26  and  C19_28 
REMARK   10  A    between atoms: C19_28  and  C27_36 
REMARK   11  A    between atoms: C20_29  and  C21_30 
REMARK   12  A    between atoms: C27_36  and  C28_38 
REMARK   13  A    between atoms: C28_38  and  O6_40 
ROOT
HETATM    1  C10 UNL     1     -18.243   1.885  -1.633  1.00  0.00     0.314 C 
HETATM    2  C11 UNL     1     -16.894   1.198  -1.853  1.00  0.00     0.046 C 
HETATM    3  C12 UNL     1     -16.830   0.338  -3.049  1.00  0.00     0.014 C 
HETATM    4  C13 UNL     1     -17.579   0.816  -4.232  1.00  0.00    -0.014 A 
HETATM    5  C14 UNL     1     -16.793   1.121  -5.524  1.00  0.00     0.012 A 
HETATM    6  C15 UNL     1     -17.650  -0.065  -5.450  1.00  0.00     0.012 A 
HETATM    7  C16 UNL     1     -18.691   1.756  -3.960  1.00  0.00     0.283 C 
HETATM    8  N3  UNL     1     -18.579   2.621  -2.830  1.00  0.00     0.111 N 
ENDROOT
BRANCH   8   9
HETATM    9  C17 UNL     1     -17.473   3.503  -3.074  1.00  0.00     0.376 C 
BRANCH   9  10
HETATM   10  C18 UNL     1     -17.753   4.577  -4.090  1.00  0.00     0.250 C 
HETATM   11  O4  UNL     1     -18.741   5.259  -3.912  1.00  0.00    -0.271 OA
HETATM   12  N4  UNL     1     -16.847   4.715  -5.168  1.00  0.00    -0.322 N 
ATOM     13  H4  UNL     1     -16.083   4.041  -5.120  1.00  0.00     0.169 HD
BRANCH  12  14
HETATM   14  C19 UNL     1     -16.746   5.556  -6.287  1.00  0.00     0.086 C 
HETATM   15  C20 UNL     1     -17.310   5.250  -7.570  1.00  0.00     0.012 C 
BRANCH  15  16
HETATM   16  C21 UNL     1     -17.137   4.248  -8.597  1.00  0.00     0.010 C 
HETATM   17  C22 UNL     1     -17.587   4.518  -9.996  1.00  0.00     0.008 C 
HETATM   18  C23 UNL     1     -16.877   3.492 -10.885  1.00  0.00     0.001 C 
HETATM   19  C24 UNL     1     -17.451   2.157 -10.503  1.00  0.00     0.000 C 
HETATM   20  C25 UNL     1     -18.381   2.196  -9.326  1.00  0.00     0.001 C 
HETATM   21  C26 UNL     1     -17.945   2.977  -8.148  1.00  0.00     0.008 C 
ENDBRANCH  15  16
BRANCH  14  22
HETATM   22  C27 UNL     1     -15.606   6.508  -6.146  1.00  0.00     0.245 C 
HETATM   23  O5  UNL     1     -15.066   6.947  -7.189  1.00  0.00    -0.282 OA
BRANCH  22  24
HETATM   24  C28 UNL     1     -15.012   7.034  -4.915  1.00  0.00     0.203 C 
HETATM   25  N5  UNL     1     -15.762   7.659  -3.931  1.00  0.00    -0.071 NA
BRANCH  24  26
HETATM   26  O6  UNL     1     -14.062   6.163  -4.387  1.00  0.00    -0.345 OA
ATOM     27  H6  UNL     1     -13.255   6.614  -4.169  1.00  0.00     0.219 HD
ENDBRANCH  24  26
ENDBRANCH  22  24
ENDBRANCH  14  22
ENDBRANCH  12  14
ENDBRANCH   9  10
ENDBRANCH   8   9
BRANCH   1  28
HETATM   28  C9  UNL     1     -19.234   0.918  -1.167  1.00  0.00     0.253 C 
HETATM   29  N2  UNL     1     -19.230   0.346   0.113  1.00  0.00    -0.347 N 
HETATM   30  C8  UNL     1     -20.185  -0.675   0.467  1.00  0.00     0.145 C 
HETATM   31  C29 UNL     1     -18.310   0.788   1.118  1.00  0.00     0.145 C 
HETATM   32  C7  UNL     1     -19.409  -1.905   1.021  1.00  0.00     0.148 C 
HETATM   33  N1  UNL     1     -18.588  -1.464   2.135  1.00  0.00    -0.325 N 
HETATM   34  C6  UNL     1     -18.061  -2.401   3.046  1.00  0.00     0.362 C 
HETATM   35  C30 UNL     1     -18.295  -0.066   2.353  1.00  0.00     0.148 C 
HETATM   36  O2  UNL     1     -17.367  -1.941   4.035  1.00  0.00    -0.238 OA
HETATM   37  O3  UNL     1     -20.157   0.563  -1.956  1.00  0.00    -0.271 OA
BRANCH  34  38
HETATM   38  O1  UNL     1     -18.184  -3.761   3.029  1.00  0.00    -0.304 OA
BRANCH  38  39
HETATM   39  C5  UNL     1     -17.201  -4.602   2.531  1.00  0.00     0.180 C 
BRANCH  39  40
HETATM   40  C4  UNL     1     -17.316  -5.039   1.117  1.00  0.00     0.027 C 
BRANCH  40  41
HETATM   41  C3  UNL     1     -16.386  -4.355   0.153  1.00  0.00     0.002 C 
BRANCH  41  42
HETATM   42  C2  UNL     1     -16.901  -4.485  -1.270  1.00  0.00    -0.004 C 
HETATM   43  C1  UNL     1     -17.409  -3.146  -1.752  1.00  0.00     0.005 C 
ENDBRANCH  41  42
ENDBRANCH  40  41
ENDBRANCH  39  40
ENDBRANCH  38  39
ENDBRANCH  34  38
ENDBRANCH   1  28
TORSDOF 13
ENDMDL
MODEL 3
REMARK VINA RESULT: -8.812246529      2.536      9.365
REMARK  13 active torsions:
REMARK  status: ('A' for Active; 'I' for Inactive)
REMARK    1  A    between atoms: C2_2  and  C3_3 
REMARK    2  A    between atoms: C3_3  and  C4_4 
REMARK    3  A    between atoms: C4_4  and  C5_5 
REMARK    4  A    between atoms: C5_5  and  O1_6 
REMARK    5  A    between atoms: O1_6  and  C6_7 
REMARK       I    between atoms: C6_7  and  N1_9 
REMARK       I    between atoms: N2_12  and  C9_13 
REMARK    6  A    between atoms: C9_13  and  C10_15 
REMARK    7  A    between atoms: N3_22  and  C17_23 
REMARK    8  A    between atoms: C17_23  and  C18_24 
REMARK       I    between atoms: C18_24  and  N4_26 
REMARK    9  A    between atoms: N4_26  and  C19_28 
REMARK   10  A    between atoms: C19_28  and  C27_36 
REMARK   11  A    between atoms: C20_29  and  C21_30 
REMARK   12  A    between atoms: C27_36  and  C28_38 
REMARK   13  A    between atoms: C28_38  and  O6_40 
ROOT
HETATM    1  C10 UNL     1     -18.172  -2.685  -0.942  1.00  0.00     0.314 C 
HETATM    2  C11 UNL     1     -19.222  -2.152   0.035  1.00  0.00     0.046 C 
HETATM    3  C12 UNL     1     -18.711  -1.175   1.014  1.00  0.00     0.014 C 
HETATM    4  C13 UNL     1     -17.671  -0.245   0.521  1.00  0.00    -0.014 A 
HETATM    5  C14 UNL     1     -17.973   1.267   0.531  1.00  0.00     0.012 A 
HETATM    6  C15 UNL     1     -17.024   0.703   1.494  1.00  0.00     0.012 A 
HETATM    7  C16 UNL     1     -16.898  -0.703  -0.657  1.00  0.00     0.283 C 
HETATM    8  N3  UNL     1     -17.547  -1.559  -1.597  1.00  0.00     0.111 N 
ENDROOT
BRANCH   8   9
HETATM    9  C17 UNL     1     -18.615  -0.807  -2.194  1.00  0.00     0.376 C 
BRANCH   9  10
HETATM   10  C18 UNL     1     -18.158   0.290  -3.115  1.00  0.00     0.250 C 
HETATM   11  O4  UNL     1     -17.116   0.108  -3.713  1.00  0.00    -0.271 OA
HETATM   12  N4  UNL     1     -18.970   1.443  -3.221  1.00  0.00    -0.322 N 
ATOM     13  H4  UNL     1     -19.802   1.385  -2.634  1.00  0.00     0.169 HD
BRANCH  12  14
HETATM   14  C19 UNL     1     -18.908   2.648  -3.939  1.00  0.00     0.086 C 
HETATM   15  C20 UNL     1     -19.015   2.732  -5.366  1.00  0.00     0.012 C 
BRANCH  15  16
HETATM   16  C21 UNL     1     -18.273   2.277  -6.519  1.00  0.00     0.010 C 
HETATM   17  C22 UNL     1     -18.407   2.981  -7.829  1.00  0.00     0.008 C 
HETATM   18  C23 UNL     1     -17.203   2.557  -8.675  1.00  0.00     0.001 C 
HETATM   19  C24 UNL     1     -17.400   1.093  -8.956  1.00  0.00     0.000 C 
HETATM   20  C25 UNL     1     -18.566   0.476  -8.240  1.00  0.00     0.001 C 
HETATM   21  C26 UNL     1     -18.722   0.798  -6.806  1.00  0.00     0.008 C 
ENDBRANCH  15  16
BRANCH  14  22
HETATM   22  C27 UNL     1     -18.232   3.716  -3.145  1.00  0.00     0.245 C 
HETATM   23  O5  UNL     1     -16.999   3.879  -3.298  1.00  0.00    -0.282 OA
BRANCH  22  24
HETATM   24  C28 UNL     1     -18.830   4.646  -2.184  1.00  0.00     0.203 C 
HETATM   25  N5  UNL     1     -19.269   5.911  -2.541  1.00  0.00    -0.071 NA
BRANCH  24  26
HETATM   26  O6  UNL     1     -19.715   3.999  -1.323  1.00  0.00    -0.345 OA
ATOM     27  H6  UNL     1     -20.314   4.610  -0.911  1.00  0.00     0.219 HD
ENDBRANCH  24  26
ENDBRANCH  22  24
ENDBRANCH  14  22
ENDBRANCH  12  14
ENDBRANCH   9  10
ENDBRANCH   8   9
BRANCH   1  28
HETATM   28  C9  UNL     1     -17.277  -3.619  -0.263  1.00  0.00     0.253 C 
HETATM   29  N2  UNL     1     -17.699  -4.561   0.685  1.00  0.00    -0.347 N 
HETATM   30  C8  UNL     1     -16.741  -5.383   1.385  1.00  0.00     0.145 C 
HETATM   31  C29 UNL     1     -19.091  -4.766   0.955  1.00  0.00     0.145 C 
HETATM   32  C7  UNL     1     -16.989  -5.235   2.914  1.00  0.00     0.148 C 
HETATM   33  N1  UNL     1     -18.371  -5.588   3.190  1.00  0.00    -0.325 N 
HETATM   34  C6  UNL     1     -18.780  -5.890   4.503  1.00  0.00     0.362 C 
HETATM   35  C30 UNL     1     -19.361  -5.650   2.139  1.00  0.00     0.148 C 
HETATM   36  O2  UNL     1     -20.016  -6.230   4.677  1.00  0.00    -0.238 OA
HETATM   37  O3  UNL     1     -16.041  -3.585  -0.535  1.00  0.00    -0.271 OA
BRANCH  34  38
HETATM   38  O1  UNL     1     -18.035  -5.874   5.648  1.00  0.00    -0.304 OA
BRANCH  38  39
HETATM   39  C5  UNL     1     -17.771  -4.716   6.362  1.00  0.00     0.180 C 
BRANCH  39  40
HETATM   40  C4  UNL     1     -18.509  -3.485   5.981  1.00  0.00     0.027 C 
BRANCH  40  41
HETATM   41  C3  UNL     1     -17.660  -2.362   5.452  1.00  0.00     0.002 C 
BRANCH  41  42
HETATM   42  C2  UNL     1     -18.511  -1.364   4.685  1.00  0.00    -0.004 C 
HETATM   43  C1  UNL     1     -18.114   0.043   5.067  1.00  0.00     0.005 C 
ENDBRANCH  41  42
ENDBRANCH  40  41
ENDBRANCH  39  40
ENDBRANCH  38  39
ENDBRANCH  34  38
ENDBRANCH   1  28
TORSDOF 13
ENDMDL
MODEL 4
REMARK VINA RESULT: -8.702477490      3.901     10.848
REMARK  13 active torsions:
REMARK  status: ('A' for Active; 'I' for Inactive)
REMARK    1  A    between atoms: C2_2  and  C3_3 
REMARK    2  A    between atoms: C3_3  and  C4_4 
REMARK    3  A    between atoms: C4_4  and  C5_5 
REMARK    4  A    between atoms: C5_5  and  O1_6 
REMARK    5  A    between atoms: O1_6  and  C6_7 
REMARK       I    between atoms: C6_7  and  N1_9 
REMARK       I    between atoms: N2_12  and  C9_13 
REMARK    6  A    between atoms: C9_13  and  C10_15 
REMARK    7  A    between atoms: N3_22  and  C17_23 
REMARK    8  A    between atoms: C17_23  and  C18_24 
REMARK       I    between atoms: C18_24  and  N4_26 
REMARK    9  A    between atoms: N4_26  and  C19_28 
REMARK   10  A    between atoms: C19_28  and  C27_36 
REMARK   11  A    between atoms: C20_29  and  C21_30 
REMARK   12  A    between atoms: C27_36  and  C28_38 
REMARK   13  A    between atoms: C28_38  and  O6_40 
ROOT
HETATM    1  C10 UNL     1     -18.242   1.941  -1.728  1.00  0.00     0.314 C 
HETATM    2  C11 UNL     1     -16.901   1.233  -1.932  1.00  0.00     0.046 C 
HETATM    3  C12 UNL     1     -16.855   0.329  -3.095  1.00  0.00     0.014 C 
HETATM    4  C13 UNL     1     -17.609   0.769  -4.290  1.00  0.00    -0.014 A 
HETATM    5  C14 UNL     1     -16.831   1.018  -5.598  1.00  0.00     0.012 A 
HETATM    6  C15 UNL     1     -17.699  -0.156  -5.473  1.00  0.00     0.012 A 
HETATM    7  C16 UNL     1     -18.709   1.730  -4.045  1.00  0.00     0.283 C 
HETATM    8  N3  UNL     1     -18.580   2.636  -2.949  1.00  0.00     0.111 N 
ENDROOT
BRANCH   8   9
HETATM    9  C17 UNL     1     -17.468   3.497  -3.234  1.00  0.00     0.376 C 
BRANCH   9  10
HETATM   10  C18 UNL     1     -17.709   4.463  -4.361  1.00  0.00     0.250 C 
HETATM   11  O4  UNL     1     -18.726   5.126  -4.310  1.00  0.00    -0.271 OA
HETATM   12  N4  UNL     1     -16.739   4.533  -5.388  1.00  0.00    -0.322 N 
ATOM     13  H4  UNL     1     -15.961   3.892  -5.230  1.00  0.00     0.169 HD
BRANCH  12  14
HETATM   14  C19 UNL     1     -16.587   5.272  -6.572  1.00  0.00     0.086 C 
HETATM   15  C20 UNL     1     -17.369   5.055  -7.754  1.00  0.00     0.012 C 
BRANCH  15  16
HETATM   16  C21 UNL     1     -17.575   3.996  -8.716  1.00  0.00     0.010 C 
HETATM   17  C22 UNL     1     -16.839   2.703  -8.583  1.00  0.00     0.008 C 
HETATM   18  C23 UNL     1     -17.589   1.686  -9.448  1.00  0.00     0.001 C 
HETATM   19  C24 UNL     1     -17.400   2.141 -10.868  1.00  0.00     0.000 C 
HETATM   20  C25 UNL     1     -16.705   3.464 -11.007  1.00  0.00     0.001 C 
HETATM   21  C26 UNL     1     -17.157   4.559 -10.122  1.00  0.00     0.008 C 
ENDBRANCH  15  16
BRANCH  14  22
HETATM   22  C27 UNL     1     -15.244   5.920  -6.636  1.00  0.00     0.245 C 
HETATM   23  O5  UNL     1     -14.415   5.487  -7.471  1.00  0.00    -0.282 OA
BRANCH  22  24
HETATM   24  C28 UNL     1     -14.742   7.043  -5.841  1.00  0.00     0.203 C 
HETATM   25  N5  UNL     1     -14.366   8.251  -6.408  1.00  0.00    -0.071 NA
BRANCH  24  26
HETATM   26  O6  UNL     1     -15.471   7.210  -4.666  1.00  0.00    -0.345 OA
ATOM     27  H6  UNL     1     -14.922   7.511  -3.952  1.00  0.00     0.219 HD
ENDBRANCH  24  26
ENDBRANCH  22  24
ENDBRANCH  14  22
ENDBRANCH  12  14
ENDBRANCH   9  10
ENDBRANCH   8   9
BRANCH   1  28
HETATM   28  C9  UNL     1     -19.239   1.003  -1.218  1.00  0.00     0.253 C 
HETATM   29  N2  UNL     1     -19.219   0.464   0.076  1.00  0.00    -0.347 N 
HETATM   30  C8  UNL     1     -20.183  -0.533   0.474  1.00  0.00     0.145 C 
HETATM   31  C29 UNL     1     -18.273   0.917   1.052  1.00  0.00     0.145 C 
HETATM   32  C7  UNL     1     -19.415  -1.760   1.045  1.00  0.00     0.148 C 
HETATM   33  N1  UNL     1     -18.566  -1.305   2.132  1.00  0.00    -0.325 N 
HETATM   34  C6  UNL     1     -18.036  -2.226   3.056  1.00  0.00     0.362 C 
HETATM   35  C30 UNL     1     -18.247   0.094   2.308  1.00  0.00     0.148 C 
HETATM   36  O2  UNL     1     -17.316  -1.752   4.020  1.00  0.00    -0.238 OA
HETATM   37  O3  UNL     1     -20.182   0.643  -1.981  1.00  0.00    -0.271 OA
BRANCH  34  38
HETATM   38  O1  UNL     1     -18.181  -3.584   3.077  1.00  0.00    -0.304 OA
BRANCH  38  39
HETATM   39  C5  UNL     1     -17.229  -4.452   2.566  1.00  0.00     0.180 C 
BRANCH  39  40
HETATM   40  C4  UNL     1     -17.395  -4.915   1.165  1.00  0.00     0.027 C 
BRANCH  40  41
HETATM   41  C3  UNL     1     -16.390  -4.376   0.185  1.00  0.00     0.002 C 
BRANCH  41  42
HETATM   42  C2  UNL     1     -16.916  -4.486  -1.236  1.00  0.00    -0.004 C 
HETATM   43  C1  UNL     1     -17.372  -3.128  -1.717  1.00  0.00     0.005 C 
ENDBRANCH  41  42
ENDBRANCH  40  41
ENDBRANCH  39  40
ENDBRANCH  38  39
ENDBRANCH  34  38
ENDBRANCH   1  28
TORSDOF 13
ENDMDL
MODEL 5
REMARK VINA RESULT: -8.689761440      3.428     10.141
REMARK  13 active torsions:
REMARK  status: ('A' for Active; 'I' for Inactive)
REMARK    1  A    between atoms: C2_2  and  C3_3 
REMARK    2  A    between atoms: C3_3  and  C4_4 
REMARK    3  A    between atoms: C4_4  and  C5_5 
REMARK    4  A    between atoms: C5_5  and  O1_6 
REMARK    5  A    between atoms: O1_6  and  C6_7 
REMARK       I    between atoms: C6_7  and  N1_9 
REMARK       I    between atoms: N2_12  and  C9_13 
REMARK    6  A    between atoms: C9_13  and  C10_15 
REMARK    7  A    between atoms: N3_22  and  C17_23 
REMARK    8  A    between atoms: C17_23  and  C18_24 
REMARK       I    between atoms: C18_24  and  N4_26 
REMARK    9  A    between atoms: N4_26  and  C19_28 
REMARK   10  A    between atoms: C19_28  and  C27_36 
REMARK   11  A    between atoms: C20_29  and  C21_30 
REMARK   12  A    between atoms: C27_36  and  C28_38 
REMARK   13  A    between atoms: C28_38  and  O6_40 
ROOT
HETATM    1  C10 UNL     1     -17.861   0.371   0.195  1.00  0.00     0.314 C 
HETATM    2  C11 UNL     1     -18.897   1.253   0.895  1.00  0.00     0.046 C 
HETATM    3  C12 UNL     1     -18.391   2.565   1.336  1.00  0.00     0.014 C 
HETATM    4  C13 UNL     1     -17.401   3.211   0.446  1.00  0.00    -0.014 A 
HETATM    5  C14 UNL     1     -17.758   4.575  -0.179  1.00  0.00     0.012 A 
HETATM    6  C15 UNL     1     -16.757   4.498   0.889  1.00  0.00     0.012 A 
HETATM    7  C16 UNL     1     -16.651   2.306  -0.455  1.00  0.00     0.283 C 
HETATM    8  N3  UNL     1     -17.299   1.117  -0.907  1.00  0.00     0.111 N 
ENDROOT
BRANCH   8   9
HETATM    9  C17 UNL     1     -18.412   1.519  -1.719  1.00  0.00     0.376 C 
BRANCH   9  10
HETATM   10  C18 UNL     1     -18.025   2.130  -3.038  1.00  0.00     0.250 C 
HETATM   11  O4  UNL     1     -17.172   1.553  -3.682  1.00  0.00    -0.271 OA
HETATM   12  N4  UNL     1     -18.681   3.320  -3.431  1.00  0.00    -0.322 N 
ATOM     13  H4  UNL     1     -19.366   3.629  -2.742  1.00  0.00     0.169 HD
BRANCH  12  14
HETATM   14  C19 UNL     1     -18.617   4.177  -4.541  1.00  0.00     0.086 C 
HETATM   15  C20 UNL     1     -18.830   3.749  -5.893  1.00  0.00     0.012 C 
BRANCH  15  16
HETATM   16  C21 UNL     1     -18.202   2.856  -6.839  1.00  0.00     0.010 C 
HETATM   17  C22 UNL     1     -18.357   3.082  -8.307  1.00  0.00     0.008 C 
HETATM   18  C23 UNL     1     -17.248   2.276  -8.990  1.00  0.00     0.001 C 
HETATM   19  C24 UNL     1     -17.584   0.832  -8.744  1.00  0.00     0.000 C 
HETATM   20  C25 UNL     1     -18.751   0.616  -7.825  1.00  0.00     0.001 C 
HETATM   21  C26 UNL     1     -18.790   1.421  -6.585  1.00  0.00     0.008 C 
ENDBRANCH  15  16
BRANCH  14  22
HETATM   22  C27 UNL     1     -17.833   5.407  -4.230  1.00  0.00     0.245 C 
HETATM   23  O5  UNL     1     -18.459   6.466  -3.987  1.00  0.00    -0.282 OA
BRANCH  22  24
HETATM   24  C28 UNL     1     -16.378   5.558  -4.150  1.00  0.00     0.203 C 
HETATM   25  N5  UNL     1     -15.740   6.774  -4.341  1.00  0.00    -0.071 NA
BRANCH  24  26
HETATM   26  O6  UNL     1     -15.843   4.838  -3.084  1.00  0.00    -0.345 OA
ATOM     27  H6  UNL     1     -16.483   4.249  -2.702  1.00  0.00     0.219 HD
ENDBRANCH  24  26
ENDBRANCH  22  24
ENDBRANCH  14  22
ENDBRANCH  12  14
ENDBRANCH   9  10
ENDBRANCH   8   9
BRANCH   1  28
HETATM   28  C9  UNL     1     -16.911  -0.163   1.168  1.00  0.00     0.253 C 
HETATM   29  N2  UNL     1     -17.282  -0.763   2.379  1.00  0.00    -0.347 N 
HETATM   30  C8  UNL     1     -16.283  -1.179   3.333  1.00  0.00     0.145 C 
HETATM   31  C29 UNL     1     -18.658  -1.021   2.686  1.00  0.00     0.145 C 
HETATM   32  C7  UNL     1     -16.623  -0.543   4.712  1.00  0.00     0.148 C 
HETATM   33  N1  UNL     1     -17.974  -0.934   5.076  1.00  0.00    -0.325 N 
HETATM   34  C6  UNL     1     -18.417  -0.811   6.407  1.00  0.00     0.362 C 
HETATM   35  C30 UNL     1     -18.896  -1.468   4.099  1.00  0.00     0.148 C 
HETATM   36  O2  UNL     1     -19.619  -1.209   6.672  1.00  0.00    -0.238 OA
HETATM   37  O3  UNL     1     -15.673  -0.084   0.917  1.00  0.00    -0.271 OA
BRANCH  34  38
HETATM   38  O1  UNL     1     -17.737  -0.317   7.484  1.00  0.00    -0.304 OA
BRANCH  38  39
HETATM   39  C5  UNL     1     -17.409  -1.088   8.588  1.00  0.00     0.180 C 
BRANCH  39  40
HETATM   40  C4  UNL     1     -17.234  -2.549   8.385  1.00  0.00     0.027 C 
BRANCH  40  41
HETATM   41  C3  UNL     1     -16.010  -2.950   7.607  1.00  0.00     0.002 C 
BRANCH  41  42
HETATM   42  C2  UNL     1     -15.370  -4.184   8.217  1.00  0.00    -0.004 C 
HETATM   43  C1  UNL     1     -15.787  -4.312   9.664  1.00  0.00     0.005 C 
ENDBRANCH  41  42
ENDBRANCH  40  41
ENDBRANCH  39  40
ENDBRANCH  38  39
ENDBRANCH  34  38
ENDBRANCH   1  28
TORSDOF 13
ENDMDL
