MODEL 1
REMARK VINA RESULT: -7.856195236      0.000      0.000
REMARK  5 active torsions:
REMARK  status: ('A' for Active; 'I' for Inactive)
REMARK    1  A    between atoms: C2_2  and  C3_3 
REMARK    2  A    between atoms: N1_7  and  C7_8 
REMARK       I    between atoms: N2_11  and  C10_12 
REMARK    3  A    between atoms: C10_12  and  C11_14 
REMARK    4  A    between atoms: C15_18  and  N3_19 
REMARK    5  A    between atoms: C18_23  and  C19_24 
ROOT
HETATM    1  C11 UNL     1       5.894  18.070   3.705  1.00  0.00     0.080 C 
HETATM    2  C12 UNL     1       5.689  17.625   5.103  1.00  0.00     0.014 C 
HETATM    3  C13 UNL     1       4.723  18.400   5.919  1.00  0.00     0.003 C 
HETATM    4  C14 UNL     1       3.528  18.907   5.138  1.00  0.00     0.027 C 
HETATM    5  C15 UNL     1       4.102  19.785   4.047  1.00  0.00     0.108 C 
HETATM    6  C24 UNL     1       4.779  18.837   3.086  1.00  0.00     0.041 C 
ENDROOT
BRANCH   5   7
HETATM    7  N3  UNL     1       3.097  20.513   3.308  1.00  0.00    -0.296 N 
HETATM    8  C16 UNL     1       2.291  21.448   3.896  1.00  0.00     0.137 A 
HETATM    9  C17 UNL     1       1.432  21.995   2.966  1.00  0.00     0.080 A 
HETATM   10 CL1  UNL     1       0.203  23.231   3.211  1.00  0.00    -0.080 Cl
HETATM   11  C18 UNL     1       1.756  21.346   1.771  1.00  0.00     0.083 A 
HETATM   12  N6  UNL     1       2.756  20.477   2.049  1.00  0.00    -0.296 N 
ATOM     13  H6  UNL     1       3.191  19.867   1.357  1.00  0.00     0.187 HD
BRANCH  11  14
HETATM   14  C19 UNL     1       1.109  21.590   0.495  1.00  0.00     0.011 A 
HETATM   15  C20 UNL     1       1.805  22.215  -0.511  1.00  0.00     0.103 A 
HETATM   16  N4  UNL     1       1.224  22.455  -1.703  1.00  0.00    -0.350 N 
HETATM   17  C21 UNL     1      -0.054  22.102  -1.973  1.00  0.00     0.120 A 
ATOM     18  H4  UNL     1       1.768  22.920  -2.430  1.00  0.00     0.166 HD
HETATM   19  N5  UNL     1      -0.582  22.359  -3.142  1.00  0.00    -0.384 N 
HETATM   20  C22 UNL     1      -0.770  21.474  -0.980  1.00  0.00     0.078 A 
ATOM     21  H52 UNL     1      -0.050  22.825  -3.878  1.00  0.00     0.157 HD
ATOM     22  H51 UNL     1      -1.545  22.093  -3.346  1.00  0.00     0.157 HD
HETATM   23 CL2  UNL     1      -2.427  21.013  -1.310  1.00  0.00    -0.080 Cl
HETATM   24  C23 UNL     1      -0.198  21.217   0.246  1.00  0.00     0.043 A 
ENDBRANCH  11  14
ENDBRANCH   5   7
BRANCH   1  25
HETATM   25  C10 UNL     1       7.157  18.810   3.503  1.00  0.00     0.224 C 
HETATM   26  N2  UNL     1       7.865  18.845   2.280  1.00  0.00    -0.352 N 
HETATM   27  C9  UNL     1       7.445  18.195   1.066  1.00  0.00     0.127 C 
HETATM   28  C25 UNL     1       9.129  19.609   2.212  1.00  0.00     0.127 C 
HETATM   29  C8  UNL     1       8.640  17.633   0.286  1.00  0.00     0.045 C 
HETATM   30  C7  UNL     1       9.649  18.651  -0.015  1.00  0.00     0.082 C 
HETATM   31  C26 UNL     1       9.237  19.951   0.717  1.00  0.00     0.045 C 
HETATM   32  O1  UNL     1       7.642  19.455   4.482  1.00  0.00    -0.273 OA
BRANCH  30  33
HETATM   33  N1  UNL     1      10.114  18.964  -1.264  1.00  0.00    -0.404 N 
HETATM   34  C3  UNL     1      11.369  18.855  -1.794  1.00  0.00     0.079 C 
HETATM   35  C4  UNL     1      11.152  18.959  -3.337  1.00  0.00     0.026 C 
HETATM   36  C5  UNL     1       9.715  18.573  -3.473  1.00  0.00     0.021 C 
HETATM   37  C6  UNL     1       9.108  19.252  -2.253  1.00  0.00     0.118 C 
BRANCH  34  38
HETATM   38  C2  UNL     1      12.296  17.725  -1.577  1.00  0.00     0.020 C 
HETATM   39  C1  UNL     1      13.669  17.888  -2.101  1.00  0.00     0.007 C 
ENDBRANCH  34  38
ENDBRANCH  30  33
ENDBRANCH   1  25
TORSDOF 5
ENDMDL
MODEL 2
REMARK VINA RESULT: -7.582892348      0.743      1.346
REMARK  5 active torsions:
REMARK  status: ('A' for Active; 'I' for Inactive)
REMARK    1  A    between atoms: C2_2  and  C3_3 
REMARK    2  A    between atoms: N1_7  and  C7_8 
REMARK       I    between atoms: N2_11  and  C10_12 
REMARK    3  A    between atoms: C10_12  and  C11_14 
REMARK    4  A    between atoms: C15_18  and  N3_19 
REMARK    5  A    between atoms: C18_23  and  C19_24 
ROOT
HETATM    1  C11 UNL     1       5.867  18.137   3.771  1.00  0.00     0.080 C 
HETATM    2  C12 UNL     1       5.682  17.764   5.191  1.00  0.00     0.014 C 
HETATM    3  C13 UNL     1       4.755  18.602   5.990  1.00  0.00     0.003 C 
HETATM    4  C14 UNL     1       3.557  19.104   5.212  1.00  0.00     0.027 C 
HETATM    5  C15 UNL     1       4.129  19.915   4.069  1.00  0.00     0.108 C 
HETATM    6  C24 UNL     1       4.759  18.905   3.140  1.00  0.00     0.041 C 
ENDROOT
BRANCH   5   7
HETATM    7  N3  UNL     1       3.128  20.635   3.318  1.00  0.00    -0.296 N 
HETATM    8  C16 UNL     1       2.349  21.607   3.884  1.00  0.00     0.137 A 
HETATM    9  C17 UNL     1       1.487  22.136   2.946  1.00  0.00     0.080 A 
HETATM   10 CL1  UNL     1       0.286  23.406   3.163  1.00  0.00    -0.080 Cl
HETATM   11  C18 UNL     1       1.779  21.437   1.772  1.00  0.00     0.083 A 
HETATM   12  N6  UNL     1       2.767  20.559   2.067  1.00  0.00    -0.296 N 
ATOM     13  H6  UNL     1       3.178  19.915   1.392  1.00  0.00     0.187 HD
BRANCH  11  14
HETATM   14  C19 UNL     1       1.117  21.647   0.497  1.00  0.00     0.011 A 
HETATM   15  C20 UNL     1       1.781  22.298  -0.514  1.00  0.00     0.103 A 
HETATM   16  N4  UNL     1       1.186  22.507  -1.705  1.00  0.00    -0.350 N 
HETATM   17  C21 UNL     1      -0.076  22.096  -1.968  1.00  0.00     0.120 A 
ATOM     18  H4  UNL     1       1.706  22.993  -2.435  1.00  0.00     0.166 HD
HETATM   19  N5  UNL     1      -0.619  22.325  -3.137  1.00  0.00    -0.384 N 
HETATM   20  C22 UNL     1      -0.760  21.441  -0.970  1.00  0.00     0.078 A 
ATOM     21  H52 UNL     1      -0.111  22.810  -3.876  1.00  0.00     0.157 HD
ATOM     22  H51 UNL     1      -1.570  22.015  -3.335  1.00  0.00     0.157 HD
HETATM   23 CL2  UNL     1      -2.396  20.905  -1.292  1.00  0.00    -0.080 Cl
HETATM   24  C23 UNL     1      -0.173  21.215   0.254  1.00  0.00     0.043 A 
ENDBRANCH  11  14
ENDBRANCH   5   7
BRANCH   1  25
HETATM   25  C10 UNL     1       7.145  18.832   3.507  1.00  0.00     0.224 C 
HETATM   26  N2  UNL     1       7.802  18.828   2.256  1.00  0.00    -0.352 N 
HETATM   27  C9  UNL     1       7.312  18.176   1.070  1.00  0.00     0.127 C 
HETATM   28  C25 UNL     1       9.087  19.548   2.126  1.00  0.00     0.127 C 
HETATM   29  C8  UNL     1       8.455  17.565   0.250  1.00  0.00     0.045 C 
HETATM   30  C7  UNL     1       9.483  18.544  -0.107  1.00  0.00     0.082 C 
HETATM   31  C26 UNL     1       9.145  19.867   0.623  1.00  0.00     0.045 C 
HETATM   32  O1  UNL     1       7.690  19.473   4.456  1.00  0.00    -0.273 OA
BRANCH  30  33
HETATM   33  N1  UNL     1       9.907  18.826  -1.378  1.00  0.00    -0.404 N 
HETATM   34  C3  UNL     1       9.608  19.878  -2.198  1.00  0.00     0.079 C 
HETATM   35  C4  UNL     1      10.713  19.840  -3.300  1.00  0.00     0.026 C 
HETATM   36  C5  UNL     1      11.800  19.071  -2.621  1.00  0.00     0.021 C 
HETATM   37  C6  UNL     1      10.995  18.021  -1.868  1.00  0.00     0.118 C 
BRANCH  34  38
HETATM   38  C2  UNL     1       9.488  21.288  -1.773  1.00  0.00     0.020 C 
HETATM   39  C1  UNL     1      10.727  22.095  -1.805  1.00  0.00     0.007 C 
ENDBRANCH  34  38
ENDBRANCH  30  33
ENDBRANCH   1  25
TORSDOF 5
ENDMDL
MODEL 3
REMARK VINA RESULT: -7.428522467      6.719      9.311
REMARK  5 active torsions:
REMARK  status: ('A' for Active; 'I' for Inactive)
REMARK    1  A    between atoms: C2_2  and  C3_3 
REMARK    2  A    between atoms: N1_7  and  C7_8 
REMARK       I    between atoms: N2_11  and  C10_12 
REMARK    3  A    between atoms: C10_12  and  C11_14 
REMARK    4  A    between atoms: C15_18  and  N3_19 
REMARK    5  A    between atoms: C18_23  and  C19_24 
ROOT
HETATM    1  C11 UNL     1       0.031  22.075   3.774  1.00  0.00     0.080 C 
HETATM    2  C12 UNL     1       0.800  21.400   4.844  1.00  0.00     0.014 C 
HETATM    3  C13 UNL     1       1.136  22.209   6.041  1.00  0.00     0.003 C 
HETATM    4  C14 UNL     1       0.058  23.196   6.438  1.00  0.00     0.027 C 
HETATM    5  C15 UNL     1      -0.121  24.102   5.238  1.00  0.00     0.108 C 
HETATM    6  C24 UNL     1      -0.789  23.246   4.188  1.00  0.00     0.041 C 
ENDROOT
BRANCH   5   7
HETATM    7  N3  UNL     1      -0.982  25.232   5.494  1.00  0.00    -0.296 N 
HETATM    8  C16 UNL     1      -1.641  25.394   6.681  1.00  0.00     0.137 A 
HETATM    9  C17 UNL     1      -2.384  26.556   6.663  1.00  0.00     0.080 A 
HETATM   10 CL1  UNL     1      -3.405  27.217   7.936  1.00  0.00    -0.080 Cl
HETATM   11  C18 UNL     1      -2.144  27.101   5.399  1.00  0.00     0.083 A 
HETATM   12  N6  UNL     1      -1.300  26.260   4.756  1.00  0.00    -0.296 N 
ATOM     13  H6  UNL     1      -0.954  26.412   3.810  1.00  0.00     0.187 HD
BRANCH  11  14
HETATM   14  C19 UNL     1      -2.719  28.342   4.910  1.00  0.00     0.011 A 
HETATM   15  C20 UNL     1      -3.896  28.312   4.202  1.00  0.00     0.103 A 
HETATM   16  N4  UNL     1      -4.446  29.450   3.735  1.00  0.00    -0.350 N 
HETATM   17  C21 UNL     1      -3.883  30.663   3.932  1.00  0.00     0.120 A 
ATOM     18  H4  UNL     1      -5.321  29.393   3.214  1.00  0.00     0.166 HD
HETATM   19  N5  UNL     1      -4.448  31.743   3.456  1.00  0.00    -0.384 N 
HETATM   20  C22 UNL     1      -2.703  30.717   4.639  1.00  0.00     0.078 A 
ATOM     21  H52 UNL     1      -5.321  31.703   2.932  1.00  0.00     0.157 HD
ATOM     22  H51 UNL     1      -4.023  32.659   3.605  1.00  0.00     0.157 HD
HETATM   23 CL2  UNL     1      -1.957  32.279   4.900  1.00  0.00    -0.080 Cl
HETATM   24  C23 UNL     1      -2.122  29.568   5.126  1.00  0.00     0.043 A 
ENDBRANCH  11  14
ENDBRANCH   5   7
BRANCH   1  25
HETATM   25  C10 UNL     1       0.855  22.455   2.607  1.00  0.00     0.224 C 
HETATM   26  N2  UNL     1       0.698  21.903   1.316  1.00  0.00    -0.352 N 
HETATM   27  C9  UNL     1      -0.294  20.924   0.954  1.00  0.00     0.127 C 
HETATM   28  C25 UNL     1       1.601  22.354   0.236  1.00  0.00     0.127 C 
HETATM   29  C8  UNL     1       0.258  19.913  -0.059  1.00  0.00     0.045 C 
HETATM   30  C7  UNL     1       0.794  20.551  -1.263  1.00  0.00     0.082 C 
HETATM   31  C26 UNL     1       0.773  22.082  -1.032  1.00  0.00     0.045 C 
HETATM   32  O1  UNL     1       1.761  23.328   2.768  1.00  0.00    -0.273 OA
BRANCH  30  33
HETATM   33  N1  UNL     1       0.401  20.284  -2.547  1.00  0.00    -0.404 N 
HETATM   34  C3  UNL     1      -0.724  20.662  -3.226  1.00  0.00     0.079 C 
HETATM   35  C4  UNL     1      -0.377  20.412  -4.727  1.00  0.00     0.026 C 
HETATM   36  C5  UNL     1       1.117  20.425  -4.705  1.00  0.00     0.021 C 
HETATM   37  C6  UNL     1       1.402  19.697  -3.399  1.00  0.00     0.118 C 
BRANCH  34  38
HETATM   38  C2  UNL     1      -1.357  21.995  -3.158  1.00  0.00     0.020 C 
HETATM   39  C1  UNL     1      -2.682  22.065  -2.506  1.00  0.00     0.007 C 
ENDBRANCH  34  38
ENDBRANCH  30  33
ENDBRANCH   1  25
TORSDOF 5
ENDMDL
MODEL 4
REMARK VINA RESULT: -7.414612737      3.678      9.188
REMARK  5 active torsions:
REMARK  status: ('A' for Active; 'I' for Inactive)
REMARK    1  A    between atoms: C2_2  and  C3_3 
REMARK    2  A    between atoms: N1_7  and  C7_8 
REMARK       I    between atoms: N2_11  and  C10_12 
REMARK    3  A    between atoms: C10_12  and  C11_14 
REMARK    4  A    between atoms: C15_18  and  N3_19 
REMARK    5  A    between atoms: C18_23  and  C19_24 
ROOT
HETATM    1  C11 UNL     1       5.589  21.348   2.178  1.00  0.00     0.080 C 
HETATM    2  C12 UNL     1       6.272  21.393   3.491  1.00  0.00     0.014 C 
HETATM    3  C13 UNL     1       7.474  20.538   3.652  1.00  0.00     0.003 C 
HETATM    4  C14 UNL     1       8.319  20.426   2.399  1.00  0.00     0.027 C 
HETATM    5  C15 UNL     1       7.405  19.836   1.347  1.00  0.00     0.108 C 
HETATM    6  C24 UNL     1       6.419  20.931   1.015  1.00  0.00     0.041 C 
ENDROOT
BRANCH   5   7
HETATM    7  N3  UNL     1       8.088  19.478   0.127  1.00  0.00    -0.296 N 
HETATM    8  C16 UNL     1       9.042  20.280  -0.438  1.00  0.00     0.137 A 
HETATM    9  C17 UNL     1       9.537  19.698  -1.587  1.00  0.00     0.080 A 
HETATM   10 CL1  UNL     1      10.773  20.319  -2.677  1.00  0.00    -0.080 Cl
HETATM   11  C18 UNL     1       8.837  18.493  -1.696  1.00  0.00     0.083 A 
HETATM   12  N6  UNL     1       7.991  18.428  -0.641  1.00  0.00    -0.296 N 
ATOM     13  H6  UNL     1       7.355  17.650  -0.467  1.00  0.00     0.187 HD
BRANCH  11  14
HETATM   14  C19 UNL     1       9.017  17.525  -2.763  1.00  0.00     0.011 A 
HETATM   15  C20 UNL     1       9.915  16.498  -2.604  1.00  0.00     0.103 A 
HETATM   16  N4  UNL     1      10.101  15.590  -3.582  1.00  0.00    -0.350 N 
HETATM   17  C21 UNL     1       9.428  15.636  -4.754  1.00  0.00     0.120 A 
ATOM     18  H4  UNL     1      10.775  14.838  -3.432  1.00  0.00     0.166 HD
HETATM   19  N5  UNL     1       9.643  14.737  -5.680  1.00  0.00    -0.384 N 
HETATM   20  C22 UNL     1       8.523  16.657  -4.935  1.00  0.00     0.078 A 
ATOM     21  H52 UNL     1      10.314  13.981  -5.546  1.00  0.00     0.157 HD
ATOM     22  H51 UNL     1       9.135  14.772  -6.564  1.00  0.00     0.157 HD
HETATM   23 CL2  UNL     1       7.644  16.735  -6.448  1.00  0.00    -0.080 Cl
HETATM   24  C23 UNL     1       8.315  17.596  -3.950  1.00  0.00     0.043 A 
ENDBRANCH  11  14
ENDBRANCH   5   7
BRANCH   1  25
HETATM   25  C10 UNL     1       4.345  20.550   2.190  1.00  0.00     0.224 C 
HETATM   26  N2  UNL     1       3.203  20.856   1.415  1.00  0.00    -0.352 N 
HETATM   27  C9  UNL     1       3.103  21.960   0.496  1.00  0.00     0.127 C 
HETATM   28  C25 UNL     1       2.012  19.988   1.532  1.00  0.00     0.127 C 
HETATM   29  C8  UNL     1       1.700  22.579   0.511  1.00  0.00     0.045 C 
HETATM   30  C7  UNL     1       0.646  21.602   0.235  1.00  0.00     0.082 C 
HETATM   31  C26 UNL     1       1.306  20.202   0.182  1.00  0.00     0.045 C 
HETATM   32  O1  UNL     1       4.290  19.528   2.939  1.00  0.00    -0.273 OA
BRANCH  30  33
HETATM   33  N1  UNL     1      -0.287  21.699  -0.762  1.00  0.00    -0.404 N 
HETATM   34  C3  UNL     1      -0.168  22.154  -2.045  1.00  0.00     0.079 C 
HETATM   35  C4  UNL     1      -1.438  21.613  -2.772  1.00  0.00     0.026 C 
HETATM   36  C5  UNL     1      -1.826  20.464  -1.900  1.00  0.00     0.021 C 
HETATM   37  C6  UNL     1      -1.538  21.030  -0.517  1.00  0.00     0.118 C 
BRANCH  34  38
HETATM   38  C2  UNL     1       0.975  21.891  -2.945  1.00  0.00     0.020 C 
HETATM   39  C1  UNL     1       0.648  21.406  -4.303  1.00  0.00     0.007 C 
ENDBRANCH  34  38
ENDBRANCH  30  33
ENDBRANCH   1  25
TORSDOF 5
ENDMDL
MODEL 5
REMARK VINA RESULT: -7.264306372      6.544      9.619
REMARK  5 active torsions:
REMARK  status: ('A' for Active; 'I' for Inactive)
REMARK    1  A    between atoms: C2_2  and  C3_3 
REMARK    2  A    between atoms: N1_7  and  C7_8 
REMARK       I    between atoms: N2_11  and  C10_12 
REMARK    3  A    between atoms: C10_12  and  C11_14 
REMARK    4  A    between atoms: C15_18  and  N3_19 
REMARK    5  A    between atoms: C18_23  and  C19_24 
ROOT
HETATM    1  C11 UNL     1       0.667  21.079   1.925  1.00  0.00     0.080 C 
HETATM    2  C12 UNL     1       2.023  20.687   2.373  1.00  0.00     0.014 C 
HETATM    3  C13 UNL     1       2.688  21.577   3.356  1.00  0.00     0.003 C 
HETATM    4  C14 UNL     1       1.742  22.191   4.366  1.00  0.00     0.027 C 
HETATM    5  C15 UNL     1       0.739  22.981   3.552  1.00  0.00     0.108 C 
HETATM    6  C24 UNL     1      -0.110  21.947   2.852  1.00  0.00     0.041 C 
ENDROOT
BRANCH   5   7
HETATM    7  N3  UNL     1      -0.140  23.796   4.357  1.00  0.00    -0.296 N 
HETATM    8  C16 UNL     1      -1.060  23.254   5.211  1.00  0.00     0.137 A 
HETATM    9  C17 UNL     1      -1.758  24.251   5.861  1.00  0.00     0.080 A 
HETATM   10 CL1  UNL     1      -3.043  24.084   7.053  1.00  0.00    -0.080 Cl
HETATM   11  C18 UNL     1      -1.215  25.437   5.359  1.00  0.00     0.083 A 
HETATM   12  N6  UNL     1      -0.255  25.090   4.469  1.00  0.00    -0.296 N 
ATOM     13  H6  UNL     1       0.309  25.761   3.948  1.00  0.00     0.187 HD
BRANCH  11  14
HETATM   14  C19 UNL     1      -1.636  26.770   5.750  1.00  0.00     0.011 A 
HETATM   15  C20 UNL     1      -1.369  27.223   7.019  1.00  0.00     0.103 A 
HETATM   16  N4  UNL     1      -1.753  28.455   7.405  1.00  0.00    -0.350 N 
HETATM   17  C21 UNL     1      -2.413  29.302   6.582  1.00  0.00     0.120 A 
ATOM     18  H4  UNL     1      -1.539  28.761   8.354  1.00  0.00     0.166 HD
HETATM   19  N5  UNL     1      -2.773  30.488   6.998  1.00  0.00    -0.384 N 
HETATM   20  C22 UNL     1      -2.691  28.870   5.305  1.00  0.00     0.078 A 
ATOM     21  H52 UNL     1      -2.567  30.808   7.945  1.00  0.00     0.157 HD
ATOM     22  H51 UNL     1      -3.270  31.127   6.377  1.00  0.00     0.157 HD
HETATM   23 CL2  UNL     1      -3.546  29.951   4.226  1.00  0.00    -0.080 Cl
HETATM   24  C23 UNL     1      -2.307  27.615   4.887  1.00  0.00     0.043 A 
ENDBRANCH  11  14
ENDBRANCH   5   7
BRANCH   1  25
HETATM   25  C10 UNL     1       0.643  21.676   0.574  1.00  0.00     0.224 C 
HETATM   26  N2  UNL     1      -0.090  21.146  -0.512  1.00  0.00    -0.352 N 
HETATM   27  C9  UNL     1      -0.927  19.977  -0.447  1.00  0.00     0.127 C 
HETATM   28  C25 UNL     1      -0.015  21.829  -1.821  1.00  0.00     0.127 C 
HETATM   29  C8  UNL     1      -0.845  19.154  -1.739  1.00  0.00     0.045 C 
HETATM   30  C7  UNL     1      -1.172  19.937  -2.932  1.00  0.00     0.082 C 
HETATM   31  C26 UNL     1      -1.334  21.413  -2.494  1.00  0.00     0.045 C 
HETATM   32  O1  UNL     1       1.319  22.730   0.368  1.00  0.00    -0.273 OA
BRANCH  30  33
HETATM   33  N1  UNL     1      -2.145  19.628  -3.845  1.00  0.00    -0.404 N 
HETATM   34  C3  UNL     1      -2.102  18.815  -4.943  1.00  0.00     0.079 C 
HETATM   35  C4  UNL     1      -3.600  18.553  -5.293  1.00  0.00     0.026 C 
HETATM   36  C5  UNL     1      -4.276  18.839  -3.992  1.00  0.00     0.021 C 
HETATM   37  C6  UNL     1      -3.481  20.039  -3.501  1.00  0.00     0.118 C 
BRANCH  34  38
HETATM   38  C2  UNL     1      -1.420  17.506  -5.013  1.00  0.00     0.020 C 
HETATM   39  C1  UNL     1       0.058  17.532  -5.022  1.00  0.00     0.007 C 
ENDBRANCH  34  38
ENDBRANCH  30  33
ENDBRANCH   1  25
TORSDOF 5
ENDMDL
