MODEL 1
REMARK VINA RESULT: -7.037643038      0.000      0.000
REMARK  6 active torsions:
REMARK  status: ('A' for Active; 'I' for Inactive)
REMARK    1  A    between atoms: C2_2  and  N1_3 
REMARK    2  A    between atoms: C7_9  and  N2_10 
REMARK       I    between atoms: N2_10  and  C8_12 
REMARK    3  A    between atoms: C8_12  and  C9_14 
REMARK    4  A    between atoms: C10_18  and  C11_19 
REMARK    5  A    between atoms: C11_19  and  C12_20 
REMARK    6  A    between atoms: C11_19  and  C19_28 
ROOT
HETATM    1  N1  UNL     1       7.607  20.103   1.812  1.00  0.00     0.092 N 
HETATM    2  C3  UNL     1       6.302  20.135   1.179  1.00  0.00     0.277 C 
HETATM    3  C4  UNL     1       5.254  20.978   1.791  1.00  0.00     0.070 C 
HETATM    4  C5  UNL     1       4.571  20.161   2.879  1.00  0.00    -0.033 A 
HETATM    5  C6  UNL     1       5.377  19.628   3.864  1.00  0.00    -0.006 A 
HETATM    6  S1  UNL     1       4.278  18.835   4.898  1.00  0.00    -0.076 SA
HETATM    7  C7  UNL     1       2.836  19.188   4.070  1.00  0.00     0.085 A 
HETATM    8  C10 UNL     1       3.247  19.930   2.987  1.00  0.00    -0.001 A 
HETATM    9  C20 UNL     1       6.865  19.650   4.103  1.00  0.00     0.082 C 
HETATM   10  C21 UNL     1       7.592  20.539   3.160  1.00  0.00     0.223 C 
HETATM   11  C22 UNL     1       8.980  20.813   3.678  1.00  0.00     0.043 C 
ENDROOT
BRANCH   8  12
HETATM   12  C11 UNL     1       2.181  20.383   1.999  1.00  0.00     0.125 C 
BRANCH  12  13
HETATM   13  C12 UNL     1       1.981  21.844   2.018  1.00  0.00    -0.039 A 
HETATM   14  C13 UNL     1       2.594  22.681   1.111  1.00  0.00     0.009 A 
HETATM   15  C14 UNL     1       2.395  24.031   1.191  1.00  0.00     0.010 A 
HETATM   16  C15 UNL     1       1.598  24.622   2.147  1.00  0.00    -0.023 A 
HETATM   17  C16 UNL     1       1.396  26.093   2.214  1.00  0.00     0.051 C 
HETATM   18  C17 UNL     1       0.992  23.781   3.045  1.00  0.00     0.122 A 
HETATM   19  F1  UNL     1       0.184  24.307   4.026  1.00  0.00    -0.206 F 
HETATM   20  C18 UNL     1       1.184  22.396   2.981  1.00  0.00     0.051 A 
ENDBRANCH  12  13
BRANCH  12  21
HETATM   21  C19 UNL     1       2.277  19.726   0.704  1.00  0.00     0.126 A 
HETATM   22  N3  UNL     1       2.917  18.544   0.501  1.00  0.00    -0.271 N 
HETATM   23  N4  UNL     1       2.811  18.244  -0.766  1.00  0.00    -0.227 N 
ATOM     24  H3  UNL     1       3.395  17.991   1.211  1.00  0.00     0.190 HD
HETATM   25  N5  UNL     1       2.130  19.183  -1.393  1.00  0.00    -0.227 N 
ATOM     26  H4  UNL     1       3.199  17.408  -1.204  1.00  0.00     0.210 HD
HETATM   27  N6  UNL     1       1.808  20.081  -0.491  1.00  0.00    -0.271 N 
ATOM     28  H5  UNL     1       1.897  19.207  -2.387  1.00  0.00     0.210 HD
ATOM     29  H6  UNL     1       1.275  20.930  -0.679  1.00  0.00     0.190 HD
ENDBRANCH  12  21
ENDBRANCH   8  12
BRANCH   7  30
HETATM   30  N2  UNL     1       1.550  18.769   4.488  1.00  0.00    -0.317 N 
HETATM   31  C8  UNL     1       0.812  19.518   5.442  1.00  0.00     0.277 C 
HETATM   32  O1  UNL     1       1.350  20.558   5.899  1.00  0.00    -0.268 OA
ATOM     33  H2  UNL     1       1.148  17.917   4.097  1.00  0.00     0.169 HD
BRANCH  31  34
HETATM   34  C9  UNL     1      -0.522  19.131   5.903  1.00  0.00     0.269 C 
HETATM   35 CL1  UNL     1      -0.750  19.263   7.649  1.00  0.00    -0.073 Cl
HETATM   36 CL2  UNL     1      -1.753  20.193   5.143  1.00  0.00    -0.073 Cl
HETATM   37 CL3  UNL     1      -0.944  17.465   5.412  1.00  0.00    -0.073 Cl
ENDBRANCH  31  34
ENDBRANCH   7  30
BRANCH   1  38
HETATM   38  C2  UNL     1       8.089  18.761   1.596  1.00  0.00     0.268 C 
HETATM   39  C1  UNL     1       9.268  18.597   0.695  1.00  0.00     0.037 C 
ENDBRANCH   1  38
TORSDOF 6
ENDMDL
MODEL 2
REMARK VINA RESULT: -6.917713974      3.782      6.461
REMARK  6 active torsions:
REMARK  status: ('A' for Active; 'I' for Inactive)
REMARK    1  A    between atoms: C2_2  and  N1_3 
REMARK    2  A    between atoms: C7_9  and  N2_10 
REMARK       I    between atoms: N2_10  and  C8_12 
REMARK    3  A    between atoms: C8_12  and  C9_14 
REMARK    4  A    between atoms: C10_18  and  C11_19 
REMARK    5  A    between atoms: C11_19  and  C12_20 
REMARK    6  A    between atoms: C11_19  and  C19_28 
ROOT
HETATM    1  N1  UNL     1      -1.665  19.700  -1.049  1.00  0.00     0.092 N 
HETATM    2  C3  UNL     1      -1.242  20.045   0.295  1.00  0.00     0.277 C 
HETATM    3  C4  UNL     1      -0.093  20.960   0.448  1.00  0.00     0.070 C 
HETATM    4  C5  UNL     1       1.180  20.127   0.393  1.00  0.00    -0.033 A 
HETATM    5  C6  UNL     1       1.362  19.330  -0.720  1.00  0.00    -0.006 A 
HETATM    6  S1  UNL     1       2.878  18.599  -0.448  1.00  0.00    -0.076 SA
HETATM    7  C7  UNL     1       3.246  19.307   1.053  1.00  0.00     0.085 A 
HETATM    8  C10 UNL     1       2.163  20.113   1.316  1.00  0.00    -0.001 A 
HETATM    9  C20 UNL     1       0.525  19.062  -1.944  1.00  0.00     0.082 C 
HETATM   10  C21 UNL     1      -0.673  19.938  -2.032  1.00  0.00     0.223 C 
HETATM   11  C22 UNL     1      -1.240  19.893  -3.427  1.00  0.00     0.043 C 
ENDROOT
BRANCH   8  12
HETATM   12  C11 UNL     1       2.156  20.878   2.633  1.00  0.00     0.125 C 
BRANCH  12  13
HETATM   13  C12 UNL     1       1.921  22.322   2.445  1.00  0.00    -0.039 A 
HETATM   14  C13 UNL     1       2.608  23.061   1.507  1.00  0.00     0.009 A 
HETATM   15  C14 UNL     1       2.371  24.402   1.394  1.00  0.00     0.010 A 
HETATM   16  C15 UNL     1       1.463  25.078   2.180  1.00  0.00    -0.023 A 
HETATM   17  C16 UNL     1       1.220  26.538   2.038  1.00  0.00     0.051 C 
HETATM   18  C17 UNL     1       0.784  24.334   3.110  1.00  0.00     0.122 A 
HETATM   19  F1  UNL     1      -0.136  24.947   3.927  1.00  0.00    -0.206 F 
HETATM   20  C18 UNL     1       1.013  22.959   3.243  1.00  0.00     0.051 A 
ENDBRANCH  12  13
BRANCH  12  21
HETATM   21  C19 UNL     1       1.422  20.201   3.691  1.00  0.00     0.126 A 
HETATM   22  N3  UNL     1       1.892  20.044   4.957  1.00  0.00    -0.271 N 
HETATM   23  N4  UNL     1       0.987  19.398   5.643  1.00  0.00    -0.227 N 
ATOM     24  H3  UNL     1       2.791  20.373   5.308  1.00  0.00     0.190 HD
HETATM   25  N5  UNL     1      -0.050  19.128   4.874  1.00  0.00    -0.227 N 
ATOM     26  H4  UNL     1       1.070  19.141   6.627  1.00  0.00     0.210 HD
HETATM   27  N6  UNL     1       0.223  19.621   3.687  1.00  0.00    -0.271 N 
ATOM     28  H5  UNL     1      -0.899  18.634   5.147  1.00  0.00     0.210 HD
ATOM     29  H6  UNL     1      -0.395  19.566   2.878  1.00  0.00     0.190 HD
ENDBRANCH  12  21
ENDBRANCH   8  12
BRANCH   7  30
HETATM   30  N2  UNL     1       4.432  19.060   1.786  1.00  0.00    -0.317 N 
HETATM   31  C8  UNL     1       5.547  19.935   1.687  1.00  0.00     0.277 C 
HETATM   32  O1  UNL     1       5.435  20.927   0.923  1.00  0.00    -0.268 OA
ATOM     33  H2  UNL     1       4.486  18.243   2.393  1.00  0.00     0.169 HD
BRANCH  31  34
HETATM   34  C9  UNL     1       6.793  19.727   2.425  1.00  0.00     0.269 C 
HETATM   35 CL1  UNL     1       8.235  19.665   1.408  1.00  0.00    -0.073 Cl
HETATM   36 CL2  UNL     1       7.039  21.078   3.581  1.00  0.00    -0.073 Cl
HETATM   37 CL3  UNL     1       6.746  18.240   3.415  1.00  0.00    -0.073 Cl
ENDBRANCH  31  34
ENDBRANCH   7  30
BRANCH   1  38
HETATM   38  C2  UNL     1      -2.134  18.340  -0.952  1.00  0.00     0.268 C 
HETATM   39  C1  UNL     1      -2.014  17.671   0.378  1.00  0.00     0.037 C 
ENDBRANCH   1  38
TORSDOF 6
ENDMDL
MODEL 3
REMARK VINA RESULT: -6.849926184      1.095      1.344
REMARK  6 active torsions:
REMARK  status: ('A' for Active; 'I' for Inactive)
REMARK    1  A    between atoms: C2_2  and  N1_3 
REMARK    2  A    between atoms: C7_9  and  N2_10 
REMARK       I    between atoms: N2_10  and  C8_12 
REMARK    3  A    between atoms: C8_12  and  C9_14 
REMARK    4  A    between atoms: C10_18  and  C11_19 
REMARK    5  A    between atoms: C11_19  and  C12_20 
REMARK    6  A    between atoms: C11_19  and  C19_28 
ROOT
HETATM    1  N1  UNL     1       7.648  20.078   1.718  1.00  0.00     0.092 N 
HETATM    2  C3  UNL     1       6.327  20.099   1.121  1.00  0.00     0.277 C 
HETATM    3  C4  UNL     1       5.300  20.967   1.735  1.00  0.00     0.070 C 
HETATM    4  C5  UNL     1       4.644  20.188   2.867  1.00  0.00    -0.033 A 
HETATM    5  C6  UNL     1       5.475  19.682   3.845  1.00  0.00    -0.006 A 
HETATM    6  S1  UNL     1       4.401  18.927   4.934  1.00  0.00    -0.076 SA
HETATM    7  C7  UNL     1       2.938  19.264   4.135  1.00  0.00     0.085 A 
HETATM    8  C10 UNL     1       3.322  19.969   3.018  1.00  0.00    -0.001 A 
HETATM    9  C20 UNL     1       6.969  19.702   4.042  1.00  0.00     0.082 C 
HETATM   10  C21 UNL     1       7.674  20.556   3.051  1.00  0.00     0.223 C 
HETATM   11  C22 UNL     1       9.077  20.837   3.522  1.00  0.00     0.043 C 
ENDROOT
BRANCH   8  12
HETATM   12  C11 UNL     1       2.232  20.398   2.046  1.00  0.00     0.125 C 
BRANCH  12  13
HETATM   13  C12 UNL     1       2.016  21.857   2.050  1.00  0.00    -0.039 A 
HETATM   14  C13 UNL     1       2.638  22.694   1.149  1.00  0.00     0.009 A 
HETATM   15  C14 UNL     1       2.424  24.042   1.215  1.00  0.00     0.010 A 
HETATM   16  C15 UNL     1       1.602  24.632   2.152  1.00  0.00    -0.023 A 
HETATM   17  C16 UNL     1       1.384  26.101   2.204  1.00  0.00     0.051 C 
HETATM   18  C17 UNL     1       0.988  23.791   3.044  1.00  0.00     0.122 A 
HETATM   19  F1  UNL     1       0.156  24.316   4.005  1.00  0.00    -0.206 F 
HETATM   20  C18 UNL     1       1.195  22.408   2.994  1.00  0.00     0.051 A 
ENDBRANCH  12  13
BRANCH  12  21
HETATM   21  C19 UNL     1       2.308  19.725   0.759  1.00  0.00     0.126 A 
HETATM   22  N3  UNL     1       2.832  18.483   0.584  1.00  0.00    -0.271 N 
HETATM   23  N4  UNL     1       2.744  18.186  -0.685  1.00  0.00    -0.227 N 
ATOM     24  H3  UNL     1       3.224  17.889   1.314  1.00  0.00     0.190 HD
HETATM   25  N5  UNL     1       2.185  19.184  -1.341  1.00  0.00    -0.227 N 
ATOM     26  H4  UNL     1       3.060  17.311  -1.105  1.00  0.00     0.210 HD
HETATM   27  N6  UNL     1       1.923  20.117  -0.454  1.00  0.00    -0.271 N 
ATOM     28  H5  UNL     1       1.993  19.224  -2.342  1.00  0.00     0.210 HD
ATOM     29  H6  UNL     1       1.486  21.014  -0.666  1.00  0.00     0.190 HD
ENDBRANCH  12  21
ENDBRANCH   8  12
BRANCH   7  30
HETATM   30  N2  UNL     1       1.661  18.866   4.601  1.00  0.00    -0.317 N 
HETATM   31  C8  UNL     1       1.022  17.710   4.079  1.00  0.00     0.277 C 
HETATM   32  O1  UNL     1       1.633  17.065   3.191  1.00  0.00    -0.268 OA
ATOM     33  H2  UNL     1       1.195  19.417   5.321  1.00  0.00     0.169 HD
BRANCH  31  34
HETATM   34  C9  UNL     1      -0.294  17.253   4.529  1.00  0.00     0.269 C 
HETATM   35 CL1  UNL     1      -0.335  15.566   5.048  1.00  0.00    -0.073 Cl
HETATM   36 CL2  UNL     1      -0.823  18.236   5.934  1.00  0.00    -0.073 Cl
HETATM   37 CL3  UNL     1      -1.547  17.480   3.275  1.00  0.00    -0.073 Cl
ENDBRANCH  31  34
ENDBRANCH   7  30
BRANCH   1  38
HETATM   38  C2  UNL     1       8.117  18.727   1.531  1.00  0.00     0.268 C 
HETATM   39  C1  UNL     1       9.287  18.531   0.624  1.00  0.00     0.037 C 
ENDBRANCH   1  38
TORSDOF 6
ENDMDL
MODEL 4
REMARK VINA RESULT: -6.786956828      6.509      9.720
REMARK  6 active torsions:
REMARK  status: ('A' for Active; 'I' for Inactive)
REMARK    1  A    between atoms: C2_2  and  N1_3 
REMARK    2  A    between atoms: C7_9  and  N2_10 
REMARK       I    between atoms: N2_10  and  C8_12 
REMARK    3  A    between atoms: C8_12  and  C9_14 
REMARK    4  A    between atoms: C10_18  and  C11_19 
REMARK    5  A    between atoms: C11_19  and  C12_20 
REMARK    6  A    between atoms: C11_19  and  C19_28 
ROOT
HETATM    1  N1  UNL     1       5.506  18.936   3.871  1.00  0.00     0.092 N 
HETATM    2  C3  UNL     1       6.883  18.999   3.420  1.00  0.00     0.277 C 
HETATM    3  C4  UNL     1       7.160  19.652   2.124  1.00  0.00     0.070 C 
HETATM    4  C5  UNL     1       6.976  18.614   1.026  1.00  0.00    -0.033 A 
HETATM    5  C6  UNL     1       5.759  17.965   0.973  1.00  0.00    -0.006 A 
HETATM    6  S1  UNL     1       5.913  16.933  -0.375  1.00  0.00    -0.076 SA
HETATM    7  C7  UNL     1       7.498  17.337  -0.837  1.00  0.00     0.085 A 
HETATM    8  C10 UNL     1       7.882  18.285   0.083  1.00  0.00    -0.001 A 
HETATM    9  C20 UNL     1       4.514  18.037   1.819  1.00  0.00     0.082 C 
HETATM   10  C21 UNL     1       4.562  19.124   2.832  1.00  0.00     0.223 C 
HETATM   11  C22 UNL     1       3.179  19.386   3.368  1.00  0.00     0.043 C 
ENDROOT
BRANCH   8  12
HETATM   12  C11 UNL     1       9.296  18.840  -0.025  1.00  0.00     0.125 C 
BRANCH  12  13
HETATM   13  C12 UNL     1      10.303  17.781  -0.223  1.00  0.00    -0.039 A 
HETATM   14  C13 UNL     1      11.113  17.738  -1.337  1.00  0.00     0.009 A 
HETATM   15  C14 UNL     1      12.011  16.718  -1.484  1.00  0.00     0.010 A 
HETATM   16  C15 UNL     1      12.161  15.704  -0.563  1.00  0.00    -0.023 A 
HETATM   17  C16 UNL     1      13.146  14.605  -0.744  1.00  0.00     0.051 C 
HETATM   18  C17 UNL     1      11.351  15.756   0.542  1.00  0.00     0.122 A 
HETATM   19  F1  UNL     1      11.448  14.773   1.499  1.00  0.00    -0.206 F 
HETATM   20  C18 UNL     1      10.423  16.791   0.711  1.00  0.00     0.051 A 
ENDBRANCH  12  13
BRANCH  12  21
HETATM   21  C19 UNL     1       9.388  20.030  -0.856  1.00  0.00     0.126 A 
HETATM   22  N3  UNL     1      10.020  21.172  -0.475  1.00  0.00    -0.271 N 
HETATM   23  N4  UNL     1       9.914  22.033  -1.451  1.00  0.00    -0.227 N 
ATOM     24  H3  UNL     1      10.494  21.327   0.414  1.00  0.00     0.190 HD
HETATM   25  N5  UNL     1       9.238  21.499  -2.449  1.00  0.00    -0.227 N 
ATOM     26  H4  UNL     1      10.297  22.979  -1.442  1.00  0.00     0.210 HD
HETATM   27  N6  UNL     1       8.921  20.279  -2.078  1.00  0.00    -0.271 N 
ATOM     28  H5  UNL     1       9.006  21.945  -3.337  1.00  0.00     0.210 HD
ATOM     29  H6  UNL     1       8.393  19.617  -2.646  1.00  0.00     0.190 HD
ENDBRANCH  12  21
ENDBRANCH   8  12
BRANCH   7  30
HETATM   30  N2  UNL     1       8.180  16.771  -1.942  1.00  0.00    -0.317 N 
HETATM   31  C8  UNL     1       8.058  17.332  -3.241  1.00  0.00     0.277 C 
HETATM   32  O1  UNL     1       7.322  18.343  -3.365  1.00  0.00    -0.268 OA
ATOM     33  H2  UNL     1       8.766  15.948  -1.802  1.00  0.00     0.169 HD
BRANCH  31  34
HETATM   34  C9  UNL     1       8.744  16.788  -4.413  1.00  0.00     0.269 C 
HETATM   35 CL1  UNL     1       9.485  15.208  -4.149  1.00  0.00    -0.073 Cl
HETATM   36 CL2  UNL     1       7.572  16.588  -5.757  1.00  0.00    -0.073 Cl
HETATM   37 CL3  UNL     1      10.005  17.898  -5.027  1.00  0.00    -0.073 Cl
ENDBRANCH  31  34
ENDBRANCH   7  30
BRANCH   1  38
HETATM   38  C2  UNL     1       5.408  17.687   4.585  1.00  0.00     0.268 C 
HETATM   39  C1  UNL     1       6.686  16.997   4.930  1.00  0.00     0.037 C 
ENDBRANCH   1  38
TORSDOF 6
ENDMDL
MODEL 5
REMARK VINA RESULT: -6.751916213      1.069      1.398
REMARK  6 active torsions:
REMARK  status: ('A' for Active; 'I' for Inactive)
REMARK    1  A    between atoms: C2_2  and  N1_3 
REMARK    2  A    between atoms: C7_9  and  N2_10 
REMARK       I    between atoms: N2_10  and  C8_12 
REMARK    3  A    between atoms: C8_12  and  C9_14 
REMARK    4  A    between atoms: C10_18  and  C11_19 
REMARK    5  A    between atoms: C11_19  and  C12_20 
REMARK    6  A    between atoms: C11_19  and  C19_28 
ROOT
HETATM    1  N1  UNL     1       7.727  20.095   1.714  1.00  0.00     0.092 N 
HETATM    2  C3  UNL     1       6.397  20.103   1.135  1.00  0.00     0.277 C 
HETATM    3  C4  UNL     1       5.380  20.988   1.740  1.00  0.00     0.070 C 
HETATM    4  C5  UNL     1       4.738  20.240   2.900  1.00  0.00    -0.033 A 
HETATM    5  C6  UNL     1       5.581  19.757   3.880  1.00  0.00    -0.006 A 
HETATM    6  S1  UNL     1       4.521  19.033   5.002  1.00  0.00    -0.076 SA
HETATM    7  C7  UNL     1       3.049  19.351   4.215  1.00  0.00     0.085 A 
HETATM    8  C10 UNL     1       3.418  20.026   3.075  1.00  0.00    -0.001 A 
HETATM    9  C20 UNL     1       7.078  19.780   4.056  1.00  0.00     0.082 C 
HETATM   10  C21 UNL     1       7.771  20.608   3.034  1.00  0.00     0.223 C 
HETATM   11  C22 UNL     1       9.180  20.898   3.478  1.00  0.00     0.043 C 
ENDROOT
BRANCH   8  12
HETATM   12  C11 UNL     1       2.315  20.432   2.107  1.00  0.00     0.125 C 
BRANCH  12  13
HETATM   13  C12 UNL     1       2.084  21.889   2.096  1.00  0.00    -0.039 A 
HETATM   14  C13 UNL     1       2.723  22.727   1.208  1.00  0.00     0.009 A 
HETATM   15  C14 UNL     1       2.493  24.073   1.259  1.00  0.00     0.010 A 
HETATM   16  C15 UNL     1       1.637  24.659   2.167  1.00  0.00    -0.023 A 
HETATM   17  C16 UNL     1       1.402  26.127   2.203  1.00  0.00     0.051 C 
HETATM   18  C17 UNL     1       1.006  23.817   3.046  1.00  0.00     0.122 A 
HETATM   19  F1  UNL     1       0.140  24.339   3.979  1.00  0.00    -0.206 F 
HETATM   20  C18 UNL     1       1.229  22.436   3.011  1.00  0.00     0.051 A 
ENDBRANCH  12  13
BRANCH  12  21
HETATM   21  C19 UNL     1       2.388  19.745   0.827  1.00  0.00     0.126 A 
HETATM   22  N3  UNL     1       1.905  20.258  -0.336  1.00  0.00    -0.271 N 
HETATM   23  N4  UNL     1       2.133  19.388  -1.283  1.00  0.00    -0.227 N 
ATOM     24  H3  UNL     1       1.446  21.162  -0.448  1.00  0.00     0.190 HD
HETATM   25  N5  UNL     1       2.744  18.331  -0.783  1.00  0.00    -0.227 N 
ATOM     26  H4  UNL     1       1.878  19.509  -2.263  1.00  0.00     0.210 HD
HETATM   27  N6  UNL     1       2.895  18.557   0.502  1.00  0.00    -0.271 N 
ATOM     28  H5  UNL     1       3.041  17.500  -1.294  1.00  0.00     0.210 HD
ATOM     29  H6  UNL     1       3.337  17.913   1.158  1.00  0.00     0.190 HD
ENDBRANCH  12  21
ENDBRANCH   8  12
BRANCH   7  30
HETATM   30  N2  UNL     1       1.778  18.967   4.708  1.00  0.00    -0.317 N 
HETATM   31  C8  UNL     1       1.112  17.821   4.196  1.00  0.00     0.277 C 
HETATM   32  O1  UNL     1       1.695  17.173   3.291  1.00  0.00    -0.268 OA
ATOM     33  H2  UNL     1       1.335  19.521   5.441  1.00  0.00     0.169 HD
BRANCH  31  34
HETATM   34  C9  UNL     1      -0.199  17.380   4.674  1.00  0.00     0.269 C 
HETATM   35 CL1  UNL     1      -1.210  18.678   5.313  1.00  0.00    -0.073 Cl
HETATM   36 CL2  UNL     1      -1.113  16.635   3.321  1.00  0.00    -0.073 Cl
HETATM   37 CL3  UNL     1      -0.063  16.112   5.927  1.00  0.00    -0.073 Cl
ENDBRANCH  31  34
ENDBRANCH   7  30
BRANCH   1  38
HETATM   38  C2  UNL     1       8.191  18.739   1.556  1.00  0.00     0.268 C 
HETATM   39  C1  UNL     1       9.234  18.493   0.515  1.00  0.00     0.037 C 
ENDBRANCH   1  38
TORSDOF 6
ENDMDL
