MODEL 1
REMARK VINA RESULT: -7.429632876      0.000      0.000
REMARK  7 active torsions:
REMARK  status: ('A' for Active; 'I' for Inactive)
REMARK    1  A    between atoms: C2_2  and  C3_3 
REMARK    2  A    between atoms: C3_3  and  C4_4 
REMARK    3  A    between atoms: C5_5  and  C6_6 
REMARK    4  A    between atoms: C9_9  and  C10_10 
REMARK    5  A    between atoms: C14_18  and  C15_19 
REMARK    6  A    between atoms: N4_27  and  C21_29 
REMARK    7  A    between atoms: N6_33  and  C23_34 
ROOT
HETATM    1  C6  UNL     1       4.097  20.613   2.759  1.00  0.00     0.105 A 
HETATM    2  C7  UNL     1       3.422  19.955   3.759  1.00  0.00     0.072 A 
HETATM    3  C8  UNL     1       3.998  18.831   4.371  1.00  0.00     0.088 A 
HETATM    4  C9  UNL     1       3.548  18.005   5.376  1.00  0.00     0.073 A 
HETATM    5  N2  UNL     1       4.472  17.087   5.587  1.00  0.00    -0.342 N 
ATOM      6  H2  UNL     1       4.406  16.341   6.278  1.00  0.00     0.167 HD
HETATM    7  C14 UNL     1       5.514  17.279   4.758  1.00  0.00     0.110 A 
HETATM    8  N3  UNL     1       5.207  18.357   4.014  1.00  0.00    -0.133 N 
HETATM    9  C20 UNL     1       5.844  19.023   3.032  1.00  0.00     0.692 A 
HETATM   10  N4  UNL     1       6.984  18.637   2.645  1.00  0.00    -0.188 N 
ATOM     11  H4  UNL     1       7.364  17.817   3.117  1.00  0.00     0.184 HD
HETATM   12  N7  UNL     1       5.296  20.120   2.426  1.00  0.00    -0.183 N 
ATOM     13  H7  UNL     1       5.824  20.583   1.687  1.00  0.00     0.185 HD
ENDROOT
BRANCH  10  14
HETATM   14  C21 UNL     1       7.784  19.194   1.653  1.00  0.00     0.083 A 
HETATM   15  C22 UNL     1       8.749  20.156   1.843  1.00  0.00     0.138 A 
HETATM   16  N5  UNL     1       9.312  20.442   0.638  1.00  0.00    -0.307 N 
HETATM   17  N6  UNL     1       8.729  19.691  -0.298  1.00  0.00    -0.294 N 
ATOM     18  H5  UNL     1      10.057  21.120   0.477  1.00  0.00     0.186 HD
HETATM   19  C28 UNL     1       7.796  18.925   0.305  1.00  0.00     0.142 A 
BRANCH  17  20
HETATM   20  C23 UNL     1       9.110  19.767  -1.678  1.00  0.00     0.147 C 
HETATM   21  C24 UNL     1       8.768  18.475  -2.396  1.00  0.00     0.036 C 
HETATM   22  C25 UNL     1      10.056  17.679  -2.429  1.00  0.00     0.084 C 
HETATM   23  C26 UNL     1      11.117  18.729  -2.517  1.00  0.00     0.276 C 
HETATM   24  F1  UNL     1      11.430  18.925  -3.864  1.00  0.00    -0.203 F 
HETATM   25  F2  UNL     1      12.266  18.280  -1.865  1.00  0.00    -0.203 F 
HETATM   26  C27 UNL     1      10.582  19.984  -1.877  1.00  0.00     0.266 C 
HETATM   27  F3  UNL     1      10.759  21.014  -2.795  1.00  0.00    -0.241 F 
ENDBRANCH  17  20
ENDBRANCH  10  14
BRANCH   7  28
HETATM   28  C15 UNL     1       6.737  16.435   4.716  1.00  0.00     0.058 C 
HETATM   29  C16 UNL     1       6.313  15.026   5.114  1.00  0.00     0.038 C 
HETATM   30  C17 UNL     1       6.658  14.661   6.520  1.00  0.00     0.168 C 
HETATM   31  O1  UNL     1       6.543  15.667   7.439  1.00  0.00    -0.391 OA
HETATM   32  C18 UNL     1       7.314  16.780   7.153  1.00  0.00     0.168 C 
HETATM   33  C19 UNL     1       7.760  16.887   5.736  1.00  0.00     0.038 C 
ENDBRANCH   7  28
BRANCH   1  34
HETATM   34  C5  UNL     1       3.563  21.765   2.097  1.00  0.00    -0.048 C 
HETATM   35  C4  UNL     1       3.097  22.731   1.545  1.00  0.00    -0.100 C 
BRANCH  35  36
HETATM   36  C3  UNL     1       2.510  23.900   0.887  1.00  0.00     0.094 C 
BRANCH  36  37
HETATM   37  C2  UNL     1       2.118  24.975   1.885  1.00  0.00     0.007 C 
HETATM   38  C1  UNL     1       1.018  24.392   2.750  1.00  0.00     0.006 C 
ENDBRANCH  36  37
ENDBRANCH  35  36
ENDBRANCH   1  34
BRANCH   4  39
HETATM   39  C10 UNL     1       2.262  18.156   6.063  1.00  0.00     0.010 A 
HETATM   40  C11 UNL     1       1.939  19.047   7.031  1.00  0.00     0.032 A 
HETATM   41  C12 UNL     1       0.621  18.839   7.396  1.00  0.00     0.088 A 
HETATM   42  N1  UNL     1       0.182  17.817   6.629  1.00  0.00    -0.374 N 
HETATM   43  C13 UNL     1       1.140  17.383   5.817  1.00  0.00     0.101 A 
ATOM     44  H1  UNL     1      -0.760  17.430   6.667  1.00  0.00     0.164 HD
ENDBRANCH   4  39
TORSDOF 7
ENDMDL
MODEL 2
REMARK VINA RESULT: -6.829190299      1.039      1.213
REMARK  7 active torsions:
REMARK  status: ('A' for Active; 'I' for Inactive)
REMARK    1  A    between atoms: C2_2  and  C3_3 
REMARK    2  A    between atoms: C3_3  and  C4_4 
REMARK    3  A    between atoms: C5_5  and  C6_6 
REMARK    4  A    between atoms: C9_9  and  C10_10 
REMARK    5  A    between atoms: C14_18  and  C15_19 
REMARK    6  A    between atoms: N4_27  and  C21_29 
REMARK    7  A    between atoms: N6_33  and  C23_34 
ROOT
HETATM    1  C6  UNL     1       3.491  20.222   3.480  1.00  0.00     0.105 A 
HETATM    2  C7  UNL     1       2.889  19.508   4.489  1.00  0.00     0.072 A 
HETATM    3  C8  UNL     1       3.567  18.437   5.092  1.00  0.00     0.088 A 
HETATM    4  C9  UNL     1       3.203  17.575   6.101  1.00  0.00     0.073 A 
HETATM    5  N2  UNL     1       4.204  16.740   6.298  1.00  0.00    -0.342 N 
ATOM      6  H2  UNL     1       4.212  15.990   6.989  1.00  0.00     0.167 HD
HETATM    7  C14 UNL     1       5.215  17.020   5.455  1.00  0.00     0.110 A 
HETATM    8  N3  UNL     1       4.807  18.068   4.717  1.00  0.00    -0.133 N 
HETATM    9  C20 UNL     1       5.371  18.787   3.727  1.00  0.00     0.692 A 
HETATM   10  N4  UNL     1       6.535  18.499   3.324  1.00  0.00    -0.188 N 
ATOM     11  H4  UNL     1       6.989  17.715   3.790  1.00  0.00     0.184 HD
HETATM   12  N7  UNL     1       4.723  19.833   3.130  1.00  0.00    -0.183 N 
ATOM     13  H7  UNL     1       5.200  20.339   2.385  1.00  0.00     0.185 HD
ENDROOT
BRANCH  10  14
HETATM   14  C21 UNL     1       7.270  19.123   2.323  1.00  0.00     0.083 A 
HETATM   15  C22 UNL     1       8.264  20.054   2.514  1.00  0.00     0.138 A 
HETATM   16  N5  UNL     1       8.743  20.427   1.298  1.00  0.00    -0.307 N 
HETATM   17  N6  UNL     1       8.080  19.760   0.352  1.00  0.00    -0.294 N 
ATOM     18  H5  UNL     1       9.487  21.106   1.134  1.00  0.00     0.186 HD
HETATM   19  C28 UNL     1       7.180  18.961   0.960  1.00  0.00     0.142 A 
BRANCH  17  20
HETATM   20  C23 UNL     1       8.361  19.940  -1.043  1.00  0.00     0.147 C 
HETATM   21  C24 UNL     1       9.003  18.693  -1.621  1.00  0.00     0.036 C 
HETATM   22  C25 UNL     1      10.492  18.971  -1.627  1.00  0.00     0.084 C 
HETATM   23  C26 UNL     1      10.574  20.447  -1.853  1.00  0.00     0.276 C 
HETATM   24  F1  UNL     1      10.722  20.672  -3.224  1.00  0.00    -0.203 F 
HETATM   25  F2  UNL     1      11.701  20.953  -1.206  1.00  0.00    -0.203 F 
HETATM   26  C27 UNL     1       9.311  21.070  -1.316  1.00  0.00     0.266 C 
HETATM   27  F3  UNL     1       8.783  21.857  -2.335  1.00  0.00    -0.241 F 
ENDBRANCH  17  20
ENDBRANCH  10  14
BRANCH   7  28
HETATM   28  C15 UNL     1       6.504  16.284   5.396  1.00  0.00     0.058 C 
HETATM   29  C16 UNL     1       6.182  14.812   5.627  1.00  0.00     0.038 C 
HETATM   30  C17 UNL     1       6.491  14.330   7.006  1.00  0.00     0.168 C 
HETATM   31  O1  UNL     1       6.250  15.224   8.014  1.00  0.00    -0.391 OA
HETATM   32  C18 UNL     1       6.939  16.418   7.883  1.00  0.00     0.168 C 
HETATM   33  C19 UNL     1       7.438  16.706   6.509  1.00  0.00     0.038 C 
ENDBRANCH   7  28
BRANCH   1  34
HETATM   34  C5  UNL     1       2.852  21.324   2.828  1.00  0.00    -0.048 C 
HETATM   35  C4  UNL     1       2.301  22.253   2.289  1.00  0.00    -0.100 C 
BRANCH  35  36
HETATM   36  C3  UNL     1       1.617  23.382   1.657  1.00  0.00     0.094 C 
BRANCH  36  37
HETATM   37  C2  UNL     1       1.122  24.389   2.679  1.00  0.00     0.007 C 
HETATM   38  C1  UNL     1       1.606  25.752   2.224  1.00  0.00     0.006 C 
ENDBRANCH  36  37
ENDBRANCH  35  36
ENDBRANCH   1  34
BRANCH   4  39
HETATM   39  C10 UNL     1       1.918  17.616   6.805  1.00  0.00     0.010 A 
HETATM   40  C11 UNL     1       1.499  18.531   7.713  1.00  0.00     0.032 A 
HETATM   41  C12 UNL     1       0.223  18.188   8.124  1.00  0.00     0.088 A 
HETATM   42  N1  UNL     1      -0.094  17.064   7.444  1.00  0.00    -0.374 N 
HETATM   43  C13 UNL     1       0.900  16.693   6.644  1.00  0.00     0.101 A 
ATOM     44  H1  UNL     1      -0.979  16.566   7.534  1.00  0.00     0.164 HD
ENDBRANCH   4  39
TORSDOF 7
ENDMDL
MODEL 3
REMARK VINA RESULT: -6.727341970      5.050      7.346
REMARK  7 active torsions:
REMARK  status: ('A' for Active; 'I' for Inactive)
REMARK    1  A    between atoms: C2_2  and  C3_3 
REMARK    2  A    between atoms: C3_3  and  C4_4 
REMARK    3  A    between atoms: C5_5  and  C6_6 
REMARK    4  A    between atoms: C9_9  and  C10_10 
REMARK    5  A    between atoms: C14_18  and  C15_19 
REMARK    6  A    between atoms: N4_27  and  C21_29 
REMARK    7  A    between atoms: N6_33  and  C23_34 
ROOT
HETATM    1  C6  UNL     1       3.791  21.014   1.327  1.00  0.00     0.105 A 
HETATM    2  C7  UNL     1       4.989  20.687   1.918  1.00  0.00     0.072 A 
HETATM    3  C8  UNL     1       5.478  19.375   1.833  1.00  0.00     0.088 A 
HETATM    4  C9  UNL     1       6.625  18.791   2.322  1.00  0.00     0.073 A 
HETATM    5  N2  UNL     1       6.615  17.522   1.966  1.00  0.00    -0.342 N 
ATOM      6  H2  UNL     1       7.344  16.846   2.193  1.00  0.00     0.167 HD
HETATM    7  C14 UNL     1       5.503  17.248   1.259  1.00  0.00     0.110 A 
HETATM    8  N3  UNL     1       4.812  18.399   1.185  1.00  0.00    -0.133 N 
HETATM    9  C20 UNL     1       3.643  18.749   0.617  1.00  0.00     0.692 A 
HETATM   10  N4  UNL     1       2.962  17.886  -0.009  1.00  0.00    -0.188 N 
ATOM     11  H4  UNL     1       3.357  16.946  -0.046  1.00  0.00     0.184 HD
HETATM   12  N7  UNL     1       3.153  20.024   0.692  1.00  0.00    -0.183 N 
ATOM     13  H7  UNL     1       2.261  20.230   0.242  1.00  0.00     0.185 HD
ENDROOT
BRANCH  10  14
HETATM   14  C21 UNL     1       1.744  18.062  -0.654  1.00  0.00     0.083 A 
HETATM   15  C22 UNL     1       0.788  17.092  -0.850  1.00  0.00     0.138 A 
HETATM   16  N5  UNL     1      -0.258  17.649  -1.516  1.00  0.00    -0.307 N 
HETATM   17  N6  UNL     1       0.012  18.935  -1.743  1.00  0.00    -0.294 N 
ATOM     18  H5  UNL     1      -1.110  17.163  -1.796  1.00  0.00     0.186 HD
HETATM   19  C28 UNL     1       1.228  19.202  -1.223  1.00  0.00     0.142 A 
BRANCH  17  20
HETATM   20  C23 UNL     1      -0.907  19.794  -2.431  1.00  0.00     0.147 C 
HETATM   21  C24 UNL     1      -0.795  19.600  -3.932  1.00  0.00     0.036 C 
HETATM   22  C25 UNL     1       0.100  20.722  -4.417  1.00  0.00     0.084 C 
HETATM   23  C26 UNL     1      -0.207  21.848  -3.481  1.00  0.00     0.276 C 
HETATM   24  F1  UNL     1      -1.196  22.644  -4.063  1.00  0.00    -0.203 F 
HETATM   25  F2  UNL     1       0.935  22.630  -3.309  1.00  0.00    -0.203 F 
HETATM   26  C27 UNL     1      -0.663  21.252  -2.174  1.00  0.00     0.266 C 
HETATM   27  F3  UNL     1      -1.875  21.857  -1.856  1.00  0.00    -0.241 F 
ENDBRANCH  17  20
ENDBRANCH  10  14
BRANCH   7  28
HETATM   28  C15 UNL     1       5.160  15.916   0.694  1.00  0.00     0.058 C 
HETATM   29  C16 UNL     1       5.936  14.881   1.500  1.00  0.00     0.038 C 
HETATM   30  C17 UNL     1       7.151  14.357   0.808  1.00  0.00     0.168 C 
HETATM   31  O1  UNL     1       7.846  15.267   0.060  1.00  0.00    -0.391 OA
HETATM   32  C18 UNL     1       7.094  15.871  -0.933  1.00  0.00     0.168 C 
HETATM   33  C19 UNL     1       5.620  15.785  -0.742  1.00  0.00     0.038 C 
ENDBRANCH   7  28
BRANCH   1  34
HETATM   34  C5  UNL     1       3.240  22.333   1.379  1.00  0.00    -0.048 C 
HETATM   35  C4  UNL     1       2.768  23.444   1.408  1.00  0.00    -0.100 C 
BRANCH  35  36
HETATM   36  C3  UNL     1       2.181  24.785   1.422  1.00  0.00     0.094 C 
BRANCH  36  37
HETATM   37  C2  UNL     1       1.439  25.066   2.716  1.00  0.00     0.007 C 
HETATM   38  C1  UNL     1       0.710  23.790   3.090  1.00  0.00     0.006 C 
ENDBRANCH  36  37
ENDBRANCH  35  36
ENDBRANCH   1  34
BRANCH   4  39
HETATM   39  C10 UNL     1       7.649  19.497   3.099  1.00  0.00     0.010 A 
HETATM   40  C11 UNL     1       7.874  19.423   4.433  1.00  0.00     0.032 A 
HETATM   41  C12 UNL     1       8.937  20.252   4.744  1.00  0.00     0.088 A 
HETATM   42  N1  UNL     1       9.326  20.808   3.576  1.00  0.00    -0.374 N 
HETATM   43  C13 UNL     1       8.575  20.377   2.568  1.00  0.00     0.101 A 
ATOM     44  H1  UNL     1      10.094  21.472   3.480  1.00  0.00     0.164 HD
ENDBRANCH   4  39
TORSDOF 7
ENDMDL
MODEL 4
REMARK VINA RESULT: -6.699997261      5.248      7.436
REMARK  7 active torsions:
REMARK  status: ('A' for Active; 'I' for Inactive)
REMARK    1  A    between atoms: C2_2  and  C3_3 
REMARK    2  A    between atoms: C3_3  and  C4_4 
REMARK    3  A    between atoms: C5_5  and  C6_6 
REMARK    4  A    between atoms: C9_9  and  C10_10 
REMARK    5  A    between atoms: C14_18  and  C15_19 
REMARK    6  A    between atoms: N4_27  and  C21_29 
REMARK    7  A    between atoms: N6_33  and  C23_34 
ROOT
HETATM    1  C6  UNL     1       1.554  21.978   1.151  1.00  0.00     0.105 A 
HETATM    2  C7  UNL     1       0.687  21.615   0.149  1.00  0.00     0.072 A 
HETATM    3  C8  UNL     1       0.914  20.440  -0.584  1.00  0.00     0.088 A 
HETATM    4  C9  UNL     1       0.217  19.856  -1.617  1.00  0.00     0.073 A 
HETATM    5  N2  UNL     1       0.851  18.751  -1.957  1.00  0.00    -0.342 N 
ATOM      6  H2  UNL     1       0.558  18.114  -2.697  1.00  0.00     0.167 HD
HETATM    7  C14 UNL     1       1.941  18.585  -1.185  1.00  0.00     0.110 A 
HETATM    8  N3  UNL     1       1.967  19.634  -0.344  1.00  0.00    -0.133 N 
HETATM    9  C20 UNL     1       2.798  20.016   0.645  1.00  0.00     0.692 A 
HETATM   10  N4  UNL     1       3.807  19.308   0.928  1.00  0.00    -0.188 N 
ATOM     11  H4  UNL     1       3.932  18.463   0.371  1.00  0.00     0.184 HD
HETATM   12  N7  UNL     1       2.590  21.159   1.367  1.00  0.00    -0.183 N 
ATOM     13  H7  UNL     1       3.255  21.397   2.103  1.00  0.00     0.185 HD
ENDROOT
BRANCH  10  14
HETATM   14  C21 UNL     1       4.767  19.542   1.906  1.00  0.00     0.083 A 
HETATM   15  C22 UNL     1       5.864  20.362   1.779  1.00  0.00     0.138 A 
HETATM   16  N5  UNL     1       6.562  20.330   2.945  1.00  0.00    -0.307 N 
HETATM   17  N6  UNL     1       5.937  19.516   3.798  1.00  0.00    -0.294 N 
ATOM     18  H5  UNL     1       7.422  20.843   3.138  1.00  0.00     0.186 HD
HETATM   19  C28 UNL     1       4.842  19.029   3.179  1.00  0.00     0.142 A 
BRANCH  17  20
HETATM   20  C23 UNL     1       6.434  19.275   5.121  1.00  0.00     0.147 C 
HETATM   21  C24 UNL     1       7.951  19.270   5.126  1.00  0.00     0.036 C 
HETATM   22  C25 UNL     1       8.350  17.810   5.070  1.00  0.00     0.084 C 
HETATM   23  C26 UNL     1       7.253  17.116   5.813  1.00  0.00     0.276 C 
HETATM   24  F1  UNL     1       7.648  16.973   7.145  1.00  0.00    -0.203 F 
HETATM   25  F2  UNL     1       7.065  15.842   5.277  1.00  0.00    -0.203 F 
HETATM   26  C27 UNL     1       6.005  17.952   5.684  1.00  0.00     0.266 C 
HETATM   27  F3  UNL     1       5.520  18.153   6.973  1.00  0.00    -0.241 F 
ENDBRANCH  17  20
ENDBRANCH  10  14
BRANCH   7  28
HETATM   28  C15 UNL     1       2.892  17.448  -1.286  1.00  0.00     0.058 C 
HETATM   29  C16 UNL     1       2.632  16.773  -2.628  1.00  0.00     0.038 C 
HETATM   30  C17 UNL     1       1.839  15.512  -2.533  1.00  0.00     0.168 C 
HETATM   31  O1  UNL     1       0.849  15.504  -1.588  1.00  0.00    -0.391 OA
HETATM   32  C18 UNL     1       1.297  15.751  -0.302  1.00  0.00     0.168 C 
HETATM   33  C19 UNL     1       2.631  16.408  -0.218  1.00  0.00     0.038 C 
ENDBRANCH   7  28
BRANCH   1  34
HETATM   34  C5  UNL     1       1.377  23.164   1.933  1.00  0.00    -0.048 C 
HETATM   35  C4  UNL     1       1.210  24.162   2.591  1.00  0.00    -0.100 C 
BRANCH  35  36
HETATM   36  C3  UNL     1       0.983  25.365   3.394  1.00  0.00     0.094 C 
BRANCH  36  37
HETATM   37  C2  UNL     1      -0.331  25.302   4.151  1.00  0.00     0.007 C 
HETATM   38  C1  UNL     1      -0.155  24.275   5.252  1.00  0.00     0.006 C 
ENDBRANCH  36  37
ENDBRANCH  35  36
ENDBRANCH   1  34
BRANCH   4  39
HETATM   39  C10 UNL     1      -1.010  20.402  -2.204  1.00  0.00     0.010 A 
HETATM   40  C11 UNL     1      -1.263  21.689  -2.547  1.00  0.00     0.032 A 
HETATM   41  C12 UNL     1      -2.544  21.760  -3.066  1.00  0.00     0.088 A 
HETATM   42  N1  UNL     1      -3.031  20.501  -3.019  1.00  0.00    -0.374 N 
HETATM   43  C13 UNL     1      -2.138  19.661  -2.509  1.00  0.00     0.101 A 
ATOM     44  H1  UNL     1      -3.963  20.231  -3.335  1.00  0.00     0.164 HD
ENDBRANCH   4  39
TORSDOF 7
ENDMDL
MODEL 5
REMARK VINA RESULT: -6.684467673      5.250      7.238
REMARK  7 active torsions:
REMARK  status: ('A' for Active; 'I' for Inactive)
REMARK    1  A    between atoms: C2_2  and  C3_3 
REMARK    2  A    between atoms: C3_3  and  C4_4 
REMARK    3  A    between atoms: C5_5  and  C6_6 
REMARK    4  A    between atoms: C9_9  and  C10_10 
REMARK    5  A    between atoms: C14_18  and  C15_19 
REMARK    6  A    between atoms: N4_27  and  C21_29 
REMARK    7  A    between atoms: N6_33  and  C23_34 
ROOT
HETATM    1  C6  UNL     1       2.029  20.280   0.515  1.00  0.00     0.105 A 
HETATM    2  C7  UNL     1       1.503  19.934  -0.707  1.00  0.00     0.072 A 
HETATM    3  C8  UNL     1       1.827  18.697  -1.286  1.00  0.00     0.088 A 
HETATM    4  C9  UNL     1       1.447  18.114  -2.473  1.00  0.00     0.073 A 
HETATM    5  N2  UNL     1       2.033  16.935  -2.549  1.00  0.00    -0.342 N 
ATOM      6  H2  UNL     1       1.930  16.282  -3.325  1.00  0.00     0.167 HD
HETATM    7  C14 UNL     1       2.785  16.720  -1.454  1.00  0.00     0.110 A 
HETATM    8  N3  UNL     1       2.649  17.814  -0.685  1.00  0.00    -0.133 N 
HETATM    9  C20 UNL     1       3.148  18.181   0.511  1.00  0.00     0.692 A 
HETATM   10  N4  UNL     1       3.925  17.403   1.135  1.00  0.00    -0.188 N 
ATOM     11  H4  UNL     1       4.132  16.515   0.678  1.00  0.00     0.184 HD
HETATM   12  N7  UNL     1       2.842  19.383   1.087  1.00  0.00    -0.183 N 
ATOM     13  H7  UNL     1       3.251  19.606   1.995  1.00  0.00     0.185 HD
ENDROOT
BRANCH  10  14
HETATM   14  C21 UNL     1       4.531  17.610   2.369  1.00  0.00     0.083 A 
HETATM   15  C22 UNL     1       4.251  16.926   3.529  1.00  0.00     0.138 A 
HETATM   16  N5  UNL     1       5.048  17.412   4.517  1.00  0.00    -0.307 N 
HETATM   17  N6  UNL     1       5.818  18.378   4.013  1.00  0.00    -0.294 N 
ATOM     18  H5  UNL     1       5.056  17.092   5.486  1.00  0.00     0.186 HD
HETATM   19  C28 UNL     1       5.515  18.509   2.705  1.00  0.00     0.142 A 
BRANCH  17  20
HETATM   20  C23 UNL     1       6.770  19.088   4.816  1.00  0.00     0.147 C 
HETATM   21  C24 UNL     1       6.806  20.554   4.428  1.00  0.00     0.036 C 
HETATM   22  C25 UNL     1       7.989  20.695   3.493  1.00  0.00     0.084 C 
HETATM   23  C26 UNL     1       8.960  19.674   3.996  1.00  0.00     0.276 C 
HETATM   24  F1  UNL     1       9.834  20.302   4.885  1.00  0.00    -0.203 F 
HETATM   25  F2  UNL     1       9.708  19.181   2.927  1.00  0.00    -0.203 F 
HETATM   26  C27 UNL     1       8.173  18.576   4.664  1.00  0.00     0.266 C 
HETATM   27  F3  UNL     1       8.721  18.399   5.930  1.00  0.00    -0.241 F 
ENDBRANCH  17  20
ENDBRANCH  10  14
BRANCH   7  28
HETATM   28  C15 UNL     1       3.586  15.495  -1.199  1.00  0.00     0.058 C 
HETATM   29  C16 UNL     1       3.896  14.879  -2.558  1.00  0.00     0.038 C 
HETATM   30  C17 UNL     1       3.044  13.702  -2.901  1.00  0.00     0.168 C 
HETATM   31  O1  UNL     1       1.740  13.774  -2.492  1.00  0.00    -0.391 OA
HETATM   32  C18 UNL     1       1.589  13.947  -1.126  1.00  0.00     0.168 C 
HETATM   33  C19 UNL     1       2.795  14.464  -0.423  1.00  0.00     0.038 C 
ENDBRANCH   7  28
BRANCH   1  34
HETATM   34  C5  UNL     1       1.737  21.525   1.156  1.00  0.00    -0.048 C 
HETATM   35  C4  UNL     1       1.493  22.568   1.712  1.00  0.00    -0.100 C 
BRANCH  35  36
HETATM   36  C3  UNL     1       1.205  23.824   2.409  1.00  0.00     0.094 C 
BRANCH  36  37
HETATM   37  C2  UNL     1       1.968  24.992   1.811  1.00  0.00     0.007 C 
HETATM   38  C1  UNL     1       1.202  26.249   2.176  1.00  0.00     0.006 C 
ENDBRANCH  36  37
ENDBRANCH  35  36
ENDBRANCH   1  34
BRANCH   4  39
HETATM   39  C10 UNL     1       0.547  18.733  -3.451  1.00  0.00     0.010 A 
HETATM   40  C11 UNL     1      -0.783  18.523  -3.602  1.00  0.00     0.032 A 
HETATM   41  C12 UNL     1      -1.235  19.312  -4.645  1.00  0.00     0.088 A 
HETATM   42  N1  UNL     1      -0.153  19.982  -5.098  1.00  0.00    -0.374 N 
HETATM   43  C13 UNL     1       0.933  19.659  -4.405  1.00  0.00     0.101 A 
ATOM     44  H1  UNL     1      -0.167  20.647  -5.870  1.00  0.00     0.164 HD
ENDBRANCH   4  39
TORSDOF 7
ENDMDL
