MODEL 1
REMARK VINA RESULT: -7.027779873      0.000      0.000
REMARK  6 active torsions:
REMARK  status: ('A' for Active; 'I' for Inactive)
REMARK    1  A    between atoms: C2_2  and  C3_3 
REMARK    2  A    between atoms: C2_2  and  C8_12 
REMARK    3  A    between atoms: C8_12  and  C9_14 
REMARK    4  A    between atoms: C8_12  and  C24_35 
REMARK    5  A    between atoms: C13_19  and  N2_20 
REMARK       I    between atoms: N2_20  and  C14_22 
REMARK    6  A    between atoms: C14_22  and  C15_24 
ROOT
HETATM    1  C9  UNL     1       8.968  19.518  -0.347  1.00  0.00    -0.023 A 
HETATM    2  C10 UNL     1       9.546  18.704   0.598  1.00  0.00     0.011 A 
HETATM    3  C11 UNL     1       8.911  18.465   1.793  1.00  0.00     0.027 A 
HETATM    4  C12 UNL     1       7.701  19.025   2.072  1.00  0.00     0.060 A 
HETATM    5 CL2  UNL     1       6.880  18.720   3.606  1.00  0.00    -0.082 Cl
HETATM    6  C13 UNL     1       7.056  19.870   1.144  1.00  0.00     0.057 A 
HETATM    7  C23 UNL     1       7.735  20.068  -0.027  1.00  0.00     0.040 A 
ENDROOT
BRANCH   1   8
HETATM    8  C8  UNL     1       9.692  19.826  -1.621  1.00  0.00     0.166 C 
HETATM    9 CL1  UNL     1      11.389  19.168  -1.411  1.00  0.00    -0.104 Cl
BRANCH   8  10
HETATM   10  C2  UNL     1       9.188  19.257  -2.857  1.00  0.00     0.049 C 
HETATM   11  C1  UNL     1      10.123  19.287  -4.023  1.00  0.00     0.015 C 
BRANCH  10  12
HETATM   12  C3  UNL     1       8.539  17.880  -2.811  1.00  0.00     0.192 C 
HETATM   13  C4  UNL     1       7.196  17.950  -3.545  1.00  0.00     0.036 C 
HETATM   14  C5  UNL     1       7.177  17.411  -4.923  1.00  0.00     0.041 C 
HETATM   15  C6  UNL     1       7.828  16.071  -5.116  1.00  0.00     0.195 C 
HETATM   16  F1  UNL     1       6.940  15.050  -5.392  1.00  0.00    -0.248 F 
HETATM   17  C7  UNL     1       8.571  15.724  -3.852  1.00  0.00     0.269 C 
HETATM   18  N1  UNL     1       9.377  16.878  -3.447  1.00  0.00    -0.068 N 
ATOM     19  H12 UNL     1       9.907  17.265  -4.228  1.00  0.00     0.277 HD
ATOM     20  H11 UNL     1      10.160  16.605  -2.854  1.00  0.00     0.277 HD
ENDBRANCH  10  12
ENDBRANCH   8  10
BRANCH   8  21
HETATM   21  C24 UNL     1       9.936  21.337  -1.696  1.00  0.00     0.413 C 
HETATM   22  F2  UNL     1      10.252  21.814  -0.410  1.00  0.00    -0.169 F 
HETATM   23  F3  UNL     1       8.986  22.067  -2.264  1.00  0.00    -0.169 F 
HETATM   24  F4  UNL     1      11.159  21.612  -2.363  1.00  0.00    -0.169 F 
ENDBRANCH   8  21
ENDBRANCH   1   8
BRANCH   6  25
HETATM   25  N2  UNL     1       5.850  20.484   1.522  1.00  0.00    -0.325 N 
HETATM   26  C14 UNL     1       4.541  20.192   1.137  1.00  0.00     0.226 C 
HETATM   27  O1  UNL     1       4.285  19.245   0.362  1.00  0.00    -0.273 OA
ATOM     28  H2  UNL     1       5.946  21.261   2.176  1.00  0.00     0.169 HD
BRANCH  26  29
HETATM   29  C15 UNL     1       3.380  20.972   1.608  1.00  0.00     0.078 C 
HETATM   30  C16 UNL     1       3.621  21.426   3.026  1.00  0.00     0.019 C 
HETATM   31  C17 UNL     1       2.280  21.819   3.614  1.00  0.00     0.069 C 
HETATM   32  C18 UNL     1       1.410  22.633   2.736  1.00  0.00     0.164 C 
HETATM   33  C19 UNL     1       1.605  22.558   1.272  1.00  0.00     0.069 C 
HETATM   34  O2  UNL     1       0.092  22.251   3.017  1.00  0.00    -0.353 OA
HETATM   35  O3  UNL     1       1.546  23.965   3.131  1.00  0.00    -0.353 OA
HETATM   36  C20 UNL     1       3.021  22.183   0.822  1.00  0.00     0.019 C 
HETATM   37  C21 UNL     1      -0.554  23.292   3.607  1.00  0.00     0.197 C 
HETATM   38  C22 UNL     1       0.508  24.290   3.963  1.00  0.00     0.197 C 
ENDBRANCH  26  29
ENDBRANCH   6  25
TORSDOF 6
ENDMDL
MODEL 2
REMARK VINA RESULT: -6.949533622      1.073      1.474
REMARK  6 active torsions:
REMARK  status: ('A' for Active; 'I' for Inactive)
REMARK    1  A    between atoms: C2_2  and  C3_3 
REMARK    2  A    between atoms: C2_2  and  C8_12 
REMARK    3  A    between atoms: C8_12  and  C9_14 
REMARK    4  A    between atoms: C8_12  and  C24_35 
REMARK    5  A    between atoms: C13_19  and  N2_20 
REMARK       I    between atoms: N2_20  and  C14_22 
REMARK    6  A    between atoms: C14_22  and  C15_24 
ROOT
HETATM    1  C9  UNL     1       9.224  19.404  -0.457  1.00  0.00    -0.023 A 
HETATM    2  C10 UNL     1       9.825  18.479   0.365  1.00  0.00     0.011 A 
HETATM    3  C11 UNL     1       9.195  18.052   1.508  1.00  0.00     0.027 A 
HETATM    4  C12 UNL     1       7.967  18.529   1.857  1.00  0.00     0.060 A 
HETATM    5 CL2  UNL     1       7.154  17.981   3.326  1.00  0.00    -0.082 Cl
HETATM    6  C13 UNL     1       7.299  19.480   1.057  1.00  0.00     0.057 A 
HETATM    7  C23 UNL     1       7.974  19.865  -0.069  1.00  0.00     0.040 A 
ENDROOT
BRANCH   1   8
HETATM    8  C8  UNL     1       9.941  19.913  -1.669  1.00  0.00     0.166 C 
HETATM    9 CL1  UNL     1      11.682  19.373  -1.492  1.00  0.00    -0.104 Cl
BRANCH   8  10
HETATM   10  C2  UNL     1       9.506  19.454  -2.974  1.00  0.00     0.049 C 
HETATM   11  C1  UNL     1      10.438  19.723  -4.111  1.00  0.00     0.015 C 
BRANCH  10  12
HETATM   12  C3  UNL     1       9.003  18.023  -3.109  1.00  0.00     0.192 C 
HETATM   13  C4  UNL     1       7.490  18.059  -3.353  1.00  0.00     0.036 C 
HETATM   14  C5  UNL     1       7.051  17.862  -4.752  1.00  0.00     0.041 C 
HETATM   15  C6  UNL     1       7.689  16.720  -5.489  1.00  0.00     0.195 C 
HETATM   16  F1  UNL     1       6.831  15.669  -5.750  1.00  0.00    -0.248 F 
HETATM   17  C7  UNL     1       8.831  16.202  -4.655  1.00  0.00     0.269 C 
HETATM   18  N1  UNL     1       9.647  17.337  -4.216  1.00  0.00    -0.068 N 
ATOM     19  H12 UNL     1       9.860  17.972  -4.985  1.00  0.00     0.277 HD
ATOM     20  H11 UNL     1      10.599  17.054  -3.985  1.00  0.00     0.277 HD
ENDBRANCH  10  12
ENDBRANCH   8  10
BRANCH   8  21
HETATM   21  C24 UNL     1      10.061  21.438  -1.564  1.00  0.00     0.413 C 
HETATM   22  F2  UNL     1      10.194  21.795  -0.209  1.00  0.00    -0.169 F 
HETATM   23  F3  UNL     1       9.120  22.153  -2.164  1.00  0.00    -0.169 F 
HETATM   24  F4  UNL     1      11.322  21.873  -2.053  1.00  0.00    -0.169 F 
ENDBRANCH   8  21
ENDBRANCH   1   8
BRANCH   6  25
HETATM   25  N2  UNL     1       6.074  19.996   1.511  1.00  0.00    -0.325 N 
HETATM   26  C14 UNL     1       5.820  21.002   2.443  1.00  0.00     0.226 C 
HETATM   27  O1  UNL     1       6.750  21.623   3.002  1.00  0.00    -0.273 OA
ATOM     28  H2  UNL     1       5.245  19.570   1.097  1.00  0.00     0.169 HD
BRANCH  26  29
HETATM   29  C15 UNL     1       4.453  21.399   2.834  1.00  0.00     0.078 C 
HETATM   30  C16 UNL     1       3.736  21.978   1.640  1.00  0.00     0.019 C 
HETATM   31  C17 UNL     1       2.545  22.761   2.157  1.00  0.00     0.069 C 
HETATM   32  C18 UNL     1       1.755  22.096   3.217  1.00  0.00     0.164 C 
HETATM   33  C19 UNL     1       2.409  21.066   4.053  1.00  0.00     0.069 C 
HETATM   34  O2  UNL     1       1.294  23.113   4.065  1.00  0.00    -0.353 OA
HETATM   35  O3  UNL     1       0.635  21.526   2.610  1.00  0.00    -0.353 OA
HETATM   36  C20 UNL     1       3.577  20.332   3.388  1.00  0.00     0.019 C 
HETATM   37  C21 UNL     1      -0.059  23.200   3.953  1.00  0.00     0.197 C 
HETATM   38  C22 UNL     1      -0.431  22.373   2.758  1.00  0.00     0.197 C 
ENDBRANCH  26  29
ENDBRANCH   6  25
TORSDOF 6
ENDMDL
MODEL 3
REMARK VINA RESULT: -6.811317536      4.193      6.212
REMARK  6 active torsions:
REMARK  status: ('A' for Active; 'I' for Inactive)
REMARK    1  A    between atoms: C2_2  and  C3_3 
REMARK    2  A    between atoms: C2_2  and  C8_12 
REMARK    3  A    between atoms: C8_12  and  C9_14 
REMARK    4  A    between atoms: C8_12  and  C24_35 
REMARK    5  A    between atoms: C13_19  and  N2_20 
REMARK       I    between atoms: N2_20  and  C14_22 
REMARK    6  A    between atoms: C14_22  and  C15_24 
ROOT
HETATM    1  C9  UNL     1       5.941  19.992   2.249  1.00  0.00    -0.023 A 
HETATM    2  C10 UNL     1       5.537  18.965   1.428  1.00  0.00     0.011 A 
HETATM    3  C11 UNL     1       4.224  18.865   1.034  1.00  0.00     0.027 A 
HETATM    4  C12 UNL     1       3.294  19.772   1.445  1.00  0.00     0.060 A 
HETATM    5 CL2  UNL     1       1.605  19.646   0.941  1.00  0.00    -0.082 Cl
HETATM    6  C13 UNL     1       3.644  20.847   2.288  1.00  0.00     0.057 A 
HETATM    7  C23 UNL     1       4.965  20.896   2.644  1.00  0.00     0.040 A 
ENDROOT
BRANCH   1   8
HETATM    8  C8  UNL     1       7.358  20.062   2.725  1.00  0.00     0.166 C 
HETATM    9 CL1  UNL     1       7.581  21.746   3.410  1.00  0.00    -0.104 Cl
BRANCH   8  10
HETATM   10  C2  UNL     1       7.784  19.144   3.764  1.00  0.00     0.049 C 
HETATM   11  C1  UNL     1       8.514  19.751   4.919  1.00  0.00     0.015 C 
BRANCH  10  12
HETATM   12  C3  UNL     1       6.769  18.154   4.319  1.00  0.00     0.192 C 
HETATM   13  C4  UNL     1       7.460  16.799   4.504  1.00  0.00     0.036 C 
HETATM   14  C5  UNL     1       7.866  16.457   5.884  1.00  0.00     0.041 C 
HETATM   15  C6  UNL     1       6.835  16.685   6.952  1.00  0.00     0.195 C 
HETATM   16  F1  UNL     1       6.326  15.524   7.500  1.00  0.00    -0.248 F 
HETATM   17  C7  UNL     1       5.695  17.460   6.344  1.00  0.00     0.269 C 
HETATM   18  N1  UNL     1       6.241  18.597   5.598  1.00  0.00    -0.068 N 
ATOM     19  H12 UNL     1       6.937  19.108   6.141  1.00  0.00     0.277 HD
ATOM     20  H11 UNL     1       5.556  19.344   5.489  1.00  0.00     0.277 HD
ENDBRANCH  10  12
ENDBRANCH   8  10
BRANCH   8  21
HETATM   21  C24 UNL     1       8.286  20.081   1.506  1.00  0.00     0.413 C 
HETATM   22  F2  UNL     1       9.429  20.844   1.811  1.00  0.00    -0.169 F 
HETATM   23  F3  UNL     1       7.748  20.454   0.353  1.00  0.00    -0.169 F 
HETATM   24  F4  UNL     1       8.888  18.809   1.318  1.00  0.00    -0.169 F 
ENDBRANCH   8  21
ENDBRANCH   1   8
BRANCH   6  25
HETATM   25  N2  UNL     1       2.627  21.701   2.745  1.00  0.00    -0.325 N 
HETATM   26  C14 UNL     1       2.192  22.924   2.234  1.00  0.00     0.226 C 
HETATM   27  O1  UNL     1       2.698  23.417   1.203  1.00  0.00    -0.273 OA
ATOM     28  H2  UNL     1       2.131  21.377   3.575  1.00  0.00     0.169 HD
BRANCH  26  29
HETATM   29  C15 UNL     1       1.120  23.716   2.868  1.00  0.00     0.078 C 
HETATM   30  C16 UNL     1       0.817  23.150   4.234  1.00  0.00     0.019 C 
HETATM   31  C17 UNL     1      -0.540  23.678   4.656  1.00  0.00     0.069 C 
HETATM   32  C18 UNL     1      -0.772  25.118   4.407  1.00  0.00     0.164 C 
HETATM   33  C19 UNL     1       0.009  25.793   3.348  1.00  0.00     0.069 C 
HETATM   34  O2  UNL     1      -2.132  25.252   4.094  1.00  0.00    -0.353 OA
HETATM   35  O3  UNL     1      -0.559  25.791   5.610  1.00  0.00    -0.353 OA
HETATM   36  C20 UNL     1       1.377  25.170   3.050  1.00  0.00     0.019 C 
HETATM   37  C21 UNL     1      -2.748  25.944   5.089  1.00  0.00     0.197 C 
HETATM   38  C22 UNL     1      -1.765  26.005   6.221  1.00  0.00     0.197 C 
ENDBRANCH  26  29
ENDBRANCH   6  25
TORSDOF 6
ENDMDL
MODEL 4
REMARK VINA RESULT: -6.713935868      2.598      4.331
REMARK  6 active torsions:
REMARK  status: ('A' for Active; 'I' for Inactive)
REMARK    1  A    between atoms: C2_2  and  C3_3 
REMARK    2  A    between atoms: C2_2  and  C8_12 
REMARK    3  A    between atoms: C8_12  and  C9_14 
REMARK    4  A    between atoms: C8_12  and  C24_35 
REMARK    5  A    between atoms: C13_19  and  N2_20 
REMARK       I    between atoms: N2_20  and  C14_22 
REMARK    6  A    between atoms: C14_22  and  C15_24 
ROOT
HETATM    1  C9  UNL     1       6.375  19.882   1.914  1.00  0.00    -0.023 A 
HETATM    2  C10 UNL     1       5.943  18.839   1.129  1.00  0.00     0.011 A 
HETATM    3  C11 UNL     1       4.617  18.732   0.782  1.00  0.00     0.027 A 
HETATM    4  C12 UNL     1       3.702  19.648   1.205  1.00  0.00     0.060 A 
HETATM    5 CL2  UNL     1       1.998  19.514   0.762  1.00  0.00    -0.082 Cl
HETATM    6  C13 UNL     1       4.082  20.740   2.014  1.00  0.00     0.057 A 
HETATM    7  C23 UNL     1       5.414  20.794   2.323  1.00  0.00     0.040 A 
ENDROOT
BRANCH   1   8
HETATM    8  C8  UNL     1       7.808  19.960   2.340  1.00  0.00     0.166 C 
HETATM    9 CL1  UNL     1       8.069  18.566   3.500  1.00  0.00    -0.104 Cl
BRANCH   8  10
HETATM   10  C2  UNL     1       8.838  19.839   1.326  1.00  0.00     0.049 C 
HETATM   11  C1  UNL     1       9.682  18.607   1.388  1.00  0.00     0.015 C 
BRANCH  10  12
HETATM   12  C3  UNL     1       8.455  20.073  -0.129  1.00  0.00     0.192 C 
HETATM   13  C4  UNL     1       9.275  21.251  -0.667  1.00  0.00     0.036 C 
HETATM   14  C5  UNL     1      10.443  20.904  -1.505  1.00  0.00     0.041 C 
HETATM   15  C6  UNL     1      10.205  19.880  -2.578  1.00  0.00     0.195 C 
HETATM   16  F1  UNL     1      10.246  20.390  -3.860  1.00  0.00    -0.248 F 
HETATM   17  C7  UNL     1       8.844  19.274  -2.353  1.00  0.00     0.269 C 
HETATM   18  N1  UNL     1       8.721  18.898  -0.942  1.00  0.00    -0.068 N 
ATOM     19  H12 UNL     1       9.539  18.385  -0.613  1.00  0.00     0.277 HD
ATOM     20  H11 UNL     1       8.020  18.172  -0.801  1.00  0.00     0.277 HD
ENDBRANCH  10  12
ENDBRANCH   8  10
BRANCH   8  21
HETATM   21  C24 UNL     1       7.985  21.179   3.252  1.00  0.00     0.413 C 
HETATM   22  F2  UNL     1       8.393  20.743   4.526  1.00  0.00    -0.169 F 
HETATM   23  F3  UNL     1       6.960  22.017   3.331  1.00  0.00    -0.169 F 
HETATM   24  F4  UNL     1       9.132  21.924   2.871  1.00  0.00    -0.169 F 
ENDBRANCH   8  21
ENDBRANCH   1   8
BRANCH   6  25
HETATM   25  N2  UNL     1       3.081  21.605   2.487  1.00  0.00    -0.325 N 
HETATM   26  C14 UNL     1       2.491  22.709   1.871  1.00  0.00     0.226 C 
HETATM   27  O1  UNL     1       2.808  23.056   0.714  1.00  0.00    -0.273 OA
ATOM     28  H2  UNL     1       2.734  21.393   3.423  1.00  0.00     0.169 HD
BRANCH  26  29
HETATM   29  C15 UNL     1       1.466  23.537   2.536  1.00  0.00     0.078 C 
HETATM   30  C16 UNL     1       1.157  22.961   3.895  1.00  0.00     0.019 C 
HETATM   31  C17 UNL     1      -0.168  23.543   4.348  1.00  0.00     0.069 C 
HETATM   32  C18 UNL     1      -0.336  24.997   4.128  1.00  0.00     0.164 C 
HETATM   33  C19 UNL     1       0.461  25.654   3.070  1.00  0.00     0.069 C 
HETATM   34  O2  UNL     1      -1.692  25.200   3.838  1.00  0.00    -0.353 OA
HETATM   35  O3  UNL     1      -0.074  25.637   5.340  1.00  0.00    -0.353 OA
HETATM   36  C20 UNL     1       1.793  24.974   2.740  1.00  0.00     0.019 C 
HETATM   37  C21 UNL     1      -2.261  25.901   4.854  1.00  0.00     0.197 C 
HETATM   38  C22 UNL     1      -1.261  25.895   5.972  1.00  0.00     0.197 C 
ENDBRANCH  26  29
ENDBRANCH   6  25
TORSDOF 6
ENDMDL
MODEL 5
REMARK VINA RESULT: -6.699445903      4.162      6.210
REMARK  6 active torsions:
REMARK  status: ('A' for Active; 'I' for Inactive)
REMARK    1  A    between atoms: C2_2  and  C3_3 
REMARK    2  A    between atoms: C2_2  and  C8_12 
REMARK    3  A    between atoms: C8_12  and  C9_14 
REMARK    4  A    between atoms: C8_12  and  C24_35 
REMARK    5  A    between atoms: C13_19  and  N2_20 
REMARK       I    between atoms: N2_20  and  C14_22 
REMARK    6  A    between atoms: C14_22  and  C15_24 
ROOT
HETATM    1  C9  UNL     1       5.972  19.910   2.359  1.00  0.00    -0.023 A 
HETATM    2  C10 UNL     1       5.537  18.879   1.559  1.00  0.00     0.011 A 
HETATM    3  C11 UNL     1       4.202  18.744   1.263  1.00  0.00     0.027 A 
HETATM    4  C12 UNL     1       3.280  19.620   1.751  1.00  0.00     0.060 A 
HETATM    5 CL2  UNL     1       1.563  19.451   1.372  1.00  0.00    -0.082 Cl
HETATM    6  C13 UNL     1       3.662  20.698   2.578  1.00  0.00     0.057 A 
HETATM    7  C23 UNL     1       5.003  20.781   2.835  1.00  0.00     0.040 A 
ENDROOT
BRANCH   1   8
HETATM    8  C8  UNL     1       7.419  20.016   2.730  1.00  0.00     0.166 C 
HETATM    9 CL1  UNL     1       7.649  21.709   3.391  1.00  0.00    -0.104 Cl
BRANCH   8  10
HETATM   10  C2  UNL     1       7.942  19.114   3.738  1.00  0.00     0.049 C 
HETATM   11  C1  UNL     1       8.651  19.753   4.888  1.00  0.00     0.015 C 
BRANCH  10  12
HETATM   12  C3  UNL     1       7.022  18.035   4.294  1.00  0.00     0.192 C 
HETATM   13  C4  UNL     1       7.788  16.708   4.319  1.00  0.00     0.036 C 
HETATM   14  C5  UNL     1       8.323  16.288   5.633  1.00  0.00     0.041 C 
HETATM   15  C6  UNL     1       7.374  16.385   6.793  1.00  0.00     0.195 C 
HETATM   16  F1  UNL     1       6.966  15.162   7.289  1.00  0.00    -0.248 F 
HETATM   17  C7  UNL     1       6.153  17.141   6.338  1.00  0.00     0.269 C 
HETATM   18  N1  UNL     1       6.583  18.356   5.641  1.00  0.00    -0.068 N 
ATOM     19  H12 UNL     1       7.297  18.862   6.164  1.00  0.00     0.277 HD
ATOM     20  H11 UNL     1       5.858  19.073   5.643  1.00  0.00     0.277 HD
ENDBRANCH  10  12
ENDBRANCH   8  10
BRANCH   8  21
HETATM   21  C24 UNL     1       8.254  20.052   1.445  1.00  0.00     0.413 C 
HETATM   22  F2  UNL     1       9.444  20.762   1.692  1.00  0.00    -0.169 F 
HETATM   23  F3  UNL     1       7.647  20.490   0.351  1.00  0.00    -0.169 F 
HETATM   24  F4  UNL     1       8.792  18.768   1.165  1.00  0.00    -0.169 F 
ENDBRANCH   8  21
ENDBRANCH   1   8
BRANCH   6  25
HETATM   25  N2  UNL     1       2.657  21.518   3.118  1.00  0.00    -0.325 N 
HETATM   26  C14 UNL     1       2.166  22.743   2.666  1.00  0.00     0.226 C 
HETATM   27  O1  UNL     1       2.596  23.270   1.618  1.00  0.00    -0.273 OA
ATOM     28  H2  UNL     1       2.222  21.164   3.970  1.00  0.00     0.169 HD
BRANCH  26  29
HETATM   29  C15 UNL     1       1.120  23.495   3.385  1.00  0.00     0.078 C 
HETATM   30  C16 UNL     1       1.092  24.919   2.888  1.00  0.00     0.019 C 
HETATM   31  C17 UNL     1       0.352  25.749   3.919  1.00  0.00     0.069 C 
HETATM   32  C18 UNL     1      -0.893  25.148   4.449  1.00  0.00     0.164 C 
HETATM   33  C19 UNL     1      -1.052  23.679   4.399  1.00  0.00     0.069 C 
HETATM   34  O2  UNL     1      -0.988  25.548   5.788  1.00  0.00    -0.353 OA
HETATM   35  O3  UNL     1      -1.962  25.731   3.767  1.00  0.00    -0.353 OA
HETATM   36  C20 UNL     1      -0.271  22.976   3.284  1.00  0.00     0.019 C 
HETATM   37  C21 UNL     1      -2.051  26.386   5.924  1.00  0.00     0.197 C 
HETATM   38  C22 UNL     1      -2.477  26.744   4.531  1.00  0.00     0.197 C 
ENDBRANCH  26  29
ENDBRANCH   6  25
TORSDOF 6
ENDMDL
