MODEL 1
REMARK VINA RESULT: -6.758456634      0.000      0.000
REMARK  5 active torsions:
REMARK  status: ('A' for Active; 'I' for Inactive)
REMARK    1  A    between atoms: O1_2  and  N1_3 
REMARK    2  A    between atoms: C2_5  and  C4_7 
REMARK    3  A    between atoms: C7_10  and  N2_11 
REMARK    4  A    between atoms: N2_11  and  S1_13 
REMARK    5  A    between atoms: S1_13  and  C8_16 
ROOT
HETATM    1  N2  UNL     1       2.131  21.044   1.439  1.00  0.00    -0.279 N 
ATOM      2  H2  UNL     1       2.372  20.081   1.672  1.00  0.00     0.179 HD
ENDROOT
BRANCH   1   3
HETATM    3  C7  UNL     1       1.285  21.199   0.336  1.00  0.00     0.060 A 
HETATM    4  C6  UNL     1       1.316  22.243  -0.530  1.00  0.00     0.032 A 
HETATM    5  C5  UNL     1       0.419  22.337  -1.603  1.00  0.00     0.016 A 
HETATM    6  C4  UNL     1      -0.542  21.374  -1.831  1.00  0.00    -0.011 A 
HETATM    7  C15 UNL     1      -0.571  20.304  -0.938  1.00  0.00     0.034 A 
HETATM    8  C14 UNL     1       0.308  20.233   0.092  1.00  0.00     0.039 A 
HETATM    9 BR1  UNL     1       0.223  18.748   1.281  1.00  0.00    -0.049 Br
BRANCH   6  10
HETATM   10  C2  UNL     1      -1.505  21.383  -2.903  1.00  0.00     0.038 C 
HETATM   11  N1  UNL     1      -1.233  21.294  -4.116  1.00  0.00    -0.271 N 
ATOM     12  H1  UNL     1      -2.075  21.321  -4.692  1.00  0.00     0.194 HD
HETATM   13  C3  UNL     1      -2.977  21.509  -2.565  1.00  0.00     0.071 C 
BRANCH  11  14
HETATM   14  O1  UNL     1      -0.145  21.174  -4.855  1.00  0.00    -0.285 OA
HETATM   15  C1  UNL     1       0.760  22.165  -5.231  1.00  0.00     0.237 C 
ENDBRANCH  11  14
ENDBRANCH   6  10
ENDBRANCH   1   3
BRANCH   1  16
HETATM   16  S1  UNL     1       2.811  22.228   2.442  1.00  0.00     0.268 S 
HETATM   17  O2  UNL     1       3.972  22.909   1.781  1.00  0.00    -0.200 OA
HETATM   18  O3  UNL     1       3.325  21.639   3.750  1.00  0.00    -0.200 OA
BRANCH  16  19
HETATM   19  C8  UNL     1       1.650  23.442   2.901  1.00  0.00     0.143 A 
HETATM   20  C9  UNL     1       1.542  24.654   2.280  1.00  0.00     0.164 A 
HETATM   21  F1  UNL     1       2.343  24.934   1.203  1.00  0.00    -0.203 F 
HETATM   22  C10 UNL     1       0.612  25.614   2.700  1.00  0.00     0.097 A 
HETATM   23 CL1  UNL     1       0.516  27.141   1.876  1.00  0.00    -0.079 Cl
HETATM   24  C11 UNL     1      -0.229  25.362   3.757  1.00  0.00     0.082 A 
HETATM   25 CL2  UNL     1      -1.408  26.569   4.296  1.00  0.00    -0.081 Cl
HETATM   26  C12 UNL     1      -0.131  24.143   4.392  1.00  0.00     0.081 A 
HETATM   27 CL3  UNL     1      -1.223  23.852   5.743  1.00  0.00    -0.081 Cl
HETATM   28  C13 UNL     1       0.775  23.222   3.975  1.00  0.00     0.084 A 
HETATM   29 CL4  UNL     1       0.897  21.678   4.782  1.00  0.00    -0.081 Cl
ENDBRANCH  16  19
ENDBRANCH   1  16
TORSDOF 5
ENDMDL
MODEL 2
REMARK VINA RESULT: -6.634156787      1.165      2.203
REMARK  5 active torsions:
REMARK  status: ('A' for Active; 'I' for Inactive)
REMARK    1  A    between atoms: O1_2  and  N1_3 
REMARK    2  A    between atoms: C2_5  and  C4_7 
REMARK    3  A    between atoms: C7_10  and  N2_11 
REMARK    4  A    between atoms: N2_11  and  S1_13 
REMARK    5  A    between atoms: S1_13  and  C8_16 
ROOT
HETATM    1  N2  UNL     1       2.033  20.872   1.530  1.00  0.00    -0.279 N 
ATOM      2  H2  UNL     1       2.233  19.900   1.764  1.00  0.00     0.179 HD
ENDROOT
BRANCH   1   3
HETATM    3  C7  UNL     1       1.228  21.064   0.403  1.00  0.00     0.060 A 
HETATM    4  C6  UNL     1       1.351  22.088  -0.478  1.00  0.00     0.032 A 
HETATM    5  C5  UNL     1       0.489  22.223  -1.575  1.00  0.00     0.016 A 
HETATM    6  C4  UNL     1      -0.528  21.322  -1.814  1.00  0.00    -0.011 A 
HETATM    7  C15 UNL     1      -0.650  20.272  -0.905  1.00  0.00     0.034 A 
HETATM    8  C14 UNL     1       0.195  20.161   0.149  1.00  0.00     0.039 A 
HETATM    9 BR1  UNL     1      -0.019  18.705   1.357  1.00  0.00    -0.049 Br
BRANCH   6  10
HETATM   10  C2  UNL     1      -1.461  21.376  -2.911  1.00  0.00     0.038 C 
HETATM   11  N1  UNL     1      -1.155  21.337  -4.119  1.00  0.00    -0.271 N 
ATOM     12  H1  UNL     1      -1.981  21.389  -4.716  1.00  0.00     0.194 HD
HETATM   13  C3  UNL     1      -2.942  21.490  -2.609  1.00  0.00     0.071 C 
BRANCH  11  14
HETATM   14  O1  UNL     1      -0.047  21.246  -4.831  1.00  0.00    -0.285 OA
HETATM   15  C1  UNL     1       0.819  22.268  -5.219  1.00  0.00     0.237 C 
ENDBRANCH  11  14
ENDBRANCH   6  10
ENDBRANCH   1   3
BRANCH   1  16
HETATM   16  S1  UNL     1       2.724  22.026   2.561  1.00  0.00     0.268 S 
HETATM   17  O2  UNL     1       3.901  22.701   1.922  1.00  0.00    -0.200 OA
HETATM   18  O3  UNL     1       3.221  21.403   3.861  1.00  0.00    -0.200 OA
BRANCH  16  19
HETATM   19  C8  UNL     1       1.579  23.248   3.037  1.00  0.00     0.143 A 
HETATM   20  C9  UNL     1       0.644  23.063   4.016  1.00  0.00     0.164 A 
HETATM   21  F1  UNL     1       0.619  21.881   4.711  1.00  0.00    -0.203 F 
HETATM   22  C10 UNL     1      -0.278  24.064   4.348  1.00  0.00     0.097 A 
HETATM   23 CL1  UNL     1      -1.447  23.778   5.602  1.00  0.00    -0.079 Cl
HETATM   24  C11 UNL     1      -0.268  25.273   3.696  1.00  0.00     0.082 A 
HETATM   25 CL2  UNL     1      -1.429  26.545   4.109  1.00  0.00    -0.081 Cl
HETATM   26  C12 UNL     1       0.670  25.472   2.707  1.00  0.00     0.081 A 
HETATM   27 CL3  UNL     1       0.656  27.033   1.891  1.00  0.00    -0.081 Cl
HETATM   28  C13 UNL     1       1.557  24.494   2.394  1.00  0.00     0.084 A 
HETATM   29 CL4  UNL     1       2.746  24.750   1.140  1.00  0.00    -0.081 Cl
ENDBRANCH  16  19
ENDBRANCH   1  16
TORSDOF 5
ENDMDL
MODEL 3
REMARK VINA RESULT: -6.513372664      1.361      1.781
REMARK  5 active torsions:
REMARK  status: ('A' for Active; 'I' for Inactive)
REMARK    1  A    between atoms: O1_2  and  N1_3 
REMARK    2  A    between atoms: C2_5  and  C4_7 
REMARK    3  A    between atoms: C7_10  and  N2_11 
REMARK    4  A    between atoms: N2_11  and  S1_13 
REMARK    5  A    between atoms: S1_13  and  C8_16 
ROOT
HETATM    1  N2  UNL     1       2.423  20.838   1.099  1.00  0.00    -0.279 N 
ATOM      2  H2  UNL     1       2.842  19.910   1.165  1.00  0.00     0.179 HD
ENDROOT
BRANCH   1   3
HETATM    3  C7  UNL     1       1.347  20.946   0.213  1.00  0.00     0.060 A 
HETATM    4  C6  UNL     1       1.241  21.869  -0.777  1.00  0.00     0.032 A 
HETATM    5  C5  UNL     1       0.117  21.927  -1.612  1.00  0.00     0.016 A 
HETATM    6  C4  UNL     1      -0.938  21.050  -1.471  1.00  0.00    -0.011 A 
HETATM    7  C15 UNL     1      -0.825  20.105  -0.452  1.00  0.00     0.034 A 
HETATM    8  C14 UNL     1       0.272  20.067   0.344  1.00  0.00     0.039 A 
HETATM    9 BR1  UNL     1       0.372  18.753   1.719  1.00  0.00    -0.049 Br
BRANCH   6  10
HETATM   10  C2  UNL     1      -2.131  21.031  -2.279  1.00  0.00     0.038 C 
HETATM   11  N1  UNL     1      -2.869  20.041  -2.449  1.00  0.00    -0.271 N 
ATOM     12  H1  UNL     1      -3.657  20.261  -3.060  1.00  0.00     0.194 HD
HETATM   13  C3  UNL     1      -2.553  22.299  -2.993  1.00  0.00     0.071 C 
BRANCH  11  14
HETATM   14  O1  UNL     1      -2.903  18.783  -2.050  1.00  0.00    -0.285 OA
HETATM   15  C1  UNL     1      -3.947  17.866  -2.165  1.00  0.00     0.237 C 
ENDBRANCH  11  14
ENDBRANCH   6  10
ENDBRANCH   1   3
BRANCH   1  16
HETATM   16  S1  UNL     1       3.130  22.027   2.076  1.00  0.00     0.268 S 
HETATM   17  O2  UNL     1       4.207  22.772   1.345  1.00  0.00    -0.200 OA
HETATM   18  O3  UNL     1       3.770  21.432   3.325  1.00  0.00    -0.200 OA
BRANCH  16  19
HETATM   19  C8  UNL     1       1.960  23.179   2.655  1.00  0.00     0.143 A 
HETATM   20  C9  UNL     1       1.808  24.429   2.125  1.00  0.00     0.164 A 
HETATM   21  F1  UNL     1       2.569  24.802   1.047  1.00  0.00    -0.203 F 
HETATM   22  C10 UNL     1       0.872  25.336   2.640  1.00  0.00     0.097 A 
HETATM   23 CL1  UNL     1       0.719  26.914   1.930  1.00  0.00    -0.079 Cl
HETATM   24  C11 UNL     1       0.071  24.992   3.702  1.00  0.00     0.082 A 
HETATM   25 CL2  UNL     1      -1.115  26.130   4.360  1.00  0.00    -0.081 Cl
HETATM   26  C12 UNL     1       0.214  23.733   4.245  1.00  0.00     0.081 A 
HETATM   27 CL3  UNL     1      -0.830  23.324   5.604  1.00  0.00    -0.081 Cl
HETATM   28  C13 UNL     1       1.125  22.865   3.737  1.00  0.00     0.084 A 
HETATM   29 CL4  UNL     1       1.303  21.270   4.428  1.00  0.00    -0.081 Cl
ENDBRANCH  16  19
ENDBRANCH   1  16
TORSDOF 5
ENDMDL
MODEL 4
REMARK VINA RESULT: -6.347091703      6.609      8.288
REMARK  5 active torsions:
REMARK  status: ('A' for Active; 'I' for Inactive)
REMARK    1  A    between atoms: O1_2  and  N1_3 
REMARK    2  A    between atoms: C2_5  and  C4_7 
REMARK    3  A    between atoms: C7_10  and  N2_11 
REMARK    4  A    between atoms: N2_11  and  S1_13 
REMARK    5  A    between atoms: S1_13  and  C8_16 
ROOT
HETATM    1  N2  UNL     1       5.923  18.797   1.749  1.00  0.00    -0.279 N 
ATOM      2  H2  UNL     1       5.518  17.881   1.946  1.00  0.00     0.179 HD
ENDROOT
BRANCH   1   3
HETATM    3  C7  UNL     1       5.010  19.789   1.380  1.00  0.00     0.060 A 
HETATM    4  C6  UNL     1       5.196  21.122   1.549  1.00  0.00     0.032 A 
HETATM    5  C5  UNL     1       4.221  22.056   1.172  1.00  0.00     0.016 A 
HETATM    6  C4  UNL     1       3.023  21.667   0.611  1.00  0.00    -0.011 A 
HETATM    7  C15 UNL     1       2.836  20.295   0.440  1.00  0.00     0.034 A 
HETATM    8  C14 UNL     1       3.793  19.410   0.812  1.00  0.00     0.039 A 
HETATM    9 BR1  UNL     1       3.483  17.549   0.554  1.00  0.00    -0.049 Br
BRANCH   6  10
HETATM   10  C2  UNL     1       1.963  22.548   0.192  1.00  0.00     0.038 C 
HETATM   11  N1  UNL     1       1.871  23.755   0.489  1.00  0.00    -0.271 N 
ATOM     12  H1  UNL     1       1.038  24.180   0.080  1.00  0.00     0.194 HD
HETATM   13  C3  UNL     1       0.854  21.998  -0.682  1.00  0.00     0.071 C 
BRANCH  11  14
HETATM   14  O1  UNL     1       2.564  24.631   1.194  1.00  0.00    -0.285 OA
HETATM   15  C1  UNL     1       2.097  25.552   2.131  1.00  0.00     0.237 C 
ENDBRANCH  11  14
ENDBRANCH   6  10
ENDBRANCH   1   3
BRANCH   1  16
HETATM   16  S1  UNL     1       7.606  18.898   1.914  1.00  0.00     0.268 S 
HETATM   17  O2  UNL     1       8.194  17.597   2.373  1.00  0.00    -0.200 OA
HETATM   18  O3  UNL     1       8.016  19.955   2.933  1.00  0.00    -0.200 OA
BRANCH  16  19
HETATM   19  C8  UNL     1       8.384  19.359   0.425  1.00  0.00     0.143 A 
HETATM   20  C9  UNL     1       9.182  20.460   0.303  1.00  0.00     0.164 A 
HETATM   21  F1  UNL     1       9.442  21.232   1.407  1.00  0.00    -0.203 F 
HETATM   22  C10 UNL     1       9.766  20.811  -0.921  1.00  0.00     0.097 A 
HETATM   23 CL1  UNL     1      10.773  22.224  -1.024  1.00  0.00    -0.079 Cl
HETATM   24  C11 UNL     1       9.553  20.050  -2.045  1.00  0.00     0.082 A 
HETATM   25 CL2  UNL     1      10.286  20.485  -3.597  1.00  0.00    -0.081 Cl
HETATM   26  C12 UNL     1       8.750  18.935  -1.935  1.00  0.00     0.081 A 
HETATM   27 CL3  UNL     1       8.498  17.981  -3.394  1.00  0.00    -0.081 Cl
HETATM   28  C13 UNL     1       8.190  18.608  -0.742  1.00  0.00     0.084 A 
HETATM   29 CL4  UNL     1       7.173  17.193  -0.606  1.00  0.00    -0.081 Cl
ENDBRANCH  16  19
ENDBRANCH   1  16
TORSDOF 5
ENDMDL
MODEL 5
REMARK VINA RESULT: -6.317226770      4.553      5.954
REMARK  5 active torsions:
REMARK  status: ('A' for Active; 'I' for Inactive)
REMARK    1  A    between atoms: O1_2  and  N1_3 
REMARK    2  A    between atoms: C2_5  and  C4_7 
REMARK    3  A    between atoms: C7_10  and  N2_11 
REMARK    4  A    between atoms: N2_11  and  S1_13 
REMARK    5  A    between atoms: S1_13  and  C8_16 
ROOT
HETATM    1  N2  UNL     1      -0.227  25.320   4.941  1.00  0.00    -0.279 N 
ATOM      2  H2  UNL     1       0.310  25.548   5.778  1.00  0.00     0.179 HD
ENDROOT
BRANCH   1   3
HETATM    3  C7  UNL     1       0.500  24.725   3.906  1.00  0.00     0.060 A 
HETATM    4  C6  UNL     1       0.935  25.364   2.791  1.00  0.00     0.032 A 
HETATM    5  C5  UNL     1       1.641  24.691   1.785  1.00  0.00     0.016 A 
HETATM    6  C4  UNL     1       1.930  23.345   1.877  1.00  0.00    -0.011 A 
HETATM    7  C15 UNL     1       1.481  22.693   3.025  1.00  0.00     0.034 A 
HETATM    8  C14 UNL     1       0.799  23.365   3.985  1.00  0.00     0.039 A 
HETATM    9 BR1  UNL     1       0.210  22.422   5.532  1.00  0.00    -0.049 Br
BRANCH   6  10
HETATM   10  C2  UNL     1       2.649  22.569   0.899  1.00  0.00     0.038 C 
HETATM   11  N1  UNL     1       2.221  22.259  -0.230  1.00  0.00    -0.271 N 
ATOM     12  H1  UNL     1       2.903  21.707  -0.751  1.00  0.00     0.194 HD
HETATM   13  C3  UNL     1       4.040  22.072   1.236  1.00  0.00     0.071 C 
BRANCH  11  14
HETATM   14  O1  UNL     1       1.120  22.455  -0.932  1.00  0.00    -0.285 OA
HETATM   15  C1  UNL     1      -0.041  21.682  -0.955  1.00  0.00     0.237 C 
ENDBRANCH  11  14
ENDBRANCH   6  10
ENDBRANCH   1   3
BRANCH   1  16
HETATM   16  S1  UNL     1      -1.873  25.717   5.004  1.00  0.00     0.268 S 
HETATM   17  O2  UNL     1      -2.732  24.492   5.097  1.00  0.00    -0.200 OA
HETATM   18  O3  UNL     1      -2.322  26.482   3.764  1.00  0.00    -0.200 OA
BRANCH  16  19
HETATM   19  C8  UNL     1      -2.245  26.755   6.352  1.00  0.00     0.143 A 
HETATM   20  C9  UNL     1      -2.499  28.091   6.226  1.00  0.00     0.164 A 
HETATM   21  F1  UNL     1      -2.518  28.660   4.978  1.00  0.00    -0.203 F 
HETATM   22  C10 UNL     1      -2.766  28.896   7.341  1.00  0.00     0.097 A 
HETATM   23 CL1  UNL     1      -3.081  30.591   7.126  1.00  0.00    -0.079 Cl
HETATM   24  C11 UNL     1      -2.784  28.360   8.606  1.00  0.00     0.082 A 
HETATM   25 CL2  UNL     1      -3.121  29.369  10.022  1.00  0.00    -0.081 Cl
HETATM   26  C12 UNL     1      -2.531  27.013   8.747  1.00  0.00     0.081 A 
HETATM   27 CL3  UNL     1      -2.562  26.358  10.382  1.00  0.00    -0.081 Cl
HETATM   28  C13 UNL     1      -2.272  26.245   7.658  1.00  0.00     0.084 A 
HETATM   29 CL4  UNL     1      -1.952  24.537   7.840  1.00  0.00    -0.081 Cl
ENDBRANCH  16  19
ENDBRANCH   1  16
TORSDOF 5
ENDMDL
