MODEL 1
REMARK VINA RESULT: -4.604599529      0.000      0.000
REMARK  3 active torsions:
REMARK  status: ('A' for Active; 'I' for Inactive)
REMARK    1  A    between atoms: N1_2  and  C2_5 
REMARK    2  A    between atoms: C4_7  and  N2_8 
REMARK    3  A    between atoms: C6_14  and  C7_15 
ROOT
HETATM    1  C2  UNL     1       1.696 -16.880   6.351  1.00  0.00     0.196 C 
HETATM    2  C3  UNL     1       2.801 -17.731   5.697  1.00  0.00     0.088 C 
HETATM    3  C4  UNL     1       3.117 -18.187   7.124  1.00  0.00     0.218 C 
HETATM    4  C5  UNL     1       4.561 -18.296   7.292  1.00  0.00     0.099 C 
HETATM    5  N3  UNL     1       5.714 -18.394   7.417  1.00  0.00    -0.195 NA
HETATM    6  C6  UNL     1       2.544 -16.830   7.543  1.00  0.00     0.070 C 
ENDROOT
BRANCH   3   7
HETATM    7  N2  UNL     1       2.422 -19.337   7.570  1.00  0.00    -0.057 N 
ATOM      8  H23 UNL     1       2.337 -20.010   6.808  1.00  0.00     0.276 HD
ATOM      9  H22 UNL     1       3.006 -19.868   8.216  1.00  0.00     0.276 HD
ATOM     10  H21 UNL     1       1.507 -19.167   7.988  1.00  0.00     0.276 HD
ENDBRANCH   3   7
BRANCH   6  11
HETATM   11  C7  UNL     1       2.066 -16.700   8.907  1.00  0.00    -0.013 C 
HETATM   12  C8  UNL     1       1.089 -15.658   9.277  1.00  0.00     0.010 C 
HETATM   13  C9  UNL     1       3.258 -16.543   9.869  1.00  0.00     0.010 C 
ENDBRANCH   6  11
BRANCH   1  14
HETATM   14  N1  UNL     1       0.420 -17.485   6.367  1.00  0.00    -0.074 N 
HETATM   15  C1  UNL     1      -0.683 -16.549   6.464  1.00  0.00     0.267 C 
ATOM     16  H12 UNL     1       0.365 -18.179   7.112  1.00  0.00     0.277 HD
ATOM     17  H11 UNL     1       0.302 -18.091   5.554  1.00  0.00     0.277 HD
ENDBRANCH   1  14
TORSDOF 3
ENDMDL
MODEL 2
REMARK VINA RESULT: -4.073455568      1.829      4.027
REMARK  3 active torsions:
REMARK  status: ('A' for Active; 'I' for Inactive)
REMARK    1  A    between atoms: N1_2  and  C2_5 
REMARK    2  A    between atoms: C4_7  and  N2_8 
REMARK    3  A    between atoms: C6_14  and  C7_15 
ROOT
HETATM    1  C2  UNL     1       3.725 -19.364   7.489  1.00  0.00     0.196 C 
HETATM    2  C3  UNL     1       2.186 -19.345   7.461  1.00  0.00     0.088 C 
HETATM    3  C4  UNL     1       2.340 -17.911   6.945  1.00  0.00     0.218 C 
HETATM    4  C5  UNL     1       1.315 -17.065   7.543  1.00  0.00     0.099 C 
HETATM    5  N3  UNL     1       0.487 -16.397   8.013  1.00  0.00    -0.195 NA
HETATM    6  C6  UNL     1       3.666 -17.919   7.713  1.00  0.00     0.070 C 
ENDROOT
BRANCH   3   7
HETATM    7  N2  UNL     1       2.421 -17.769   5.539  1.00  0.00    -0.057 N 
ATOM      8  H23 UNL     1       1.531 -18.025   5.112  1.00  0.00     0.276 HD
ATOM      9  H22 UNL     1       2.463 -16.781   5.290  1.00  0.00     0.276 HD
ATOM     10  H21 UNL     1       3.182 -18.274   5.085  1.00  0.00     0.276 HD
ENDBRANCH   3   7
BRANCH   6  11
HETATM   11  C7  UNL     1       4.679 -16.964   7.305  1.00  0.00    -0.013 C 
HETATM   12  C8  UNL     1       6.113 -17.307   7.353  1.00  0.00     0.010 C 
HETATM   13  C9  UNL     1       4.516 -15.654   8.097  1.00  0.00     0.010 C 
ENDBRANCH   6  11
BRANCH   1  14
HETATM   14  N1  UNL     1       4.328 -19.917   6.337  1.00  0.00    -0.074 N 
HETATM   15  C1  UNL     1       5.419 -20.830   6.614  1.00  0.00     0.267 C 
ATOM     16  H12 UNL     1       4.634 -19.177   5.706  1.00  0.00     0.277 HD
ATOM     17  H11 UNL     1       3.627 -20.368   5.749  1.00  0.00     0.277 HD
ENDBRANCH   1  14
TORSDOF 3
ENDMDL
MODEL 3
REMARK VINA RESULT: -4.003071778     12.435     14.083
REMARK  3 active torsions:
REMARK  status: ('A' for Active; 'I' for Inactive)
REMARK    1  A    between atoms: N1_2  and  C2_5 
REMARK    2  A    between atoms: C4_7  and  N2_8 
REMARK    3  A    between atoms: C6_14  and  C7_15 
ROOT
HETATM    1  C2  UNL     1       4.194  -5.203  12.735  1.00  0.00     0.196 C 
HETATM    2  C3  UNL     1       3.894  -3.947  13.574  1.00  0.00     0.088 C 
HETATM    3  C4  UNL     1       3.560  -4.933  14.697  1.00  0.00     0.218 C 
HETATM    4  C5  UNL     1       2.404  -4.451  15.441  1.00  0.00     0.099 C 
HETATM    5  N3  UNL     1       1.488  -4.054  16.040  1.00  0.00    -0.195 NA
HETATM    6  C6  UNL     1       3.209  -5.901  13.562  1.00  0.00     0.070 C 
ENDROOT
BRANCH   3   7
HETATM    7  N2  UNL     1       4.641  -5.299  15.535  1.00  0.00    -0.057 N 
ATOM      8  H23 UNL     1       4.537  -6.269  15.833  1.00  0.00     0.276 HD
ATOM      9  H22 UNL     1       5.498  -5.369  14.986  1.00  0.00     0.276 HD
ATOM     10  H21 UNL     1       4.795  -4.701  16.346  1.00  0.00     0.276 HD
ENDBRANCH   3   7
BRANCH   6  11
HETATM   11  C7  UNL     1       3.224  -7.320  13.867  1.00  0.00    -0.013 C 
HETATM   12  C8  UNL     1       3.321  -8.329  12.795  1.00  0.00     0.010 C 
HETATM   13  C9  UNL     1       1.988  -7.690  14.707  1.00  0.00     0.010 C 
ENDBRANCH   6  11
BRANCH   1  14
HETATM   14  N1  UNL     1       5.554  -5.584  12.711  1.00  0.00    -0.074 N 
HETATM   15  C1  UNL     1       6.471  -4.505  12.397  1.00  0.00     0.267 C 
ATOM     16  H12 UNL     1       5.693  -6.367  12.073  1.00  0.00     0.277 HD
ATOM     17  H11 UNL     1       5.815  -6.028  13.592  1.00  0.00     0.277 HD
ENDBRANCH   1  14
TORSDOF 3
ENDMDL
MODEL 4
REMARK VINA RESULT: -3.869193296     13.208     14.370
REMARK  3 active torsions:
REMARK  status: ('A' for Active; 'I' for Inactive)
REMARK    1  A    between atoms: N1_2  and  C2_5 
REMARK    2  A    between atoms: C4_7  and  N2_8 
REMARK    3  A    between atoms: C6_14  and  C7_15 
ROOT
HETATM    1  C2  UNL     1       4.008  -4.569  14.462  1.00  0.00     0.196 C 
HETATM    2  C3  UNL     1       3.171  -4.760  13.184  1.00  0.00     0.088 C 
HETATM    3  C4  UNL     1       4.488  -5.208  12.542  1.00  0.00     0.218 C 
HETATM    4  C5  UNL     1       4.565  -4.693  11.181  1.00  0.00     0.099 C 
HETATM    5  N3  UNL     1       4.616  -4.292  10.090  1.00  0.00    -0.195 NA
HETATM    6  C6  UNL     1       5.150  -4.303  13.587  1.00  0.00     0.070 C 
ENDROOT
BRANCH   3   7
HETATM    7  N2  UNL     1       4.773  -6.591  12.626  1.00  0.00    -0.057 N 
ATOM      8  H23 UNL     1       4.663  -6.911  13.588  1.00  0.00     0.276 HD
ATOM      9  H22 UNL     1       4.034  -7.127  12.172  1.00  0.00     0.276 HD
ATOM     10  H21 UNL     1       5.682  -6.879  12.265  1.00  0.00     0.276 HD
ENDBRANCH   3   7
BRANCH   6  11
HETATM   11  C7  UNL     1       6.538  -4.568  13.915  1.00  0.00    -0.013 C 
HETATM   12  C8  UNL     1       7.099  -4.187  15.225  1.00  0.00     0.010 C 
HETATM   13  C9  UNL     1       7.458  -3.946  12.848  1.00  0.00     0.010 C 
ENDBRANCH   6  11
BRANCH   1  14
HETATM   14  N1  UNL     1       3.987  -5.668  15.349  1.00  0.00    -0.074 N 
HETATM   15  C1  UNL     1       2.713  -5.880  16.007  1.00  0.00     0.267 C 
ATOM     16  H12 UNL     1       4.734  -5.583  16.038  1.00  0.00     0.277 HD
ATOM     17  H11 UNL     1       4.287  -6.518  14.871  1.00  0.00     0.277 HD
ENDBRANCH   1  14
TORSDOF 3
ENDMDL
MODEL 5
REMARK VINA RESULT: -3.797325156      1.799      2.508
REMARK  3 active torsions:
REMARK  status: ('A' for Active; 'I' for Inactive)
REMARK    1  A    between atoms: N1_2  and  C2_5 
REMARK    2  A    between atoms: C4_7  and  N2_8 
REMARK    3  A    between atoms: C6_14  and  C7_15 
ROOT
HETATM    1  C2  UNL     1       0.386 -15.045   7.165  1.00  0.00     0.196 C 
HETATM    2  C3  UNL     1       0.538 -15.837   5.853  1.00  0.00     0.088 C 
HETATM    3  C4  UNL     1       0.877 -17.025   6.759  1.00  0.00     0.218 C 
HETATM    4  C5  UNL     1       1.946 -17.809   6.154  1.00  0.00     0.099 C 
HETATM    5  N3  UNL     1       2.791 -18.439   5.660  1.00  0.00    -0.195 NA
HETATM    6  C6  UNL     1       1.369 -15.961   7.746  1.00  0.00     0.070 C 
ENDROOT
BRANCH   3   7
HETATM    7  N2  UNL     1      -0.222 -17.816   7.171  1.00  0.00    -0.057 N 
ATOM      8  H23 UNL     1      -1.087 -17.284   7.081  1.00  0.00     0.276 HD
ATOM      9  H22 UNL     1      -0.393 -18.556   6.490  1.00  0.00     0.276 HD
ATOM     10  H21 UNL     1      -0.154 -18.215   8.107  1.00  0.00     0.276 HD
ENDBRANCH   3   7
BRANCH   6  11
HETATM   11  C7  UNL     1       1.443 -16.333   9.146  1.00  0.00    -0.013 C 
HETATM   12  C8  UNL     1       0.928 -15.440  10.201  1.00  0.00     0.010 C 
HETATM   13  C9  UNL     1       2.898 -16.666   9.525  1.00  0.00     0.010 C 
ENDBRANCH   6  11
BRANCH   1  14
HETATM   14  N1  UNL     1      -0.937 -14.963   7.652  1.00  0.00    -0.074 N 
HETATM   15  C1  UNL     1      -1.397 -13.611   7.904  1.00  0.00     0.267 C 
ATOM     16  H12 UNL     1      -1.045 -15.537   8.487  1.00  0.00     0.277 HD
ATOM     17  H11 UNL     1      -1.580 -15.446   7.023  1.00  0.00     0.277 HD
ENDBRANCH   1  14
TORSDOF 3
ENDMDL
