MODEL 1
REMARK VINA RESULT: -6.921490317      0.000      0.000
REMARK  1 active torsions:
REMARK  status: ('A' for Active; 'I' for Inactive)
REMARK    1  A    between atoms: C6_7  and  C7_8 
ROOT
HETATM    1  C7  UNL     1      -8.271  10.267  11.103  1.00  0.00     0.028 C 
HETATM    2  C8  UNL     1      -7.629  10.481  12.437  1.00  0.00    -0.007 C 
HETATM    3  C9  UNL     1      -6.582  11.572  12.270  1.00  0.00     0.010 C 
HETATM    4  C10 UNL     1      -5.602  11.260  11.174  1.00  0.00    -0.013 C 
HETATM    5  C11 UNL     1      -4.948   9.894  11.389  1.00  0.00     0.010 C 
HETATM    6  C12 UNL     1      -6.203   9.014  11.297  1.00  0.00    -0.009 C 
HETATM    7  C13 UNL     1      -6.892   9.181  12.657  1.00  0.00     0.010 C 
HETATM    8  C14 UNL     1      -7.093   9.710  10.297  1.00  0.00    -0.004 C 
HETATM    9  C15 UNL     1      -6.320  10.960   9.852  1.00  0.00     0.010 C 
ENDROOT
BRANCH   1  10
HETATM   10  C6  UNL     1      -9.368   9.263  11.094  1.00  0.00     0.233 C 
HETATM   11  C3  UNL     1      -9.713   8.868   9.670  1.00  0.00     0.048 C 
HETATM   12  C2  UNL     1     -10.276   7.472   9.730  1.00  0.00     0.010 C 
HETATM   13  C4  UNL     1     -10.846   9.863   9.774  1.00  0.00     0.279 C 
HETATM   14  C1  UNL     1     -11.052   7.314  11.000  1.00  0.00     0.031 C 
HETATM   15  C5  UNL     1     -11.539   8.589  11.595  1.00  0.00     0.273 C 
HETATM   16  N1  UNL     1     -10.709   9.740  11.236  1.00  0.00     0.094 N 
ENDBRANCH   1  10
TORSDOF 1
ENDMDL
MODEL 2
REMARK VINA RESULT: -6.534170006      1.354      4.807
REMARK  1 active torsions:
REMARK  status: ('A' for Active; 'I' for Inactive)
REMARK    1  A    between atoms: C6_7  and  C7_8 
ROOT
HETATM    1  C7  UNL     1      -8.607   9.046  10.366  1.00  0.00     0.028 C 
HETATM    2  C8  UNL     1      -9.887   8.508  10.924  1.00  0.00    -0.007 C 
HETATM    3  C9  UNL     1     -10.490   7.588   9.874  1.00  0.00     0.010 C 
HETATM    4  C10 UNL     1     -10.653   8.268   8.543  1.00  0.00    -0.013 C 
HETATM    5  C11 UNL     1     -11.462   9.559   8.677  1.00  0.00     0.010 C 
HETATM    6  C12 UNL     1     -10.514  10.337   9.601  1.00  0.00    -0.009 C 
HETATM    7  C13 UNL     1     -10.756   9.741  10.994  1.00  0.00     0.010 C 
HETATM    8  C14 UNL     1      -9.129   9.893   9.200  1.00  0.00    -0.004 C 
HETATM    9  C15 UNL     1      -9.330   8.880   8.063  1.00  0.00     0.010 C 
ENDROOT
BRANCH   1  10
HETATM   10  C6  UNL     1      -7.848   9.930  11.290  1.00  0.00     0.233 C 
HETATM   11  C3  UNL     1      -6.475  10.238  10.722  1.00  0.00     0.048 C 
HETATM   12  C2  UNL     1      -6.058  11.570  11.289  1.00  0.00     0.010 C 
HETATM   13  C4  UNL     1      -5.966   9.135  11.621  1.00  0.00     0.279 C 
HETATM   14  C1  UNL     1      -6.583  11.691  12.685  1.00  0.00     0.031 C 
HETATM   15  C5  UNL     1      -6.878  10.394  13.354  1.00  0.00     0.273 C 
HETATM   16  N1  UNL     1      -7.197   9.323  12.409  1.00  0.00     0.094 N 
ENDBRANCH   1  10
TORSDOF 1
ENDMDL
MODEL 3
REMARK VINA RESULT: -6.491067841      1.587      4.857
REMARK  1 active torsions:
REMARK  status: ('A' for Active; 'I' for Inactive)
REMARK    1  A    between atoms: C6_7  and  C7_8 
ROOT
HETATM    1  C7  UNL     1      -8.575   9.498   9.739  1.00  0.00     0.028 C 
HETATM    2  C8  UNL     1      -9.428   8.272   9.831  1.00  0.00    -0.007 C 
HETATM    3  C9  UNL     1     -10.298   8.228   8.585  1.00  0.00     0.010 C 
HETATM    4  C10 UNL     1     -11.084   9.495   8.391  1.00  0.00    -0.013 C 
HETATM    5  C11 UNL     1     -11.913   9.827   9.632  1.00  0.00     0.010 C 
HETATM    6  C12 UNL     1     -10.768  10.016  10.637  1.00  0.00    -0.009 C 
HETATM    7  C13 UNL     1     -10.331   8.591  10.999  1.00  0.00     0.010 C 
HETATM    8  C14 UNL     1      -9.635  10.600   9.830  1.00  0.00    -0.004 C 
HETATM    9  C15 UNL     1     -10.168  10.725   8.396  1.00  0.00     0.010 C 
ENDROOT
BRANCH   1  10
HETATM   10  C6  UNL     1      -7.613   9.672  10.860  1.00  0.00     0.233 C 
HETATM   11  C3  UNL     1      -7.187  11.125  10.972  1.00  0.00     0.048 C 
HETATM   12  C2  UNL     1      -6.808  11.357  12.411  1.00  0.00     0.010 C 
HETATM   13  C4  UNL     1      -5.956  10.720  10.195  1.00  0.00     0.279 C 
HETATM   14  C1  UNL     1      -6.179  10.113  12.956  1.00  0.00     0.031 C 
HETATM   15  C5  UNL     1      -5.598   9.208  11.927  1.00  0.00     0.273 C 
HETATM   16  N1  UNL     1      -6.243   9.339  10.620  1.00  0.00     0.094 N 
ENDBRANCH   1  10
TORSDOF 1
ENDMDL
MODEL 4
REMARK VINA RESULT: -6.427933003      1.320      4.885
REMARK  1 active torsions:
REMARK  status: ('A' for Active; 'I' for Inactive)
REMARK    1  A    between atoms: C6_7  and  C7_8 
ROOT
HETATM    1  C7  UNL     1      -9.150  10.204  10.744  1.00  0.00     0.028 C 
HETATM    2  C8  UNL     1      -9.737  10.333   9.374  1.00  0.00    -0.007 C 
HETATM    3  C9  UNL     1     -11.247  10.436   9.532  1.00  0.00     0.010 C 
HETATM    4  C10 UNL     1     -11.817   9.294  10.326  1.00  0.00    -0.013 C 
HETATM    5  C11 UNL     1     -11.415   7.946   9.724  1.00  0.00     0.010 C 
HETATM    6  C12 UNL     1      -9.893   8.056   9.898  1.00  0.00    -0.009 C 
HETATM    7  C13 UNL     1      -9.440   8.984   8.763  1.00  0.00     0.010 C 
HETATM    8  C14 UNL     1      -9.702   8.840  11.172  1.00  0.00    -0.004 C 
HETATM    9  C15 UNL     1     -11.116   9.152  11.683  1.00  0.00     0.010 C 
ENDROOT
BRANCH   1  10
HETATM   10  C6  UNL     1      -7.665  10.148  10.782  1.00  0.00     0.233 C 
HETATM   11  C3  UNL     1      -7.186   9.684  12.146  1.00  0.00     0.048 C 
HETATM   12  C2  UNL     1      -5.848   9.026  11.936  1.00  0.00     0.010 C 
HETATM   13  C4  UNL     1      -6.975  11.147  12.458  1.00  0.00     0.279 C 
HETATM   14  C1  UNL     1      -5.120   9.739  10.840  1.00  0.00     0.031 C 
HETATM   15  C5  UNL     1      -5.567  11.139  10.605  1.00  0.00     0.273 C 
HETATM   16  N1  UNL     1      -6.957  11.371  11.002  1.00  0.00     0.094 N 
ENDBRANCH   1  10
TORSDOF 1
ENDMDL
MODEL 5
REMARK VINA RESULT: -6.259814276      1.154      2.505
REMARK  1 active torsions:
REMARK  status: ('A' for Active; 'I' for Inactive)
REMARK    1  A    between atoms: C6_7  and  C7_8 
ROOT
HETATM    1  C7  UNL     1      -8.038   9.070  11.113  1.00  0.00     0.028 C 
HETATM    2  C8  UNL     1      -6.652   9.182  10.562  1.00  0.00    -0.007 C 
HETATM    3  C9  UNL     1      -5.689   9.147  11.740  1.00  0.00     0.010 C 
HETATM    4  C10 UNL     1      -6.012  10.191  12.773  1.00  0.00    -0.013 C 
HETATM    5  C11 UNL     1      -6.073  11.586  12.149  1.00  0.00     0.010 C 
HETATM    6  C12 UNL     1      -7.244  11.361  11.182  1.00  0.00    -0.009 C 
HETATM    7  C13 UNL     1      -6.633  10.586  10.008  1.00  0.00     0.010 C 
HETATM    8  C14 UNL     1      -8.151  10.386  11.890  1.00  0.00    -0.004 C 
HETATM    9  C15 UNL     1      -7.471  10.086  13.234  1.00  0.00     0.010 C 
ENDROOT
BRANCH   1  10
HETATM   10  C6  UNL     1      -9.114   9.032  10.087  1.00  0.00     0.233 C 
HETATM   11  C3  UNL     1     -10.423   9.529  10.673  1.00  0.00     0.048 C 
HETATM   12  C2  UNL     1     -11.227  10.088   9.528  1.00  0.00     0.010 C 
HETATM   13  C4  UNL     1     -10.777   8.073  10.862  1.00  0.00     0.279 C 
HETATM   14  C1  UNL     1     -10.955   9.276   8.300  1.00  0.00     0.031 C 
HETATM   15  C5  UNL     1     -10.458   7.898   8.563  1.00  0.00     0.273 C 
HETATM   16  N1  UNL     1      -9.755   7.777   9.842  1.00  0.00     0.094 N 
ENDBRANCH   1  10
TORSDOF 1
ENDMDL
