MODEL 1
REMARK VINA RESULT: -6.971166761      0.000      0.000
REMARK  0 active torsions:
REMARK  status: ('A' for Active; 'I' for Inactive)
ROOT
HETATM    1  N1  UNL     1      18.046 -18.274  21.377  1.00  0.00    -0.114 NA
HETATM    2  C1  UNL     1      18.188 -17.945  22.747  1.00  0.00     0.122 C 
HETATM    3  C2  UNL     1      19.296 -18.320  23.378  1.00  0.00     0.113 A 
HETATM    4  C3  UNL     1      20.355 -19.056  22.695  1.00  0.00     0.266 A 
HETATM    5  O1  UNL     1      20.174 -19.322  21.478  1.00  0.00    -0.267 OA
HETATM    6  N2  UNL     1      21.517 -19.435  23.409  1.00  0.00    -0.275 N 
ATOM      7  H2  UNL     1      22.240 -19.950  22.907  1.00  0.00     0.173 HD
HETATM    8  C4  UNL     1      21.735 -19.142  24.783  1.00  0.00     0.329 A 
HETATM    9  O2  UNL     1      22.795 -19.502  25.382  1.00  0.00    -0.246 OA
HETATM   10  N3  UNL     1      20.708 -18.425  25.456  1.00  0.00    -0.275 N 
ATOM     11  H3  UNL     1      20.828 -18.196  26.443  1.00  0.00     0.173 HD
HETATM   12  C5  UNL     1      19.519 -18.017  24.791  1.00  0.00     0.266 A 
HETATM   13  O3  UNL     1      18.632 -17.385  25.416  1.00  0.00    -0.267 OA
ENDROOT
TORSDOF 0
ENDMDL
MODEL 2
REMARK VINA RESULT: -6.635710522      1.239      3.495
REMARK  0 active torsions:
REMARK  status: ('A' for Active; 'I' for Inactive)
ROOT
HETATM    1  N1  UNL     1      21.827 -18.254  26.224  1.00  0.00    -0.114 NA
HETATM    2  C1  UNL     1      20.565 -17.840  25.733  1.00  0.00     0.122 C 
HETATM    3  C2  UNL     1      20.184 -18.260  24.531  1.00  0.00     0.113 A 
HETATM    4  C3  UNL     1      21.030 -19.127  23.718  1.00  0.00     0.266 A 
HETATM    5  O1  UNL     1      22.141 -19.462  24.205  1.00  0.00    -0.267 OA
HETATM    6  N2  UNL     1      20.582 -19.547  22.443  1.00  0.00    -0.275 N 
ATOM      7  H2  UNL     1      21.194 -20.152  21.896  1.00  0.00     0.173 HD
HETATM    8  C4  UNL     1      19.330 -19.177  21.880  1.00  0.00     0.329 A 
HETATM    9  O2  UNL     1      18.970 -19.580  20.731  1.00  0.00    -0.246 OA
HETATM   10  N3  UNL     1      18.499 -18.333  22.666  1.00  0.00    -0.275 N 
ATOM     11  H3  UNL     1      17.593 -18.044  22.295  1.00  0.00     0.173 HD
HETATM   12  C5  UNL     1      18.896 -17.878  23.953  1.00  0.00     0.266 A 
HETATM   13  O3  UNL     1      18.137 -17.133  24.621  1.00  0.00    -0.267 OA
ENDROOT
TORSDOF 0
ENDMDL
MODEL 3
REMARK VINA RESULT: -6.226348377      1.172      2.446
REMARK  0 active torsions:
REMARK  status: ('A' for Active; 'I' for Inactive)
ROOT
HETATM    1  N1  UNL     1      17.619 -18.138  21.832  1.00  0.00    -0.114 NA
HETATM    2  C1  UNL     1      18.657 -19.092  21.965  1.00  0.00     0.122 C 
HETATM    3  C2  UNL     1      19.541 -18.936  22.944  1.00  0.00     0.113 A 
HETATM    4  C3  UNL     1      19.465 -17.813  23.872  1.00  0.00     0.266 A 
HETATM    5  O1  UNL     1      18.522 -16.995  23.706  1.00  0.00    -0.267 OA
HETATM    6  N2  UNL     1      20.431 -17.687  24.900  1.00  0.00    -0.275 N 
ATOM      7  H2  UNL     1      20.354 -16.892  25.534  1.00  0.00     0.173 HD
HETATM    8  C4  UNL     1      21.500 -18.602  25.100  1.00  0.00     0.329 A 
HETATM    9  O2  UNL     1      22.343 -18.448  26.037  1.00  0.00    -0.246 OA
HETATM   10  N3  UNL     1      21.582 -19.699  24.200  1.00  0.00    -0.275 N 
ATOM     11  H3  UNL     1      22.337 -20.377  24.311  1.00  0.00     0.173 HD
HETATM   12  C5  UNL     1      20.641 -19.877  23.148  1.00  0.00     0.266 A 
HETATM   13  O3  UNL     1      20.742 -20.858  22.371  1.00  0.00    -0.267 OA
ENDROOT
TORSDOF 0
ENDMDL
MODEL 4
REMARK VINA RESULT: -6.204837161      1.374      3.776
REMARK  0 active torsions:
REMARK  status: ('A' for Active; 'I' for Inactive)
ROOT
HETATM    1  N1  UNL     1      20.171 -16.764  26.496  1.00  0.00    -0.114 NA
HETATM    2  C1  UNL     1      21.049 -17.754  25.994  1.00  0.00     0.122 C 
HETATM    3  C2  UNL     1      20.658 -18.478  24.951  1.00  0.00     0.113 A 
HETATM    4  C3  UNL     1      19.358 -18.275  24.321  1.00  0.00     0.266 A 
HETATM    5  O1  UNL     1      18.618 -17.382  24.810  1.00  0.00    -0.267 OA
HETATM    6  N2  UNL     1      18.985 -19.072  23.212  1.00  0.00    -0.275 N 
ATOM      7  H2  UNL     1      18.069 -18.909  22.792  1.00  0.00     0.173 HD
HETATM    8  C4  UNL     1      19.809 -20.084  22.649  1.00  0.00     0.329 A 
HETATM    9  O2  UNL     1      19.431 -20.774  21.652  1.00  0.00    -0.246 OA
HETATM   10  N3  UNL     1      21.078 -20.288  23.256  1.00  0.00    -0.275 N 
ATOM     11  H3  UNL     1      21.698 -21.007  22.881  1.00  0.00     0.173 HD
HETATM   12  C5  UNL     1      21.507 -19.519  24.373  1.00  0.00     0.266 A 
HETATM   13  O3  UNL     1      22.635 -19.726  24.885  1.00  0.00    -0.267 OA
ENDROOT
TORSDOF 0
ENDMDL
MODEL 5
REMARK VINA RESULT: -6.087244943      1.955      2.991
REMARK  0 active torsions:
REMARK  status: ('A' for Active; 'I' for Inactive)
ROOT
HETATM    1  N1  UNL     1      20.078 -20.745  20.402  1.00  0.00    -0.114 NA
HETATM    2  C1  UNL     1      19.335 -19.552  20.579  1.00  0.00     0.122 C 
HETATM    3  C2  UNL     1      19.235 -19.042  21.801  1.00  0.00     0.113 A 
HETATM    4  C3  UNL     1      19.867 -19.680  22.951  1.00  0.00     0.266 A 
HETATM    5  O1  UNL     1      20.514 -20.738  22.736  1.00  0.00    -0.267 OA
HETATM    6  N2  UNL     1      19.732 -19.100  24.235  1.00  0.00    -0.275 N 
ATOM      7  H2  UNL     1      20.183 -19.567  25.022  1.00  0.00     0.173 HD
HETATM    8  C4  UNL     1      19.005 -17.906  24.494  1.00  0.00     0.329 A 
HETATM    9  O2  UNL     1      18.911 -17.422  25.664  1.00  0.00    -0.246 OA
HETATM   10  N3  UNL     1      18.386 -17.278  23.379  1.00  0.00    -0.275 N 
ATOM     11  H3  UNL     1      17.854 -16.419  23.525  1.00  0.00     0.173 HD
HETATM   12  C5  UNL     1      18.487 -17.814  22.066  1.00  0.00     0.266 A 
HETATM   13  O3  UNL     1      17.927 -17.234  21.103  1.00  0.00    -0.267 OA
ENDROOT
TORSDOF 0
ENDMDL
