MODEL 1
REMARK VINA RESULT: -6.902221236      0.000      0.000
REMARK  2 active torsions:
REMARK  status: ('A' for Active; 'I' for Inactive)
REMARK    1  A    between atoms: N1_1  and  N2_4 
REMARK    2  A    between atoms: N2_4  and  C1_6 
ROOT
HETATM    1  C1  UNL     1      20.358 -19.851  23.038  1.00  0.00     0.204 A 
HETATM    2  N3  UNL     1      21.336 -20.544  23.643  1.00  0.00    -0.276 N 
ATOM      3  H3  UNL     1      21.539 -21.494  23.332  1.00  0.00     0.189 HD
HETATM    4  N4  UNL     1      22.042 -20.023  24.633  1.00  0.00    -0.250 N 
ATOM      5  H4  UNL     1      22.776 -20.584  25.066  1.00  0.00     0.192 HD
HETATM    6  C2  UNL     1      21.818 -18.758  25.092  1.00  0.00     0.341 A 
HETATM    7  O1  UNL     1      22.509 -18.293  26.036  1.00  0.00    -0.245 OA
HETATM    8  N5  UNL     1      20.853 -18.026  24.523  1.00  0.00    -0.271 N 
ATOM      9  H5  UNL     1      20.662 -17.077  24.845  1.00  0.00     0.174 HD
HETATM   10  C3  UNL     1      20.140 -18.564  23.517  1.00  0.00     0.296 A 
HETATM   11  O2  UNL     1      19.235 -17.898  22.971  1.00  0.00    -0.264 OA
ENDROOT
BRANCH   1  12
HETATM   12  N2  UNL     1      19.663 -20.345  22.071  1.00  0.00    -0.286 N 
ATOM     13  H2  UNL     1      18.680 -20.097  21.955  1.00  0.00     0.188 HD
BRANCH  12  14
HETATM   14  N1  UNL     1      20.285 -21.227  21.185  1.00  0.00    -0.343 N 
ATOM     15  H12 UNL     1      20.261 -21.039  20.183  1.00  0.00     0.176 HD
ATOM     16  H11 UNL     1      20.755 -22.049  21.566  1.00  0.00     0.176 HD
ENDBRANCH  12  14
ENDBRANCH   1  12
TORSDOF 2
ENDMDL
MODEL 2
REMARK VINA RESULT: -6.556371050      1.651      2.398
REMARK  2 active torsions:
REMARK  status: ('A' for Active; 'I' for Inactive)
REMARK    1  A    between atoms: N1_1  and  N2_4 
REMARK    2  A    between atoms: N2_4  and  C1_6 
ROOT
HETATM    1  C1  UNL     1      19.285 -18.314  23.277  1.00  0.00     0.204 A 
HETATM    2  N3  UNL     1      19.809 -17.379  24.086  1.00  0.00    -0.276 N 
ATOM      3  H3  UNL     1      19.324 -16.489  24.199  1.00  0.00     0.189 HD
HETATM    4  N4  UNL     1      20.941 -17.585  24.739  1.00  0.00    -0.250 N 
ATOM      5  H4  UNL     1      21.306 -16.848  25.344  1.00  0.00     0.192 HD
HETATM    6  C2  UNL     1      21.636 -18.755  24.629  1.00  0.00     0.341 A 
HETATM    7  O1  UNL     1      22.710 -18.918  25.265  1.00  0.00    -0.245 OA
HETATM    8  N5  UNL     1      21.156 -19.718  23.834  1.00  0.00    -0.271 N 
ATOM      9  H5  UNL     1      21.653 -20.602  23.731  1.00  0.00     0.174 HD
HETATM   10  C3  UNL     1      20.004 -19.499  23.174  1.00  0.00     0.296 A 
HETATM   11  O2  UNL     1      19.538 -20.385  22.426  1.00  0.00    -0.264 OA
ENDROOT
BRANCH   1  12
HETATM   12  N2  UNL     1      18.182 -18.126  22.635  1.00  0.00    -0.286 N 
ATOM     13  H2  UNL     1      17.295 -18.057  23.134  1.00  0.00     0.188 HD
BRANCH  12  14
HETATM   14  N1  UNL     1      18.229 -18.021  21.244  1.00  0.00    -0.343 N 
ATOM     15  H12 UNL     1      17.362 -17.939  20.713  1.00  0.00     0.176 HD
ATOM     16  H11 UNL     1      19.140 -18.028  20.785  1.00  0.00     0.176 HD
ENDBRANCH  12  14
ENDBRANCH   1  12
TORSDOF 2
ENDMDL
MODEL 3
REMARK VINA RESULT: -6.390223837      1.003      1.204
REMARK  2 active torsions:
REMARK  status: ('A' for Active; 'I' for Inactive)
REMARK    1  A    between atoms: N1_1  and  N2_4 
REMARK    2  A    between atoms: N2_4  and  C1_6 
ROOT
HETATM    1  C1  UNL     1      19.732 -19.526  22.843  1.00  0.00     0.204 A 
HETATM    2  N3  UNL     1      20.566 -20.555  23.066  1.00  0.00    -0.276 N 
ATOM      3  H3  UNL     1      20.431 -21.426  22.553  1.00  0.00     0.189 HD
HETATM    4  N4  UNL     1      21.559 -20.466  23.937  1.00  0.00    -0.250 N 
ATOM      5  H4  UNL     1      22.169 -21.271  24.077  1.00  0.00     0.192 HD
HETATM    6  C2  UNL     1      21.790 -19.327  24.653  1.00  0.00     0.341 A 
HETATM    7  O1  UNL     1      22.745 -19.275  25.472  1.00  0.00    -0.245 OA
HETATM    8  N5  UNL     1      20.987 -18.273  24.467  1.00  0.00    -0.271 N 
ATOM      9  H5  UNL     1      21.135 -17.409  24.988  1.00  0.00     0.174 HD
HETATM   10  C3  UNL     1      19.980 -18.374  23.581  1.00  0.00     0.296 A 
HETATM   11  O2  UNL     1      19.218 -17.402  23.392  1.00  0.00    -0.264 OA
ENDROOT
BRANCH   1  12
HETATM   12  N2  UNL     1      18.762 -19.600  21.997  1.00  0.00    -0.286 N 
ATOM     13  H2  UNL     1      17.988 -20.246  22.147  1.00  0.00     0.188 HD
BRANCH  12  14
HETATM   14  N1  UNL     1      18.795 -18.775  20.872  1.00  0.00    -0.343 N 
ATOM     15  H12 UNL     1      19.661 -18.676  20.341  1.00  0.00     0.176 HD
ATOM     16  H11 UNL     1      17.942 -18.284  20.602  1.00  0.00     0.176 HD
ENDBRANCH  12  14
ENDBRANCH   1  12
TORSDOF 2
ENDMDL
MODEL 4
REMARK VINA RESULT: -6.374545229      1.426      1.705
REMARK  2 active torsions:
REMARK  status: ('A' for Active; 'I' for Inactive)
REMARK    1  A    between atoms: N1_1  and  N2_4 
REMARK    2  A    between atoms: N2_4  and  C1_6 
ROOT
HETATM    1  C1  UNL     1      19.647 -18.774  23.255  1.00  0.00     0.204 A 
HETATM    2  N3  UNL     1      20.830 -19.401  23.149  1.00  0.00    -0.276 N 
ATOM      3  H3  UNL     1      20.990 -20.035  22.367  1.00  0.00     0.189 HD
HETATM    4  N4  UNL     1      21.794 -19.214  24.038  1.00  0.00    -0.250 N 
ATOM      5  H4  UNL     1      22.677 -19.710  23.920  1.00  0.00     0.192 HD
HETATM    6  C2  UNL     1      21.639 -18.379  25.105  1.00  0.00     0.341 A 
HETATM    7  O1  UNL     1      22.577 -18.224  25.931  1.00  0.00    -0.245 OA
HETATM    8  N5  UNL     1      20.478 -17.731  25.256  1.00  0.00    -0.271 N 
ATOM      9  H5  UNL     1      20.334 -17.101  26.044  1.00  0.00     0.174 HD
HETATM   10  C3  UNL     1      19.505 -17.927  24.348  1.00  0.00     0.296 A 
HETATM   11  O2  UNL     1      18.412 -17.333  24.470  1.00  0.00    -0.264 OA
ENDROOT
BRANCH   1  12
HETATM   12  N2  UNL     1      18.700 -18.945  22.397  1.00  0.00    -0.286 N 
ATOM     13  H2  UNL     1      18.282 -19.865  22.258  1.00  0.00     0.188 HD
BRANCH  12  14
HETATM   14  N1  UNL     1      18.261 -17.844  21.660  1.00  0.00    -0.343 N 
ATOM     15  H12 UNL     1      18.895 -17.387  21.005  1.00  0.00     0.176 HD
ATOM     16  H11 UNL     1      17.304 -17.517  21.796  1.00  0.00     0.176 HD
ENDBRANCH  12  14
ENDBRANCH   1  12
TORSDOF 2
ENDMDL
MODEL 5
REMARK VINA RESULT: -6.230165701      1.643      2.852
REMARK  2 active torsions:
REMARK  status: ('A' for Active; 'I' for Inactive)
REMARK    1  A    between atoms: N1_1  and  N2_4 
REMARK    2  A    between atoms: N2_4  and  C1_6 
ROOT
HETATM    1  C1  UNL     1      19.937 -17.893  23.876  1.00  0.00     0.204 A 
HETATM    2  N3  UNL     1      20.847 -17.456  24.761  1.00  0.00    -0.276 N 
ATOM      3  H3  UNL     1      20.757 -16.516  25.145  1.00  0.00     0.189 HD
HETATM    4  N4  UNL     1      21.858 -18.218  25.148  1.00  0.00    -0.250 N 
ATOM      5  H4  UNL     1      22.528 -17.847  25.822  1.00  0.00     0.192 HD
HETATM    6  C2  UNL     1      22.031 -19.485  24.670  1.00  0.00     0.341 A 
HETATM    7  O1  UNL     1      23.003 -20.183  25.060  1.00  0.00    -0.245 OA
HETATM    8  N5  UNL     1      21.151 -19.967  23.785  1.00  0.00    -0.271 N 
ATOM      9  H5  UNL     1      21.254 -20.909  23.410  1.00  0.00     0.174 HD
HETATM   10  C3  UNL     1      20.127 -19.185  23.398  1.00  0.00     0.296 A 
HETATM   11  O2  UNL     1      19.294 -19.615  22.572  1.00  0.00    -0.264 OA
ENDROOT
BRANCH   1  12
HETATM   12  N2  UNL     1      18.947 -17.162  23.492  1.00  0.00    -0.286 N 
ATOM     13  H2  UNL     1      18.840 -16.901  22.511  1.00  0.00     0.188 HD
BRANCH  12  14
HETATM   14  N1  UNL     1      18.023 -16.736  24.448  1.00  0.00    -0.343 N 
ATOM     15  H12 UNL     1      18.350 -16.398  25.353  1.00  0.00     0.176 HD
ATOM     16  H11 UNL     1      17.030 -16.772  24.216  1.00  0.00     0.176 HD
ENDBRANCH  12  14
ENDBRANCH   1  12
TORSDOF 2
ENDMDL
