MODEL 1
REMARK VINA RESULT: -8.577999244      0.000      0.000
REMARK  0 active torsions:
REMARK  status: ('A' for Active; 'I' for Inactive)
REMARK       I    between atoms: C1_4  and  N3_6 
ROOT
HETATM    1  N1  UNL     1      20.157 -20.135  19.321  1.00  0.00    -0.373 N 
ATOM      2  H11 UNL     1      19.820 -19.239  18.968  1.00  0.00     0.158 HD
ATOM      3  H12 UNL     1      20.658 -20.792  18.723  1.00  0.00     0.158 HD
HETATM    4  C1  UNL     1      19.960 -20.466  20.553  1.00  0.00     0.187 C 
HETATM    5  N2  UNL     1      20.434 -21.723  21.049  1.00  0.00    -0.064 NA
HETATM    6  N3  UNL     1      19.272 -19.561  21.377  1.00  0.00    -0.313 N 
ATOM      7  H3  UNL     1      18.317 -19.324  21.109  1.00  0.00     0.170 HD
HETATM    8  C2  UNL     1      19.731 -19.013  22.424  1.00  0.00     0.167 C 
HETATM    9  N4  UNL     1      21.057 -19.341  22.799  1.00  0.00    -0.301 N 
ATOM     10  H4  UNL     1      21.662 -19.670  22.047  1.00  0.00     0.171 HD
HETATM   11  C3  UNL     1      21.659 -19.270  24.104  1.00  0.00     0.315 C 
HETATM   12  O1  UNL     1      22.729 -19.905  24.243  1.00  0.00    -0.262 OA
HETATM   13  C4  UNL     1      21.147 -18.542  25.262  1.00  0.00     0.316 C 
HETATM   14  O2  UNL     1      21.793 -18.711  26.339  1.00  0.00    -0.262 OA
HETATM   15  N5  UNL     1      20.037 -17.666  25.387  1.00  0.00    -0.282 N 
ATOM     16  H5  UNL     1      20.027 -17.056  26.205  1.00  0.00     0.172 HD
HETATM   17  C5  UNL     1      18.934 -17.550  24.490  1.00  0.00     0.302 C 
HETATM   18  O3  UNL     1      17.956 -16.910  24.920  1.00  0.00    -0.264 OA
HETATM   19  C6  UNL     1      18.832 -18.103  23.123  1.00  0.00     0.283 C 
HETATM   20  O4  UNL     1      17.832 -17.729  22.493  1.00  0.00    -0.278 OA
ENDROOT
TORSDOF 0
ENDMDL
MODEL 2
REMARK VINA RESULT: -7.688572403      3.536      6.360
REMARK  0 active torsions:
REMARK  status: ('A' for Active; 'I' for Inactive)
REMARK       I    between atoms: C1_4  and  N3_6 
ROOT
HETATM    1  N1  UNL     1      21.429 -19.375  23.437  1.00  0.00    -0.373 N 
ATOM      2  H11 UNL     1      22.207 -20.034  23.443  1.00  0.00     0.158 HD
ATOM      3  H12 UNL     1      21.413 -18.560  24.051  1.00  0.00     0.158 HD
HETATM    4  C1  UNL     1      20.430 -19.551  22.639  1.00  0.00     0.187 C 
HETATM    5  N2  UNL     1      19.338 -18.625  22.630  1.00  0.00    -0.064 NA
HETATM    6  N3  UNL     1      20.453 -20.671  21.793  1.00  0.00    -0.313 N 
ATOM      7  H3  UNL     1      20.480 -21.589  22.238  1.00  0.00     0.170 HD
HETATM    8  C2  UNL     1      20.442 -20.645  20.525  1.00  0.00     0.167 C 
HETATM    9  N4  UNL     1      20.403 -19.372  19.904  1.00  0.00    -0.301 N 
ATOM     10  H4  UNL     1      20.758 -18.595  20.462  1.00  0.00     0.171 HD
HETATM   11  C3  UNL     1      19.927 -19.035  18.589  1.00  0.00     0.315 C 
HETATM   12  O1  UNL     1      19.701 -17.819  18.388  1.00  0.00    -0.262 OA
HETATM   13  C4  UNL     1      19.684 -19.960  17.485  1.00  0.00     0.316 C 
HETATM   14  O2  UNL     1      19.163 -19.447  16.450  1.00  0.00    -0.262 OA
HETATM   15  N5  UNL     1      19.937 -21.353  17.374  1.00  0.00    -0.282 N 
ATOM     16  H5  UNL     1      19.952 -21.740  16.430  1.00  0.00     0.172 HD
HETATM   17  C5  UNL     1      20.172 -22.268  18.443  1.00  0.00     0.302 C 
HETATM   18  O3  UNL     1      20.117 -23.475  18.140  1.00  0.00    -0.264 OA
HETATM   19  C6  UNL     1      20.470 -21.938  19.852  1.00  0.00     0.283 C 
HETATM   20  O4  UNL     1      20.789 -22.911  20.550  1.00  0.00    -0.278 OA
ENDROOT
TORSDOF 0
ENDMDL
MODEL 3
REMARK VINA RESULT: -7.634425103      2.207      4.319
REMARK  0 active torsions:
REMARK  status: ('A' for Active; 'I' for Inactive)
REMARK       I    between atoms: C1_4  and  N3_6 
ROOT
HETATM    1  N1  UNL     1      21.471 -19.201  26.120  1.00  0.00    -0.373 N 
ATOM      2  H11 UNL     1      20.659 -19.039  26.716  1.00  0.00     0.158 HD
ATOM      3  H12 UNL     1      22.329 -19.615  26.487  1.00  0.00     0.158 HD
HETATM    4  C1  UNL     1      21.437 -18.887  24.869  1.00  0.00     0.187 C 
HETATM    5  N2  UNL     1      22.578 -19.115  24.033  1.00  0.00    -0.064 NA
HETATM    6  N3  UNL     1      20.256 -18.319  24.365  1.00  0.00    -0.313 N 
ATOM      7  H3  UNL     1      19.957 -17.433  24.772  1.00  0.00     0.170 HD
HETATM    8  C2  UNL     1      19.529 -18.809  23.448  1.00  0.00     0.167 C 
HETATM    9  N4  UNL     1      19.943 -20.039  22.881  1.00  0.00    -0.301 N 
ATOM     10  H4  UNL     1      20.544 -20.619  23.467  1.00  0.00     0.171 HD
HETATM   11  C3  UNL     1      19.625 -20.575  21.583  1.00  0.00     0.315 C 
HETATM   12  O1  UNL     1      20.355 -21.514  21.191  1.00  0.00    -0.262 OA
HETATM   13  C4  UNL     1      18.553 -20.133  20.696  1.00  0.00     0.316 C 
HETATM   14  O2  UNL     1      18.530 -20.684  19.555  1.00  0.00    -0.262 OA
HETATM   15  N5  UNL     1      17.518 -19.182  20.898  1.00  0.00    -0.282 N 
ATOM     16  H5  UNL     1      16.722 -19.233  20.262  1.00  0.00     0.172 HD
HETATM   17  C5  UNL     1      17.476 -18.163  21.895  1.00  0.00     0.302 C 
HETATM   18  O3  UNL     1      16.607 -17.286  21.732  1.00  0.00    -0.264 OA
HETATM   19  C6  UNL     1      18.344 -18.041  23.085  1.00  0.00     0.283 C 
HETATM   20  O4  UNL     1      18.002 -17.153  23.879  1.00  0.00    -0.278 OA
ENDROOT
TORSDOF 0
ENDMDL
MODEL 4
REMARK VINA RESULT: -7.598695015      0.862      3.248
REMARK  0 active torsions:
REMARK  status: ('A' for Active; 'I' for Inactive)
REMARK       I    between atoms: C1_4  and  N3_6 
ROOT
HETATM    1  N1  UNL     1      19.849 -22.002  20.574  1.00  0.00    -0.373 N 
ATOM      2  H11 UNL     1      20.212 -22.744  21.173  1.00  0.00     0.158 HD
ATOM      3  H12 UNL     1      19.304 -22.208  19.737  1.00  0.00     0.158 HD
HETATM    4  C1  UNL     1      20.070 -20.764  20.864  1.00  0.00     0.187 C 
HETATM    5  N2  UNL     1      19.560 -19.721  20.023  1.00  0.00    -0.064 NA
HETATM    6  N3  UNL     1      20.819 -20.480  22.017  1.00  0.00    -0.313 N 
ATOM      7  H3  UNL     1      21.774 -20.835  22.048  1.00  0.00     0.170 HD
HETATM    8  C2  UNL     1      20.414 -19.820  23.022  1.00  0.00     0.167 C 
HETATM    9  N4  UNL     1      19.088 -19.325  22.980  1.00  0.00    -0.301 N 
ATOM     10  H4  UNL     1      18.447 -19.822  22.362  1.00  0.00     0.171 HD
HETATM   11  C3  UNL     1      18.529 -18.210  23.697  1.00  0.00     0.315 C 
HETATM   12  O1  UNL     1      17.438 -17.775  23.261  1.00  0.00    -0.262 OA
HETATM   13  C4  UNL     1      19.105 -17.546  24.864  1.00  0.00     0.316 C 
HETATM   14  O2  UNL     1      18.485 -16.515  25.264  1.00  0.00    -0.262 OA
HETATM   15  N5  UNL     1      20.252 -17.865  25.636  1.00  0.00    -0.282 N 
ATOM     16  H5  UNL     1      20.312 -17.440  26.562  1.00  0.00     0.172 HD
HETATM   17  C5  UNL     1      21.332 -18.715  25.253  1.00  0.00     0.302 C 
HETATM   18  O3  UNL     1      22.348 -18.652  25.971  1.00  0.00    -0.264 OA
HETATM   19  C6  UNL     1      21.370 -19.650  24.109  1.00  0.00     0.283 C 
HETATM   20  O4  UNL     1      22.365 -20.390  24.085  1.00  0.00    -0.278 OA
ENDROOT
TORSDOF 0
ENDMDL
MODEL 5
REMARK VINA RESULT: -7.417356371      2.386      4.656
REMARK  0 active torsions:
REMARK  status: ('A' for Active; 'I' for Inactive)
REMARK       I    between atoms: C1_4  and  N3_6 
ROOT
HETATM    1  N1  UNL     1      20.757 -18.924  25.559  1.00  0.00    -0.373 N 
ATOM      2  H11 UNL     1      19.836 -18.534  25.765  1.00  0.00     0.158 HD
ATOM      3  H12 UNL     1      21.344 -19.324  26.291  1.00  0.00     0.158 HD
HETATM    4  C1  UNL     1      21.209 -18.923  24.350  1.00  0.00     0.187 C 
HETATM    5  N2  UNL     1      22.502 -19.469  24.061  1.00  0.00    -0.064 NA
HETATM    6  N3  UNL     1      20.401 -18.372  23.344  1.00  0.00    -0.313 N 
ATOM      7  H3  UNL     1      20.154 -17.387  23.434  1.00  0.00     0.170 HD
HETATM    8  C2  UNL     1      19.950 -18.991  22.332  1.00  0.00     0.167 C 
HETATM    9  N4  UNL     1      20.292 -20.359  22.204  1.00  0.00    -0.301 N 
ATOM     10  H4  UNL     1      20.537 -20.839  23.070  1.00  0.00     0.171 HD
HETATM   11  C3  UNL     1      20.340 -21.158  21.008  1.00  0.00     0.315 C 
HETATM   12  O1  UNL     1      20.968 -22.238  21.102  1.00  0.00    -0.262 OA
HETATM   13  C4  UNL     1      19.737 -20.835  19.718  1.00  0.00     0.316 C 
HETATM   14  O2  UNL     1      20.000 -21.642  18.778  1.00  0.00    -0.262 OA
HETATM   15  N5  UNL     1      18.895 -19.758  19.335  1.00  0.00    -0.282 N 
ATOM     16  H5  UNL     1      18.367 -19.877  18.470  1.00  0.00     0.172 HD
HETATM   17  C5  UNL     1      18.709 -18.528  20.033  1.00  0.00     0.302 C 
HETATM   18  O3  UNL     1      18.129 -17.629  19.394  1.00  0.00    -0.264 OA
HETATM   19  C6  UNL     1      19.127 -18.212  21.415  1.00  0.00     0.283 C 
HETATM   20  O4  UNL     1      18.709 -17.126  21.840  1.00  0.00    -0.278 OA
ENDROOT
TORSDOF 0
ENDMDL
