MODEL 1
REMARK VINA RESULT: -6.599992887      0.000      0.000
REMARK  2 active torsions:
REMARK  status: ('A' for Active; 'I' for Inactive)
REMARK    1  A    between atoms: C3_9  and  O2_10 
REMARK    2  A    between atoms: C4_14  and  O3_15 
ROOT
HETATM    1  N1  UNL     1      20.976 -23.277  18.597  1.00  0.00    -0.381 N 
ATOM      2  H11 UNL     1      21.162 -24.027  19.264  1.00  0.00     0.157 HD
ATOM      3  H12 UNL     1      21.552 -23.053  17.786  1.00  0.00     0.157 HD
HETATM    4  C1  UNL     1      19.897 -22.568  18.854  1.00  0.00     0.172 C 
HETATM    5  N2  UNL     1      19.634 -21.510  17.914  1.00  0.00    -0.302 N 
ATOM      6  H2  UNL     1      19.623 -21.746  16.921  1.00  0.00     0.171 HD
HETATM    7  C2  UNL     1      19.388 -20.158  18.277  1.00  0.00     0.298 C 
HETATM    8  O1  UNL     1      18.351 -19.614  17.757  1.00  0.00    -0.263 OA
HETATM    9  C3  UNL     1      20.188 -19.328  19.175  1.00  0.00     0.213 C 
HETATM   10  N3  UNL     1      20.771 -19.782  20.387  1.00  0.00    -0.297 N 
ATOM     11  H3  UNL     1      21.784 -19.682  20.464  1.00  0.00     0.171 HD
HETATM   12  C4  UNL     1      20.116 -20.358  21.504  1.00  0.00     0.238 C 
HETATM   13  N4  UNL     1      18.799 -20.887  21.504  1.00  0.00    -0.262 N 
ATOM     14  H4  UNL     1      18.125 -20.409  22.102  1.00  0.00     0.190 HD
HETATM   15  N5  UNL     1      18.312 -21.978  20.790  1.00  0.00    -0.260 N 
ATOM     16  H5  UNL     1      17.306 -22.140  20.829  1.00  0.00     0.190 HD
HETATM   17  C5  UNL     1      19.078 -22.887  20.011  1.00  0.00     0.303 C 
HETATM   18  O4  UNL     1      19.034 -24.131  20.375  1.00  0.00    -0.263 OA
ENDROOT
BRANCH   9  19
HETATM   19  O2  UNL     1      20.387 -18.077  18.844  1.00  0.00    -0.342 OA
ATOM     20  H2  UNL     1      21.196 -17.856  18.398  1.00  0.00     0.219 HD
ENDBRANCH   9  19
BRANCH  12  21
HETATM   21  O3  UNL     1      20.792 -20.398  22.623  1.00  0.00    -0.331 OA
ATOM     22  H3  UNL     1      21.010 -21.259  22.958  1.00  0.00     0.221 HD
ENDBRANCH  12  21
TORSDOF 2
ENDMDL
MODEL 2
REMARK VINA RESULT: -6.549113928      2.037      3.930
REMARK  2 active torsions:
REMARK  status: ('A' for Active; 'I' for Inactive)
REMARK    1  A    between atoms: C3_9  and  O2_10 
REMARK    2  A    between atoms: C4_14  and  O3_15 
ROOT
HETATM    1  N1  UNL     1      21.086 -19.247  22.532  1.00  0.00    -0.381 N 
ATOM      2  H11 UNL     1      20.888 -18.325  22.921  1.00  0.00     0.157 HD
ATOM      3  H12 UNL     1      22.007 -19.683  22.486  1.00  0.00     0.157 HD
HETATM    4  C1  UNL     1      20.034 -19.883  22.059  1.00  0.00     0.172 C 
HETATM    5  N2  UNL     1      20.313 -21.184  21.510  1.00  0.00    -0.302 N 
ATOM      6  H2  UNL     1      20.842 -21.841  22.085  1.00  0.00     0.171 HD
HETATM    7  C2  UNL     1      19.901 -21.615  20.220  1.00  0.00     0.298 C 
HETATM    8  O1  UNL     1      19.305 -22.748  20.167  1.00  0.00    -0.263 OA
HETATM    9  C3  UNL     1      20.084 -20.906  18.955  1.00  0.00     0.213 C 
HETATM   10  N3  UNL     1      19.922 -19.506  18.785  1.00  0.00    -0.297 N 
ATOM     11  H3  UNL     1      20.733 -19.001  18.424  1.00  0.00     0.171 HD
HETATM   12  C4  UNL     1      18.772 -18.724  19.056  1.00  0.00     0.238 C 
HETATM   13  N4  UNL     1      17.667 -19.132  19.849  1.00  0.00    -0.262 N 
ATOM     14  H4  UNL     1      16.774 -19.211  19.363  1.00  0.00     0.190 HD
HETATM   15  N5  UNL     1      17.651 -19.436  21.206  1.00  0.00    -0.260 N 
ATOM     16  H5  UNL     1      16.784 -19.822  21.580  1.00  0.00     0.190 HD
HETATM   17  C5  UNL     1      18.722 -19.262  22.124  1.00  0.00     0.303 C 
HETATM   18  O4  UNL     1      18.497 -18.465  23.123  1.00  0.00    -0.263 OA
ENDROOT
BRANCH   9  19
HETATM   19  O2  UNL     1      20.421 -21.605  17.901  1.00  0.00    -0.342 OA
ATOM     20  H2  UNL     1      21.150 -21.297  17.375  1.00  0.00     0.219 HD
ENDBRANCH   9  19
BRANCH  12  21
HETATM   21  O3  UNL     1      18.737 -17.530  18.524  1.00  0.00    -0.331 OA
ATOM     22  H3  UNL     1      18.075 -17.379  17.860  1.00  0.00     0.221 HD
ENDBRANCH  12  21
TORSDOF 2
ENDMDL
MODEL 3
REMARK VINA RESULT: -6.480196288      2.650      3.803
REMARK  2 active torsions:
REMARK  status: ('A' for Active; 'I' for Inactive)
REMARK    1  A    between atoms: C3_9  and  O2_10 
REMARK    2  A    between atoms: C4_14  and  O3_15 
ROOT
HETATM    1  N1  UNL     1      20.355 -18.518  19.416  1.00  0.00    -0.381 N 
ATOM      2  H11 UNL     1      20.906 -19.265  18.991  1.00  0.00     0.157 HD
ATOM      3  H12 UNL     1      20.478 -17.521  19.242  1.00  0.00     0.157 HD
HETATM    4  C1  UNL     1      19.424 -18.930  20.252  1.00  0.00     0.172 C 
HETATM    5  N2  UNL     1      18.646 -17.878  20.851  1.00  0.00    -0.302 N 
ATOM      6  H2  UNL     1      18.224 -17.185  20.232  1.00  0.00     0.171 HD
HETATM    7  C2  UNL     1      18.425 -17.741  22.249  1.00  0.00     0.298 C 
HETATM    8  O1  UNL     1      17.208 -17.579  22.615  1.00  0.00    -0.263 OA
HETATM    9  C3  UNL     1      19.434 -17.764  23.306  1.00  0.00     0.213 C 
HETATM   10  N3  UNL     1      20.545 -18.648  23.341  1.00  0.00    -0.297 N 
ATOM     11  H3  UNL     1      21.466 -18.211  23.382  1.00  0.00     0.171 HD
HETATM   12  C4  UNL     1      20.528 -20.065  23.326  1.00  0.00     0.238 C 
HETATM   13  N4  UNL     1      19.422 -20.872  22.950  1.00  0.00    -0.262 N 
ATOM     14  H4  UNL     1      19.032 -21.464  23.683  1.00  0.00     0.190 HD
HETATM   15  N5  UNL     1      18.805 -20.957  21.706  1.00  0.00    -0.260 N 
ATOM     16  H5  UNL     1      17.949 -21.509  21.655  1.00  0.00     0.190 HD
HETATM   17  C5  UNL     1      19.249 -20.351  20.500  1.00  0.00     0.303 C 
HETATM   18  O4  UNL     1      19.523 -21.157  19.521  1.00  0.00    -0.263 OA
ENDROOT
BRANCH   9  19
HETATM   19  O2  UNL     1      19.313 -16.912  24.292  1.00  0.00    -0.342 OA
ATOM     20  H2  UNL     1      20.103 -16.626  24.735  1.00  0.00     0.219 HD
ENDBRANCH   9  19
BRANCH  12  21
HETATM   21  O3  UNL     1      21.630 -20.667  23.692  1.00  0.00    -0.331 OA
ATOM     22  H3  UNL     1      21.647 -21.612  23.603  1.00  0.00     0.221 HD
ENDBRANCH  12  21
TORSDOF 2
ENDMDL
MODEL 4
REMARK VINA RESULT: -6.424136138      1.336      3.777
REMARK  2 active torsions:
REMARK  status: ('A' for Active; 'I' for Inactive)
REMARK    1  A    between atoms: C3_9  and  O2_10 
REMARK    2  A    between atoms: C4_14  and  O3_15 
ROOT
HETATM    1  N1  UNL     1      18.076 -19.255  17.680  1.00  0.00    -0.381 N 
ATOM      2  H11 UNL     1      18.010 -18.251  17.850  1.00  0.00     0.157 HD
ATOM      3  H12 UNL     1      17.392 -19.813  17.168  1.00  0.00     0.157 HD
HETATM    4  C1  UNL     1      19.146 -19.831  18.186  1.00  0.00     0.172 C 
HETATM    5  N2  UNL     1      19.239 -21.247  17.946  1.00  0.00    -0.302 N 
ATOM      6  H2  UNL     1      19.133 -21.576  16.986  1.00  0.00     0.171 HD
HETATM    7  C2  UNL     1      19.468 -22.218  18.958  1.00  0.00     0.298 C 
HETATM    8  O1  UNL     1      20.404 -23.062  18.729  1.00  0.00    -0.263 OA
HETATM    9  C3  UNL     1      18.752 -22.356  20.225  1.00  0.00     0.213 C 
HETATM   10  N3  UNL     1      18.350 -21.269  21.046  1.00  0.00    -0.297 N 
ATOM     11  H3  UNL     1      17.352 -21.204  21.248  1.00  0.00     0.171 HD
HETATM   12  C4  UNL     1      19.168 -20.263  21.617  1.00  0.00     0.238 C 
HETATM   13  N4  UNL     1      20.497 -19.958  21.221  1.00  0.00    -0.262 N 
ATOM     14  H4  UNL     1      21.219 -20.115  21.924  1.00  0.00     0.190 HD
HETATM   15  N5  UNL     1      20.937 -19.471  19.994  1.00  0.00    -0.260 N 
ATOM     16  H5  UNL     1      21.946 -19.420  19.855  1.00  0.00     0.190 HD
HETATM   17  C5  UNL     1      20.120 -19.036  18.916  1.00  0.00     0.303 C 
HETATM   18  O4  UNL     1      20.266 -17.801  18.547  1.00  0.00    -0.263 OA
ENDROOT
BRANCH   9  19
HETATM   19  O2  UNL     1      18.457 -23.562  20.638  1.00  0.00    -0.342 OA
ATOM     20  H2  UNL     1      19.085 -24.256  20.475  1.00  0.00     0.219 HD
ENDBRANCH   9  19
BRANCH  12  21
HETATM   21  O3  UNL     1      18.644 -19.564  22.590  1.00  0.00    -0.331 OA
ATOM     22  H3  UNL     1      17.728 -19.329  22.499  1.00  0.00     0.221 HD
ENDBRANCH  12  21
TORSDOF 2
ENDMDL
MODEL 5
REMARK VINA RESULT: -6.406767858      2.310      4.346
REMARK  2 active torsions:
REMARK  status: ('A' for Active; 'I' for Inactive)
REMARK    1  A    between atoms: C3_9  and  O2_10 
REMARK    2  A    between atoms: C4_14  and  O3_15 
ROOT
HETATM    1  N1  UNL     1      19.348 -18.653  23.294  1.00  0.00    -0.381 N 
ATOM      2  H11 UNL     1      19.195 -17.645  23.341  1.00  0.00     0.157 HD
ATOM      3  H12 UNL     1      19.945 -19.190  23.923  1.00  0.00     0.157 HD
HETATM    4  C1  UNL     1      18.702 -19.263  22.322  1.00  0.00     0.172 C 
HETATM    5  N2  UNL     1      18.917 -20.685  22.255  1.00  0.00    -0.302 N 
ATOM      6  H2  UNL     1      18.781 -21.228  23.108  1.00  0.00     0.171 HD
HETATM    7  C2  UNL     1      19.305 -21.382  21.080  1.00  0.00     0.298 C 
HETATM    8  O1  UNL     1      18.608 -22.414  20.778  1.00  0.00    -0.263 OA
HETATM    9  C3  UNL     1      20.410 -21.049  20.183  1.00  0.00     0.213 C 
HETATM   10  N3  UNL     1      20.756 -19.731  19.785  1.00  0.00    -0.297 N 
ATOM     11  H3  UNL     1      21.709 -19.433  19.997  1.00  0.00     0.171 HD
HETATM   12  C4  UNL     1      19.938 -18.778  19.129  1.00  0.00     0.238 C 
HETATM   13  N4  UNL     1      18.522 -18.837  19.030  1.00  0.00    -0.262 N 
ATOM     14  H4  UNL     1      18.145 -18.935  18.087  1.00  0.00     0.190 HD
HETATM   15  N5  UNL     1      17.587 -18.777  20.058  1.00  0.00    -0.260 N 
ATOM     16  H5  UNL     1      16.614 -18.952  19.804  1.00  0.00     0.190 HD
HETATM   17  C5  UNL     1      17.851 -18.498  21.426  1.00  0.00     0.303 C 
HETATM   18  O4  UNL     1      17.267 -17.451  21.920  1.00  0.00    -0.263 OA
ENDROOT
BRANCH   9  19
HETATM   19  O2  UNL     1      21.137 -22.029  19.710  1.00  0.00    -0.342 OA
ATOM     20  H2  UNL     1      20.698 -22.718  19.225  1.00  0.00     0.219 HD
ENDBRANCH   9  19
BRANCH  12  21
HETATM   21  O3  UNL     1      20.549 -17.765  18.572  1.00  0.00    -0.331 OA
ATOM     22  H3  UNL     1      20.810 -17.057  19.148  1.00  0.00     0.221 HD
ENDBRANCH  12  21
TORSDOF 2
ENDMDL
