MODEL 1
REMARK VINA RESULT: -6.503778682      0.000      0.000
REMARK  6 active torsions:
REMARK  status: ('A' for Active; 'I' for Inactive)
REMARK    1  A    between atoms: O1_2  and  C2_3 
REMARK    2  A    between atoms: C2_3  and  C3_5 
REMARK    3  A    between atoms: C3_5  and  N1_7 
REMARK       I    between atoms: N1_7  and  C5_9 
REMARK    4  A    between atoms: C5_9  and  O4_11 
REMARK    5  A    between atoms: O4_11  and  C6_12 
REMARK    6  A    between atoms: C6_12  and  C7_13 
ROOT
HETATM    1  O4  UNL     1      -6.229  -1.828  17.302  1.00  0.00    -0.298 OA
ENDROOT
BRANCH   1   2
HETATM    2  C5  UNL     1      -6.180  -2.529  16.039  1.00  0.00     0.361 C 
HETATM    3  N1  UNL     1      -5.249  -2.169  15.027  1.00  0.00    -0.323 N 
ATOM      4  H1  UNL     1      -4.569  -1.422  15.172  1.00  0.00     0.165 HD
HETATM    5  O3  UNL     1      -7.004  -3.430  15.969  1.00  0.00    -0.238 OA
BRANCH   3   6
HETATM    6  C3  UNL     1      -5.308  -2.917  13.764  1.00  0.00     0.182 C 
HETATM    7  C4  UNL     1      -5.944  -2.223  12.621  1.00  0.00     0.043 C 
BRANCH   6   8
HETATM    8  C2  UNL     1      -3.848  -3.198  13.473  1.00  0.00     0.281 C 
HETATM    9  O2  UNL     1      -3.155  -2.243  12.971  1.00  0.00    -0.263 OA
BRANCH   8  10
HETATM   10  O1  UNL     1      -3.303  -4.438  13.711  1.00  0.00    -0.325 OA
HETATM   11  C1  UNL     1      -3.369  -5.153  14.893  1.00  0.00     0.213 C 
ENDBRANCH   8  10
ENDBRANCH   6   8
ENDBRANCH   3   6
ENDBRANCH   1   2
BRANCH   1  12
HETATM   12  C6  UNL     1      -4.983  -1.193  17.531  1.00  0.00     0.240 C 
BRANCH  12  13
HETATM   13  C7  UNL     1      -4.505  -1.151  18.922  1.00  0.00     0.069 A 
HETATM   14  N2  UNL     1      -4.508  -0.187  19.869  1.00  0.00    -0.345 N 
HETATM   15  C8  UNL     1      -3.963  -0.687  21.027  1.00  0.00     0.080 A 
ATOM     16  H2  UNL     1      -4.859   0.762  19.744  1.00  0.00     0.167 HD
HETATM   17  C9  UNL     1      -3.798   0.076  22.293  1.00  0.00     0.089 C 
HETATM   18  N3  UNL     1      -3.616  -1.949  20.801  1.00  0.00    -0.334 N 
HETATM   19  C10 UNL     1      -2.924  -2.860  21.706  1.00  0.00     0.158 C 
HETATM   20  C11 UNL     1      -3.931  -2.248  19.560  1.00  0.00     0.107 A 
HETATM   21 BR1  UNL     1      -3.650  -3.909  18.649  1.00  0.00    -0.029 Br
ENDBRANCH  12  13
ENDBRANCH   1  12
TORSDOF 6
ENDMDL
MODEL 2
REMARK VINA RESULT: -6.250495458      1.584      2.207
REMARK  6 active torsions:
REMARK  status: ('A' for Active; 'I' for Inactive)
REMARK    1  A    between atoms: O1_2  and  C2_3 
REMARK    2  A    between atoms: C2_3  and  C3_5 
REMARK    3  A    between atoms: C3_5  and  N1_7 
REMARK       I    between atoms: N1_7  and  C5_9 
REMARK    4  A    between atoms: C5_9  and  O4_11 
REMARK    5  A    between atoms: O4_11  and  C6_12 
REMARK    6  A    between atoms: C6_12  and  C7_13 
ROOT
HETATM    1  O4  UNL     1      -6.366  -1.797  16.959  1.00  0.00    -0.298 OA
ENDROOT
BRANCH   1   2
HETATM    2  C5  UNL     1      -6.139  -2.619  15.792  1.00  0.00     0.361 C 
HETATM    3  N1  UNL     1      -5.498  -2.099  14.634  1.00  0.00    -0.323 N 
ATOM      4  H1  UNL     1      -5.154  -1.139  14.602  1.00  0.00     0.165 HD
HETATM    5  O3  UNL     1      -6.550  -3.762  15.933  1.00  0.00    -0.238 OA
BRANCH   3   6
HETATM    6  C3  UNL     1      -5.352  -3.004  13.485  1.00  0.00     0.182 C 
HETATM    7  C4  UNL     1      -5.919  -2.529  12.202  1.00  0.00     0.043 C 
BRANCH   6   8
HETATM    8  C2  UNL     1      -3.850  -3.168  13.378  1.00  0.00     0.281 C 
HETATM    9  O2  UNL     1      -3.178  -2.162  12.954  1.00  0.00    -0.263 OA
BRANCH   8  10
HETATM   10  O1  UNL     1      -3.242  -4.360  13.693  1.00  0.00    -0.325 OA
HETATM   11  C1  UNL     1      -3.459  -5.120  14.828  1.00  0.00     0.213 C 
ENDBRANCH   8  10
ENDBRANCH   6   8
ENDBRANCH   3   6
ENDBRANCH   1   2
BRANCH   1  12
HETATM   12  C6  UNL     1      -5.118  -1.374  17.481  1.00  0.00     0.240 C 
BRANCH  12  13
HETATM   13  C7  UNL     1      -4.375  -2.347  18.297  1.00  0.00     0.069 A 
HETATM   14  N2  UNL     1      -4.071  -3.652  18.124  1.00  0.00    -0.345 N 
HETATM   15  C8  UNL     1      -3.315  -4.087  19.187  1.00  0.00     0.080 A 
ATOM     16  H2  UNL     1      -4.357  -4.225  17.330  1.00  0.00     0.167 HD
HETATM   17  C9  UNL     1      -2.787  -5.467  19.352  1.00  0.00     0.089 C 
HETATM   18  N3  UNL     1      -3.158  -3.063  20.018  1.00  0.00    -0.334 N 
HETATM   19  C10 UNL     1      -2.502  -3.064  21.320  1.00  0.00     0.158 C 
HETATM   20  C11 UNL     1      -3.776  -2.019  19.510  1.00  0.00     0.107 A 
HETATM   21 BR1  UNL     1      -3.922  -0.265  20.263  1.00  0.00    -0.029 Br
ENDBRANCH  12  13
ENDBRANCH   1  12
TORSDOF 6
ENDMDL
MODEL 3
REMARK VINA RESULT: -6.152992565      6.478      9.565
REMARK  6 active torsions:
REMARK  status: ('A' for Active; 'I' for Inactive)
REMARK    1  A    between atoms: O1_2  and  C2_3 
REMARK    2  A    between atoms: C2_3  and  C3_5 
REMARK    3  A    between atoms: C3_5  and  N1_7 
REMARK       I    between atoms: N1_7  and  C5_9 
REMARK    4  A    between atoms: C5_9  and  O4_11 
REMARK    5  A    between atoms: O4_11  and  C6_12 
REMARK    6  A    between atoms: C6_12  and  C7_13 
ROOT
HETATM    1  O4  UNL     1      -1.005  -5.429  21.371  1.00  0.00    -0.298 OA
ENDROOT
BRANCH   1   2
HETATM    2  C5  UNL     1      -0.605  -4.871  22.642  1.00  0.00     0.361 C 
HETATM    3  N1  UNL     1      -0.607  -3.467  22.868  1.00  0.00    -0.323 N 
ATOM      4  H1  UNL     1      -0.918  -2.813  22.149  1.00  0.00     0.165 HD
HETATM    5  O3  UNL     1      -0.286  -5.728  23.454  1.00  0.00    -0.238 OA
BRANCH   3   6
HETATM    6  C3  UNL     1      -0.144  -2.998  24.181  1.00  0.00     0.182 C 
HETATM    7  C4  UNL     1       1.307  -2.736  24.308  1.00  0.00     0.043 C 
BRANCH   6   8
HETATM    8  C2  UNL     1      -0.937  -1.723  24.380  1.00  0.00     0.281 C 
HETATM    9  O2  UNL     1      -0.433  -0.832  25.152  1.00  0.00    -0.263 OA
BRANCH   8  10
HETATM   10  O1  UNL     1      -2.162  -1.548  23.779  1.00  0.00    -0.325 OA
HETATM   11  C1  UNL     1      -3.107  -0.590  24.099  1.00  0.00     0.213 C 
ENDBRANCH   8  10
ENDBRANCH   6   8
ENDBRANCH   3   6
ENDBRANCH   1   2
BRANCH   1  12
HETATM   12  C6  UNL     1      -0.732  -6.819  21.365  1.00  0.00     0.240 C 
BRANCH  12  13
HETATM   13  C7  UNL     1      -1.257  -7.594  20.229  1.00  0.00     0.069 A 
HETATM   14  N2  UNL     1      -1.240  -7.395  18.892  1.00  0.00    -0.345 N 
HETATM   15  C8  UNL     1      -1.850  -8.457  18.268  1.00  0.00     0.080 A 
ATOM     16  H2  UNL     1      -0.839  -6.585  18.421  1.00  0.00     0.167 HD
HETATM   17  C9  UNL     1      -2.023  -8.600  16.798  1.00  0.00     0.089 C 
HETATM   18  N3  UNL     1      -2.250  -9.305  19.209  1.00  0.00    -0.334 N 
HETATM   19  C10 UNL     1      -3.017 -10.534  19.035  1.00  0.00     0.158 C 
HETATM   20  C11 UNL     1      -1.906  -8.816  20.380  1.00  0.00     0.107 A 
HETATM   21 BR1  UNL     1      -2.235  -9.575  22.107  1.00  0.00    -0.029 Br
ENDBRANCH  12  13
ENDBRANCH   1  12
TORSDOF 6
ENDMDL
MODEL 4
REMARK VINA RESULT: -6.118267862      1.874      2.444
REMARK  6 active torsions:
REMARK  status: ('A' for Active; 'I' for Inactive)
REMARK    1  A    between atoms: O1_2  and  C2_3 
REMARK    2  A    between atoms: C2_3  and  C3_5 
REMARK    3  A    between atoms: C3_5  and  N1_7 
REMARK       I    between atoms: N1_7  and  C5_9 
REMARK    4  A    between atoms: C5_9  and  O4_11 
REMARK    5  A    between atoms: O4_11  and  C6_12 
REMARK    6  A    between atoms: C6_12  and  C7_13 
ROOT
HETATM    1  O4  UNL     1      -4.159  -1.399  17.761  1.00  0.00    -0.298 OA
ENDROOT
BRANCH   1   2
HETATM    2  C5  UNL     1      -4.567  -2.289  16.697  1.00  0.00     0.361 C 
HETATM    3  N1  UNL     1      -4.504  -1.890  15.333  1.00  0.00    -0.323 N 
ATOM      4  H1  UNL     1      -4.144  -0.975  15.063  1.00  0.00     0.165 HD
HETATM    5  O3  UNL     1      -4.948  -3.375  17.111  1.00  0.00    -0.238 OA
BRANCH   3   6
HETATM    6  C3  UNL     1      -4.980  -2.853  14.331  1.00  0.00     0.182 C 
HETATM    7  C4  UNL     1      -6.011  -2.362  13.389  1.00  0.00     0.043 C 
BRANCH   6   8
HETATM    8  C2  UNL     1      -3.710  -3.219  13.590  1.00  0.00     0.281 C 
HETATM    9  O2  UNL     1      -3.180  -2.315  12.851  1.00  0.00    -0.263 OA
BRANCH   8  10
HETATM   10  O1  UNL     1      -3.172  -4.481  13.685  1.00  0.00    -0.325 OA
HETATM   11  C1  UNL     1      -3.298  -5.352  14.752  1.00  0.00     0.213 C 
ENDBRANCH   8  10
ENDBRANCH   6   8
ENDBRANCH   3   6
ENDBRANCH   1   2
BRANCH   1  12
HETATM   12  C6  UNL     1      -4.652  -1.891  18.994  1.00  0.00     0.240 C 
BRANCH  12  13
HETATM   13  C7  UNL     1      -3.677  -2.534  19.890  1.00  0.00     0.069 A 
HETATM   14  N2  UNL     1      -3.019  -3.714  19.841  1.00  0.00    -0.345 N 
HETATM   15  C8  UNL     1      -2.185  -3.813  20.928  1.00  0.00     0.080 A 
ATOM     16  H2  UNL     1      -3.126  -4.418  19.111  1.00  0.00     0.167 HD
HETATM   17  C9  UNL     1      -1.296  -4.969  21.219  1.00  0.00     0.089 C 
HETATM   18  N3  UNL     1      -2.328  -2.709  21.652  1.00  0.00    -0.334 N 
HETATM   19  C10 UNL     1      -1.712  -2.399  22.937  1.00  0.00     0.158 C 
HETATM   20  C11 UNL     1      -3.206  -1.934  21.054  1.00  0.00     0.107 A 
HETATM   21 BR1  UNL     1      -3.843  -0.224  21.635  1.00  0.00    -0.029 Br
ENDBRANCH  12  13
ENDBRANCH   1  12
TORSDOF 6
ENDMDL
MODEL 5
REMARK VINA RESULT: -6.099400187      3.610      4.784
REMARK  6 active torsions:
REMARK  status: ('A' for Active; 'I' for Inactive)
REMARK    1  A    between atoms: O1_2  and  C2_3 
REMARK    2  A    between atoms: C2_3  and  C3_5 
REMARK    3  A    between atoms: C3_5  and  N1_7 
REMARK       I    between atoms: N1_7  and  C5_9 
REMARK    4  A    between atoms: C5_9  and  O4_11 
REMARK    5  A    between atoms: O4_11  and  C6_12 
REMARK    6  A    between atoms: C6_12  and  C7_13 
ROOT
HETATM    1  O4  UNL     1      -1.581  -5.863  17.800  1.00  0.00    -0.298 OA
ENDROOT
BRANCH   1   2
HETATM    2  C5  UNL     1      -2.468  -6.055  16.676  1.00  0.00     0.361 C 
HETATM    3  N1  UNL     1      -3.377  -5.039  16.267  1.00  0.00    -0.323 N 
ATOM      4  H1  UNL     1      -3.410  -4.135  16.738  1.00  0.00     0.165 HD
HETATM    5  O3  UNL     1      -2.333  -7.151  16.150  1.00  0.00    -0.238 OA
BRANCH   3   6
HETATM    6  C3  UNL     1      -4.264  -5.349  15.138  1.00  0.00     0.182 C 
HETATM    7  C4  UNL     1      -5.680  -5.621  15.474  1.00  0.00     0.043 C 
BRANCH   6   8
HETATM    8  C2  UNL     1      -4.149  -4.110  14.273  1.00  0.00     0.281 C 
HETATM    9  O2  UNL     1      -3.153  -4.046  13.468  1.00  0.00    -0.263 OA
BRANCH   8  10
HETATM   10  O1  UNL     1      -5.061  -3.086  14.376  1.00  0.00    -0.325 OA
HETATM   11  C1  UNL     1      -5.750  -2.490  13.335  1.00  0.00     0.213 C 
ENDBRANCH   8  10
ENDBRANCH   6   8
ENDBRANCH   3   6
ENDBRANCH   1   2
BRANCH   1  12
HETATM   12  C6  UNL     1      -2.341  -5.491  18.936  1.00  0.00     0.240 C 
BRANCH  12  13
HETATM   13  C7  UNL     1      -1.646  -5.504  20.233  1.00  0.00     0.069 A 
HETATM   14  N2  UNL     1      -1.142  -4.526  21.018  1.00  0.00    -0.345 N 
HETATM   15  C8  UNL     1      -0.618  -5.084  22.159  1.00  0.00     0.080 A 
ATOM     16  H2  UNL     1      -1.149  -3.530  20.797  1.00  0.00     0.167 HD
HETATM   17  C9  UNL     1       0.025  -4.325  23.264  1.00  0.00     0.089 C 
HETATM   18  N3  UNL     1      -0.787  -6.399  22.081  1.00  0.00    -0.334 N 
HETATM   19  C10 UNL     1      -0.318  -7.416  23.017  1.00  0.00     0.158 C 
HETATM   20  C11 UNL     1      -1.397  -6.672  20.949  1.00  0.00     0.107 A 
HETATM   21 BR1  UNL     1      -1.888  -8.393  20.270  1.00  0.00    -0.029 Br
ENDBRANCH  12  13
ENDBRANCH   1  12
TORSDOF 6
ENDMDL
