MODEL 1
REMARK VINA RESULT: -8.177846786      0.000      0.000
REMARK  6 active torsions:
REMARK  status: ('A' for Active; 'I' for Inactive)
REMARK    1  A    between atoms: C3_3  and  C4_4 
REMARK    2  A    between atoms: C4_4  and  N1_5 
REMARK       I    between atoms: N1_5  and  C5_7 
REMARK    3  A    between atoms: C5_7  and  C6_9 
REMARK    4  A    between atoms: C20_23  and  N2_24 
REMARK    5  A    between atoms: C21_28  and  O2_29 
REMARK    6  A    between atoms: C28_37  and  C29_38 
ROOT
HETATM    1  C6  UNL     1       4.971  38.179  26.363  1.00  0.00     0.042 C 
HETATM    2  C7  UNL     1       6.110  39.008  25.663  1.00  0.00     0.026 C 
HETATM    3  C8  UNL     1       4.387  39.283  27.191  1.00  0.00     0.020 C 
HETATM    4  C9  UNL     1       3.318  39.006  28.169  1.00  0.00     0.011 C 
HETATM    5  C10 UNL     1       2.069  38.793  27.388  1.00  0.00    -0.031 A 
HETATM    6  C11 UNL     1       1.340  39.999  27.248  1.00  0.00     0.016 A 
HETATM    7  C12 UNL     1       0.646  38.924  27.789  1.00  0.00     0.004 A 
HETATM    8  C13 UNL     1       0.426  38.174  28.989  1.00  0.00    -0.032 C 
HETATM    9  C14 UNL     1       0.732  36.710  28.615  1.00  0.00     0.011 C 
HETATM   10  C15 UNL     1       0.990  36.542  27.120  1.00  0.00     0.007 C 
HETATM   11  C16 UNL     1       2.168  37.470  26.807  1.00  0.00     0.003 C 
HETATM   12  C17 UNL     1       2.707  37.356  25.410  1.00  0.00    -0.033 C 
HETATM   13  C18 UNL     1       1.820  38.134  24.423  1.00  0.00     0.016 C 
HETATM   14  C19 UNL     1       2.453  35.889  25.024  1.00  0.00     0.045 C 
HETATM   15  C20 UNL     1       2.857  35.575  23.628  1.00  0.00     0.212 C 
HETATM   16  C21 UNL     1       4.117  36.219  23.195  1.00  0.00     0.149 C 
HETATM   17  C22 UNL     1       4.883  36.624  24.465  1.00  0.00     0.040 C 
HETATM   18  C23 UNL     1       4.154  37.691  25.254  1.00  0.00     0.014 C 
HETATM   19  C24 UNL     1      -1.097  38.146  29.278  1.00  0.00     0.011 C 
HETATM   20  C25 UNL     1      -1.367  39.259  30.220  1.00  0.00     0.011 C 
HETATM   21  C26 UNL     1      -0.093  39.474  30.961  1.00  0.00    -0.030 C 
HETATM   22  C27 UNL     1       0.354  40.917  31.095  1.00  0.00     0.016 C 
HETATM   23  C28 UNL     1       0.040  38.648  32.205  1.00  0.00     0.059 C 
HETATM   24  C30 UNL     1       0.558  37.529  31.368  1.00  0.00     0.018 C 
HETATM   25  C31 UNL     1       0.922  38.566  30.294  1.00  0.00     0.004 C 
ENDROOT
BRANCH  23  26
HETATM   26  C29 UNL     1      -1.247  38.416  32.914  1.00  0.00     0.091 C 
HETATM   27  N3  UNL     1      -2.101  39.359  33.124  1.00  0.00    -0.391 N 
ATOM     28  H32 UNL     1      -1.923  40.313  32.808  1.00  0.00     0.157 HD
ATOM     29  H31 UNL     1      -2.983  39.200  33.611  1.00  0.00     0.157 HD
HETATM   30  N4  UNL     1      -1.493  37.094  33.352  1.00  0.00    -0.088 NA
ENDBRANCH  23  26
BRANCH   1  31
HETATM   31  C5  UNL     1       5.793  37.251  27.159  1.00  0.00     0.226 C 
HETATM   32  N1  UNL     1       7.176  37.285  27.404  1.00  0.00    -0.357 N 
ATOM     33  H1  UNL     1       7.717  38.046  26.995  1.00  0.00     0.162 HD
HETATM   34  O1  UNL     1       5.236  36.244  27.741  1.00  0.00    -0.273 OA
BRANCH  32  35
HETATM   35  C4  UNL     1       7.879  36.302  28.204  1.00  0.00     0.149 C 
BRANCH  35  36
HETATM   36  C3  UNL     1       8.715  35.421  27.394  1.00  0.00    -0.012 C 
HETATM   37  C2  UNL     1       9.479  34.511  27.976  1.00  0.00    -0.033 C 
HETATM   38  C1  UNL     1       9.530  34.334  29.456  1.00  0.00     0.036 C 
ENDBRANCH  35  36
ENDBRANCH  32  35
ENDBRANCH   1  31
BRANCH  15  39
HETATM   39  N2  UNL     1       3.084  34.114  23.591  1.00  0.00    -0.073 N 
ATOM     40  H23 UNL     1       2.227  33.570  23.497  1.00  0.00     0.274 HD
ATOM     41  H22 UNL     1       3.530  33.792  22.732  1.00  0.00     0.274 HD
ATOM     42  H21 UNL     1       3.616  33.892  24.433  1.00  0.00     0.274 HD
ENDBRANCH  15  39
BRANCH  16  43
HETATM   43  O2  UNL     1       4.024  37.247  22.297  1.00  0.00    -0.393 OA
ATOM     44  H2  UNL     1       4.685  37.928  22.340  1.00  0.00     0.210 HD
ENDBRANCH  16  43
TORSDOF 6
ENDMDL
MODEL 2
REMARK VINA RESULT: -7.792826238      0.989      1.039
REMARK  6 active torsions:
REMARK  status: ('A' for Active; 'I' for Inactive)
REMARK    1  A    between atoms: C3_3  and  C4_4 
REMARK    2  A    between atoms: C4_4  and  N1_5 
REMARK       I    between atoms: N1_5  and  C5_7 
REMARK    3  A    between atoms: C5_7  and  C6_9 
REMARK    4  A    between atoms: C20_23  and  N2_24 
REMARK    5  A    between atoms: C21_28  and  O2_29 
REMARK    6  A    between atoms: C28_37  and  C29_38 
ROOT
HETATM    1  C6  UNL     1       4.257  38.896  25.626  1.00  0.00     0.042 C 
HETATM    2  C7  UNL     1       4.984  39.915  24.674  1.00  0.00     0.026 C 
HETATM    3  C8  UNL     1       3.433  39.880  26.397  1.00  0.00     0.020 C 
HETATM    4  C9  UNL     1       2.620  39.444  27.549  1.00  0.00     0.011 C 
HETATM    5  C10 UNL     1       1.436  38.735  26.992  1.00  0.00    -0.031 A 
HETATM    6  C11 UNL     1       0.342  39.618  26.822  1.00  0.00     0.016 A 
HETATM    7  C12 UNL     1       0.098  38.480  27.581  1.00  0.00     0.004 A 
HETATM    8  C13 UNL     1       0.261  37.898  28.879  1.00  0.00    -0.032 C 
HETATM    9  C14 UNL     1       0.989  36.561  28.637  1.00  0.00     0.011 C 
HETATM   10  C15 UNL     1       1.132  36.248  27.149  1.00  0.00     0.007 C 
HETATM   11  C16 UNL     1       1.903  37.433  26.560  1.00  0.00     0.003 C 
HETATM   12  C17 UNL     1       2.303  37.273  25.121  1.00  0.00    -0.033 C 
HETATM   13  C18 UNL     1       1.112  37.572  24.193  1.00  0.00     0.016 C 
HETATM   14  C19 UNL     1       2.505  35.758  24.951  1.00  0.00     0.045 C 
HETATM   15  C20 UNL     1       2.843  35.368  23.556  1.00  0.00     0.212 C 
HETATM   16  C21 UNL     1       3.771  36.294  22.869  1.00  0.00     0.149 C 
HETATM   17  C22 UNL     1       4.488  37.112  23.956  1.00  0.00     0.040 C 
HETATM   18  C23 UNL     1       3.536  38.011  24.715  1.00  0.00     0.014 C 
HETATM   19  C24 UNL     1      -1.131  37.446  29.392  1.00  0.00     0.011 C 
HETATM   20  C25 UNL     1      -1.652  38.554  30.228  1.00  0.00     0.011 C 
HETATM   21  C26 UNL     1      -0.449  39.267  30.742  1.00  0.00    -0.030 C 
HETATM   22  C27 UNL     1      -0.488  40.780  30.640  1.00  0.00     0.016 C 
HETATM   23  C28 UNL     1       0.073  38.729  32.040  1.00  0.00     0.059 C 
HETATM   24  C30 UNL     1       0.840  37.709  31.271  1.00  0.00     0.018 C 
HETATM   25  C31 UNL     1       0.733  38.625  30.042  1.00  0.00     0.004 C 
ENDROOT
BRANCH  23  26
HETATM   26  C29 UNL     1      -0.986  38.226  32.953  1.00  0.00     0.091 C 
HETATM   27  N3  UNL     1      -1.873  39.001  33.478  1.00  0.00    -0.391 N 
ATOM     28  H32 UNL     1      -1.882  40.002  33.283  1.00  0.00     0.157 HD
ATOM     29  H31 UNL     1      -2.600  38.655  34.105  1.00  0.00     0.157 HD
HETATM   30  N4  UNL     1      -0.974  36.838  33.223  1.00  0.00    -0.088 NA
ENDBRANCH  23  26
BRANCH   1  31
HETATM   31  C5  UNL     1       5.415  38.406  26.394  1.00  0.00     0.226 C 
HETATM   32  N1  UNL     1       5.615  37.148  26.985  1.00  0.00    -0.357 N 
ATOM     33  H1  UNL     1       4.879  36.449  26.884  1.00  0.00     0.162 HD
HETATM   34  O1  UNL     1       6.424  39.186  26.593  1.00  0.00    -0.273 OA
BRANCH  32  35
HETATM   35  C4  UNL     1       6.804  36.784  27.730  1.00  0.00     0.149 C 
BRANCH  35  36
HETATM   36  C3  UNL     1       7.788  36.093  26.903  1.00  0.00    -0.012 C 
HETATM   37  C2  UNL     1       8.767  35.407  27.469  1.00  0.00    -0.033 C 
HETATM   38  C1  UNL     1       8.919  35.300  28.949  1.00  0.00     0.036 C 
ENDBRANCH  35  36
ENDBRANCH  32  35
ENDBRANCH   1  31
BRANCH  15  39
HETATM   39  N2  UNL     1       3.531  34.063  23.656  1.00  0.00    -0.073 N 
ATOM     40  H23 UNL     1       4.547  34.133  23.600  1.00  0.00     0.274 HD
ATOM     41  H22 UNL     1       3.487  33.649  24.587  1.00  0.00     0.274 HD
ATOM     42  H21 UNL     1       3.123  33.475  22.930  1.00  0.00     0.274 HD
ENDBRANCH  15  39
BRANCH  16  43
HETATM   43  O2  UNL     1       3.254  37.087  21.881  1.00  0.00    -0.393 OA
ATOM     44  H2  UNL     1       3.346  38.028  21.982  1.00  0.00     0.210 HD
ENDBRANCH  16  43
TORSDOF 6
ENDMDL
MODEL 3
REMARK VINA RESULT: -7.773399759      4.515      9.593
REMARK  6 active torsions:
REMARK  status: ('A' for Active; 'I' for Inactive)
REMARK    1  A    between atoms: C3_3  and  C4_4 
REMARK    2  A    between atoms: C4_4  and  N1_5 
REMARK       I    between atoms: N1_5  and  C5_7 
REMARK    3  A    between atoms: C5_7  and  C6_9 
REMARK    4  A    between atoms: C20_23  and  N2_24 
REMARK    5  A    between atoms: C21_28  and  O2_29 
REMARK    6  A    between atoms: C28_37  and  C29_38 
ROOT
HETATM    1  C6  UNL     1       6.073  37.531  25.392  1.00  0.00     0.042 C 
HETATM    2  C7  UNL     1       5.145  36.261  25.376  1.00  0.00     0.026 C 
HETATM    3  C8  UNL     1       6.526  37.478  23.966  1.00  0.00     0.020 C 
HETATM    4  C9  UNL     1       7.550  38.415  23.465  1.00  0.00     0.011 C 
HETATM    5  C10 UNL     1       6.880  39.736  23.310  1.00  0.00    -0.031 A 
HETATM    6  C11 UNL     1       6.382  39.906  21.996  1.00  0.00     0.016 A 
HETATM    7  C12 UNL     1       7.231  40.902  22.462  1.00  0.00     0.004 A 
HETATM    8  C13 UNL     1       8.605  41.243  22.680  1.00  0.00    -0.032 C 
HETATM    9  C14 UNL     1       8.697  41.631  24.169  1.00  0.00     0.011 C 
HETATM   10  C15 UNL     1       7.323  41.681  24.834  1.00  0.00     0.007 C 
HETATM   11  C16 UNL     1       6.733  40.281  24.644  1.00  0.00     0.003 C 
HETATM   12  C17 UNL     1       5.434  40.041  25.360  1.00  0.00    -0.033 C 
HETATM   13  C18 UNL     1       4.262  40.652  24.572  1.00  0.00     0.016 C 
HETATM   14  C19 UNL     1       5.519  40.935  26.608  1.00  0.00     0.045 C 
HETATM   15  C20 UNL     1       4.284  40.901  27.435  1.00  0.00     0.212 C 
HETATM   16  C21 UNL     1       3.666  39.562  27.557  1.00  0.00     0.149 C 
HETATM   17  C22 UNL     1       4.745  38.526  27.201  1.00  0.00     0.040 C 
HETATM   18  C23 UNL     1       5.173  38.624  25.752  1.00  0.00     0.014 C 
HETATM   19  C24 UNL     1       8.900  42.581  21.954  1.00  0.00     0.011 C 
HETATM   20  C25 UNL     1       9.456  42.227  20.626  1.00  0.00     0.011 C 
HETATM   21  C26 UNL     1      10.087  40.889  20.801  1.00  0.00    -0.030 C 
HETATM   22  C27 UNL     1       9.768  39.866  19.727  1.00  0.00     0.016 C 
HETATM   23  C28 UNL     1      11.523  40.939  21.227  1.00  0.00     0.059 C 
HETATM   24  C30 UNL     1      11.066  41.059  22.641  1.00  0.00     0.018 C 
HETATM   25  C31 UNL     1       9.723  40.450  22.207  1.00  0.00     0.004 C 
ENDROOT
BRANCH  23  26
HETATM   26  C29 UNL     1      12.277  42.090  20.666  1.00  0.00     0.091 C 
HETATM   27  N3  UNL     1      12.677  42.125  19.440  1.00  0.00    -0.391 N 
ATOM     28  H32 UNL     1      12.489  41.353  18.801  1.00  0.00     0.157 HD
ATOM     29  H31 UNL     1      13.195  42.915  19.055  1.00  0.00     0.157 HD
HETATM   30  N4  UNL     1      12.539  43.161  21.552  1.00  0.00    -0.088 NA
ENDBRANCH  23  26
BRANCH   1  31
HETATM   31  C5  UNL     1       7.110  37.067  26.331  1.00  0.00     0.226 C 
HETATM   32  N1  UNL     1       7.714  35.803  26.425  1.00  0.00    -0.357 N 
ATOM     33  H1  UNL     1       7.424  35.082  25.764  1.00  0.00     0.162 HD
HETATM   34  O1  UNL     1       7.575  37.879  27.219  1.00  0.00    -0.273 OA
BRANCH  32  35
HETATM   35  C4  UNL     1       8.725  35.461  27.405  1.00  0.00     0.149 C 
BRANCH  35  36
HETATM   36  C3  UNL     1       9.514  34.298  27.009  1.00  0.00    -0.012 C 
HETATM   37  C2  UNL     1      10.027  33.498  27.929  1.00  0.00    -0.033 C 
HETATM   38  C1  UNL     1       9.835  33.731  29.390  1.00  0.00     0.036 C 
ENDBRANCH  35  36
ENDBRANCH  32  35
ENDBRANCH   1  31
BRANCH  15  39
HETATM   39  N2  UNL     1       4.696  41.311  28.795  1.00  0.00    -0.073 N 
ATOM     40  H23 UNL     1       5.703  41.439  28.895  1.00  0.00     0.274 HD
ATOM     41  H22 UNL     1       4.426  42.265  29.033  1.00  0.00     0.274 HD
ATOM     42  H21 UNL     1       4.310  40.610  29.428  1.00  0.00     0.274 HD
ENDBRANCH  15  39
BRANCH  16  43
HETATM   43  O2  UNL     1       2.496  39.343  26.882  1.00  0.00    -0.393 OA
ATOM     44  H2  UNL     1       2.038  38.528  27.050  1.00  0.00     0.210 HD
ENDBRANCH  16  43
TORSDOF 6
ENDMDL
MODEL 4
REMARK VINA RESULT: -7.611084639      2.153      4.972
REMARK  6 active torsions:
REMARK  status: ('A' for Active; 'I' for Inactive)
REMARK    1  A    between atoms: C3_3  and  C4_4 
REMARK    2  A    between atoms: C4_4  and  N1_5 
REMARK       I    between atoms: N1_5  and  C5_7 
REMARK    3  A    between atoms: C5_7  and  C6_9 
REMARK    4  A    between atoms: C20_23  and  N2_24 
REMARK    5  A    between atoms: C21_28  and  O2_29 
REMARK    6  A    between atoms: C28_37  and  C29_38 
ROOT
HETATM    1  C6  UNL     1       3.135  36.338  24.651  1.00  0.00     0.042 C 
HETATM    2  C7  UNL     1       3.248  34.967  23.889  1.00  0.00     0.026 C 
HETATM    3  C8  UNL     1       2.156  35.913  25.702  1.00  0.00     0.020 C 
HETATM    4  C9  UNL     1       1.594  36.896  26.649  1.00  0.00     0.011 C 
HETATM    5  C10 UNL     1       2.669  37.206  27.631  1.00  0.00    -0.031 A 
HETATM    6  C11 UNL     1       2.580  36.371  28.770  1.00  0.00     0.016 A 
HETATM    7  C12 UNL     1       2.589  37.738  29.014  1.00  0.00     0.004 A 
HETATM    8  C13 UNL     1       1.778  38.919  29.015  1.00  0.00    -0.032 C 
HETATM    9  C14 UNL     1       2.519  39.923  28.110  1.00  0.00     0.011 C 
HETATM   10  C15 UNL     1       3.887  39.401  27.676  1.00  0.00     0.007 C 
HETATM   11  C16 UNL     1       3.604  38.081  26.952  1.00  0.00     0.003 C 
HETATM   12  C17 UNL     1       4.799  37.454  26.292  1.00  0.00    -0.033 C 
HETATM   13  C18 UNL     1       5.661  36.713  27.329  1.00  0.00     0.016 C 
HETATM   14  C19 UNL     1       5.681  38.649  25.895  1.00  0.00     0.045 C 
HETATM   15  C20 UNL     1       6.971  38.241  25.277  1.00  0.00     0.212 C 
HETATM   16  C21 UNL     1       6.871  37.089  24.354  1.00  0.00     0.149 C 
HETATM   17  C22 UNL     1       5.396  36.968  23.933  1.00  0.00     0.040 C 
HETATM   18  C23 UNL     1       4.499  36.609  25.098  1.00  0.00     0.014 C 
HETATM   19  C24 UNL     1       1.874  39.579  30.415  1.00  0.00     0.011 C 
HETATM   20  C25 UNL     1       0.715  39.082  31.195  1.00  0.00     0.011 C 
HETATM   21  C26 UNL     1      -0.330  38.745  30.188  1.00  0.00    -0.030 C 
HETATM   22  C27 UNL     1      -1.019  37.408  30.378  1.00  0.00     0.016 C 
HETATM   23  C28 UNL     1      -1.238  39.886  29.843  1.00  0.00     0.059 C 
HETATM   24  C30 UNL     1      -0.231  40.343  28.844  1.00  0.00     0.018 C 
HETATM   25  C31 UNL     1       0.339  38.916  28.838  1.00  0.00     0.004 C 
ENDROOT
BRANCH  23  26
HETATM   26  C29 UNL     1      -1.517  40.800  30.981  1.00  0.00     0.091 C 
HETATM   27  N3  UNL     1      -2.246  40.452  31.986  1.00  0.00    -0.391 N 
ATOM     28  H32 UNL     1      -2.665  39.524  32.038  1.00  0.00     0.157 HD
ATOM     29  H31 UNL     1      -2.437  41.079  32.768  1.00  0.00     0.157 HD
HETATM   30  N4  UNL     1      -0.936  42.088  30.910  1.00  0.00    -0.088 NA
ENDBRANCH  23  26
BRANCH   1  31
HETATM   31  C5  UNL     1       2.510  37.156  23.597  1.00  0.00     0.226 C 
HETATM   32  N1  UNL     1       2.315  38.547  23.557  1.00  0.00    -0.357 N 
ATOM     33  H1  UNL     1       2.644  39.100  24.348  1.00  0.00     0.162 HD
HETATM   34  O1  UNL     1       2.055  36.586  22.533  1.00  0.00    -0.273 OA
BRANCH  32  35
HETATM   35  C4  UNL     1       1.674  39.242  22.459  1.00  0.00     0.149 C 
BRANCH  35  36
HETATM   36  C3  UNL     1       2.450  40.390  21.999  1.00  0.00    -0.012 C 
HETATM   37  C2  UNL     1       3.363  40.239  21.054  1.00  0.00    -0.033 C 
HETATM   38  C1  UNL     1       3.647  38.921  20.417  1.00  0.00     0.036 C 
ENDBRANCH  35  36
ENDBRANCH  32  35
ENDBRANCH   1  31
BRANCH  15  39
HETATM   39  N2  UNL     1       7.420  39.399  24.475  1.00  0.00    -0.073 N 
ATOM     40  H23 UNL     1       7.632  39.165  23.505  1.00  0.00     0.274 HD
ATOM     41  H22 UNL     1       6.679  40.072  24.280  1.00  0.00     0.274 HD
ATOM     42  H21 UNL     1       8.212  39.799  24.979  1.00  0.00     0.274 HD
ENDBRANCH  15  39
BRANCH  16  43
HETATM   43  O2  UNL     1       7.388  35.894  24.776  1.00  0.00    -0.393 OA
ATOM     44  H2  UNL     1       7.055  35.104  24.368  1.00  0.00     0.210 HD
ENDBRANCH  16  43
TORSDOF 6
ENDMDL
MODEL 5
REMARK VINA RESULT: -7.569755191      4.264      9.016
REMARK  6 active torsions:
REMARK  status: ('A' for Active; 'I' for Inactive)
REMARK    1  A    between atoms: C3_3  and  C4_4 
REMARK    2  A    between atoms: C4_4  and  N1_5 
REMARK       I    between atoms: N1_5  and  C5_7 
REMARK    3  A    between atoms: C5_7  and  C6_9 
REMARK    4  A    between atoms: C20_23  and  N2_24 
REMARK    5  A    between atoms: C21_28  and  O2_29 
REMARK    6  A    between atoms: C28_37  and  C29_38 
ROOT
HETATM    1  C6  UNL     1       4.893  38.457  26.812  1.00  0.00     0.042 C 
HETATM    2  C7  UNL     1       3.644  37.868  27.566  1.00  0.00     0.026 C 
HETATM    3  C8  UNL     1       4.294  38.531  25.441  1.00  0.00     0.020 C 
HETATM    4  C9  UNL     1       5.116  38.920  24.279  1.00  0.00     0.011 C 
HETATM    5  C10 UNL     1       5.325  40.391  24.378  1.00  0.00    -0.031 A 
HETATM    6  C11 UNL     1       4.338  41.099  23.651  1.00  0.00     0.016 A 
HETATM    7  C12 UNL     1       5.658  41.391  23.334  1.00  0.00     0.004 A 
HETATM    8  C13 UNL     1       6.799  40.936  22.597  1.00  0.00    -0.032 C 
HETATM    9  C14 UNL     1       7.943  40.854  23.626  1.00  0.00     0.011 C 
HETATM   10  C15 UNL     1       7.533  41.421  24.984  1.00  0.00     0.007 C 
HETATM   11  C16 UNL     1       6.317  40.596  25.415  1.00  0.00     0.003 C 
HETATM   12  C17 UNL     1       5.828  40.872  26.808  1.00  0.00    -0.033 C 
HETATM   13  C18 UNL     1       4.981  42.157  26.838  1.00  0.00     0.016 C 
HETATM   14  C19 UNL     1       7.096  41.273  27.581  1.00  0.00     0.045 C 
HETATM   15  C20 UNL     1       6.821  41.662  28.990  1.00  0.00     0.212 C 
HETATM   16  C21 UNL     1       5.805  40.827  29.668  1.00  0.00     0.149 C 
HETATM   17  C22 UNL     1       5.693  39.512  28.879  1.00  0.00     0.040 C 
HETATM   18  C23 UNL     1       5.146  39.729  27.484  1.00  0.00     0.014 C 
HETATM   19  C24 UNL     1       7.262  42.077  21.655  1.00  0.00     0.011 C 
HETATM   20  C25 UNL     1       6.623  41.824  20.341  1.00  0.00     0.011 C 
HETATM   21  C26 UNL     1       6.393  40.354  20.284  1.00  0.00    -0.030 C 
HETATM   22  C27 UNL     1       5.019  39.922  19.809  1.00  0.00     0.016 C 
HETATM   23  C28 UNL     1       7.539  39.576  19.712  1.00  0.00     0.059 C 
HETATM   24  C30 UNL     1       8.163  39.562  21.065  1.00  0.00     0.018 C 
HETATM   25  C31 UNL     1       6.771  39.831  21.657  1.00  0.00     0.004 C 
ENDROOT
BRANCH  23  26
HETATM   26  C29 UNL     1       8.277  40.293  18.639  1.00  0.00     0.091 C 
HETATM   27  N3  UNL     1       7.787  40.466  17.459  1.00  0.00    -0.391 N 
ATOM     28  H32 UNL     1       6.862  40.114  17.214  1.00  0.00     0.157 HD
ATOM     29  H31 UNL     1       8.294  40.958  16.722  1.00  0.00     0.157 HD
HETATM   30  N4  UNL     1       9.560  40.782  18.979  1.00  0.00    -0.088 NA
ENDBRANCH  23  26
BRANCH   1  31
HETATM   31  C5  UNL     1       5.827  37.327  26.960  1.00  0.00     0.226 C 
HETATM   32  N1  UNL     1       7.184  37.251  26.606  1.00  0.00    -0.357 N 
ATOM     33  H1  UNL     1       7.619  38.076  26.193  1.00  0.00     0.162 HD
HETATM   34  O1  UNL     1       5.411  36.220  27.476  1.00  0.00    -0.273 OA
BRANCH  32  35
HETATM   35  C4  UNL     1       8.003  36.071  26.794  1.00  0.00     0.149 C 
BRANCH  35  36
HETATM   36  C3  UNL     1       8.610  36.020  28.120  1.00  0.00    -0.012 C 
HETATM   37  C2  UNL     1       9.415  35.021  28.445  1.00  0.00    -0.033 C 
HETATM   38  C1  UNL     1       9.742  33.916  27.499  1.00  0.00     0.036 C 
ENDBRANCH  35  36
ENDBRANCH  32  35
ENDBRANCH   1  31
BRANCH  15  39
HETATM   39  N2  UNL     1       8.094  41.469  29.718  1.00  0.00    -0.073 N 
ATOM     40  H23 UNL     1       8.901  41.356  29.105  1.00  0.00     0.274 HD
ATOM     41  H22 UNL     1       8.420  42.308  30.198  1.00  0.00     0.274 HD
ATOM     42  H21 UNL     1       7.941  40.677  30.342  1.00  0.00     0.274 HD
ENDBRANCH  15  39
BRANCH  16  43
HETATM   43  O2  UNL     1       4.582  41.393  29.908  1.00  0.00    -0.393 OA
ATOM     44  H2  UNL     1       4.542  42.100  30.541  1.00  0.00     0.210 HD
ENDBRANCH  16  43
TORSDOF 6
ENDMDL
