MODEL 1
REMARK VINA RESULT: -6.660424589      0.000      0.000
REMARK  12 active torsions:
REMARK  status: ('A' for Active; 'I' for Inactive)
REMARK    1  A    between atoms: C2_2  and  C3_3 
REMARK    2  A    between atoms: C3_3  and  N1_4 
REMARK       I    between atoms: N1_4  and  C4_6 
REMARK       I    between atoms: C4_6  and  N2_8 
REMARK    3  A    between atoms: N2_8  and  C5_9 
REMARK    4  A    between atoms: N2_8  and  C13_25 
REMARK    5  A    between atoms: C5_9  and  C6_10 
REMARK    6  A    between atoms: C6_10  and  C7_11 
REMARK    7  A    between atoms: C8_13  and  C9_14 
REMARK    8  A    between atoms: C10_16  and  O3_17 
REMARK    9  A    between atoms: C11_19  and  O4_20 
REMARK   10  A    between atoms: C12_22  and  O5_23 
REMARK   11  A    between atoms: C13_25  and  C15_27 
REMARK   12  A    between atoms: C13_25  and  C21_33 
ROOT
HETATM    1  N1  UNL     1       7.829  37.490  26.437  1.00  0.00    -0.340 N 
ATOM      2  H1  UNL     1       8.239  38.195  25.824  1.00  0.00     0.164 HD
HETATM    3  C4  UNL     1       6.426  37.371  26.517  1.00  0.00     0.319 C 
HETATM    4  O1  UNL     1       6.055  36.476  27.292  1.00  0.00    -0.247 OA
HETATM    5  N2  UNL     1       5.488  38.157  25.810  1.00  0.00    -0.320 N 
ENDROOT
BRANCH   5   6
HETATM    6  C5  UNL     1       6.176  39.217  25.026  1.00  0.00     0.131 C 
BRANCH   6   7
HETATM    7  C6  UNL     1       6.495  38.817  23.620  1.00  0.00     0.054 C 
BRANCH   7   8
HETATM    8  C7  UNL     1       7.625  39.545  22.979  1.00  0.00     0.155 C 
HETATM    9  O2  UNL     1       7.709  39.375  21.625  1.00  0.00    -0.374 OA
HETATM   10  C8  UNL     1       8.640  40.153  21.024  1.00  0.00     0.167 C 
HETATM   11  C10 UNL     1      10.002  40.169  21.645  1.00  0.00     0.179 C 
HETATM   12  C11 UNL     1       9.980  40.328  23.151  1.00  0.00     0.180 C 
HETATM   13  C12 UNL     1       8.893  39.432  23.749  1.00  0.00     0.178 C 
BRANCH  10  14
HETATM   14  C9  UNL     1       8.180  41.573  20.754  1.00  0.00     0.149 C 
HETATM   15 CL1  UNL     1       6.552  41.490  20.030  1.00  0.00    -0.128 Cl
ENDBRANCH  10  14
BRANCH  11  16
HETATM   16  O3  UNL     1      10.695  38.971  21.361  1.00  0.00    -0.390 OA
ATOM     17  H3  UNL     1      11.413  39.132  20.761  1.00  0.00     0.210 HD
ENDBRANCH  11  16
BRANCH  12  18
HETATM   18  O4  UNL     1       9.838  41.648  23.563  1.00  0.00    -0.390 OA
ATOM     19  H4  UNL     1       9.684  41.736  24.496  1.00  0.00     0.210 HD
ENDBRANCH  12  18
BRANCH  13  20
HETATM   20  O5  UNL     1       9.395  38.130  23.813  1.00  0.00    -0.390 OA
ATOM     21  H5  UNL     1       8.812  37.519  24.248  1.00  0.00     0.210 HD
ENDBRANCH  13  20
ENDBRANCH   7   8
ENDBRANCH   6   7
ENDBRANCH   5   6
BRANCH   5  22
HETATM   22  C13 UNL     1       4.060  38.047  25.854  1.00  0.00     0.067 C 
HETATM   23  C14 UNL     1       3.643  39.419  25.235  1.00  0.00     0.045 C 
BRANCH  22  24
HETATM   24  C15 UNL     1       3.575  37.098  24.764  1.00  0.00    -0.029 A 
HETATM   25  C16 UNL     1       4.225  35.971  24.366  1.00  0.00     0.010 A 
HETATM   26  C17 UNL     1       3.755  35.097  23.380  1.00  0.00     0.001 A 
HETATM   27  C18 UNL     1       2.565  35.381  22.760  1.00  0.00     0.000 A 
HETATM   28  C19 UNL     1       1.871  36.496  23.115  1.00  0.00     0.001 A 
HETATM   29  C20 UNL     1       2.376  37.318  24.088  1.00  0.00     0.010 A 
ENDBRANCH  22  24
BRANCH  22  30
HETATM   30  C21 UNL     1       3.292  37.929  27.085  1.00  0.00    -0.022 C 
HETATM   31  C22 UNL     1       1.917  38.673  26.960  1.00  0.00     0.017 C 
HETATM   32  C23 UNL     1       2.876  36.550  27.558  1.00  0.00     0.017 C 
HETATM   33  C24 UNL     1       3.823  38.582  28.358  1.00  0.00     0.017 C 
ENDBRANCH  22  30
ENDBRANCH   5  22
BRANCH   1  34
HETATM   34  C3  UNL     1       8.692  36.630  27.209  1.00  0.00     0.150 C 
BRANCH  34  35
HETATM   35  C2  UNL     1       9.397  35.658  26.348  1.00  0.00    -0.018 C 
HETATM   36  C1  UNL     1       9.676  34.438  26.756  1.00  0.00     0.008 C 
ENDBRANCH  34  35
ENDBRANCH   1  34
TORSDOF 12
ENDMDL
MODEL 2
REMARK VINA RESULT: -6.593767095      1.188      1.323
REMARK  12 active torsions:
REMARK  status: ('A' for Active; 'I' for Inactive)
REMARK    1  A    between atoms: C2_2  and  C3_3 
REMARK    2  A    between atoms: C3_3  and  N1_4 
REMARK       I    between atoms: N1_4  and  C4_6 
REMARK       I    between atoms: C4_6  and  N2_8 
REMARK    3  A    between atoms: N2_8  and  C5_9 
REMARK    4  A    between atoms: N2_8  and  C13_25 
REMARK    5  A    between atoms: C5_9  and  C6_10 
REMARK    6  A    between atoms: C6_10  and  C7_11 
REMARK    7  A    between atoms: C8_13  and  C9_14 
REMARK    8  A    between atoms: C10_16  and  O3_17 
REMARK    9  A    between atoms: C11_19  and  O4_20 
REMARK   10  A    between atoms: C12_22  and  O5_23 
REMARK   11  A    between atoms: C13_25  and  C15_27 
REMARK   12  A    between atoms: C13_25  and  C21_33 
ROOT
HETATM    1  N1  UNL     1       8.649  36.774  26.917  1.00  0.00    -0.340 N 
ATOM      2  H1  UNL     1       9.317  37.287  26.341  1.00  0.00     0.164 HD
HETATM    3  C4  UNL     1       7.283  37.121  26.870  1.00  0.00     0.319 C 
HETATM    4  O1  UNL     1       6.575  36.420  27.612  1.00  0.00    -0.247 OA
HETATM    5  N2  UNL     1       6.716  38.146  26.080  1.00  0.00    -0.320 N 
ENDROOT
BRANCH   5   6
HETATM    6  C5  UNL     1       7.776  38.898  25.357  1.00  0.00     0.131 C 
BRANCH   6   7
HETATM    7  C6  UNL     1       8.051  38.381  23.980  1.00  0.00     0.054 C 
BRANCH   7   8
HETATM    8  C7  UNL     1       8.497  39.395  22.984  1.00  0.00     0.155 C 
HETATM    9  O2  UNL     1       7.937  39.252  21.745  1.00  0.00    -0.374 OA
HETATM   10  C8  UNL     1       8.224  40.258  20.886  1.00  0.00     0.167 C 
HETATM   11  C10 UNL     1       9.663  40.656  20.778  1.00  0.00     0.179 C 
HETATM   12  C11 UNL     1      10.353  40.806  22.118  1.00  0.00     0.180 C 
HETATM   13  C12 UNL     1       9.963  39.644  23.033  1.00  0.00     0.178 C 
BRANCH  10  14
HETATM   14  C9  UNL     1       7.360  41.492  21.065  1.00  0.00     0.149 C 
HETATM   15 CL1  UNL     1       5.682  40.948  21.327  1.00  0.00    -0.128 Cl
ENDBRANCH  10  14
BRANCH  11  16
HETATM   16  O3  UNL     1      10.392  39.700  20.038  1.00  0.00    -0.390 OA
ATOM     17  H3  UNL     1      11.263  39.587  20.400  1.00  0.00     0.210 HD
ENDBRANCH  11  16
BRANCH  12  18
HETATM   18  O4  UNL     1      10.116  42.035  22.724  1.00  0.00    -0.390 OA
ATOM     19  H4  UNL     1      10.248  42.022  23.665  1.00  0.00     0.210 HD
ENDBRANCH  12  18
BRANCH  13  20
HETATM   20  O5  UNL     1      10.731  38.535  22.671  1.00  0.00    -0.390 OA
ATOM     21  H5  UNL     1      11.656  38.635  22.861  1.00  0.00     0.210 HD
ENDBRANCH  13  20
ENDBRANCH   7   8
ENDBRANCH   6   7
ENDBRANCH   5   6
BRANCH   5  22
HETATM   22  C13 UNL     1       5.331  38.508  25.995  1.00  0.00     0.067 C 
HETATM   23  C14 UNL     1       5.443  39.938  25.379  1.00  0.00     0.045 C 
BRANCH  22  24
HETATM   24  C15 UNL     1       4.667  37.765  24.842  1.00  0.00    -0.029 A 
HETATM   25  C16 UNL     1       4.690  36.416  24.666  1.00  0.00     0.010 A 
HETATM   26  C17 UNL     1       4.055  35.747  23.615  1.00  0.00     0.001 A 
HETATM   27  C18 UNL     1       3.361  36.483  22.689  1.00  0.00     0.000 A 
HETATM   28  C19 UNL     1       3.304  37.837  22.811  1.00  0.00     0.001 A 
HETATM   29  C20 UNL     1       3.944  38.442  23.860  1.00  0.00     0.010 A 
ENDBRANCH  22  24
BRANCH  22  30
HETATM   30  C21 UNL     1       4.457  38.650  27.151  1.00  0.00    -0.022 C 
HETATM   31  C22 UNL     1       3.387  39.771  26.908  1.00  0.00     0.017 C 
HETATM   32  C23 UNL     1       3.606  37.470  27.573  1.00  0.00     0.017 C 
HETATM   33  C24 UNL     1       5.045  39.139  28.472  1.00  0.00     0.017 C 
ENDBRANCH  22  30
ENDBRANCH   5  22
BRANCH   1  34
HETATM   34  C3  UNL     1       9.115  35.706  27.766  1.00  0.00     0.150 C 
BRANCH  34  35
HETATM   35  C2  UNL     1       9.577  34.547  26.973  1.00  0.00    -0.018 C 
HETATM   36  C1  UNL     1       9.933  33.413  27.539  1.00  0.00     0.008 C 
ENDBRANCH  34  35
ENDBRANCH   1  34
TORSDOF 12
ENDMDL
MODEL 3
REMARK VINA RESULT: -6.308035044      1.871      2.578
REMARK  12 active torsions:
REMARK  status: ('A' for Active; 'I' for Inactive)
REMARK    1  A    between atoms: C2_2  and  C3_3 
REMARK    2  A    between atoms: C3_3  and  N1_4 
REMARK       I    between atoms: N1_4  and  C4_6 
REMARK       I    between atoms: C4_6  and  N2_8 
REMARK    3  A    between atoms: N2_8  and  C5_9 
REMARK    4  A    between atoms: N2_8  and  C13_25 
REMARK    5  A    between atoms: C5_9  and  C6_10 
REMARK    6  A    between atoms: C6_10  and  C7_11 
REMARK    7  A    between atoms: C8_13  and  C9_14 
REMARK    8  A    between atoms: C10_16  and  O3_17 
REMARK    9  A    between atoms: C11_19  and  O4_20 
REMARK   10  A    between atoms: C12_22  and  O5_23 
REMARK   11  A    between atoms: C13_25  and  C15_27 
REMARK   12  A    between atoms: C13_25  and  C21_33 
ROOT
HETATM    1  N1  UNL     1       8.376  36.542  25.715  1.00  0.00    -0.340 N 
ATOM      2  H1  UNL     1       9.087  36.774  25.021  1.00  0.00     0.164 HD
HETATM    3  C4  UNL     1       7.063  37.029  25.553  1.00  0.00     0.319 C 
HETATM    4  O1  UNL     1       6.294  36.674  26.460  1.00  0.00    -0.247 OA
HETATM    5  N2  UNL     1       6.607  37.839  24.488  1.00  0.00    -0.320 N 
ENDROOT
BRANCH   5   6
HETATM    6  C5  UNL     1       7.732  38.205  23.587  1.00  0.00     0.131 C 
BRANCH   6   7
HETATM    7  C6  UNL     1       8.416  39.482  23.962  1.00  0.00     0.054 C 
BRANCH   7   8
HETATM    8  C7  UNL     1       9.480  39.946  23.028  1.00  0.00     0.155 C 
HETATM    9  O2  UNL     1       9.637  41.303  22.984  1.00  0.00    -0.374 OA
HETATM   10  C8  UNL     1      10.700  41.716  22.254  1.00  0.00     0.167 C 
HETATM   11  C10 UNL     1      10.850  41.117  20.891  1.00  0.00     0.179 C 
HETATM   12  C11 UNL     1      10.660  39.614  20.864  1.00  0.00     0.180 C 
HETATM   13  C12 UNL     1       9.454  39.230  21.724  1.00  0.00     0.178 C 
BRANCH  10  14
HETATM   14  C9  UNL     1      12.023  41.650  22.994  1.00  0.00     0.149 C 
HETATM   15 CL1  UNL     1      13.323  41.963  21.814  1.00  0.00    -0.128 Cl
ENDBRANCH  10  14
BRANCH  11  16
HETATM   16  O3  UNL     1       9.909  41.672  19.995  1.00  0.00    -0.390 OA
ATOM     17  H3  UNL     1       9.505  42.446  20.369  1.00  0.00     0.210 HD
ENDBRANCH  11  16
BRANCH  12  18
HETATM   18  O4  UNL     1      11.798  38.909  21.237  1.00  0.00    -0.390 OA
ATOM     19  H4  UNL     1      11.665  38.355  21.997  1.00  0.00     0.210 HD
ENDBRANCH  12  18
BRANCH  13  20
HETATM   20  O5  UNL     1       8.298  39.470  20.977  1.00  0.00    -0.390 OA
ATOM     21  H5  UNL     1       8.420  39.358  20.042  1.00  0.00     0.210 HD
ENDBRANCH  13  20
ENDBRANCH   7   8
ENDBRANCH   6   7
ENDBRANCH   5   6
BRANCH   5  22
HETATM   22  C13 UNL     1       5.276  38.332  24.285  1.00  0.00     0.067 C 
HETATM   23  C14 UNL     1       5.492  39.242  23.035  1.00  0.00     0.045 C 
BRANCH  22  24
HETATM   24  C15 UNL     1       4.402  37.240  23.678  1.00  0.00    -0.029 A 
HETATM   25  C16 UNL     1       4.512  35.911  23.951  1.00  0.00     0.010 A 
HETATM   26  C17 UNL     1       3.686  34.924  23.404  1.00  0.00     0.001 A 
HETATM   27  C18 UNL     1       2.697  35.300  22.532  1.00  0.00     0.000 A 
HETATM   28  C19 UNL     1       2.540  36.616  22.219  1.00  0.00     0.001 A 
HETATM   29  C20 UNL     1       3.376  37.542  22.783  1.00  0.00     0.010 A 
ENDBRANCH  22  24
BRANCH  22  30
HETATM   30  C21 UNL     1       4.560  39.157  25.246  1.00  0.00    -0.022 C 
HETATM   31  C22 UNL     1       3.787  40.315  24.524  1.00  0.00     0.017 C 
HETATM   32  C23 UNL     1       3.477  38.519  26.093  1.00  0.00     0.017 C 
HETATM   33  C24 UNL     1       5.354  39.973  26.263  1.00  0.00     0.017 C 
ENDBRANCH  22  30
ENDBRANCH   5  22
BRANCH   1  34
HETATM   34  C3  UNL     1       8.729  35.722  26.847  1.00  0.00     0.150 C 
BRANCH  34  35
HETATM   35  C2  UNL     1       9.786  34.748  26.502  1.00  0.00    -0.018 C 
HETATM   36  C1  UNL     1      10.402  34.032  27.419  1.00  0.00     0.008 C 
ENDBRANCH  34  35
ENDBRANCH   1  34
TORSDOF 12
ENDMDL
MODEL 4
REMARK VINA RESULT: -6.307370214      1.302      1.692
REMARK  12 active torsions:
REMARK  status: ('A' for Active; 'I' for Inactive)
REMARK    1  A    between atoms: C2_2  and  C3_3 
REMARK    2  A    between atoms: C3_3  and  N1_4 
REMARK       I    between atoms: N1_4  and  C4_6 
REMARK       I    between atoms: C4_6  and  N2_8 
REMARK    3  A    between atoms: N2_8  and  C5_9 
REMARK    4  A    between atoms: N2_8  and  C13_25 
REMARK    5  A    between atoms: C5_9  and  C6_10 
REMARK    6  A    between atoms: C6_10  and  C7_11 
REMARK    7  A    between atoms: C8_13  and  C9_14 
REMARK    8  A    between atoms: C10_16  and  O3_17 
REMARK    9  A    between atoms: C11_19  and  O4_20 
REMARK   10  A    between atoms: C12_22  and  O5_23 
REMARK   11  A    between atoms: C13_25  and  C15_27 
REMARK   12  A    between atoms: C13_25  and  C21_33 
ROOT
HETATM    1  N1  UNL     1       8.259  36.693  25.721  1.00  0.00    -0.340 N 
ATOM      2  H1  UNL     1       8.944  36.946  25.009  1.00  0.00     0.164 HD
HETATM    3  C4  UNL     1       6.923  37.119  25.581  1.00  0.00     0.319 C 
HETATM    4  O1  UNL     1       6.189  36.743  26.509  1.00  0.00    -0.247 OA
HETATM    5  N2  UNL     1       6.408  37.892  24.515  1.00  0.00    -0.320 N 
ENDROOT
BRANCH   5   6
HETATM    6  C5  UNL     1       7.497  38.295  23.585  1.00  0.00     0.131 C 
BRANCH   6   7
HETATM    7  C6  UNL     1       8.279  39.483  24.049  1.00  0.00     0.054 C 
BRANCH   7   8
HETATM    8  C7  UNL     1       8.939  40.283  22.980  1.00  0.00     0.155 C 
HETATM    9  O2  UNL     1       8.245  40.329  21.803  1.00  0.00    -0.374 OA
HETATM   10  C8  UNL     1       8.766  41.176  20.883  1.00  0.00     0.167 C 
HETATM   11  C10 UNL     1      10.237  41.068  20.632  1.00  0.00     0.179 C 
HETATM   12  C11 UNL     1      11.066  40.985  21.898  1.00  0.00     0.180 C 
HETATM   13  C12 UNL     1      10.401  40.025  22.887  1.00  0.00     0.178 C 
BRANCH  10  14
HETATM   14  C9  UNL     1       8.384  42.629  21.093  1.00  0.00     0.149 C 
HETATM   15 CL1  UNL     1       8.108  43.357  19.488  1.00  0.00    -0.128 Cl
ENDBRANCH  10  14
BRANCH  11  16
HETATM   16  O3  UNL     1      10.531  39.918  19.865  1.00  0.00    -0.390 OA
ATOM     17  H3  UNL     1      10.062  39.163  20.200  1.00  0.00     0.210 HD
ENDBRANCH  11  16
BRANCH  12  18
HETATM   18  O4  UNL     1      11.312  42.225  22.476  1.00  0.00    -0.390 OA
ATOM     19  H4  UNL     1      11.001  42.292  23.371  1.00  0.00     0.210 HD
ENDBRANCH  12  18
BRANCH  13  20
HETATM   20  O5  UNL     1      10.716  38.721  22.500  1.00  0.00    -0.390 OA
ATOM     21  H5  UNL     1      10.725  38.102  23.220  1.00  0.00     0.210 HD
ENDBRANCH  13  20
ENDBRANCH   7   8
ENDBRANCH   6   7
ENDBRANCH   5   6
BRANCH   5  22
HETATM   22  C13 UNL     1       5.053  38.323  24.334  1.00  0.00     0.067 C 
HETATM   23  C14 UNL     1       5.215  39.290  23.119  1.00  0.00     0.045 C 
BRANCH  22  24
HETATM   24  C15 UNL     1       4.233  37.210  23.689  1.00  0.00    -0.029 A 
HETATM   25  C16 UNL     1       4.364  35.885  23.967  1.00  0.00     0.010 A 
HETATM   26  C17 UNL     1       3.587  34.878  23.384  1.00  0.00     0.001 A 
HETATM   27  C18 UNL     1       2.630  35.230  22.468  1.00  0.00     0.000 A 
HETATM   28  C19 UNL     1       2.455  36.542  22.149  1.00  0.00     0.001 A 
HETATM   29  C20 UNL     1       3.241  37.488  22.750  1.00  0.00     0.010 A 
ENDBRANCH  22  24
BRANCH  22  30
HETATM   30  C21 UNL     1       4.299  39.073  25.328  1.00  0.00    -0.022 C 
HETATM   31  C22 UNL     1       3.416  40.175  24.646  1.00  0.00     0.017 C 
HETATM   32  C23 UNL     1       3.296  38.337  26.193  1.00  0.00     0.017 C 
HETATM   33  C24 UNL     1       5.053  39.936  26.337  1.00  0.00     0.017 C 
ENDBRANCH  22  30
ENDBRANCH   5  22
BRANCH   1  34
HETATM   34  C3  UNL     1       8.672  35.906  26.856  1.00  0.00     0.150 C 
BRANCH  34  35
HETATM   35  C2  UNL     1       9.626  34.848  26.462  1.00  0.00    -0.018 C 
HETATM   36  C1  UNL     1       9.999  33.899  27.296  1.00  0.00     0.008 C 
ENDBRANCH  34  35
ENDBRANCH   1  34
TORSDOF 12
ENDMDL
MODEL 5
REMARK VINA RESULT: -6.294290288      1.757      2.361
REMARK  12 active torsions:
REMARK  status: ('A' for Active; 'I' for Inactive)
REMARK    1  A    between atoms: C2_2  and  C3_3 
REMARK    2  A    between atoms: C3_3  and  N1_4 
REMARK       I    between atoms: N1_4  and  C4_6 
REMARK       I    between atoms: C4_6  and  N2_8 
REMARK    3  A    between atoms: N2_8  and  C5_9 
REMARK    4  A    between atoms: N2_8  and  C13_25 
REMARK    5  A    between atoms: C5_9  and  C6_10 
REMARK    6  A    between atoms: C6_10  and  C7_11 
REMARK    7  A    between atoms: C8_13  and  C9_14 
REMARK    8  A    between atoms: C10_16  and  O3_17 
REMARK    9  A    between atoms: C11_19  and  O4_20 
REMARK   10  A    between atoms: C12_22  and  O5_23 
REMARK   11  A    between atoms: C13_25  and  C15_27 
REMARK   12  A    between atoms: C13_25  and  C21_33 
ROOT
HETATM    1  N1  UNL     1       7.673  37.605  26.627  1.00  0.00    -0.340 N 
ATOM      2  H1  UNL     1       8.085  38.345  26.059  1.00  0.00     0.164 HD
HETATM    3  C4  UNL     1       6.272  37.441  26.644  1.00  0.00     0.319 C 
HETATM    4  O1  UNL     1       5.898  36.506  27.370  1.00  0.00    -0.247 OA
HETATM    5  N2  UNL     1       5.339  38.225  25.929  1.00  0.00    -0.320 N 
ENDROOT
BRANCH   5   6
HETATM    6  C5  UNL     1       6.024  39.334  25.213  1.00  0.00     0.131 C 
BRANCH   6   7
HETATM    7  C6  UNL     1       6.505  38.964  23.845  1.00  0.00     0.054 C 
BRANCH   7   8
HETATM    8  C7  UNL     1       6.050  39.850  22.737  1.00  0.00     0.155 C 
HETATM    9  O2  UNL     1       5.027  39.336  21.990  1.00  0.00    -0.374 OA
HETATM   10  C8  UNL     1       4.514  40.200  21.082  1.00  0.00     0.167 C 
HETATM   11  C10 UNL     1       5.497  40.922  20.215  1.00  0.00     0.179 C 
HETATM   12  C11 UNL     1       6.675  41.494  20.978  1.00  0.00     0.180 C 
HETATM   13  C12 UNL     1       7.181  40.466  21.992  1.00  0.00     0.178 C 
BRANCH  10  14
HETATM   14  C9  UNL     1       3.516  41.185  21.659  1.00  0.00     0.149 C 
HETATM   15 CL1  UNL     1       1.979  40.316  21.916  1.00  0.00    -0.128 Cl
ENDBRANCH  10  14
BRANCH  11  16
HETATM   16  O3  UNL     1       6.021  40.058  19.227  1.00  0.00    -0.390 OA
ATOM     17  H3  UNL     1       6.668  40.507  18.697  1.00  0.00     0.210 HD
ENDBRANCH  11  16
BRANCH  12  18
HETATM   18  O4  UNL     1       6.397  42.714  21.583  1.00  0.00    -0.390 OA
ATOM     19  H4  UNL     1       7.113  43.335  21.523  1.00  0.00     0.210 HD
ENDBRANCH  12  18
BRANCH  13  20
HETATM   20  O5  UNL     1       7.972  39.540  21.308  1.00  0.00    -0.390 OA
ATOM     21  H5  UNL     1       8.230  39.828  20.440  1.00  0.00     0.210 HD
ENDBRANCH  13  20
ENDBRANCH   7   8
ENDBRANCH   6   7
ENDBRANCH   5   6
BRANCH   5  22
HETATM   22  C13 UNL     1       3.914  38.071  25.910  1.00  0.00     0.067 C 
HETATM   23  C14 UNL     1       3.480  39.455  25.333  1.00  0.00     0.045 C 
BRANCH  22  24
HETATM   24  C15 UNL     1       3.503  37.157  24.761  1.00  0.00    -0.029 A 
HETATM   25  C16 UNL     1       4.157  36.021  24.396  1.00  0.00     0.010 A 
HETATM   26  C17 UNL     1       3.753  35.179  23.354  1.00  0.00     0.001 A 
HETATM   27  C18 UNL     1       2.629  35.506  22.640  1.00  0.00     0.000 A 
HETATM   28  C19 UNL     1       1.935  36.633  22.958  1.00  0.00     0.001 A 
HETATM   29  C20 UNL     1       2.373  37.422  23.988  1.00  0.00     0.010 A 
ENDBRANCH  22  24
BRANCH  22  30
HETATM   30  C21 UNL     1       3.102  37.876  27.102  1.00  0.00    -0.022 C 
HETATM   31  C22 UNL     1       1.707  38.577  26.950  1.00  0.00     0.017 C 
HETATM   32  C23 UNL     1       2.717  36.465  27.502  1.00  0.00     0.017 C 
HETATM   33  C24 UNL     1       3.558  38.493  28.421  1.00  0.00     0.017 C 
ENDBRANCH  22  30
ENDBRANCH   5  22
BRANCH   1  34
HETATM   34  C3  UNL     1       8.530  36.743  27.402  1.00  0.00     0.150 C 
BRANCH  34  35
HETATM   35  C2  UNL     1       9.374  35.897  26.533  1.00  0.00    -0.018 C 
HETATM   36  C1  UNL     1       9.808  34.714  26.917  1.00  0.00     0.008 C 
ENDBRANCH  34  35
ENDBRANCH   1  34
TORSDOF 12
ENDMDL
