MODEL 1
REMARK VINA RESULT: -8.791078195      0.000      0.000
REMARK  20 active torsions:
REMARK  status: ('A' for Active; 'I' for Inactive)
REMARK    1  A    between atoms: C2_2  and  C3_3 
REMARK    2  A    between atoms: C3_3  and  N1_4 
REMARK       I    between atoms: N1_4  and  C4_6 
REMARK    3  A    between atoms: C4_6  and  O2_8 
REMARK    4  A    between atoms: O2_8  and  C5_9 
REMARK    5  A    between atoms: C6_10  and  O3_11 
REMARK    6  A    between atoms: C10_17  and  N2_18 
REMARK       I    between atoms: N2_18  and  C11_20 
REMARK    7  A    between atoms: C11_20  and  C12_22 
REMARK    8  A    between atoms: C12_22  and  N3_24 
REMARK       I    between atoms: N3_24  and  C14_26 
REMARK    9  A    between atoms: C14_26  and  C15_28 
REMARK   10  A    between atoms: C15_28  and  C16_29 
REMARK   11  A    between atoms: C16_29  and  C17_30 
REMARK   12  A    between atoms: C16_29  and  N4_34 
REMARK   13  A    between atoms: C17_30  and  C18_31 
REMARK   14  A    between atoms: N4_34  and  C21_36 
REMARK   15  A    between atoms: C21_36  and  O6_37 
REMARK   16  A    between atoms: C21_36  and  C22_39 
REMARK   17  A    between atoms: C22_39  and  C23_40 
REMARK   18  A    between atoms: C22_39  and  N5_43 
REMARK   19  A    between atoms: C28_46  and  C29_47 
REMARK   20  A    between atoms: C29_47  and  N6_48 
ROOT
HETATM    1  N3  UNL     1      68.222  22.809 -63.864  1.00  0.00    -0.345 N 
ATOM      2  H3  UNL     1      68.630  23.628 -63.413  1.00  0.00     0.163 HD
HETATM    3  C14 UNL     1      67.569  21.791 -63.077  1.00  0.00     0.240 C 
HETATM    4  O5  UNL     1      67.121  20.830 -63.726  1.00  0.00    -0.269 OA
ENDROOT
BRANCH   3   5
HETATM    5  C15 UNL     1      67.442  21.872 -61.639  1.00  0.00     0.072 C 
BRANCH   5   6
HETATM    6  C16 UNL     1      68.227  21.022 -60.728  1.00  0.00     0.112 C 
BRANCH   6   7
HETATM    7  C17 UNL     1      67.507  19.891 -60.119  1.00  0.00     0.033 C 
BRANCH   7   8
HETATM    8  C18 UNL     1      68.143  18.819 -59.367  1.00  0.00    -0.021 C 
HETATM    9  C19 UNL     1      67.954  17.414 -59.895  1.00  0.00     0.009 C 
HETATM   10  C20 UNL     1      67.588  18.865 -57.920  1.00  0.00     0.009 C 
ENDBRANCH   7   8
ENDBRANCH   6   7
BRANCH   6  11
HETATM   11  N4  UNL     1      69.429  20.578 -61.458  1.00  0.00    -0.365 N 
ATOM     12  H4  UNL     1      69.371  19.817 -62.134  1.00  0.00     0.162 HD
BRANCH  11  13
HETATM   13  C21 UNL     1      70.646  21.212 -61.212  1.00  0.00     0.146 C 
BRANCH  13  14
HETATM   14  O6  UNL     1      71.112  21.880 -62.226  1.00  0.00    -0.348 OA
ATOM     15  H6  UNL     1      71.516  22.707 -61.993  1.00  0.00     0.219 HD
ENDBRANCH  13  14
BRANCH  13  16
HETATM   16  C22 UNL     1      71.458  21.230 -59.992  1.00  0.00     0.299 C 
BRANCH  16  17
HETATM   17  C23 UNL     1      71.918  19.925 -59.460  1.00  0.00     0.019 C 
HETATM   18  C24 UNL     1      71.744  18.772 -60.422  1.00  0.00     0.012 C 
HETATM   19  C25 UNL     1      73.319  19.955 -58.956  1.00  0.00     0.012 C 
ENDBRANCH  16  17
BRANCH  16  20
HETATM   20  N5  UNL     1      70.855  22.101 -59.010  1.00  0.00     0.101 N 
HETATM   21  C26 UNL     1      71.664  23.249 -58.759  1.00  0.00     0.274 C 
HETATM   22  C27 UNL     1      71.972  23.417 -57.270  1.00  0.00     0.036 C 
HETATM   23  C28 UNL     1      70.651  23.668 -56.592  1.00  0.00     0.014 C 
HETATM   24  C30 UNL     1      69.748  22.528 -56.923  1.00  0.00     0.036 C 
HETATM   25  C31 UNL     1      70.389  21.477 -57.824  1.00  0.00     0.274 C 
BRANCH  23  26
HETATM   26  C29 UNL     1      69.986  24.955 -57.054  1.00  0.00     0.234 C 
BRANCH  26  27
HETATM   27  N6  UNL     1      70.605  26.133 -56.503  1.00  0.00    -0.079 N 
ATOM     28  H63 UNL     1      70.102  26.458 -55.678  1.00  0.00     0.274 HD
ATOM     29  H62 UNL     1      71.501  25.908 -56.073  1.00  0.00     0.274 HD
ATOM     30  H61 UNL     1      70.707  26.883 -57.187  1.00  0.00     0.274 HD
ENDBRANCH  26  27
ENDBRANCH  23  26
ENDBRANCH  16  20
ENDBRANCH  13  16
ENDBRANCH  11  13
ENDBRANCH   6  11
ENDBRANCH   5   6
ENDBRANCH   3   5
BRANCH   1  31
HETATM   31  C12 UNL     1      68.289  22.656 -65.298  1.00  0.00     0.172 C 
HETATM   32  C13 UNL     1      69.243  23.760 -65.824  1.00  0.00     0.042 C 
BRANCH  31  33
HETATM   33  C11 UNL     1      66.995  22.925 -65.944  1.00  0.00     0.240 C 
HETATM   34  N2  UNL     1      65.964  21.959 -66.125  1.00  0.00    -0.351 N 
ATOM     35  H2  UNL     1      66.099  21.007 -65.784  1.00  0.00     0.163 HD
HETATM   36  O4  UNL     1      66.793  24.106 -66.368  1.00  0.00    -0.271 OA
BRANCH  34  37
HETATM   37  C10 UNL     1      64.725  22.312 -66.787  1.00  0.00     0.131 C 
HETATM   38  C5  UNL     1      63.920  23.110 -65.708  1.00  0.00     0.186 C 
HETATM   39  C6  UNL     1      63.319  22.074 -64.809  1.00  0.00     0.150 C 
HETATM   40  C7  UNL     1      62.132  21.452 -65.523  1.00  0.00     0.035 C 
HETATM   41  C8  UNL     1      62.488  21.202 -66.952  1.00  0.00     0.021 C 
HETATM   42  C9  UNL     1      63.988  21.095 -67.195  1.00  0.00     0.084 C 
HETATM   43  S1  UNL     1      64.219  20.757 -68.967  1.00  0.00    -0.090 SA
BRANCH  38  44
HETATM   44  O2  UNL     1      62.982  23.916 -66.349  1.00  0.00    -0.294 OA
BRANCH  44  45
HETATM   45  C4  UNL     1      63.102  24.412 -67.657  1.00  0.00     0.361 C 
HETATM   46  N1  UNL     1      62.143  24.095 -68.642  1.00  0.00    -0.337 N 
ATOM     47  H1  UNL     1      61.346  23.510 -68.393  1.00  0.00     0.164 HD
HETATM   48  O1  UNL     1      64.110  25.134 -67.851  1.00  0.00    -0.239 OA
BRANCH  46  49
HETATM   49  C3  UNL     1      62.265  24.578 -69.983  1.00  0.00     0.124 C 
BRANCH  49  50
HETATM   50  C2  UNL     1      61.865  23.503 -70.959  1.00  0.00     0.015 C 
HETATM   51  C1  UNL     1      61.006  22.433 -70.301  1.00  0.00     0.006 C 
ENDBRANCH  49  50
ENDBRANCH  46  49
ENDBRANCH  44  45
ENDBRANCH  38  44
BRANCH  39  52
HETATM   52  O3  UNL     1      62.911  22.659 -63.600  1.00  0.00    -0.393 OA
ATOM     53  H3  UNL     1      62.230  22.135 -63.195  1.00  0.00     0.210 HD
ENDBRANCH  39  52
ENDBRANCH  34  37
ENDBRANCH  31  33
ENDBRANCH   1  31
TORSDOF 20
ENDMDL
MODEL 2
REMARK VINA RESULT: -8.698762232      1.623      2.135
REMARK  20 active torsions:
REMARK  status: ('A' for Active; 'I' for Inactive)
REMARK    1  A    between atoms: C2_2  and  C3_3 
REMARK    2  A    between atoms: C3_3  and  N1_4 
REMARK       I    between atoms: N1_4  and  C4_6 
REMARK    3  A    between atoms: C4_6  and  O2_8 
REMARK    4  A    between atoms: O2_8  and  C5_9 
REMARK    5  A    between atoms: C6_10  and  O3_11 
REMARK    6  A    between atoms: C10_17  and  N2_18 
REMARK       I    between atoms: N2_18  and  C11_20 
REMARK    7  A    between atoms: C11_20  and  C12_22 
REMARK    8  A    between atoms: C12_22  and  N3_24 
REMARK       I    between atoms: N3_24  and  C14_26 
REMARK    9  A    between atoms: C14_26  and  C15_28 
REMARK   10  A    between atoms: C15_28  and  C16_29 
REMARK   11  A    between atoms: C16_29  and  C17_30 
REMARK   12  A    between atoms: C16_29  and  N4_34 
REMARK   13  A    between atoms: C17_30  and  C18_31 
REMARK   14  A    between atoms: N4_34  and  C21_36 
REMARK   15  A    between atoms: C21_36  and  O6_37 
REMARK   16  A    between atoms: C21_36  and  C22_39 
REMARK   17  A    between atoms: C22_39  and  C23_40 
REMARK   18  A    between atoms: C22_39  and  N5_43 
REMARK   19  A    between atoms: C28_46  and  C29_47 
REMARK   20  A    between atoms: C29_47  and  N6_48 
ROOT
HETATM    1  N3  UNL     1      68.836  23.504 -64.372  1.00  0.00    -0.345 N 
ATOM      2  H3  UNL     1      67.971  23.838 -63.947  1.00  0.00     0.163 HD
HETATM    3  C14 UNL     1      69.836  22.844 -63.570  1.00  0.00     0.240 C 
HETATM    4  O5  UNL     1      70.858  22.492 -64.185  1.00  0.00    -0.269 OA
ENDROOT
BRANCH   3   5
HETATM    5  C15 UNL     1      69.674  22.605 -62.152  1.00  0.00     0.072 C 
BRANCH   5   6
HETATM    6  C16 UNL     1      69.713  21.253 -61.570  1.00  0.00     0.112 C 
BRANCH   6   7
HETATM    7  C17 UNL     1      68.887  20.237 -62.240  1.00  0.00     0.033 C 
BRANCH   7   8
HETATM    8  C18 UNL     1      67.440  20.135 -62.111  1.00  0.00    -0.021 C 
HETATM    9  C19 UNL     1      66.616  21.134 -62.891  1.00  0.00     0.009 C 
HETATM   10  C20 UNL     1      67.089  20.294 -60.609  1.00  0.00     0.009 C 
ENDBRANCH   7   8
ENDBRANCH   6   7
BRANCH   6  11
HETATM   11  N4  UNL     1      71.128  20.844 -61.489  1.00  0.00    -0.365 N 
ATOM     12  H4  UNL     1      71.781  21.093 -62.232  1.00  0.00     0.162 HD
BRANCH  11  13
HETATM   13  C21 UNL     1      71.562  20.112 -60.384  1.00  0.00     0.146 C 
BRANCH  13  14
HETATM   14  O6  UNL     1      72.472  19.226 -60.659  1.00  0.00    -0.348 OA
ATOM     15  H6  UNL     1      73.346  19.585 -60.757  1.00  0.00     0.219 HD
ENDBRANCH  13  14
BRANCH  13  16
HETATM   16  C22 UNL     1      71.142  20.203 -58.984  1.00  0.00     0.299 C 
BRANCH  16  17
HETATM   17  C23 UNL     1      70.349  19.077 -58.435  1.00  0.00     0.019 C 
HETATM   18  C24 UNL     1      69.844  18.111 -59.483  1.00  0.00     0.012 C 
HETATM   19  C25 UNL     1      71.054  18.328 -57.358  1.00  0.00     0.012 C 
ENDBRANCH  16  17
BRANCH  16  20
HETATM   20  N5  UNL     1      70.592  21.511 -58.716  1.00  0.00     0.101 N 
HETATM   21  C26 UNL     1      71.583  22.402 -58.203  1.00  0.00     0.274 C 
HETATM   22  C27 UNL     1      71.150  23.038 -56.880  1.00  0.00     0.036 C 
HETATM   23  C28 UNL     1      69.939  23.877 -57.192  1.00  0.00     0.014 C 
HETATM   24  C30 UNL     1      68.923  22.988 -57.825  1.00  0.00     0.036 C 
HETATM   25  C31 UNL     1      69.380  21.542 -57.979  1.00  0.00     0.274 C 
BRANCH  23  26
HETATM   26  C29 UNL     1      70.244  25.016 -58.151  1.00  0.00     0.234 C 
BRANCH  26  27
HETATM   27  N6  UNL     1      70.021  26.314 -57.567  1.00  0.00    -0.079 N 
ATOM     28  H63 UNL     1      70.594  26.443 -56.734  1.00  0.00     0.274 HD
ATOM     29  H62 UNL     1      70.413  27.050 -58.154  1.00  0.00     0.274 HD
ATOM     30  H61 UNL     1      69.037  26.494 -57.365  1.00  0.00     0.274 HD
ENDBRANCH  26  27
ENDBRANCH  23  26
ENDBRANCH  16  20
ENDBRANCH  13  16
ENDBRANCH  11  13
ENDBRANCH   6  11
ENDBRANCH   5   6
ENDBRANCH   3   5
BRANCH   1  31
HETATM   31  C12 UNL     1      69.072  23.686 -65.784  1.00  0.00     0.172 C 
HETATM   32  C13 UNL     1      68.930  25.203 -66.072  1.00  0.00     0.042 C 
BRANCH  31  33
HETATM   33  C11 UNL     1      68.038  23.038 -66.606  1.00  0.00     0.240 C 
HETATM   34  N2  UNL     1      66.648  23.024 -66.297  1.00  0.00    -0.351 N 
ATOM     35  H2  UNL     1      66.314  23.496 -65.456  1.00  0.00     0.163 HD
HETATM   36  O4  UNL     1      68.425  22.454 -67.667  1.00  0.00    -0.271 OA
BRANCH  34  37
HETATM   37  C10 UNL     1      65.703  22.348 -67.162  1.00  0.00     0.131 C 
HETATM   38  C5  UNL     1      64.465  23.303 -67.210  1.00  0.00     0.186 C 
HETATM   39  C6  UNL     1      63.714  23.051 -65.940  1.00  0.00     0.150 C 
HETATM   40  C7  UNL     1      62.959  21.740 -66.084  1.00  0.00     0.035 C 
HETATM   41  C8  UNL     1      63.842  20.729 -66.739  1.00  0.00     0.021 C 
HETATM   42  C9  UNL     1      65.328  21.034 -66.593  1.00  0.00     0.084 C 
HETATM   43  S1  UNL     1      66.231  19.686 -67.414  1.00  0.00    -0.090 SA
BRANCH  38  44
HETATM   44  O2  UNL     1      63.733  23.035 -68.364  1.00  0.00    -0.294 OA
BRANCH  44  45
HETATM   45  C4  UNL     1      63.293  24.000 -69.284  1.00  0.00     0.361 C 
HETATM   46  N1  UNL     1      61.993  23.940 -69.830  1.00  0.00    -0.337 N 
ATOM     47  H1  UNL     1      61.363  23.194 -69.538  1.00  0.00     0.164 HD
HETATM   48  O1  UNL     1      64.142  24.883 -69.562  1.00  0.00    -0.239 OA
BRANCH  46  49
HETATM   49  C3  UNL     1      61.541  24.907 -70.783  1.00  0.00     0.124 C 
BRANCH  49  50
HETATM   50  C2  UNL     1      61.500  24.296 -72.159  1.00  0.00     0.015 C 
HETATM   51  C1  UNL     1      60.312  24.799 -72.966  1.00  0.00     0.006 C 
ENDBRANCH  49  50
ENDBRANCH  46  49
ENDBRANCH  44  45
ENDBRANCH  38  44
BRANCH  39  52
HETATM   52  O3  UNL     1      62.821  24.104 -65.687  1.00  0.00    -0.393 OA
ATOM     53  H3  UNL     1      62.206  23.857 -65.007  1.00  0.00     0.210 HD
ENDBRANCH  39  52
ENDBRANCH  34  37
ENDBRANCH  31  33
ENDBRANCH   1  31
TORSDOF 20
ENDMDL
MODEL 3
REMARK VINA RESULT: -8.680285665      2.362      3.900
REMARK  20 active torsions:
REMARK  status: ('A' for Active; 'I' for Inactive)
REMARK    1  A    between atoms: C2_2  and  C3_3 
REMARK    2  A    between atoms: C3_3  and  N1_4 
REMARK       I    between atoms: N1_4  and  C4_6 
REMARK    3  A    between atoms: C4_6  and  O2_8 
REMARK    4  A    between atoms: O2_8  and  C5_9 
REMARK    5  A    between atoms: C6_10  and  O3_11 
REMARK    6  A    between atoms: C10_17  and  N2_18 
REMARK       I    between atoms: N2_18  and  C11_20 
REMARK    7  A    between atoms: C11_20  and  C12_22 
REMARK    8  A    between atoms: C12_22  and  N3_24 
REMARK       I    between atoms: N3_24  and  C14_26 
REMARK    9  A    between atoms: C14_26  and  C15_28 
REMARK   10  A    between atoms: C15_28  and  C16_29 
REMARK   11  A    between atoms: C16_29  and  C17_30 
REMARK   12  A    between atoms: C16_29  and  N4_34 
REMARK   13  A    between atoms: C17_30  and  C18_31 
REMARK   14  A    between atoms: N4_34  and  C21_36 
REMARK   15  A    between atoms: C21_36  and  O6_37 
REMARK   16  A    between atoms: C21_36  and  C22_39 
REMARK   17  A    between atoms: C22_39  and  C23_40 
REMARK   18  A    between atoms: C22_39  and  N5_43 
REMARK   19  A    between atoms: C28_46  and  C29_47 
REMARK   20  A    between atoms: C29_47  and  N6_48 
ROOT
HETATM    1  N3  UNL     1      68.802  22.919 -64.146  1.00  0.00    -0.345 N 
ATOM      2  H3  UNL     1      68.286  23.300 -63.353  1.00  0.00     0.163 HD
HETATM    3  C14 UNL     1      70.093  22.306 -63.950  1.00  0.00     0.240 C 
HETATM    4  O5  UNL     1      70.643  21.891 -64.986  1.00  0.00    -0.269 OA
ENDROOT
BRANCH   3   5
HETATM    5  C15 UNL     1      70.713  22.180 -62.649  1.00  0.00     0.072 C 
BRANCH   5   6
HETATM    6  C16 UNL     1      70.012  21.593 -61.494  1.00  0.00     0.112 C 
BRANCH   6   7
HETATM    7  C17 UNL     1      69.669  20.166 -61.604  1.00  0.00     0.033 C 
BRANCH   7   8
HETATM    8  C18 UNL     1      68.309  19.649 -61.680  1.00  0.00    -0.021 C 
HETATM    9  C19 UNL     1      67.193  20.628 -61.393  1.00  0.00     0.009 C 
HETATM   10  C20 UNL     1      68.193  18.481 -60.667  1.00  0.00     0.009 C 
ENDBRANCH   7   8
ENDBRANCH   6   7
BRANCH   6  11
HETATM   11  N4  UNL     1      70.821  21.873 -60.294  1.00  0.00    -0.365 N 
ATOM     12  H4  UNL     1      71.823  21.677 -60.289  1.00  0.00     0.162 HD
BRANCH  11  13
HETATM   13  C21 UNL     1      70.201  22.407 -59.165  1.00  0.00     0.146 C 
BRANCH  13  14
HETATM   14  O6  UNL     1      69.286  23.292 -59.431  1.00  0.00    -0.348 OA
ATOM     15  H6  UNL     1      68.479  23.173 -58.943  1.00  0.00     0.219 HD
ENDBRANCH  13  14
BRANCH  13  16
HETATM   16  C22 UNL     1      70.434  22.115 -57.748  1.00  0.00     0.299 C 
BRANCH  16  17
HETATM   17  C23 UNL     1      71.411  22.965 -57.028  1.00  0.00     0.019 C 
HETATM   18  C24 UNL     1      72.430  23.630 -57.927  1.00  0.00     0.012 C 
HETATM   19  C25 UNL     1      70.772  23.985 -56.151  1.00  0.00     0.012 C 
ENDBRANCH  16  17
BRANCH  16  20
HETATM   20  N5  UNL     1      70.618  20.695 -57.560  1.00  0.00     0.101 N 
HETATM   21  C26 UNL     1      69.371  20.002 -57.531  1.00  0.00     0.274 C 
HETATM   22  C27 UNL     1      69.221  19.147 -56.271  1.00  0.00     0.036 C 
HETATM   23  C28 UNL     1      70.295  18.094 -56.346  1.00  0.00     0.014 C 
HETATM   24  C30 UNL     1      71.606  18.792 -56.481  1.00  0.00     0.036 C 
HETATM   25  C31 UNL     1      71.493  20.312 -56.511  1.00  0.00     0.274 C 
BRANCH  23  26
HETATM   26  C29 UNL     1      70.124  17.163 -57.535  1.00  0.00     0.234 C 
BRANCH  26  27
HETATM   27  N6  UNL     1      68.874  16.447 -57.511  1.00  0.00    -0.079 N 
ATOM     28  H63 UNL     1      68.515  16.372 -56.559  1.00  0.00     0.274 HD
ATOM     29  H62 UNL     1      68.127  17.003 -57.927  1.00  0.00     0.274 HD
ATOM     30  H61 UNL     1      68.934  15.529 -57.951  1.00  0.00     0.274 HD
ENDBRANCH  26  27
ENDBRANCH  23  26
ENDBRANCH  16  20
ENDBRANCH  13  16
ENDBRANCH  11  13
ENDBRANCH   6  11
ENDBRANCH   5   6
ENDBRANCH   3   5
BRANCH   1  31
HETATM   31  C12 UNL     1      68.250  22.989 -65.477  1.00  0.00     0.172 C 
HETATM   32  C13 UNL     1      68.068  24.492 -65.812  1.00  0.00     0.042 C 
BRANCH  31  33
HETATM   33  C11 UNL     1      66.899  22.412 -65.547  1.00  0.00     0.240 C 
HETATM   34  N2  UNL     1      65.869  22.864 -66.421  1.00  0.00    -0.351 N 
ATOM     35  H2  UNL     1      66.054  23.635 -67.063  1.00  0.00     0.163 HD
HETATM   36  O4  UNL     1      66.643  21.441 -64.767  1.00  0.00    -0.271 OA
BRANCH  34  37
HETATM   37  C10 UNL     1      64.561  22.241 -66.409  1.00  0.00     0.131 C 
HETATM   38  C5  UNL     1      64.187  22.090 -67.920  1.00  0.00     0.186 C 
HETATM   39  C6  UNL     1      63.707  23.441 -68.352  1.00  0.00     0.150 C 
HETATM   40  C7  UNL     1      62.298  23.640 -67.818  1.00  0.00     0.035 C 
HETATM   41  C8  UNL     1      62.228  23.146 -66.410  1.00  0.00     0.021 C 
HETATM   42  C9  UNL     1      63.581  23.104 -65.711  1.00  0.00     0.084 C 
HETATM   43  S1  UNL     1      63.288  22.519 -64.015  1.00  0.00    -0.090 SA
BRANCH  38  44
HETATM   44  O2  UNL     1      63.235  21.082 -68.051  1.00  0.00    -0.294 OA
BRANCH  44  45
HETATM   45  C4  UNL     1      62.668  20.658 -69.264  1.00  0.00     0.361 C 
HETATM   46  N1  UNL     1      61.271  20.514 -69.399  1.00  0.00    -0.337 N 
ATOM     47  H1  UNL     1      60.667  20.734 -68.607  1.00  0.00     0.164 HD
HETATM   48  O1  UNL     1      63.499  20.430 -70.177  1.00  0.00    -0.239 OA
BRANCH  46  49
HETATM   49  C3  UNL     1      60.684  20.064 -70.623  1.00  0.00     0.124 C 
BRANCH  49  50
HETATM   50  C2  UNL     1      60.055  21.223 -71.351  1.00  0.00     0.015 C 
HETATM   51  C1  UNL     1      60.995  21.815 -72.392  1.00  0.00     0.006 C 
ENDBRANCH  49  50
ENDBRANCH  46  49
ENDBRANCH  44  45
ENDBRANCH  38  44
BRANCH  39  52
HETATM   52  O3  UNL     1      63.716  23.534 -69.753  1.00  0.00    -0.393 OA
ATOM     53  H3  UNL     1      63.288  24.335 -70.031  1.00  0.00     0.210 HD
ENDBRANCH  39  52
ENDBRANCH  34  37
ENDBRANCH  31  33
ENDBRANCH   1  31
TORSDOF 20
ENDMDL
MODEL 4
REMARK VINA RESULT: -8.605792121      2.332      4.181
REMARK  20 active torsions:
REMARK  status: ('A' for Active; 'I' for Inactive)
REMARK    1  A    between atoms: C2_2  and  C3_3 
REMARK    2  A    between atoms: C3_3  and  N1_4 
REMARK       I    between atoms: N1_4  and  C4_6 
REMARK    3  A    between atoms: C4_6  and  O2_8 
REMARK    4  A    between atoms: O2_8  and  C5_9 
REMARK    5  A    between atoms: C6_10  and  O3_11 
REMARK    6  A    between atoms: C10_17  and  N2_18 
REMARK       I    between atoms: N2_18  and  C11_20 
REMARK    7  A    between atoms: C11_20  and  C12_22 
REMARK    8  A    between atoms: C12_22  and  N3_24 
REMARK       I    between atoms: N3_24  and  C14_26 
REMARK    9  A    between atoms: C14_26  and  C15_28 
REMARK   10  A    between atoms: C15_28  and  C16_29 
REMARK   11  A    between atoms: C16_29  and  C17_30 
REMARK   12  A    between atoms: C16_29  and  N4_34 
REMARK   13  A    between atoms: C17_30  and  C18_31 
REMARK   14  A    between atoms: N4_34  and  C21_36 
REMARK   15  A    between atoms: C21_36  and  O6_37 
REMARK   16  A    between atoms: C21_36  and  C22_39 
REMARK   17  A    between atoms: C22_39  and  C23_40 
REMARK   18  A    between atoms: C22_39  and  N5_43 
REMARK   19  A    between atoms: C28_46  and  C29_47 
REMARK   20  A    between atoms: C29_47  and  N6_48 
ROOT
HETATM    1  N3  UNL     1      69.566  23.370 -64.967  1.00  0.00    -0.345 N 
ATOM      2  H3  UNL     1      68.897  23.708 -64.274  1.00  0.00     0.163 HD
HETATM    3  C14 UNL     1      70.716  22.602 -64.558  1.00  0.00     0.240 C 
HETATM    4  O5  UNL     1      71.474  22.254 -65.481  1.00  0.00    -0.269 OA
ENDROOT
BRANCH   3   5
HETATM    5  C15 UNL     1      70.979  22.256 -63.178  1.00  0.00     0.072 C 
BRANCH   5   6
HETATM    6  C16 UNL     1      69.902  22.089 -62.187  1.00  0.00     0.112 C 
BRANCH   6   7
HETATM    7  C17 UNL     1      69.121  20.846 -62.286  1.00  0.00     0.033 C 
BRANCH   7   8
HETATM    8  C18 UNL     1      67.676  20.792 -62.465  1.00  0.00    -0.021 C 
HETATM    9  C19 UNL     1      66.995  22.077 -62.876  1.00  0.00     0.009 C 
HETATM   10  C20 UNL     1      67.053  20.328 -61.123  1.00  0.00     0.009 C 
ENDBRANCH   7   8
ENDBRANCH   6   7
BRANCH   6  11
HETATM   11  N4  UNL     1      70.499  22.257 -60.849  1.00  0.00    -0.365 N 
ATOM     12  H4  UNL     1      71.506  22.165 -60.718  1.00  0.00     0.162 HD
BRANCH  11  13
HETATM   13  C21 UNL     1      69.669  22.543 -59.766  1.00  0.00     0.146 C 
BRANCH  13  14
HETATM   14  O6  UNL     1      68.795  23.477 -59.998  1.00  0.00    -0.348 OA
ATOM     15  H6  UNL     1      68.043  23.458 -59.418  1.00  0.00     0.219 HD
ENDBRANCH  13  14
BRANCH  13  16
HETATM   16  C22 UNL     1      69.646  21.947 -58.427  1.00  0.00     0.299 C 
BRANCH  16  17
HETATM   17  C23 UNL     1      70.717  22.347 -57.485  1.00  0.00     0.019 C 
HETATM   18  C24 UNL     1      71.776  23.236 -58.096  1.00  0.00     0.012 C 
HETATM   19  C25 UNL     1      70.200  22.966 -56.233  1.00  0.00     0.012 C 
ENDBRANCH  16  17
BRANCH  16  20
HETATM   20  N5  UNL     1      69.431  20.522 -58.524  1.00  0.00     0.101 N 
HETATM   21  C26 UNL     1      68.400  20.085 -57.638  1.00  0.00     0.274 C 
HETATM   22  C27 UNL     1      68.874  18.953 -56.725  1.00  0.00     0.036 C 
HETATM   23  C28 UNL     1      69.187  17.787 -57.626  1.00  0.00     0.014 C 
HETATM   24  C30 UNL     1      70.189  18.248 -58.630  1.00  0.00     0.036 C 
HETATM   25  C31 UNL     1      70.592  19.710 -58.472  1.00  0.00     0.274 C 
BRANCH  23  26
HETATM   26  C29 UNL     1      67.965  17.274 -58.370  1.00  0.00     0.234 C 
BRANCH  26  27
HETATM   27  N6  UNL     1      68.201  17.100 -59.781  1.00  0.00    -0.079 N 
ATOM     28  H63 UNL     1      67.363  16.759 -60.252  1.00  0.00     0.274 HD
ATOM     29  H62 UNL     1      68.299  18.001 -60.248  1.00  0.00     0.274 HD
ATOM     30  H61 UNL     1      69.001  16.498 -59.977  1.00  0.00     0.274 HD
ENDBRANCH  26  27
ENDBRANCH  23  26
ENDBRANCH  16  20
ENDBRANCH  13  16
ENDBRANCH  11  13
ENDBRANCH   6  11
ENDBRANCH   5   6
ENDBRANCH   3   5
BRANCH   1  31
HETATM   31  C12 UNL     1      69.371  23.656 -66.368  1.00  0.00     0.172 C 
HETATM   32  C13 UNL     1      69.466  25.195 -66.532  1.00  0.00     0.042 C 
BRANCH  31  33
HETATM   33  C11 UNL     1      68.017  23.303 -66.822  1.00  0.00     0.240 C 
HETATM   34  N2  UNL     1      67.728  22.404 -67.889  1.00  0.00    -0.351 N 
ATOM     35  H2  UNL     1      68.494  21.950 -68.387  1.00  0.00     0.163 HD
HETATM   36  O4  UNL     1      67.042  23.844 -66.211  1.00  0.00    -0.271 OA
BRANCH  34  37
HETATM   37  C10 UNL     1      66.360  22.127 -68.275  1.00  0.00     0.131 C 
HETATM   38  C5  UNL     1      66.070  20.704 -67.691  1.00  0.00     0.186 C 
HETATM   39  C6  UNL     1      66.695  19.742 -68.653  1.00  0.00     0.150 C 
HETATM   40  C7  UNL     1      65.801  19.640 -69.877  1.00  0.00     0.035 C 
HETATM   41  C8  UNL     1      65.329  21.005 -70.260  1.00  0.00     0.021 C 
HETATM   42  C9  UNL     1      66.226  22.125 -69.749  1.00  0.00     0.084 C 
HETATM   43  S1  UNL     1      65.515  23.691 -70.341  1.00  0.00    -0.090 SA
BRANCH  38  44
HETATM   44  O2  UNL     1      64.694  20.547 -67.547  1.00  0.00    -0.294 OA
BRANCH  44  45
HETATM   45  C4  UNL     1      63.833  21.479 -66.945  1.00  0.00     0.361 C 
HETATM   46  N1  UNL     1      62.776  22.064 -67.674  1.00  0.00    -0.337 N 
ATOM     47  H1  UNL     1      62.629  21.793 -68.646  1.00  0.00     0.164 HD
HETATM   48  O1  UNL     1      64.092  21.729 -65.743  1.00  0.00    -0.239 OA
BRANCH  46  49
HETATM   49  C3  UNL     1      61.905  23.029 -67.077  1.00  0.00     0.124 C 
BRANCH  49  50
HETATM   50  C2  UNL     1      61.054  23.682 -68.134  1.00  0.00     0.015 C 
HETATM   51  C1  UNL     1      61.881  24.116 -69.336  1.00  0.00     0.006 C 
ENDBRANCH  49  50
ENDBRANCH  46  49
ENDBRANCH  44  45
ENDBRANCH  38  44
BRANCH  39  52
HETATM   52  O3  UNL     1      66.844  18.482 -68.051  1.00  0.00    -0.393 OA
ATOM     53  H3  UNL     1      67.689  18.421 -67.623  1.00  0.00     0.210 HD
ENDBRANCH  39  52
ENDBRANCH  34  37
ENDBRANCH  31  33
ENDBRANCH   1  31
TORSDOF 20
ENDMDL
MODEL 5
REMARK VINA RESULT: -8.600385482      1.512      1.865
REMARK  20 active torsions:
REMARK  status: ('A' for Active; 'I' for Inactive)
REMARK    1  A    between atoms: C2_2  and  C3_3 
REMARK    2  A    between atoms: C3_3  and  N1_4 
REMARK       I    between atoms: N1_4  and  C4_6 
REMARK    3  A    between atoms: C4_6  and  O2_8 
REMARK    4  A    between atoms: O2_8  and  C5_9 
REMARK    5  A    between atoms: C6_10  and  O3_11 
REMARK    6  A    between atoms: C10_17  and  N2_18 
REMARK       I    between atoms: N2_18  and  C11_20 
REMARK    7  A    between atoms: C11_20  and  C12_22 
REMARK    8  A    between atoms: C12_22  and  N3_24 
REMARK       I    between atoms: N3_24  and  C14_26 
REMARK    9  A    between atoms: C14_26  and  C15_28 
REMARK   10  A    between atoms: C15_28  and  C16_29 
REMARK   11  A    between atoms: C16_29  and  C17_30 
REMARK   12  A    between atoms: C16_29  and  N4_34 
REMARK   13  A    between atoms: C17_30  and  C18_31 
REMARK   14  A    between atoms: N4_34  and  C21_36 
REMARK   15  A    between atoms: C21_36  and  O6_37 
REMARK   16  A    between atoms: C21_36  and  C22_39 
REMARK   17  A    between atoms: C22_39  and  C23_40 
REMARK   18  A    between atoms: C22_39  and  N5_43 
REMARK   19  A    between atoms: C28_46  and  C29_47 
REMARK   20  A    between atoms: C29_47  and  N6_48 
ROOT
HETATM    1  N3  UNL     1      68.465  22.440 -64.075  1.00  0.00    -0.345 N 
ATOM      2  H3  UNL     1      68.850  23.293 -63.669  1.00  0.00     0.163 HD
HETATM    3  C14 UNL     1      67.707  21.522 -63.260  1.00  0.00     0.240 C 
HETATM    4  O5  UNL     1      67.298  20.506 -63.852  1.00  0.00    -0.269 OA
ENDROOT
BRANCH   3   5
HETATM    5  C15 UNL     1      67.438  21.754 -61.859  1.00  0.00     0.072 C 
BRANCH   5   6
HETATM    6  C16 UNL     1      68.215  21.107 -60.788  1.00  0.00     0.112 C 
BRANCH   6   7
HETATM    7  C17 UNL     1      67.499  20.098 -59.990  1.00  0.00     0.033 C 
BRANCH   7   8
HETATM    8  C18 UNL     1      68.139  18.981 -59.308  1.00  0.00    -0.021 C 
HETATM    9  C19 UNL     1      67.942  17.611 -59.916  1.00  0.00     0.009 C 
HETATM   10  C20 UNL     1      67.596  18.943 -57.856  1.00  0.00     0.009 C 
ENDBRANCH   7   8
ENDBRANCH   6   7
BRANCH   6  11
HETATM   11  N4  UNL     1      69.440  20.557 -61.396  1.00  0.00    -0.365 N 
ATOM     12  H4  UNL     1      69.398  19.718 -61.974  1.00  0.00     0.162 HD
BRANCH  11  13
HETATM   13  C21 UNL     1      70.657  21.199 -61.172  1.00  0.00     0.146 C 
BRANCH  13  14
HETATM   14  O6  UNL     1      71.118  21.840 -62.206  1.00  0.00    -0.348 OA
ATOM     15  H6  UNL     1      71.396  22.729 -62.019  1.00  0.00     0.219 HD
ENDBRANCH  13  14
BRANCH  13  16
HETATM   16  C22 UNL     1      71.474  21.250 -59.957  1.00  0.00     0.299 C 
BRANCH  16  17
HETATM   17  C23 UNL     1      71.960  19.962 -59.408  1.00  0.00     0.019 C 
HETATM   18  C24 UNL     1      71.762  18.783 -60.334  1.00  0.00     0.012 C 
HETATM   19  C25 UNL     1      73.377  20.013 -58.953  1.00  0.00     0.012 C 
ENDBRANCH  16  17
BRANCH  16  20
HETATM   20  N5  UNL     1      70.860  22.124 -58.985  1.00  0.00     0.101 N 
HETATM   21  C26 UNL     1      71.656  23.284 -58.745  1.00  0.00     0.274 C 
HETATM   22  C27 UNL     1      71.960  23.472 -57.257  1.00  0.00     0.036 C 
HETATM   23  C28 UNL     1      70.634  23.714 -56.584  1.00  0.00     0.014 C 
HETATM   24  C30 UNL     1      69.745  22.561 -56.905  1.00  0.00     0.036 C 
HETATM   25  C31 UNL     1      70.399  21.508 -57.794  1.00  0.00     0.274 C 
BRANCH  23  26
HETATM   26  C29 UNL     1      69.956  24.989 -57.061  1.00  0.00     0.234 C 
BRANCH  26  27
HETATM   27  N6  UNL     1      70.579  26.181 -56.546  1.00  0.00    -0.079 N 
ATOM     28  H63 UNL     1      69.904  26.941 -56.467  1.00  0.00     0.274 HD
ATOM     29  H62 UNL     1      70.820  26.070 -55.561  1.00  0.00     0.274 HD
ATOM     30  H61 UNL     1      71.392  26.469 -57.089  1.00  0.00     0.274 HD
ENDBRANCH  26  27
ENDBRANCH  23  26
ENDBRANCH  16  20
ENDBRANCH  13  16
ENDBRANCH  11  13
ENDBRANCH   6  11
ENDBRANCH   5   6
ENDBRANCH   3   5
BRANCH   1  31
HETATM   31  C12 UNL     1      68.672  22.138 -65.470  1.00  0.00     0.172 C 
HETATM   32  C13 UNL     1      69.825  23.051 -65.963  1.00  0.00     0.042 C 
BRANCH  31  33
HETATM   33  C11 UNL     1      67.510  22.506 -66.295  1.00  0.00     0.240 C 
HETATM   34  N2  UNL     1      66.328  21.722 -66.424  1.00  0.00    -0.351 N 
ATOM     35  H2  UNL     1      66.248  20.843 -65.913  1.00  0.00     0.163 HD
HETATM   36  O4  UNL     1      67.577  23.604 -66.932  1.00  0.00    -0.271 OA
BRANCH  34  37
HETATM   37  C10 UNL     1      65.237  22.160 -67.271  1.00  0.00     0.131 C 
HETATM   38  C5  UNL     1      64.400  23.121 -66.365  1.00  0.00     0.186 C 
HETATM   39  C6  UNL     1      63.567  22.229 -65.497  1.00  0.00     0.150 C 
HETATM   40  C7  UNL     1      62.417  21.689 -66.330  1.00  0.00     0.035 C 
HETATM   41  C8  UNL     1      62.925  21.295 -67.678  1.00  0.00     0.021 C 
HETATM   42  C9  UNL     1      64.420  21.004 -67.704  1.00  0.00     0.084 C 
HETATM   43  S1  UNL     1      64.838  20.510 -69.404  1.00  0.00    -0.090 SA
BRANCH  38  44
HETATM   44  O2  UNL     1      63.657  23.975 -67.177  1.00  0.00    -0.294 OA
BRANCH  44  45
HETATM   45  C4  UNL     1      64.140  24.619 -68.327  1.00  0.00     0.361 C 
HETATM   46  N1  UNL     1      65.431  25.188 -68.349  1.00  0.00    -0.337 N 
ATOM     47  H1  UNL     1      66.023  25.116 -67.522  1.00  0.00     0.164 HD
HETATM   48  O1  UNL     1      63.337  24.637 -69.292  1.00  0.00    -0.239 OA
BRANCH  46  49
HETATM   49  C3  UNL     1      65.926  25.863 -69.509  1.00  0.00     0.124 C 
BRANCH  49  50
HETATM   50  C2  UNL     1      67.124  26.702 -69.147  1.00  0.00     0.015 C 
HETATM   51  C1  UNL     1      67.665  27.464 -70.348  1.00  0.00     0.006 C 
ENDBRANCH  49  50
ENDBRANCH  46  49
ENDBRANCH  44  45
ENDBRANCH  38  44
BRANCH  39  52
HETATM   52  O3  UNL     1      63.077  22.945 -64.394  1.00  0.00    -0.393 OA
ATOM     53  H3  UNL     1      63.770  23.086 -63.760  1.00  0.00     0.210 HD
ENDBRANCH  39  52
ENDBRANCH  34  37
ENDBRANCH  31  33
ENDBRANCH   1  31
TORSDOF 20
ENDMDL
