MODEL 1
REMARK VINA RESULT: -6.939665976      0.000      0.000
REMARK  3 active torsions:
REMARK  status: ('A' for Active; 'I' for Inactive)
REMARK    1  A    between atoms: C3_3  and  N1_4 
REMARK       I    between atoms: N1_4  and  C4_6 
REMARK    2  A    between atoms: C4_6  and  C5_8 
REMARK    3  A    between atoms: C5_8  and  N2_9 
REMARK       I    between atoms: N3_12  and  C8_13 
ROOT
HETATM    1  C1  UNL     1      -3.746  34.197  -1.974  1.00  0.00     0.014 C 
HETATM    2  C2  UNL     1      -3.565  33.739  -0.886  1.00  0.00    -0.098 C 
HETATM    3  C3  UNL     1      -3.343  33.157   0.436  1.00  0.00     0.216 C 
ENDROOT
BRANCH   3   4
HETATM    4  N1  UNL     1      -4.587  33.164   1.209  1.00  0.00    -0.346 N 
HETATM    5  C4  UNL     1      -5.252  31.988   1.567  1.00  0.00     0.258 C 
HETATM    6  O1  UNL     1      -4.685  30.895   1.188  1.00  0.00    -0.267 OA
ATOM      7  H1  UNL     1      -4.982  34.059   1.497  1.00  0.00     0.163 HD
BRANCH   5   8
HETATM    8  C5  UNL     1      -6.469  31.853   2.305  1.00  0.00     0.171 C 
BRANCH   8   9
HETATM    9  N2  UNL     1      -7.031  30.603   2.629  1.00  0.00    -0.315 N 
HETATM   10  C6  UNL     1      -7.677  29.788   1.711  1.00  0.00     0.091 C 
HETATM   11  C7  UNL     1      -7.970  29.574   0.359  1.00  0.00     0.175 C 
HETATM   12  N3  UNL     1      -8.653  28.228   0.383  1.00  0.00    -0.329 N 
HETATM   13  C8  UNL     1      -8.675  27.594  -0.902  1.00  0.00     0.188 C 
HETATM   14  C9  UNL     1      -9.232  27.646   1.544  1.00  0.00     0.086 C 
HETATM   15  N4  UNL     1      -8.237  28.062  -1.987  1.00  0.00    -0.373 N 
HETATM   16  N5  UNL     1      -9.263  26.298  -0.963  1.00  0.00    -0.064 NA
ATOM     17  H42 UNL     1      -7.816  28.990  -1.943  1.00  0.00     0.158 HD
ATOM     18  H41 UNL     1      -8.253  27.611  -2.901  1.00  0.00     0.158 HD
HETATM   19  C10 UNL     1      -8.447  27.098   2.672  1.00  0.00     0.166 C 
HETATM   20  N6  UNL     1      -8.292  27.887   3.854  1.00  0.00    -0.386 N 
HETATM   21  C11 UNL     1      -9.207  27.613   4.912  1.00  0.00     0.149 C 
HETATM   22  C12 UNL     1      -7.113  28.559   4.178  1.00  0.00     0.134 C 
HETATM   23  C13 UNL     1      -7.099  30.048   3.984  1.00  0.00     0.120 C 
HETATM   24  N7  UNL     1      -7.171  30.899   4.989  1.00  0.00    -0.384 N 
ATOM     25  H72 UNL     1      -7.162  31.911   4.857  1.00  0.00     0.157 HD
ATOM     26  H71 UNL     1      -7.219  30.513   5.931  1.00  0.00     0.157 HD
ENDBRANCH   8   9
ENDBRANCH   5   8
ENDBRANCH   3   4
TORSDOF 3
ENDMDL
MODEL 2
REMARK VINA RESULT: -6.862097934      2.420      5.357
REMARK  3 active torsions:
REMARK  status: ('A' for Active; 'I' for Inactive)
REMARK    1  A    between atoms: C3_3  and  N1_4 
REMARK       I    between atoms: N1_4  and  C4_6 
REMARK    2  A    between atoms: C4_6  and  C5_8 
REMARK    3  A    between atoms: C5_8  and  N2_9 
REMARK       I    between atoms: N3_12  and  C8_13 
ROOT
HETATM    1  C1  UNL     1      -6.330  28.210  -4.613  1.00  0.00     0.014 C 
HETATM    2  C2  UNL     1      -7.268  27.879  -3.953  1.00  0.00    -0.098 C 
HETATM    3  C3  UNL     1      -8.425  27.497  -3.147  1.00  0.00     0.216 C 
ENDROOT
BRANCH   3   4
HETATM    4  N1  UNL     1      -8.053  27.412  -1.732  1.00  0.00    -0.346 N 
HETATM    5  C4  UNL     1      -8.975  27.628  -0.703  1.00  0.00     0.258 C 
HETATM    6  O1  UNL     1     -10.178  27.885  -1.083  1.00  0.00    -0.267 OA
ATOM      7  H1  UNL     1      -7.088  27.189  -1.490  1.00  0.00     0.163 HD
BRANCH   5   8
HETATM    8  C5  UNL     1      -8.745  27.588   0.708  1.00  0.00     0.171 C 
BRANCH   8   9
HETATM    9  N2  UNL     1      -8.298  28.703   1.442  1.00  0.00    -0.315 N 
HETATM   10  C6  UNL     1      -7.179  29.448   1.104  1.00  0.00     0.091 C 
HETATM   11  C7  UNL     1      -6.197  29.688   0.136  1.00  0.00     0.175 C 
HETATM   12  N3  UNL     1      -5.480  30.895   0.690  1.00  0.00    -0.329 N 
HETATM   13  C8  UNL     1      -4.714  31.590  -0.302  1.00  0.00     0.188 C 
HETATM   14  C9  UNL     1      -5.535  31.303   2.051  1.00  0.00     0.086 C 
HETATM   15  N4  UNL     1      -4.567  31.266  -1.511  1.00  0.00    -0.373 N 
HETATM   16  N5  UNL     1      -4.039  32.768   0.125  1.00  0.00    -0.064 NA
ATOM     17  H42 UNL     1      -5.051  30.422  -1.817  1.00  0.00     0.158 HD
ATOM     18  H41 UNL     1      -4.022  31.760  -2.217  1.00  0.00     0.158 HD
HETATM   19  C10 UNL     1      -6.727  31.909   2.684  1.00  0.00     0.166 C 
HETATM   20  N6  UNL     1      -7.570  31.091   3.499  1.00  0.00    -0.386 N 
HETATM   21  C11 UNL     1      -7.322  31.145   4.903  1.00  0.00     0.149 C 
HETATM   22  C12 UNL     1      -8.810  30.610   3.080  1.00  0.00     0.134 C 
HETATM   23  C13 UNL     1      -8.890  29.159   2.703  1.00  0.00     0.120 C 
HETATM   24  N7  UNL     1      -9.454  28.251   3.476  1.00  0.00    -0.384 N 
ATOM     25  H72 UNL     1      -9.509  27.265   3.219  1.00  0.00     0.157 HD
ATOM     26  H71 UNL     1      -9.866  28.569   4.353  1.00  0.00     0.157 HD
ENDBRANCH   8   9
ENDBRANCH   5   8
ENDBRANCH   3   4
TORSDOF 3
ENDMDL
MODEL 3
REMARK VINA RESULT: -6.817131468      2.551      3.393
REMARK  3 active torsions:
REMARK  status: ('A' for Active; 'I' for Inactive)
REMARK    1  A    between atoms: C3_3  and  N1_4 
REMARK       I    between atoms: N1_4  and  C4_6 
REMARK    2  A    between atoms: C4_6  and  C5_8 
REMARK    3  A    between atoms: C5_8  and  N2_9 
REMARK       I    between atoms: N3_12  and  C8_13 
ROOT
HETATM    1  C1  UNL     1      -3.931  34.320  -1.801  1.00  0.00     0.014 C 
HETATM    2  C2  UNL     1      -3.908  33.136  -1.953  1.00  0.00    -0.098 C 
HETATM    3  C3  UNL     1      -3.903  31.688  -2.143  1.00  0.00     0.216 C 
ENDROOT
BRANCH   3   4
HETATM    4  N1  UNL     1      -3.908  31.004  -0.847  1.00  0.00    -0.346 N 
HETATM    5  C4  UNL     1      -4.302  29.670  -0.707  1.00  0.00     0.258 C 
HETATM    6  O1  UNL     1      -4.640  29.076  -1.799  1.00  0.00    -0.267 OA
ATOM      7  H1  UNL     1      -3.614  31.520  -0.018  1.00  0.00     0.163 HD
BRANCH   5   8
HETATM    8  C5  UNL     1      -4.364  28.891   0.489  1.00  0.00     0.171 C 
BRANCH   8   9
HETATM    9  N2  UNL     1      -5.577  28.457   1.057  1.00  0.00    -0.315 N 
HETATM   10  C6  UNL     1      -6.635  29.303   1.352  1.00  0.00     0.091 C 
HETATM   11  C7  UNL     1      -7.159  30.593   1.212  1.00  0.00     0.175 C 
HETATM   12  N3  UNL     1      -8.542  30.450   1.799  1.00  0.00    -0.329 N 
HETATM   13  C8  UNL     1      -9.427  31.504   1.399  1.00  0.00     0.188 C 
HETATM   14  C9  UNL     1      -8.936  29.397   2.670  1.00  0.00     0.086 C 
HETATM   15  N4  UNL     1      -9.145  32.498   0.679  1.00  0.00    -0.373 N 
HETATM   16  N5  UNL     1     -10.767  31.423   1.872  1.00  0.00    -0.064 NA
ATOM     17  H42 UNL     1      -8.185  32.556   0.340  1.00  0.00     0.158 HD
ATOM     18  H41 UNL     1      -9.774  33.248   0.394  1.00  0.00     0.158 HD
HETATM   19  C10 UNL     1      -9.140  27.998   2.235  1.00  0.00     0.166 C 
HETATM   20  N6  UNL     1      -8.110  27.038   2.485  1.00  0.00    -0.386 N 
HETATM   21  C11 UNL     1      -8.266  26.247   3.661  1.00  0.00     0.149 C 
HETATM   22  C12 UNL     1      -7.250  26.561   1.495  1.00  0.00     0.134 C 
HETATM   23  C13 UNL     1      -5.842  27.085   1.502  1.00  0.00     0.120 C 
HETATM   24  N7  UNL     1      -4.816  26.369   1.918  1.00  0.00    -0.384 N 
ATOM     25  H72 UNL     1      -3.860  26.725   1.922  1.00  0.00     0.157 HD
ATOM     26  H71 UNL     1      -5.002  25.415   2.227  1.00  0.00     0.157 HD
ENDBRANCH   8   9
ENDBRANCH   5   8
ENDBRANCH   3   4
TORSDOF 3
ENDMDL
MODEL 4
REMARK VINA RESULT: -6.741400519      3.313      4.652
REMARK  3 active torsions:
REMARK  status: ('A' for Active; 'I' for Inactive)
REMARK    1  A    between atoms: C3_3  and  N1_4 
REMARK       I    between atoms: N1_4  and  C4_6 
REMARK    2  A    between atoms: C4_6  and  C5_8 
REMARK    3  A    between atoms: C5_8  and  N2_9 
REMARK       I    between atoms: N3_12  and  C8_13 
ROOT
HETATM    1  C1  UNL     1       0.986  29.034   2.362  1.00  0.00     0.014 C 
HETATM    2  C2  UNL     1       0.047  28.564   1.794  1.00  0.00    -0.098 C 
HETATM    3  C3  UNL     1      -1.089  27.984   1.081  1.00  0.00     0.216 C 
ENDROOT
BRANCH   3   4
HETATM    4  N1  UNL     1      -1.970  29.042   0.582  1.00  0.00    -0.346 N 
HETATM    5  C4  UNL     1      -3.022  28.784  -0.302  1.00  0.00     0.258 C 
HETATM    6  O1  UNL     1      -3.177  27.549  -0.631  1.00  0.00    -0.267 OA
ATOM      7  H1  UNL     1      -1.811  30.001   0.890  1.00  0.00     0.163 HD
BRANCH   5   8
HETATM    8  C5  UNL     1      -3.945  29.717  -0.870  1.00  0.00     0.171 C 
BRANCH   8   9
HETATM    9  N2  UNL     1      -5.073  30.195  -0.176  1.00  0.00    -0.315 N 
HETATM   10  C6  UNL     1      -6.124  29.388   0.234  1.00  0.00     0.091 C 
HETATM   11  C7  UNL     1      -6.584  28.075   0.383  1.00  0.00     0.175 C 
HETATM   12  N3  UNL     1      -7.888  28.267   1.120  1.00  0.00    -0.329 N 
HETATM   13  C8  UNL     1      -8.346  27.069   1.759  1.00  0.00     0.188 C 
HETATM   14  C9  UNL     1      -8.604  29.495   1.170  1.00  0.00     0.086 C 
HETATM   15  N4  UNL     1      -7.804  25.933   1.718  1.00  0.00    -0.373 N 
HETATM   16  N5  UNL     1      -9.548  27.171   2.515  1.00  0.00    -0.064 NA
ATOM     17  H42 UNL     1      -6.943  25.860   1.177  1.00  0.00     0.158 HD
ATOM     18  H41 UNL     1      -8.130  25.080   2.173  1.00  0.00     0.158 HD
HETATM   19  C10 UNL     1      -8.165  30.676   1.946  1.00  0.00     0.166 C 
HETATM   20  N6  UNL     1      -7.518  31.751   1.262  1.00  0.00    -0.386 N 
HETATM   21  C11 UNL     1      -8.355  32.842   0.881  1.00  0.00     0.149 C 
HETATM   22  C12 UNL     1      -6.144  31.982   1.322  1.00  0.00     0.134 C 
HETATM   23  C13 UNL     1      -5.333  31.608   0.114  1.00  0.00     0.120 C 
HETATM   24  N7  UNL     1      -4.855  32.502  -0.729  1.00  0.00    -0.384 N 
ATOM     25  H72 UNL     1      -4.304  32.248  -1.550  1.00  0.00     0.157 HD
ATOM     26  H71 UNL     1      -5.037  33.485  -0.527  1.00  0.00     0.157 HD
ENDBRANCH   8   9
ENDBRANCH   5   8
ENDBRANCH   3   4
TORSDOF 3
ENDMDL
MODEL 5
REMARK VINA RESULT: -6.585065690      2.304      3.331
REMARK  3 active torsions:
REMARK  status: ('A' for Active; 'I' for Inactive)
REMARK    1  A    between atoms: C3_3  and  N1_4 
REMARK       I    between atoms: N1_4  and  C4_6 
REMARK    2  A    between atoms: C4_6  and  C5_8 
REMARK    3  A    between atoms: C5_8  and  N2_9 
REMARK       I    between atoms: N3_12  and  C8_13 
ROOT
HETATM    1  C1  UNL     1      -3.617  34.201  -1.913  1.00  0.00     0.014 C 
HETATM    2  C2  UNL     1      -3.592  33.691  -0.834  1.00  0.00    -0.098 C 
HETATM    3  C3  UNL     1      -3.539  33.062   0.484  1.00  0.00     0.216 C 
ENDROOT
BRANCH   3   4
HETATM    4  N1  UNL     1      -4.184  31.746   0.446  1.00  0.00    -0.346 N 
HETATM    5  C4  UNL     1      -5.561  31.583   0.620  1.00  0.00     0.258 C 
HETATM    6  O1  UNL     1      -6.228  32.671   0.795  1.00  0.00    -0.267 OA
ATOM      7  H1  UNL     1      -3.606  30.921   0.287  1.00  0.00     0.163 HD
BRANCH   5   8
HETATM    8  C5  UNL     1      -6.311  30.367   0.616  1.00  0.00     0.171 C 
BRANCH   8   9
HETATM    9  N2  UNL     1      -6.805  29.769   1.792  1.00  0.00    -0.315 N 
HETATM   10  C6  UNL     1      -6.403  28.523   2.249  1.00  0.00     0.091 C 
HETATM   11  C7  UNL     1      -5.496  27.469   2.090  1.00  0.00     0.175 C 
HETATM   12  N3  UNL     1      -5.817  26.582   3.268  1.00  0.00    -0.329 N 
HETATM   13  C8  UNL     1      -4.762  25.661   3.573  1.00  0.00     0.188 C 
HETATM   14  C9  UNL     1      -7.037  26.630   3.996  1.00  0.00     0.086 C 
HETATM   15  N4  UNL     1      -3.678  25.515   2.948  1.00  0.00    -0.373 N 
HETATM   16  N5  UNL     1      -4.963  24.813   4.699  1.00  0.00    -0.064 NA
ATOM     17  H42 UNL     1      -3.534  26.122   2.141  1.00  0.00     0.158 HD
ATOM     18  H41 UNL     1      -2.927  24.859   3.164  1.00  0.00     0.158 HD
HETATM   19  C10 UNL     1      -7.406  27.728   4.917  1.00  0.00     0.166 C 
HETATM   20  N6  UNL     1      -8.311  28.737   4.462  1.00  0.00    -0.386 N 
HETATM   21  C11 UNL     1      -9.681  28.552   4.815  1.00  0.00     0.149 C 
HETATM   22  C12 UNL     1      -7.907  30.021   4.095  1.00  0.00     0.134 C 
HETATM   23  C13 UNL     1      -7.870  30.332   2.626  1.00  0.00     0.120 C 
HETATM   24  N7  UNL     1      -8.779  31.081   2.033  1.00  0.00    -0.384 N 
ATOM     25  H72 UNL     1      -8.753  31.293   1.035  1.00  0.00     0.157 HD
ATOM     26  H71 UNL     1      -9.520  31.473   2.614  1.00  0.00     0.157 HD
ENDBRANCH   8   9
ENDBRANCH   5   8
ENDBRANCH   3   4
TORSDOF 3
ENDMDL
