MODEL 1
REMARK VINA RESULT: -9.339575955      0.000      0.000
REMARK  5 active torsions:
REMARK  status: ('A' for Active; 'I' for Inactive)
REMARK    1  A    between atoms: C1_2  and  O2_3 
REMARK    2  A    between atoms: C1_2  and  C12_16 
REMARK    3  A    between atoms: O2_3  and  C2_4 
REMARK    4  A    between atoms: C7_9  and  O3_10 
REMARK    5  A    between atoms: C16_20  and  O4_21 
ROOT
HETATM    1  O2  UNL     1       7.163  55.110  -0.438  1.00  0.00    -0.275 OA
ENDROOT
BRANCH   1   2
HETATM    2  C1  UNL     1       8.050  56.111  -0.127  1.00  0.00     0.298 C 
HETATM    3  O1  UNL     1       9.214  55.782   0.181  1.00  0.00    -0.259 OA
BRANCH   2   4
HETATM    4  C12 UNL     1       7.578  57.483  -0.178  1.00  0.00     0.043 A 
HETATM    5  C13 UNL     1       8.353  58.392  -0.866  1.00  0.00     0.018 A 
HETATM    6  C14 UNL     1       8.194  59.746  -1.087  1.00  0.00     0.004 A 
HETATM    7  C15 UNL     1       7.149  60.559  -0.653  1.00  0.00     0.040 A 
HETATM    8  C16 UNL     1       6.028  60.202   0.092  1.00  0.00     0.115 A 
HETATM    9  C17 UNL     1       5.694  58.966   0.585  1.00  0.00     0.205 A 
HETATM   10  O5  UNL     1       4.609  58.905   1.235  1.00  0.00    -0.285 OA
HETATM   11  C18 UNL     1       6.396  57.773   0.462  1.00  0.00     0.075 A 
BRANCH   8  12
HETATM   12  O4  UNL     1       5.117  61.211   0.386  1.00  0.00    -0.357 OA
ATOM     13  H4  UNL     1       4.525  61.059   1.113  1.00  0.00     0.218 HD
ENDBRANCH   8  12
ENDBRANCH   2   4
ENDBRANCH   1   2
BRANCH   1  14
HETATM   14  C2  UNL     1       6.762  54.137   0.468  1.00  0.00     0.080 A 
HETATM   15  C3  UNL     1       5.473  54.168   0.958  1.00  0.00     0.038 A 
HETATM   16  C4  UNL     1       5.013  53.222   1.869  1.00  0.00     0.015 A 
HETATM   17  C5  UNL     1       5.840  52.213   2.313  1.00  0.00    -0.023 A 
HETATM   18  C6  UNL     1       5.416  51.255   3.218  1.00  0.00     0.048 A 
HETATM   19  C10 UNL     1       7.131  52.177   1.825  1.00  0.00    -0.023 A 
HETATM   20  C7  UNL     1       6.230  50.245   3.669  1.00  0.00     0.066 A 
HETATM   21  C8  UNL     1       7.522  50.212   3.179  1.00  0.00     0.037 A 
HETATM   22  C9  UNL     1       7.956  51.160   2.277  1.00  0.00     0.015 A 
HETATM   23  C11 UNL     1       7.585  53.125   0.917  1.00  0.00     0.049 A 
BRANCH  20  24
HETATM   24  O3  UNL     1       5.774  49.300   4.575  1.00  0.00    -0.361 OA
ATOM     25  H3  UNL     1       5.581  49.532   5.476  1.00  0.00     0.217 HD
ENDBRANCH  20  24
ENDBRANCH   1  14
TORSDOF 5
ENDMDL
MODEL 2
REMARK VINA RESULT: -9.156596160      2.036      7.274
REMARK  5 active torsions:
REMARK  status: ('A' for Active; 'I' for Inactive)
REMARK    1  A    between atoms: C1_2  and  O2_3 
REMARK    2  A    between atoms: C1_2  and  C12_16 
REMARK    3  A    between atoms: O2_3  and  C2_4 
REMARK    4  A    between atoms: C7_9  and  O3_10 
REMARK    5  A    between atoms: C16_20  and  O4_21 
ROOT
HETATM    1  O2  UNL     1       6.144  53.913   0.097  1.00  0.00    -0.275 OA
ENDROOT
BRANCH   1   2
HETATM    2  C1  UNL     1       6.638  53.082   1.072  1.00  0.00     0.298 C 
HETATM    3  O1  UNL     1       5.818  52.520   1.828  1.00  0.00    -0.259 OA
BRANCH   2   4
HETATM    4  C12 UNL     1       8.077  52.911   1.161  1.00  0.00     0.043 A 
HETATM    5  C13 UNL     1       8.556  51.621   1.243  1.00  0.00     0.018 A 
HETATM    6  C14 UNL     1       9.841  51.128   1.348  1.00  0.00     0.004 A 
HETATM    7  C15 UNL     1      11.028  51.857   1.388  1.00  0.00     0.040 A 
HETATM    8  C16 UNL     1      11.197  53.237   1.324  1.00  0.00     0.115 A 
HETATM    9  C17 UNL     1      10.232  54.207   1.221  1.00  0.00     0.205 A 
HETATM   10  O5  UNL     1      10.652  55.402   1.178  1.00  0.00    -0.285 OA
HETATM   11  C18 UNL     1       8.854  54.045   1.156  1.00  0.00     0.075 A 
BRANCH   8  12
HETATM   12  O4  UNL     1      12.502  53.717   1.371  1.00  0.00    -0.357 OA
ATOM     13  H4  UNL     1      12.881  54.016   0.552  1.00  0.00     0.218 HD
ENDBRANCH   8  12
ENDBRANCH   2   4
ENDBRANCH   1   2
BRANCH   1  14
HETATM   14  C2  UNL     1       5.872  55.258   0.306  1.00  0.00     0.080 A 
HETATM   15  C3  UNL     1       4.834  55.610   1.145  1.00  0.00     0.038 A 
HETATM   16  C4  UNL     1       4.512  56.940   1.394  1.00  0.00     0.015 A 
HETATM   17  C5  UNL     1       5.228  57.959   0.805  1.00  0.00    -0.023 A 
HETATM   18  C6  UNL     1       4.936  59.293   1.030  1.00  0.00     0.048 A 
HETATM   19  C10 UNL     1       6.269  57.614  -0.035  1.00  0.00    -0.023 A 
HETATM   20  C7  UNL     1       5.641  60.319   0.450  1.00  0.00     0.066 A 
HETATM   21  C8  UNL     1       6.682  59.969  -0.391  1.00  0.00     0.037 A 
HETATM   22  C9  UNL     1       6.983  58.644  -0.623  1.00  0.00     0.015 A 
HETATM   23  C11 UNL     1       6.585  56.283  -0.280  1.00  0.00     0.049 A 
BRANCH  20  24
HETATM   24  O3  UNL     1       5.323  61.645   0.697  1.00  0.00    -0.361 OA
ATOM     25  H3  UNL     1       5.993  62.318   0.725  1.00  0.00     0.217 HD
ENDBRANCH  20  24
ENDBRANCH   1  14
TORSDOF 5
ENDMDL
MODEL 3
REMARK VINA RESULT: -9.112161176      1.172      7.882
REMARK  5 active torsions:
REMARK  status: ('A' for Active; 'I' for Inactive)
REMARK    1  A    between atoms: C1_2  and  O2_3 
REMARK    2  A    between atoms: C1_2  and  C12_16 
REMARK    3  A    between atoms: O2_3  and  C2_4 
REMARK    4  A    between atoms: C7_9  and  O3_10 
REMARK    5  A    between atoms: C16_20  and  O4_21 
ROOT
HETATM    1  O2  UNL     1       7.766  54.377  -0.165  1.00  0.00    -0.275 OA
ENDROOT
BRANCH   1   2
HETATM    2  C1  UNL     1       8.338  53.694   0.881  1.00  0.00     0.298 C 
HETATM    3  O1  UNL     1       9.536  53.928   1.142  1.00  0.00    -0.259 OA
BRANCH   2   4
HETATM    4  C12 UNL     1       7.516  52.747   1.610  1.00  0.00     0.043 A 
HETATM    5  C13 UNL     1       6.160  52.994   1.658  1.00  0.00     0.018 A 
HETATM    6  C14 UNL     1       5.127  52.309   2.266  1.00  0.00     0.004 A 
HETATM    7  C15 UNL     1       5.210  51.132   3.008  1.00  0.00     0.040 A 
HETATM    8  C16 UNL     1       6.341  50.375   3.302  1.00  0.00     0.115 A 
HETATM    9  C17 UNL     1       7.642  50.616   2.941  1.00  0.00     0.205 A 
HETATM   10  O5  UNL     1       8.493  49.764   3.337  1.00  0.00    -0.285 OA
HETATM   11  C18 UNL     1       8.146  51.675   2.197  1.00  0.00     0.075 A 
BRANCH   8  12
HETATM   12  O4  UNL     1       6.150  49.223   4.058  1.00  0.00    -0.357 OA
ATOM     13  H4  UNL     1       5.338  48.748   3.923  1.00  0.00     0.218 HD
ENDBRANCH   8  12
ENDBRANCH   2   4
ENDBRANCH   1   2
BRANCH   1  14
HETATM   14  C2  UNL     1       7.456  55.729  -0.114  1.00  0.00     0.080 A 
HETATM   15  C3  UNL     1       8.376  56.647  -0.578  1.00  0.00     0.038 A 
HETATM   16  C4  UNL     1       8.123  58.014  -0.552  1.00  0.00     0.015 A 
HETATM   17  C5  UNL     1       6.932  58.500  -0.058  1.00  0.00    -0.023 A 
HETATM   18  C6  UNL     1       6.647  59.854  -0.018  1.00  0.00     0.048 A 
HETATM   19  C10 UNL     1       6.007  57.587   0.407  1.00  0.00    -0.023 A 
HETATM   20  C7  UNL     1       5.464  60.352   0.473  1.00  0.00     0.066 A 
HETATM   21  C8  UNL     1       4.541  59.435   0.938  1.00  0.00     0.037 A 
HETATM   22  C9  UNL     1       4.813  58.083   0.902  1.00  0.00     0.015 A 
HETATM   23  C11 UNL     1       6.266  56.222   0.380  1.00  0.00     0.049 A 
BRANCH  20  24
HETATM   24  O3  UNL     1       5.210  61.714   0.498  1.00  0.00    -0.361 OA
ATOM     25  H3  UNL     1       4.323  62.053   0.457  1.00  0.00     0.217 HD
ENDBRANCH  20  24
ENDBRANCH   1  14
TORSDOF 5
ENDMDL
MODEL 4
REMARK VINA RESULT: -9.080438336      1.018      2.219
REMARK  5 active torsions:
REMARK  status: ('A' for Active; 'I' for Inactive)
REMARK    1  A    between atoms: C1_2  and  O2_3 
REMARK    2  A    between atoms: C1_2  and  C12_16 
REMARK    3  A    between atoms: O2_3  and  C2_4 
REMARK    4  A    between atoms: C7_9  and  O3_10 
REMARK    5  A    between atoms: C16_20  and  O4_21 
ROOT
HETATM    1  O2  UNL     1       7.018  55.026  -0.608  1.00  0.00    -0.275 OA
ENDROOT
BRANCH   1   2
HETATM    2  C1  UNL     1       7.598  56.250  -0.378  1.00  0.00     0.298 C 
HETATM    3  O1  UNL     1       8.837  56.339  -0.505  1.00  0.00    -0.259 OA
BRANCH   2   4
HETATM    4  C12 UNL     1       6.737  57.355  -0.003  1.00  0.00     0.043 A 
HETATM    5  C13 UNL     1       5.534  57.044   0.597  1.00  0.00     0.018 A 
HETATM    6  C14 UNL     1       4.506  57.844   1.053  1.00  0.00     0.004 A 
HETATM    7  C15 UNL     1       4.438  59.236   1.026  1.00  0.00     0.040 A 
HETATM    8  C16 UNL     1       5.384  60.137   0.544  1.00  0.00     0.115 A 
HETATM    9  C17 UNL     1       6.600  59.867  -0.030  1.00  0.00     0.205 A 
HETATM   10  O5  UNL     1       7.280  60.876  -0.385  1.00  0.00    -0.285 OA
HETATM   11  C18 UNL     1       7.181  58.628  -0.270  1.00  0.00     0.075 A 
BRANCH   8  12
HETATM   12  O4  UNL     1       5.076  61.490   0.647  1.00  0.00    -0.357 OA
ATOM     13  H4  UNL     1       5.132  61.881   1.512  1.00  0.00     0.218 HD
ENDBRANCH   8  12
ENDBRANCH   2   4
ENDBRANCH   1   2
BRANCH   1  14
HETATM   14  C2  UNL     1       7.035  53.989   0.314  1.00  0.00     0.080 A 
HETATM   15  C3  UNL     1       8.249  53.502   0.755  1.00  0.00     0.038 A 
HETATM   16  C4  UNL     1       8.330  52.464   1.677  1.00  0.00     0.015 A 
HETATM   17  C5  UNL     1       7.189  51.882   2.184  1.00  0.00    -0.023 A 
HETATM   18  C6  UNL     1       7.233  50.848   3.103  1.00  0.00     0.048 A 
HETATM   19  C10 UNL     1       5.971  52.365   1.747  1.00  0.00    -0.023 A 
HETATM   20  C7  UNL     1       6.103  50.259   3.617  1.00  0.00     0.066 A 
HETATM   21  C8  UNL     1       4.886  50.745   3.176  1.00  0.00     0.037 A 
HETATM   22  C9  UNL     1       4.829  51.775   2.262  1.00  0.00     0.015 A 
HETATM   23  C11 UNL     1       5.897  53.402   0.826  1.00  0.00     0.049 A 
BRANCH  20  24
HETATM   24  O3  UNL     1       6.182  49.225   4.536  1.00  0.00    -0.361 OA
ATOM     25  H3  UNL     1       6.786  49.259   5.268  1.00  0.00     0.217 HD
ENDBRANCH  20  24
ENDBRANCH   1  14
TORSDOF 5
ENDMDL
MODEL 5
REMARK VINA RESULT: -9.071404631      4.595      7.268
REMARK  5 active torsions:
REMARK  status: ('A' for Active; 'I' for Inactive)
REMARK    1  A    between atoms: C1_2  and  O2_3 
REMARK    2  A    between atoms: C1_2  and  C12_16 
REMARK    3  A    between atoms: O2_3  and  C2_4 
REMARK    4  A    between atoms: C7_9  and  O3_10 
REMARK    5  A    between atoms: C16_20  and  O4_21 
ROOT
HETATM    1  O2  UNL     1       9.093  57.206  -1.583  1.00  0.00    -0.275 OA
ENDROOT
BRANCH   1   2
HETATM    2  C1  UNL     1      10.420  57.479  -1.355  1.00  0.00     0.298 C 
HETATM    3  O1  UNL     1      10.825  57.451  -0.175  1.00  0.00    -0.259 OA
BRANCH   2   4
HETATM    4  C12 UNL     1      11.261  57.784  -2.498  1.00  0.00     0.043 A 
HETATM    5  C13 UNL     1      12.061  56.770  -2.982  1.00  0.00     0.018 A 
HETATM    6  C14 UNL     1      12.965  56.737  -4.024  1.00  0.00     0.004 A 
HETATM    7  C15 UNL     1      13.295  57.776  -4.893  1.00  0.00     0.040 A 
HETATM    8  C16 UNL     1      12.792  59.074  -4.918  1.00  0.00     0.115 A 
HETATM    9  C17 UNL     1      11.862  59.641  -4.085  1.00  0.00     0.205 A 
HETATM   10  O5  UNL     1      11.571  60.851  -4.323  1.00  0.00    -0.285 OA
HETATM   11  C18 UNL     1      11.198  59.057  -3.013  1.00  0.00     0.075 A 
BRANCH   8  12
HETATM   12  O4  UNL     1      13.283  59.922  -5.906  1.00  0.00    -0.357 OA
ATOM     13  H4  UNL     1      12.644  60.338  -6.474  1.00  0.00     0.218 HD
ENDBRANCH   8  12
ENDBRANCH   2   4
ENDBRANCH   1   2
BRANCH   1  14
HETATM   14  C2  UNL     1       8.056  57.926  -1.006  1.00  0.00     0.080 A 
HETATM   15  C3  UNL     1       8.059  59.303  -1.105  1.00  0.00     0.038 A 
HETATM   16  C4  UNL     1       7.048  60.079  -0.547  1.00  0.00     0.015 A 
HETATM   17  C5  UNL     1       6.001  59.490   0.127  1.00  0.00    -0.023 A 
HETATM   18  C6  UNL     1       4.978  60.231   0.694  1.00  0.00     0.048 A 
HETATM   19  C10 UNL     1       5.991  58.113   0.229  1.00  0.00    -0.023 A 
HETATM   20  C7  UNL     1       3.928  59.658   1.369  1.00  0.00     0.066 A 
HETATM   21  C8  UNL     1       3.923  58.279   1.469  1.00  0.00     0.037 A 
HETATM   22  C9  UNL     1       4.935  57.530   0.908  1.00  0.00     0.015 A 
HETATM   23  C11 UNL     1       7.005  57.344  -0.330  1.00  0.00     0.049 A 
BRANCH  20  24
HETATM   24  O3  UNL     1       2.919  60.429   1.925  1.00  0.00    -0.361 OA
ATOM     25  H3  UNL     1       3.090  61.302   2.258  1.00  0.00     0.217 HD
ENDBRANCH  20  24
ENDBRANCH   1  14
TORSDOF 5
ENDMDL
