MODEL 1
REMARK VINA RESULT: -8.332030473      0.000      0.000
REMARK  6 active torsions:
REMARK  status: ('A' for Active; 'I' for Inactive)
REMARK    1  A    between atoms: C5_5  and  N1_6 
REMARK    2  A    between atoms: N1_6  and  C6_8 
REMARK    3  A    between atoms: C6_8  and  N2_10 
REMARK    4  A    between atoms: N2_10  and  N3_12 
REMARK    5  A    between atoms: C7_14  and  C8_15 
REMARK    6  A    between atoms: C11_18  and  C12_19 
ROOT
HETATM    1  N2  UNL     1      10.060  55.250  -0.654  1.00  0.00    -0.276 N 
ATOM      2  H2  UNL     1       9.704  54.648  -1.396  1.00  0.00     0.189 HD
ENDROOT
BRANCH   1   3
HETATM    3  C6  UNL     1       9.883  54.829   0.678  1.00  0.00     0.191 C 
HETATM    4  S1  UNL     1      11.063  53.831   1.288  1.00  0.00    -0.039 SA
BRANCH   3   5
HETATM    5  N1  UNL     1       8.830  55.172   1.498  1.00  0.00    -0.332 N 
ATOM      6  H1  UNL     1       8.936  55.999   2.085  1.00  0.00     0.168 HD
BRANCH   5   7
HETATM    7  C5  UNL     1       7.609  54.456   1.582  1.00  0.00     0.034 A 
HETATM    8  C4  UNL     1       6.911  54.204   2.734  1.00  0.00     0.030 A 
HETATM    9  C3  UNL     1       5.737  53.465   2.725  1.00  0.00     0.009 A 
HETATM   10  C2  UNL     1       5.207  52.943   1.567  1.00  0.00    -0.062 A 
HETATM   11  C1  UNL     1       3.936  52.142   1.591  1.00  0.00     0.048 C 
HETATM   12  C17 UNL     1       5.899  53.193   0.408  1.00  0.00     0.009 A 
HETATM   13  C16 UNL     1       7.061  53.921   0.401  1.00  0.00     0.030 A 
ENDBRANCH   5   7
ENDBRANCH   3   5
ENDBRANCH   1   3
BRANCH   1  14
HETATM   14  N3  UNL     1      10.681  56.417  -1.021  1.00  0.00    -0.307 N 
HETATM   15  C7  UNL     1      10.333  57.601  -1.133  1.00  0.00     0.144 C 
ATOM     16  H3  UNL     1      11.663  56.277  -1.257  1.00  0.00     0.186 HD
BRANCH  15  17
HETATM   17  C8  UNL     1       9.025  58.206  -0.891  1.00  0.00     0.093 A 
HETATM   18  C9  UNL     1       8.636  59.441  -1.327  1.00  0.00     0.041 A 
HETATM   19  C10 UNL     1       7.341  59.589  -0.869  1.00  0.00     0.043 A 
HETATM   20  C11 UNL     1       6.990  58.437  -0.169  1.00  0.00     0.110 A 
HETATM   21  O2  UNL     1       8.022  57.643  -0.209  1.00  0.00    -0.307 OA
BRANCH  20  22
HETATM   22  C12 UNL     1       5.699  58.207   0.469  1.00  0.00     0.108 A 
HETATM   23  C13 UNL     1       5.183  56.975   0.805  1.00  0.00     0.042 A 
HETATM   24  C14 UNL     1       3.931  57.205   1.392  1.00  0.00     0.027 A 
HETATM   25  C15 UNL     1       3.779  58.579   1.368  1.00  0.00     0.142 A 
HETATM   26  O1  UNL     1       4.851  59.135   0.811  1.00  0.00    -0.320 OA
ENDBRANCH  20  22
ENDBRANCH  15  17
ENDBRANCH   1  14
TORSDOF 6
ENDMDL
MODEL 2
REMARK VINA RESULT: -7.895526424      3.051      6.616
REMARK  6 active torsions:
REMARK  status: ('A' for Active; 'I' for Inactive)
REMARK    1  A    between atoms: C5_5  and  N1_6 
REMARK    2  A    between atoms: N1_6  and  C6_8 
REMARK    3  A    between atoms: C6_8  and  N2_10 
REMARK    4  A    between atoms: N2_10  and  N3_12 
REMARK    5  A    between atoms: C7_14  and  C8_15 
REMARK    6  A    between atoms: C11_18  and  C12_19 
ROOT
HETATM    1  N2  UNL     1       8.686  54.324   1.919  1.00  0.00    -0.276 N 
ATOM      2  H2  UNL     1       9.290  53.636   2.366  1.00  0.00     0.189 HD
ENDROOT
BRANCH   1   3
HETATM    3  C6  UNL     1       8.993  54.711   0.600  1.00  0.00     0.191 C 
HETATM    4  S1  UNL     1      10.586  54.564   0.152  1.00  0.00    -0.039 SA
BRANCH   3   5
HETATM    5  N1  UNL     1       8.095  55.193  -0.328  1.00  0.00    -0.332 N 
ATOM      6  H1  UNL     1       7.754  54.545  -1.038  1.00  0.00     0.168 HD
BRANCH   5   7
HETATM    7  C5  UNL     1       7.612  56.525  -0.364  1.00  0.00     0.034 A 
HETATM    8  C4  UNL     1       8.366  57.640  -0.626  1.00  0.00     0.030 A 
HETATM    9  C3  UNL     1       7.812  58.911  -0.608  1.00  0.00     0.009 A 
HETATM   10  C2  UNL     1       6.482  59.129  -0.329  1.00  0.00    -0.062 A 
HETATM   11  C1  UNL     1       5.914  60.520  -0.313  1.00  0.00     0.048 C 
HETATM   12  C17 UNL     1       5.719  58.018  -0.068  1.00  0.00     0.009 A 
HETATM   13  C16 UNL     1       6.253  56.755  -0.081  1.00  0.00     0.030 A 
ENDBRANCH   5   7
ENDBRANCH   3   5
ENDBRANCH   1   3
BRANCH   1  14
HETATM   14  N3  UNL     1       7.626  54.811   2.642  1.00  0.00    -0.307 N 
HETATM   15  C7  UNL     1       6.453  54.460   2.830  1.00  0.00     0.144 C 
ATOM     16  H3  UNL     1       7.860  55.668   3.144  1.00  0.00     0.186 HD
BRANCH  15  17
HETATM   17  C8  UNL     1       5.739  53.302   2.296  1.00  0.00     0.093 A 
HETATM   18  C9  UNL     1       5.530  53.050   0.969  1.00  0.00     0.041 A 
HETATM   19  C10 UNL     1       4.821  51.864   0.940  1.00  0.00     0.043 A 
HETATM   20  C11 UNL     1       4.624  51.440   2.251  1.00  0.00     0.110 A 
HETATM   21  O2  UNL     1       5.187  52.325   3.023  1.00  0.00    -0.307 OA
BRANCH  20  22
HETATM   22  C12 UNL     1       3.916  50.225   2.639  1.00  0.00     0.108 A 
HETATM   23  C13 UNL     1       4.471  48.966   2.712  1.00  0.00     0.042 A 
HETATM   24  C14 UNL     1       3.451  48.095   3.120  1.00  0.00     0.027 A 
HETATM   25  C15 UNL     1       2.338  48.902   3.267  1.00  0.00     0.142 A 
HETATM   26  O1  UNL     1       2.658  50.159   2.972  1.00  0.00    -0.320 OA
ENDBRANCH  20  22
ENDBRANCH  15  17
ENDBRANCH   1  14
TORSDOF 6
ENDMDL
MODEL 3
REMARK VINA RESULT: -7.741412126      2.622      5.415
REMARK  6 active torsions:
REMARK  status: ('A' for Active; 'I' for Inactive)
REMARK    1  A    between atoms: C5_5  and  N1_6 
REMARK    2  A    between atoms: N1_6  and  C6_8 
REMARK    3  A    between atoms: C6_8  and  N2_10 
REMARK    4  A    between atoms: N2_10  and  N3_12 
REMARK    5  A    between atoms: C7_14  and  C8_15 
REMARK    6  A    between atoms: C11_18  and  C12_19 
ROOT
HETATM    1  N2  UNL     1      10.388  55.651   1.063  1.00  0.00    -0.276 N 
ATOM      2  H2  UNL     1      10.217  56.156   1.932  1.00  0.00     0.189 HD
ENDROOT
BRANCH   1   3
HETATM    3  C6  UNL     1       9.681  56.059  -0.085  1.00  0.00     0.191 C 
HETATM    4  S1  UNL     1      10.517  57.021  -1.150  1.00  0.00    -0.039 SA
BRANCH   3   5
HETATM    5  N1  UNL     1       8.377  55.728  -0.387  1.00  0.00    -0.332 N 
ATOM      6  H1  UNL     1       8.217  54.885  -0.939  1.00  0.00     0.168 HD
BRANCH   5   7
HETATM    7  C5  UNL     1       7.243  56.478   0.015  1.00  0.00     0.034 A 
HETATM    8  C4  UNL     1       6.935  57.745  -0.407  1.00  0.00     0.030 A 
HETATM    9  C3  UNL     1       5.817  58.416   0.067  1.00  0.00     0.009 A 
HETATM   10  C2  UNL     1       4.956  57.854   0.981  1.00  0.00    -0.062 A 
HETATM   11  C1  UNL     1       3.757  58.609   1.478  1.00  0.00     0.048 C 
HETATM   12  C17 UNL     1       5.256  56.584   1.408  1.00  0.00     0.009 A 
HETATM   13  C16 UNL     1       6.358  55.908   0.949  1.00  0.00     0.030 A 
ENDBRANCH   5   7
ENDBRANCH   3   5
ENDBRANCH   1   3
BRANCH   1  14
HETATM   14  N3  UNL     1      11.292  54.620   1.089  1.00  0.00    -0.307 N 
HETATM   15  C7  UNL     1      11.222  53.390   1.221  1.00  0.00     0.144 C 
ATOM     16  H3  UNL     1      12.253  54.943   0.972  1.00  0.00     0.186 HD
BRANCH  15  17
HETATM   17  C8  UNL     1      10.042  52.549   1.410  1.00  0.00     0.093 A 
HETATM   18  C9  UNL     1      10.063  51.238   1.794  1.00  0.00     0.041 A 
HETATM   19  C10 UNL     1       8.735  50.858   1.840  1.00  0.00     0.043 A 
HETATM   20  C11 UNL     1       7.955  51.954   1.482  1.00  0.00     0.110 A 
HETATM   21  O2  UNL     1       8.774  52.937   1.235  1.00  0.00    -0.307 OA
BRANCH  20  22
HETATM   22  C12 UNL     1       6.498  51.955   1.411  1.00  0.00     0.108 A 
HETATM   23  C13 UNL     1       5.659  52.665   2.242  1.00  0.00     0.042 A 
HETATM   24  C14 UNL     1       4.348  52.384   1.833  1.00  0.00     0.027 A 
HETATM   25  C15 UNL     1       4.492  51.513   0.768  1.00  0.00     0.142 A 
HETATM   26  O1  UNL     1       5.784  51.286   0.552  1.00  0.00    -0.320 OA
ENDBRANCH  20  22
ENDBRANCH  15  17
ENDBRANCH   1  14
TORSDOF 6
ENDMDL
MODEL 4
REMARK VINA RESULT: -7.739347116      1.342      2.099
REMARK  6 active torsions:
REMARK  status: ('A' for Active; 'I' for Inactive)
REMARK    1  A    between atoms: C5_5  and  N1_6 
REMARK    2  A    between atoms: N1_6  and  C6_8 
REMARK    3  A    between atoms: C6_8  and  N2_10 
REMARK    4  A    between atoms: N2_10  and  N3_12 
REMARK    5  A    between atoms: C7_14  and  C8_15 
REMARK    6  A    between atoms: C11_18  and  C12_19 
ROOT
HETATM    1  N2  UNL     1       9.702  54.986  -0.305  1.00  0.00    -0.276 N 
ATOM      2  H2  UNL     1       8.755  55.019  -0.679  1.00  0.00     0.189 HD
ENDROOT
BRANCH   1   3
HETATM    3  C6  UNL     1       9.910  54.282   0.897  1.00  0.00     0.191 C 
HETATM    4  S1  UNL     1      11.366  53.492   1.034  1.00  0.00    -0.039 SA
BRANCH   3   5
HETATM    5  N1  UNL     1       9.020  54.199   1.946  1.00  0.00    -0.332 N 
ATOM      6  H1  UNL     1       9.354  53.791   2.820  1.00  0.00     0.168 HD
BRANCH   5   7
HETATM    7  C5  UNL     1       7.674  54.640   1.896  1.00  0.00     0.034 A 
HETATM    8  C4  UNL     1       6.661  54.030   1.203  1.00  0.00     0.030 A 
HETATM    9  C3  UNL     1       5.376  54.553   1.185  1.00  0.00     0.009 A 
HETATM   10  C2  UNL     1       5.044  55.707   1.857  1.00  0.00    -0.062 A 
HETATM   11  C1  UNL     1       3.644  56.250   1.813  1.00  0.00     0.048 C 
HETATM   12  C17 UNL     1       6.052  56.323   2.555  1.00  0.00     0.009 A 
HETATM   13  C16 UNL     1       7.327  55.819   2.582  1.00  0.00     0.030 A 
ENDBRANCH   5   7
ENDBRANCH   3   5
ENDBRANCH   1   3
BRANCH   1  14
HETATM   14  N3  UNL     1      10.691  55.631  -1.005  1.00  0.00    -0.307 N 
HETATM   15  C7  UNL     1      10.831  56.761  -1.492  1.00  0.00     0.144 C 
ATOM     16  H3  UNL     1      11.505  55.037  -1.161  1.00  0.00     0.186 HD
BRANCH  15  17
HETATM   17  C8  UNL     1       9.903  57.891  -1.484  1.00  0.00     0.093 A 
HETATM   18  C9  UNL     1      10.052  59.036  -2.213  1.00  0.00     0.041 A 
HETATM   19  C10 UNL     1       8.952  59.809  -1.890  1.00  0.00     0.043 A 
HETATM   20  C11 UNL     1       8.175  59.103  -0.976  1.00  0.00     0.110 A 
HETATM   21  O2  UNL     1       8.778  57.968  -0.764  1.00  0.00    -0.307 OA
BRANCH  20  22
HETATM   22  C12 UNL     1       6.927  59.583  -0.394  1.00  0.00     0.108 A 
HETATM   23  C13 UNL     1       5.896  58.786   0.054  1.00  0.00     0.042 A 
HETATM   24  C14 UNL     1       4.897  59.645   0.532  1.00  0.00     0.027 A 
HETATM   25  C15 UNL     1       5.403  60.916   0.337  1.00  0.00     0.142 A 
HETATM   26  O1  UNL     1       6.610  60.834  -0.215  1.00  0.00    -0.320 OA
ENDBRANCH  20  22
ENDBRANCH  15  17
ENDBRANCH   1  14
TORSDOF 6
ENDMDL
MODEL 5
REMARK VINA RESULT: -7.706472349      2.629      4.698
REMARK  6 active torsions:
REMARK  status: ('A' for Active; 'I' for Inactive)
REMARK    1  A    between atoms: C5_5  and  N1_6 
REMARK    2  A    between atoms: N1_6  and  C6_8 
REMARK    3  A    between atoms: C6_8  and  N2_10 
REMARK    4  A    between atoms: N2_10  and  N3_12 
REMARK    5  A    between atoms: C7_14  and  C8_15 
REMARK    6  A    between atoms: C11_18  and  C12_19 
ROOT
HETATM    1  N2  UNL     1       5.351  55.012   3.029  1.00  0.00    -0.276 N 
ATOM      2  H2  UNL     1       5.730  55.569   3.794  1.00  0.00     0.189 HD
ENDROOT
BRANCH   1   3
HETATM    3  C6  UNL     1       6.105  53.911   2.580  1.00  0.00     0.191 C 
HETATM    4  S1  UNL     1       7.186  54.221   1.357  1.00  0.00    -0.039 SA
BRANCH   3   5
HETATM    5  N1  UNL     1       6.018  52.624   3.065  1.00  0.00    -0.332 N 
ATOM      6  H1  UNL     1       6.705  52.331   3.760  1.00  0.00     0.168 HD
BRANCH   5   7
HETATM    7  C5  UNL     1       5.040  51.677   2.665  1.00  0.00     0.034 A 
HETATM    8  C4  UNL     1       4.219  51.792   1.574  1.00  0.00     0.030 A 
HETATM    9  C3  UNL     1       3.267  50.828   1.278  1.00  0.00     0.009 A 
HETATM   10  C2  UNL     1       3.090  49.707   2.056  1.00  0.00    -0.062 A 
HETATM   11  C1  UNL     1       2.045  48.684   1.710  1.00  0.00     0.048 C 
HETATM   12  C17 UNL     1       3.909  49.584   3.151  1.00  0.00     0.009 A 
HETATM   13  C16 UNL     1       4.855  50.528   3.456  1.00  0.00     0.030 A 
ENDBRANCH   5   7
ENDBRANCH   3   5
ENDBRANCH   1   3
BRANCH   1  14
HETATM   14  N3  UNL     1       4.139  55.386   2.505  1.00  0.00    -0.307 N 
HETATM   15  C7  UNL     1       3.743  56.297   1.765  1.00  0.00     0.144 C 
ATOM     16  H3  UNL     1       3.383  54.765   2.793  1.00  0.00     0.186 HD
BRANCH  15  17
HETATM   17  C8  UNL     1       4.506  57.381   1.146  1.00  0.00     0.093 A 
HETATM   18  C9  UNL     1       4.107  58.686   1.081  1.00  0.00     0.041 A 
HETATM   19  C10 UNL     1       5.129  59.337   0.416  1.00  0.00     0.043 A 
HETATM   20  C11 UNL     1       6.112  58.401   0.101  1.00  0.00     0.110 A 
HETATM   21  O2  UNL     1       5.698  57.253   0.555  1.00  0.00    -0.307 OA
BRANCH  20  22
HETATM   22  C12 UNL     1       7.353  58.699  -0.604  1.00  0.00     0.108 A 
HETATM   23  C13 UNL     1       7.733  59.942  -1.060  1.00  0.00     0.042 A 
HETATM   24  C14 UNL     1       8.983  59.785  -1.675  1.00  0.00     0.027 A 
HETATM   25  C15 UNL     1       9.272  58.439  -1.543  1.00  0.00     0.142 A 
HETATM   26  O1  UNL     1       8.278  57.832  -0.901  1.00  0.00    -0.320 OA
ENDBRANCH  20  22
ENDBRANCH  15  17
ENDBRANCH   1  14
TORSDOF 6
ENDMDL
