MODEL 1
REMARK VINA RESULT: -8.221119968      0.000      0.000
REMARK  9 active torsions:
REMARK  status: ('A' for Active; 'I' for Inactive)
REMARK    1  A    between atoms: N1_2  and  C3_4 
REMARK    2  A    between atoms: C8_9  and  N2_10 
REMARK       I    between atoms: N2_10  and  C9_12 
REMARK       I    between atoms: C9_12  and  N3_14 
REMARK    3  A    between atoms: N3_14  and  C10_16 
REMARK    4  A    between atoms: C10_16  and  O2_17 
REMARK    5  A    between atoms: C10_16  and  O3_19 
REMARK    6  A    between atoms: O3_19  and  C11_20 
REMARK    7  A    between atoms: C14_23  and  N4_24 
REMARK    8  A    between atoms: N4_24  and  N5_26 
REMARK    9  A    between atoms: N5_26  and  N6_27 
ROOT
HETATM    1  C10 UNL     1      10.571  54.208   1.120  1.00  0.00     0.271 C 
ENDROOT
BRANCH   1   2
HETATM    2  N3  UNL     1      10.562  55.612   0.959  1.00  0.00    -0.268 N 
HETATM    3  C9  UNL     1       9.460  56.473   0.815  1.00  0.00     0.328 C 
HETATM    4  N2  UNL     1       8.128  56.042   0.793  1.00  0.00    -0.306 N 
HETATM    5  O1  UNL     1       9.753  57.715   0.701  1.00  0.00    -0.247 OA
ATOM      6  H2  UNL     1       7.962  55.039   0.877  1.00  0.00     0.170 HD
ATOM      7  H3  UNL     1      11.478  56.060   0.946  1.00  0.00     0.174 HD
BRANCH   4   8
HETATM    8  C8  UNL     1       6.991  56.876   0.664  1.00  0.00     0.062 A 
HETATM    9  C3  UNL     1       6.034  56.800   1.679  1.00  0.00     0.056 A 
HETATM   10  C4  UNL     1       4.898  57.584   1.722  1.00  0.00     0.031 A 
HETATM   11  C5  UNL     1       4.684  58.495   0.710  1.00  0.00     0.002 A 
HETATM   12  C6  UNL     1       5.604  58.596  -0.305  1.00  0.00     0.002 A 
HETATM   13  C7  UNL     1       6.751  57.782  -0.319  1.00  0.00     0.032 A 
BRANCH   9  14
HETATM   14  N1  UNL     1       6.201  55.834   2.720  1.00  0.00    -0.388 N 
HETATM   15  C1  UNL     1       6.938  56.213   3.900  1.00  0.00     0.149 C 
HETATM   16  C2  UNL     1       5.621  54.529   2.542  1.00  0.00     0.149 C 
ENDBRANCH   9  14
ENDBRANCH   4   8
ENDBRANCH   1   2
BRANCH   1  17
HETATM   17  O2  UNL     1      11.445  53.678   1.928  1.00  0.00    -0.326 OA
ATOM     18  H2  UNL     1      11.133  53.234   2.708  1.00  0.00     0.221 HD
ENDBRANCH   1  17
BRANCH   1  19
HETATM   19  O3  UNL     1       9.764  53.277   0.529  1.00  0.00    -0.274 OA
BRANCH  19  20
HETATM   20  C11 UNL     1       8.947  52.396   1.217  1.00  0.00     0.080 A 
HETATM   21  C12 UNL     1       9.298  51.768   2.400  1.00  0.00     0.040 A 
HETATM   22  C13 UNL     1       8.435  50.902   3.034  1.00  0.00     0.035 A 
HETATM   23  C14 UNL     1       7.188  50.617   2.527  1.00  0.00     0.062 A 
HETATM   24  C15 UNL     1       6.826  51.240   1.345  1.00  0.00     0.035 A 
HETATM   25  C16 UNL     1       7.700  52.113   0.708  1.00  0.00     0.040 A 
BRANCH  23  26
HETATM   26  N4  UNL     1       6.320  49.728   3.184  1.00  0.00    -0.217 N 
ATOM     27  H4  UNL     1       6.053  48.868   2.705  1.00  0.00     0.203 HD
BRANCH  26  28
HETATM   28  N5  UNL     1       5.871  49.936   4.301  1.00  0.00    -0.243 NA
BRANCH  28  29
HETATM   29  N6  UNL     1       5.073  50.240   5.212  1.00  0.00    -0.260 N 
ATOM     30  H62 UNL     1       4.387  50.699   4.612  1.00  0.00     0.193 HD
ATOM     31  H61 UNL     1       4.663  50.332   6.141  1.00  0.00     0.193 HD
ENDBRANCH  28  29
ENDBRANCH  26  28
ENDBRANCH  23  26
ENDBRANCH  19  20
ENDBRANCH   1  19
TORSDOF 9
ENDMDL
MODEL 2
REMARK VINA RESULT: -8.119878242      0.791      1.008
REMARK  9 active torsions:
REMARK  status: ('A' for Active; 'I' for Inactive)
REMARK    1  A    between atoms: N1_2  and  C3_4 
REMARK    2  A    between atoms: C8_9  and  N2_10 
REMARK       I    between atoms: N2_10  and  C9_12 
REMARK       I    between atoms: C9_12  and  N3_14 
REMARK    3  A    between atoms: N3_14  and  C10_16 
REMARK    4  A    between atoms: C10_16  and  O2_17 
REMARK    5  A    between atoms: C10_16  and  O3_19 
REMARK    6  A    between atoms: O3_19  and  C11_20 
REMARK    7  A    between atoms: C14_23  and  N4_24 
REMARK    8  A    between atoms: N4_24  and  N5_26 
REMARK    9  A    between atoms: N5_26  and  N6_27 
ROOT
HETATM    1  C10 UNL     1      10.348  53.898   0.461  1.00  0.00     0.271 C 
ENDROOT
BRANCH   1   2
HETATM    2  N3  UNL     1      10.493  55.294   0.634  1.00  0.00    -0.268 N 
HETATM    3  C9  UNL     1       9.501  56.288   0.621  1.00  0.00     0.328 C 
HETATM    4  N2  UNL     1       8.140  56.034   0.407  1.00  0.00    -0.306 N 
HETATM    5  O1  UNL     1       9.925  57.481   0.822  1.00  0.00    -0.247 OA
ATOM      6  H2  UNL     1       7.868  55.065   0.241  1.00  0.00     0.170 HD
ATOM      7  H3  UNL     1      11.447  55.622   0.789  1.00  0.00     0.174 HD
BRANCH   4   8
HETATM    8  C8  UNL     1       7.108  57.004   0.400  1.00  0.00     0.062 A 
HETATM    9  C3  UNL     1       6.118  56.880   1.377  1.00  0.00     0.056 A 
HETATM   10  C4  UNL     1       5.076  57.772   1.532  1.00  0.00     0.031 A 
HETATM   11  C5  UNL     1       4.998  58.851   0.678  1.00  0.00     0.002 A 
HETATM   12  C6  UNL     1       5.954  59.005  -0.297  1.00  0.00     0.002 A 
HETATM   13  C7  UNL     1       7.003  58.076  -0.427  1.00  0.00     0.032 A 
BRANCH   9  14
HETATM   14  N1  UNL     1       6.143  55.748   2.251  1.00  0.00    -0.388 N 
HETATM   15  C1  UNL     1       6.895  55.840   3.478  1.00  0.00     0.149 C 
HETATM   16  C2  UNL     1       5.413  54.569   1.865  1.00  0.00     0.149 C 
ENDBRANCH   9  14
ENDBRANCH   4   8
ENDBRANCH   1   2
BRANCH   1  17
HETATM   17  O2  UNL     1       9.928  53.453  -0.689  1.00  0.00    -0.326 OA
ATOM     18  H2  UNL     1      10.090  52.544  -0.911  1.00  0.00     0.221 HD
ENDBRANCH   1  17
BRANCH   1  19
HETATM   19  O3  UNL     1      10.591  52.898   1.359  1.00  0.00    -0.274 OA
BRANCH  19  20
HETATM   20  C11 UNL     1       9.636  52.005   1.817  1.00  0.00     0.080 A 
HETATM   21  C12 UNL     1       9.783  50.628   1.798  1.00  0.00     0.040 A 
HETATM   22  C13 UNL     1       8.792  49.797   2.271  1.00  0.00     0.035 A 
HETATM   23  C14 UNL     1       7.612  50.288   2.782  1.00  0.00     0.062 A 
HETATM   24  C15 UNL     1       7.455  51.664   2.805  1.00  0.00     0.035 A 
HETATM   25  C16 UNL     1       8.457  52.500   2.327  1.00  0.00     0.040 A 
BRANCH  23  26
HETATM   26  N4  UNL     1       6.609  49.427   3.256  1.00  0.00    -0.217 N 
ATOM     27  H4  UNL     1       6.402  48.581   2.724  1.00  0.00     0.203 HD
BRANCH  26  28
HETATM   28  N5  UNL     1       5.972  49.642   4.276  1.00  0.00    -0.243 NA
BRANCH  28  29
HETATM   29  N6  UNL     1       5.179  50.176   5.079  1.00  0.00    -0.260 N 
ATOM     30  H62 UNL     1       5.261  51.122   4.706  1.00  0.00     0.193 HD
ATOM     31  H61 UNL     1       4.518  50.289   5.848  1.00  0.00     0.193 HD
ENDBRANCH  28  29
ENDBRANCH  26  28
ENDBRANCH  23  26
ENDBRANCH  19  20
ENDBRANCH   1  19
TORSDOF 9
ENDMDL
MODEL 3
REMARK VINA RESULT: -8.010693193      0.268      1.188
REMARK  9 active torsions:
REMARK  status: ('A' for Active; 'I' for Inactive)
REMARK    1  A    between atoms: N1_2  and  C3_4 
REMARK    2  A    between atoms: C8_9  and  N2_10 
REMARK       I    between atoms: N2_10  and  C9_12 
REMARK       I    between atoms: C9_12  and  N3_14 
REMARK    3  A    between atoms: N3_14  and  C10_16 
REMARK    4  A    between atoms: C10_16  and  O2_17 
REMARK    5  A    between atoms: C10_16  and  O3_19 
REMARK    6  A    between atoms: O3_19  and  C11_20 
REMARK    7  A    between atoms: C14_23  and  N4_24 
REMARK    8  A    between atoms: N4_24  and  N5_26 
REMARK    9  A    between atoms: N5_26  and  N6_27 
ROOT
HETATM    1  C10 UNL     1      10.571  54.212   1.082  1.00  0.00     0.271 C 
ENDROOT
BRANCH   1   2
HETATM    2  N3  UNL     1      10.552  55.606   0.848  1.00  0.00    -0.268 N 
HETATM    3  C9  UNL     1       9.442  56.459   0.715  1.00  0.00     0.328 C 
HETATM    4  N2  UNL     1       8.111  56.028   0.781  1.00  0.00    -0.306 N 
HETATM    5  O1  UNL     1       9.727  57.694   0.522  1.00  0.00    -0.247 OA
ATOM      6  H2  UNL     1       7.951  55.031   0.925  1.00  0.00     0.170 HD
ATOM      7  H3  UNL     1      11.465  56.053   0.766  1.00  0.00     0.174 HD
BRANCH   4   8
HETATM    8  C8  UNL     1       6.967  56.855   0.665  1.00  0.00     0.062 A 
HETATM    9  C3  UNL     1       6.042  56.802   1.710  1.00  0.00     0.056 A 
HETATM   10  C4  UNL     1       4.904  57.583   1.768  1.00  0.00     0.031 A 
HETATM   11  C5  UNL     1       4.657  58.468   0.740  1.00  0.00     0.002 A 
HETATM   12  C6  UNL     1       5.545  58.546  -0.305  1.00  0.00     0.002 A 
HETATM   13  C7  UNL     1       6.695  57.736  -0.332  1.00  0.00     0.032 A 
BRANCH   9  14
HETATM   14  N1  UNL     1       6.244  55.863   2.770  1.00  0.00    -0.388 N 
HETATM   15  C1  UNL     1       5.657  54.552   2.650  1.00  0.00     0.149 C 
HETATM   16  C2  UNL     1       7.026  56.272   3.907  1.00  0.00     0.149 C 
ENDBRANCH   9  14
ENDBRANCH   4   8
ENDBRANCH   1   2
BRANCH   1  17
HETATM   17  O2  UNL     1      11.309  53.753   2.052  1.00  0.00    -0.326 OA
ATOM     18  H2  UNL     1      11.206  54.129   2.918  1.00  0.00     0.221 HD
ENDBRANCH   1  17
BRANCH   1  19
HETATM   19  O3  UNL     1       9.903  53.226   0.412  1.00  0.00    -0.274 OA
BRANCH  19  20
HETATM   20  C11 UNL     1       9.013  52.343   0.999  1.00  0.00     0.080 A 
HETATM   21  C12 UNL     1       7.647  52.343   0.769  1.00  0.00     0.040 A 
HETATM   22  C13 UNL     1       6.818  51.434   1.387  1.00  0.00     0.035 A 
HETATM   23  C14 UNL     1       7.300  50.486   2.261  1.00  0.00     0.062 A 
HETATM   24  C15 UNL     1       8.664  50.477   2.498  1.00  0.00     0.035 A 
HETATM   25  C16 UNL     1       9.498  51.396   1.872  1.00  0.00     0.040 A 
BRANCH  23  26
HETATM   26  N4  UNL     1       6.440  49.568   2.887  1.00  0.00    -0.217 N 
ATOM     27  H4  UNL     1       6.173  48.726   2.377  1.00  0.00     0.203 HD
BRANCH  26  28
HETATM   28  N5  UNL     1       5.996  49.731   4.014  1.00  0.00    -0.243 NA
BRANCH  28  29
HETATM   29  N6  UNL     1       5.273  50.134   4.948  1.00  0.00    -0.260 N 
ATOM     30  H62 UNL     1       4.417  50.218   4.399  1.00  0.00     0.193 HD
ATOM     31  H61 UNL     1       4.979  50.429   5.879  1.00  0.00     0.193 HD
ENDBRANCH  28  29
ENDBRANCH  26  28
ENDBRANCH  23  26
ENDBRANCH  19  20
ENDBRANCH   1  19
TORSDOF 9
ENDMDL
MODEL 4
REMARK VINA RESULT: -8.001995942      1.865      2.408
REMARK  9 active torsions:
REMARK  status: ('A' for Active; 'I' for Inactive)
REMARK    1  A    between atoms: N1_2  and  C3_4 
REMARK    2  A    between atoms: C8_9  and  N2_10 
REMARK       I    between atoms: N2_10  and  C9_12 
REMARK       I    between atoms: C9_12  and  N3_14 
REMARK    3  A    between atoms: N3_14  and  C10_16 
REMARK    4  A    between atoms: C10_16  and  O2_17 
REMARK    5  A    between atoms: C10_16  and  O3_19 
REMARK    6  A    between atoms: O3_19  and  C11_20 
REMARK    7  A    between atoms: C14_23  and  N4_24 
REMARK    8  A    between atoms: N4_24  and  N5_26 
REMARK    9  A    between atoms: N5_26  and  N6_27 
ROOT
HETATM    1  C10 UNL     1       9.077  53.774   1.322  1.00  0.00     0.271 C 
ENDROOT
BRANCH   1   2
HETATM    2  N3  UNL     1       9.734  55.020   1.204  1.00  0.00    -0.268 N 
HETATM    3  C9  UNL     1       9.195  56.265   0.833  1.00  0.00     0.328 C 
HETATM    4  N2  UNL     1       7.852  56.466   0.491  1.00  0.00    -0.306 N 
HETATM    5  O1  UNL     1      10.030  57.237   0.826  1.00  0.00    -0.247 OA
ATOM      6  H2  UNL     1       7.241  55.649   0.505  1.00  0.00     0.170 HD
ATOM      7  H3  UNL     1      10.731  55.016   1.416  1.00  0.00     0.174 HD
BRANCH   4   8
HETATM    8  C8  UNL     1       7.267  57.703   0.126  1.00  0.00     0.062 A 
HETATM    9  C3  UNL     1       6.078  58.053   0.769  1.00  0.00     0.056 A 
HETATM   10  C4  UNL     1       5.415  59.246   0.559  1.00  0.00     0.031 A 
HETATM   11  C5  UNL     1       5.947  60.150  -0.335  1.00  0.00     0.002 A 
HETATM   12  C6  UNL     1       7.116  59.839  -0.987  1.00  0.00     0.002 A 
HETATM   13  C7  UNL     1       7.766  58.614  -0.750  1.00  0.00     0.032 A 
BRANCH   9  14
HETATM   14  N1  UNL     1       5.474  57.120   1.668  1.00  0.00    -0.388 N 
HETATM   15  C1  UNL     1       4.169  56.597   1.346  1.00  0.00     0.149 C 
HETATM   16  C2  UNL     1       6.198  56.745   2.854  1.00  0.00     0.149 C 
ENDBRANCH   9  14
ENDBRANCH   4   8
ENDBRANCH   1   2
BRANCH   1  17
HETATM   17  O2  UNL     1       9.470  52.948   2.250  1.00  0.00    -0.326 OA
ATOM     18  H2  UNL     1       9.553  52.027   2.034  1.00  0.00     0.221 HD
ENDBRANCH   1  17
BRANCH   1  19
HETATM   19  O3  UNL     1       8.046  53.279   0.575  1.00  0.00    -0.274 OA
BRANCH  19  20
HETATM   20  C11 UNL     1       6.932  52.646   1.098  1.00  0.00     0.080 A 
HETATM   21  C12 UNL     1       6.838  51.280   1.310  1.00  0.00     0.040 A 
HETATM   22  C13 UNL     1       5.698  50.715   1.836  1.00  0.00     0.035 A 
HETATM   23  C14 UNL     1       4.599  51.472   2.173  1.00  0.00     0.062 A 
HETATM   24  C15 UNL     1       4.681  52.838   1.965  1.00  0.00     0.035 A 
HETATM   25  C16 UNL     1       5.834  53.406   1.434  1.00  0.00     0.040 A 
BRANCH  23  26
HETATM   26  N4  UNL     1       3.441  50.879   2.704  1.00  0.00    -0.217 N 
ATOM     27  H4  UNL     1       3.168  51.115   3.658  1.00  0.00     0.203 HD
BRANCH  26  28
HETATM   28  N5  UNL     1       2.745  50.094   2.077  1.00  0.00    -0.243 NA
BRANCH  28  29
HETATM   29  N6  UNL     1       2.337  49.359   1.154  1.00  0.00    -0.260 N 
ATOM     30  H62 UNL     1       2.884  49.795   0.413  1.00  0.00     0.193 HD
ATOM     31  H61 UNL     1       1.827  48.625   0.662  1.00  0.00     0.193 HD
ENDBRANCH  28  29
ENDBRANCH  26  28
ENDBRANCH  23  26
ENDBRANCH  19  20
ENDBRANCH   1  19
TORSDOF 9
ENDMDL
MODEL 5
REMARK VINA RESULT: -7.992849207      2.572      6.655
REMARK  9 active torsions:
REMARK  status: ('A' for Active; 'I' for Inactive)
REMARK    1  A    between atoms: N1_2  and  C3_4 
REMARK    2  A    between atoms: C8_9  and  N2_10 
REMARK       I    between atoms: N2_10  and  C9_12 
REMARK       I    between atoms: C9_12  and  N3_14 
REMARK    3  A    between atoms: N3_14  and  C10_16 
REMARK    4  A    between atoms: C10_16  and  O2_17 
REMARK    5  A    between atoms: C10_16  and  O3_19 
REMARK    6  A    between atoms: O3_19  and  C11_20 
REMARK    7  A    between atoms: C14_23  and  N4_24 
REMARK    8  A    between atoms: N4_24  and  N5_26 
REMARK    9  A    between atoms: N5_26  and  N6_27 
ROOT
HETATM    1  C10 UNL     1       9.964  57.454  -1.351  1.00  0.00     0.271 C 
ENDROOT
BRANCH   1   2
HETATM    2  N3  UNL     1      10.349  56.895  -0.112  1.00  0.00    -0.268 N 
HETATM    3  C9  UNL     1      10.097  55.604   0.386  1.00  0.00     0.328 C 
HETATM    4  N2  UNL     1       9.371  54.627  -0.306  1.00  0.00    -0.306 N 
HETATM    5  O1  UNL     1      10.586  55.365   1.546  1.00  0.00    -0.247 OA
ATOM      6  H2  UNL     1       8.998  54.884  -1.220  1.00  0.00     0.170 HD
ATOM      7  H3  UNL     1      10.881  57.510   0.504  1.00  0.00     0.174 HD
BRANCH   4   8
HETATM    8  C8  UNL     1       9.106  53.313   0.153  1.00  0.00     0.062 A 
HETATM    9  C3  UNL     1       7.841  53.077   0.696  1.00  0.00     0.056 A 
HETATM   10  C4  UNL     1       7.416  51.841   1.140  1.00  0.00     0.031 A 
HETATM   11  C5  UNL     1       8.281  50.772   1.048  1.00  0.00     0.002 A 
HETATM   12  C6  UNL     1       9.534  50.967   0.520  1.00  0.00     0.002 A 
HETATM   13  C7  UNL     1       9.936  52.240   0.077  1.00  0.00     0.032 A 
BRANCH   9  14
HETATM   14  N1  UNL     1       6.935  54.173   0.849  1.00  0.00    -0.388 N 
HETATM   15  C1  UNL     1       6.881  54.851   2.120  1.00  0.00     0.149 C 
HETATM   16  C2  UNL     1       6.120  54.549  -0.277  1.00  0.00     0.149 C 
ENDBRANCH   9  14
ENDBRANCH   4   8
ENDBRANCH   1   2
BRANCH   1  17
HETATM   17  O2  UNL     1      10.272  56.818  -2.445  1.00  0.00    -0.326 OA
ATOM     18  H2  UNL     1      10.985  57.151  -2.978  1.00  0.00     0.221 HD
ENDBRANCH   1  17
BRANCH   1  19
HETATM   19  O3  UNL     1       9.285  58.617  -1.588  1.00  0.00    -0.274 OA
BRANCH  19  20
HETATM   20  C11 UNL     1       8.081  58.957  -0.996  1.00  0.00     0.080 A 
HETATM   21  C12 UNL     1       7.126  58.042  -0.587  1.00  0.00     0.040 A 
HETATM   22  C13 UNL     1       5.948  58.449  -0.003  1.00  0.00     0.035 A 
HETATM   23  C14 UNL     1       5.659  59.780   0.201  1.00  0.00     0.062 A 
HETATM   24  C15 UNL     1       6.607  60.704  -0.204  1.00  0.00     0.035 A 
HETATM   25  C16 UNL     1       7.796  60.289  -0.793  1.00  0.00     0.040 A 
BRANCH  23  26
HETATM   26  N4  UNL     1       4.450  60.180   0.794  1.00  0.00    -0.217 N 
ATOM     27  H4  UNL     1       4.084  61.106   0.573  1.00  0.00     0.203 HD
BRANCH  26  28
HETATM   28  N5  UNL     1       3.817  59.472   1.562  1.00  0.00    -0.243 NA
BRANCH  28  29
HETATM   29  N6  UNL     1       3.538  58.549   2.356  1.00  0.00    -0.260 N 
ATOM     30  H62 UNL     1       2.589  58.391   2.016  1.00  0.00     0.193 HD
ATOM     31  H61 UNL     1       3.631  57.863   3.105  1.00  0.00     0.193 HD
ENDBRANCH  28  29
ENDBRANCH  26  28
ENDBRANCH  23  26
ENDBRANCH  19  20
ENDBRANCH   1  19
TORSDOF 9
ENDMDL
