MODEL 1
REMARK VINA RESULT: -8.808556115      0.000      0.000
REMARK  8 active torsions:
REMARK  status: ('A' for Active; 'I' for Inactive)
REMARK    1  A    between atoms: C3_5  and  N2_6 
REMARK    2  A    between atoms: N2_6  and  N3_8 
REMARK    3  A    between atoms: N3_8  and  C4_10 
REMARK    4  A    between atoms: C4_10  and  N4_12 
REMARK    5  A    between atoms: N4_12  and  N5_14 
REMARK    6  A    between atoms: C5_16  and  C6_17 
REMARK    7  A    between atoms: C6_17  and  N6_18 
REMARK    8  A    between atoms: N7_24  and  O2_25 
ROOT
HETATM    1  N3  UNL     1      18.693 -35.517   5.823  1.00  0.00    -0.261 N 
ATOM      2  H3  UNL     1      19.604 -35.343   5.397  1.00  0.00     0.190 HD
ENDROOT
BRANCH   1   3
HETATM    3  N2  UNL     1      17.895 -36.545   5.284  1.00  0.00    -0.128 N 
ATOM      4  H2  UNL     1      17.442 -37.244   5.874  1.00  0.00     0.205 HD
BRANCH   3   5
HETATM    5  C3  UNL     1      17.770 -36.549   3.990  1.00  0.00     0.726 A 
HETATM    6  N1  UNL     1      18.307 -37.478   3.201  1.00  0.00    -0.190 N 
HETATM    7  C2  UNL     1      18.189 -37.501   1.855  1.00  0.00     0.052 A 
ATOM      8  H1  UNL     1      18.844 -38.223   3.644  1.00  0.00     0.184 HD
HETATM    9  C1  UNL     1      18.806 -38.557   1.010  1.00  0.00     0.071 C 
HETATM   10  C12 UNL     1      17.456 -36.477   1.302  1.00  0.00     0.139 A 
HETATM   11  C11 UNL     1      16.885 -35.498   2.083  1.00  0.00     0.314 A 
HETATM   12  N8  UNL     1      17.276 -36.412  -0.101  1.00  0.00    -0.094 NA
HETATM   13  N7  UNL     1      17.052 -35.550   3.417  1.00  0.00    -0.010 N 
HETATM   14  O3  UNL     1      16.206 -34.549   1.564  1.00  0.00    -0.263 OA
BRANCH  13  15
HETATM   15  O2  UNL     1      16.489 -34.581   4.221  1.00  0.00    -0.266 OA
ATOM     16  H2  UNL     1      15.546 -34.569   4.340  1.00  0.00     0.246 HD
ENDBRANCH  13  15
ENDBRANCH   3   5
ENDBRANCH   1   3
BRANCH   1  17
HETATM   17  C4  UNL     1      18.304 -34.712   6.920  1.00  0.00     0.205 C 
HETATM   18  S1  UNL     1      17.840 -35.418   8.328  1.00  0.00    -0.038 SA
BRANCH  17  19
HETATM   19  N4  UNL     1      18.318 -33.310   6.796  1.00  0.00    -0.276 N 
ATOM     20  H4  UNL     1      18.535 -32.735   7.611  1.00  0.00     0.189 HD
BRANCH  19  21
HETATM   21  N5  UNL     1      18.043 -32.701   5.589  1.00  0.00    -0.312 N 
HETATM   22  C5  UNL     1      18.341 -31.466   5.375  1.00  0.00     0.110 C 
ATOM     23  H5  UNL     1      17.593 -33.241   4.850  1.00  0.00     0.185 HD
BRANCH  22  24
HETATM   24  C6  UNL     1      18.989 -30.583   6.360  1.00  0.00     0.318 C 
BRANCH  24  25
HETATM   25  N6  UNL     1      18.028 -29.637   6.893  1.00  0.00     0.097 N 
HETATM   26  C7  UNL     1      16.984 -29.477   5.918  1.00  0.00     0.299 C 
HETATM   27  C8  UNL     1      15.668 -29.058   6.510  1.00  0.00     0.198 C 
HETATM   28  O1  UNL     1      15.321 -29.807   7.628  1.00  0.00    -0.388 OA
HETATM   29  C9  UNL     1      16.271 -29.516   8.609  1.00  0.00     0.198 C 
HETATM   30  C10 UNL     1      17.579 -30.118   8.164  1.00  0.00     0.299 C 
ENDBRANCH  24  25
ENDBRANCH  22  24
ENDBRANCH  19  21
ENDBRANCH  17  19
ENDBRANCH   1  17
TORSDOF 8
ENDMDL
MODEL 2
REMARK VINA RESULT: -8.684739063      1.986      2.475
REMARK  8 active torsions:
REMARK  status: ('A' for Active; 'I' for Inactive)
REMARK    1  A    between atoms: C3_5  and  N2_6 
REMARK    2  A    between atoms: N2_6  and  N3_8 
REMARK    3  A    between atoms: N3_8  and  C4_10 
REMARK    4  A    between atoms: C4_10  and  N4_12 
REMARK    5  A    between atoms: N4_12  and  N5_14 
REMARK    6  A    between atoms: C5_16  and  C6_17 
REMARK    7  A    between atoms: C6_17  and  N6_18 
REMARK    8  A    between atoms: N7_24  and  O2_25 
ROOT
HETATM    1  N3  UNL     1      18.622 -35.335   5.853  1.00  0.00    -0.261 N 
ATOM      2  H3  UNL     1      19.255 -34.834   5.229  1.00  0.00     0.190 HD
ENDROOT
BRANCH   1   3
HETATM    3  N2  UNL     1      17.909 -36.434   5.334  1.00  0.00    -0.128 N 
ATOM      4  H2  UNL     1      17.522 -37.161   5.935  1.00  0.00     0.205 HD
BRANCH   3   5
HETATM    5  C3  UNL     1      17.776 -36.464   4.041  1.00  0.00     0.726 A 
HETATM    6  N1  UNL     1      18.305 -37.410   3.268  1.00  0.00    -0.190 N 
HETATM    7  C2  UNL     1      18.179 -37.461   1.923  1.00  0.00     0.052 A 
ATOM      8  H1  UNL     1      18.845 -38.147   3.722  1.00  0.00     0.184 HD
HETATM    9  C1  UNL     1      18.788 -38.535   1.096  1.00  0.00     0.071 C 
HETATM   10  C12 UNL     1      17.443 -36.448   1.354  1.00  0.00     0.139 A 
HETATM   11  C11 UNL     1      16.879 -35.452   2.118  1.00  0.00     0.314 A 
HETATM   12  N8  UNL     1      17.253 -36.412  -0.049  1.00  0.00    -0.094 NA
HETATM   13  N7  UNL     1      17.055 -35.476   3.452  1.00  0.00    -0.010 N 
HETATM   14  O3  UNL     1      16.198 -34.513   1.585  1.00  0.00    -0.263 OA
BRANCH  13  15
HETATM   15  O2  UNL     1      16.499 -34.490   4.240  1.00  0.00    -0.266 OA
ATOM     16  H2  UNL     1      15.619 -34.608   4.576  1.00  0.00     0.246 HD
ENDBRANCH  13  15
ENDBRANCH   3   5
ENDBRANCH   1   3
BRANCH   1  17
HETATM   17  C4  UNL     1      18.511 -34.887   7.191  1.00  0.00     0.205 C 
HETATM   18  S1  UNL     1      17.418 -35.585   8.199  1.00  0.00    -0.038 SA
BRANCH  17  19
HETATM   19  N4  UNL     1      19.339 -33.845   7.648  1.00  0.00    -0.276 N 
ATOM     20  H4  UNL     1      19.103 -33.358   8.513  1.00  0.00     0.189 HD
BRANCH  19  21
HETATM   21  N5  UNL     1      20.465 -33.471   6.944  1.00  0.00    -0.312 N 
HETATM   22  C5  UNL     1      20.624 -32.265   6.518  1.00  0.00     0.110 C 
ATOM     23  H5  UNL     1      21.188 -34.165   6.756  1.00  0.00     0.185 HD
BRANCH  22  24
HETATM   24  C6  UNL     1      19.654 -31.176   6.724  1.00  0.00     0.318 C 
BRANCH  24  25
HETATM   25  N6  UNL     1      20.167 -30.226   7.693  1.00  0.00     0.097 N 
HETATM   26  C7  UNL     1      21.520 -29.912   7.324  1.00  0.00     0.299 C 
HETATM   27  C8  UNL     1      21.975 -28.561   7.800  1.00  0.00     0.198 C 
HETATM   28  O1  UNL     1      21.046 -27.562   7.540  1.00  0.00    -0.388 OA
HETATM   29  C9  UNL     1      19.919 -27.858   8.309  1.00  0.00     0.198 C 
HETATM   30  C10 UNL     1      19.288 -29.097   7.727  1.00  0.00     0.299 C 
ENDBRANCH  24  25
ENDBRANCH  22  24
ENDBRANCH  19  21
ENDBRANCH  17  19
ENDBRANCH   1  17
TORSDOF 8
ENDMDL
MODEL 3
REMARK VINA RESULT: -8.656331835      1.778      2.270
REMARK  8 active torsions:
REMARK  status: ('A' for Active; 'I' for Inactive)
REMARK    1  A    between atoms: C3_5  and  N2_6 
REMARK    2  A    between atoms: N2_6  and  N3_8 
REMARK    3  A    between atoms: N3_8  and  C4_10 
REMARK    4  A    between atoms: C4_10  and  N4_12 
REMARK    5  A    between atoms: N4_12  and  N5_14 
REMARK    6  A    between atoms: C5_16  and  C6_17 
REMARK    7  A    between atoms: C6_17  and  N6_18 
REMARK    8  A    between atoms: N7_24  and  O2_25 
ROOT
HETATM    1  N3  UNL     1      17.790 -36.350   5.976  1.00  0.00    -0.261 N 
ATOM      2  H3  UNL     1      17.008 -36.997   5.868  1.00  0.00     0.190 HD
ENDROOT
BRANCH   1   3
HETATM    3  N2  UNL     1      18.741 -36.280   4.938  1.00  0.00    -0.128 N 
ATOM      4  H2  UNL     1      19.733 -36.128   5.122  1.00  0.00     0.205 HD
BRANCH   3   5
HETATM    5  C3  UNL     1      18.277 -36.421   3.732  1.00  0.00     0.726 A 
HETATM    6  N1  UNL     1      18.589 -37.444   2.938  1.00  0.00    -0.190 N 
HETATM    7  C2  UNL     1      18.118 -37.611   1.683  1.00  0.00     0.052 A 
ATOM      8  H1  UNL     1      19.228 -38.150   3.303  1.00  0.00     0.184 HD
HETATM    9  C1  UNL     1      18.493 -38.768   0.828  1.00  0.00     0.071 C 
HETATM   10  C12 UNL     1      17.259 -36.636   1.232  1.00  0.00     0.139 A 
HETATM   11  C11 UNL     1      16.911 -35.563   2.022  1.00  0.00     0.314 A 
HETATM   12  N8  UNL     1      16.711 -36.720  -0.071  1.00  0.00    -0.094 NA
HETATM   13  N7  UNL     1      17.427 -35.473   3.262  1.00  0.00    -0.010 N 
HETATM   14  O3  UNL     1      16.114 -34.660   1.599  1.00  0.00    -0.263 OA
BRANCH  13  15
HETATM   15  O2  UNL     1      17.093 -34.409   4.073  1.00  0.00    -0.266 OA
ATOM     16  H2  UNL     1      17.781 -33.836   4.389  1.00  0.00     0.246 HD
ENDBRANCH  13  15
ENDBRANCH   3   5
ENDBRANCH   1   3
BRANCH   1  17
HETATM   17  C4  UNL     1      17.857 -35.575   7.158  1.00  0.00     0.205 C 
HETATM   18  S1  UNL     1      17.407 -36.233   8.594  1.00  0.00    -0.038 SA
BRANCH  17  19
HETATM   19  N4  UNL     1      18.309 -34.243   7.094  1.00  0.00    -0.276 N 
ATOM     20  H4  UNL     1      17.649 -33.499   6.866  1.00  0.00     0.189 HD
BRANCH  19  21
HETATM   21  N5  UNL     1      19.630 -33.930   7.335  1.00  0.00    -0.312 N 
HETATM   22  C5  UNL     1      20.315 -33.218   6.507  1.00  0.00     0.110 C 
ATOM     23  H5  UNL     1      20.075 -34.269   8.188  1.00  0.00     0.185 HD
BRANCH  22  24
HETATM   24  C6  UNL     1      19.788 -32.672   5.246  1.00  0.00     0.318 C 
BRANCH  24  25
HETATM   25  N6  UNL     1      19.871 -31.223   5.254  1.00  0.00     0.097 N 
HETATM   26  C7  UNL     1      18.719 -30.724   5.953  1.00  0.00     0.299 C 
HETATM   27  C8  UNL     1      18.934 -29.374   6.577  1.00  0.00     0.198 C 
HETATM   28  O1  UNL     1      20.130 -29.294   7.279  1.00  0.00    -0.388 OA
HETATM   29  C9  UNL     1      21.152 -29.425   6.337  1.00  0.00     0.198 C 
HETATM   30  C10 UNL     1      21.123 -30.847   5.835  1.00  0.00     0.299 C 
ENDBRANCH  24  25
ENDBRANCH  22  24
ENDBRANCH  19  21
ENDBRANCH  17  19
ENDBRANCH   1  17
TORSDOF 8
ENDMDL
MODEL 4
REMARK VINA RESULT: -8.636746012      2.259      2.795
REMARK  8 active torsions:
REMARK  status: ('A' for Active; 'I' for Inactive)
REMARK    1  A    between atoms: C3_5  and  N2_6 
REMARK    2  A    between atoms: N2_6  and  N3_8 
REMARK    3  A    between atoms: N3_8  and  C4_10 
REMARK    4  A    between atoms: C4_10  and  N4_12 
REMARK    5  A    between atoms: N4_12  and  N5_14 
REMARK    6  A    between atoms: C5_16  and  C6_17 
REMARK    7  A    between atoms: C6_17  and  N6_18 
REMARK    8  A    between atoms: N7_24  and  O2_25 
ROOT
HETATM    1  N3  UNL     1      18.643 -35.529   5.850  1.00  0.00    -0.261 N 
ATOM      2  H3  UNL     1      19.518 -35.266   5.394  1.00  0.00     0.190 HD
ENDROOT
BRANCH   1   3
HETATM    3  N2  UNL     1      17.896 -36.586   5.294  1.00  0.00    -0.128 N 
ATOM      4  H2  UNL     1      17.478 -37.317   5.871  1.00  0.00     0.205 HD
BRANCH   3   5
HETATM    5  C3  UNL     1      17.770 -36.572   4.000  1.00  0.00     0.726 A 
HETATM    6  N1  UNL     1      18.292 -37.500   3.200  1.00  0.00    -0.190 N 
HETATM    7  C2  UNL     1      18.173 -37.506   1.854  1.00  0.00     0.052 A 
ATOM      8  H1  UNL     1      18.818 -38.259   3.633  1.00  0.00     0.184 HD
HETATM    9  C1  UNL     1      18.773 -38.561   0.996  1.00  0.00     0.071 C 
HETATM   10  C12 UNL     1      17.456 -36.465   1.313  1.00  0.00     0.139 A 
HETATM   11  C11 UNL     1      16.900 -35.486   2.106  1.00  0.00     0.314 A 
HETATM   12  N8  UNL     1      17.275 -36.381  -0.089  1.00  0.00    -0.094 NA
HETATM   13  N7  UNL     1      17.066 -35.556   3.439  1.00  0.00    -0.010 N 
HETATM   14  O3  UNL     1      16.235 -34.521   1.599  1.00  0.00    -0.263 OA
BRANCH  13  15
HETATM   15  O2  UNL     1      16.519 -34.588   4.255  1.00  0.00    -0.266 OA
ATOM     16  H2  UNL     1      15.717 -34.780   4.726  1.00  0.00     0.246 HD
ENDBRANCH  13  15
ENDBRANCH   3   5
ENDBRANCH   1   3
BRANCH   1  17
HETATM   17  C4  UNL     1      18.251 -34.811   7.006  1.00  0.00     0.205 C 
HETATM   18  S1  UNL     1      17.832 -35.624   8.370  1.00  0.00    -0.038 SA
BRANCH  17  19
HETATM   19  N4  UNL     1      18.223 -33.404   6.976  1.00  0.00    -0.276 N 
ATOM     20  H4  UNL     1      18.263 -32.883   7.852  1.00  0.00     0.189 HD
BRANCH  19  21
HETATM   21  N5  UNL     1      18.140 -32.721   5.781  1.00  0.00    -0.312 N 
HETATM   22  C5  UNL     1      19.152 -32.085   5.297  1.00  0.00     0.110 C 
ATOM     23  H5  UNL     1      17.259 -32.717   5.269  1.00  0.00     0.185 HD
BRANCH  22  24
HETATM   24  C6  UNL     1      20.474 -32.014   5.941  1.00  0.00     0.318 C 
BRANCH  24  25
HETATM   25  N6  UNL     1      20.533 -30.876   6.840  1.00  0.00     0.097 N 
HETATM   26  C7  UNL     1      21.093 -31.330   8.083  1.00  0.00     0.299 C 
HETATM   27  C8  UNL     1      21.777 -30.244   8.866  1.00  0.00     0.198 C 
HETATM   28  O1  UNL     1      22.628 -29.475   8.081  1.00  0.00    -0.388 OA
HETATM   29  C9  UNL     1      21.820 -28.805   7.160  1.00  0.00     0.198 C 
HETATM   30  C10 UNL     1      21.279 -29.836   6.201  1.00  0.00     0.299 C 
ENDBRANCH  24  25
ENDBRANCH  22  24
ENDBRANCH  19  21
ENDBRANCH  17  19
ENDBRANCH   1  17
TORSDOF 8
ENDMDL
MODEL 5
REMARK VINA RESULT: -8.589101308      1.695      2.172
REMARK  8 active torsions:
REMARK  status: ('A' for Active; 'I' for Inactive)
REMARK    1  A    between atoms: C3_5  and  N2_6 
REMARK    2  A    between atoms: N2_6  and  N3_8 
REMARK    3  A    between atoms: N3_8  and  C4_10 
REMARK    4  A    between atoms: C4_10  and  N4_12 
REMARK    5  A    between atoms: N4_12  and  N5_14 
REMARK    6  A    between atoms: C5_16  and  C6_17 
REMARK    7  A    between atoms: C6_17  and  N6_18 
REMARK    8  A    between atoms: N7_24  and  O2_25 
ROOT
HETATM    1  N3  UNL     1      18.618 -35.481   5.885  1.00  0.00    -0.261 N 
ATOM      2  H3  UNL     1      19.547 -35.320   5.495  1.00  0.00     0.190 HD
ENDROOT
BRANCH   1   3
HETATM    3  N2  UNL     1      17.838 -36.517   5.335  1.00  0.00    -0.128 N 
ATOM      4  H2  UNL     1      17.383 -37.221   5.917  1.00  0.00     0.205 HD
BRANCH   3   5
HETATM    5  C3  UNL     1      17.733 -36.522   4.039  1.00  0.00     0.726 A 
HETATM    6  N1  UNL     1      18.276 -37.455   3.259  1.00  0.00    -0.190 N 
HETATM    7  C2  UNL     1      18.179 -37.479   1.912  1.00  0.00     0.052 A 
ATOM      8  H1  UNL     1      18.802 -38.203   3.711  1.00  0.00     0.184 HD
HETATM    9  C1  UNL     1      18.802 -38.540   1.078  1.00  0.00     0.071 C 
HETATM   10  C12 UNL     1      17.459 -36.453   1.346  1.00  0.00     0.139 A 
HETATM   11  C11 UNL     1      16.882 -35.469   2.117  1.00  0.00     0.314 A 
HETATM   12  N8  UNL     1      17.300 -36.389  -0.059  1.00  0.00    -0.094 NA
HETATM   13  N7  UNL     1      17.028 -35.520   3.454  1.00  0.00    -0.010 N 
HETATM   14  O3  UNL     1      16.216 -34.518   1.587  1.00  0.00    -0.263 OA
BRANCH  13  15
HETATM   15  O2  UNL     1      16.458 -34.547   4.248  1.00  0.00    -0.266 OA
ATOM     16  H2  UNL     1      16.534 -33.637   3.989  1.00  0.00     0.246 HD
ENDBRANCH  13  15
ENDBRANCH   3   5
ENDBRANCH   1   3
BRANCH   1  17
HETATM   17  C4  UNL     1      18.186 -34.650   6.946  1.00  0.00     0.205 C 
HETATM   18  S1  UNL     1      17.974 -35.285   8.447  1.00  0.00    -0.038 SA
BRANCH  17  19
HETATM   19  N4  UNL     1      17.941 -33.285   6.709  1.00  0.00    -0.276 N 
ATOM     20  H4  UNL     1      17.449 -32.733   7.411  1.00  0.00     0.189 HD
BRANCH  19  21
HETATM   21  N5  UNL     1      18.356 -32.682   5.539  1.00  0.00    -0.312 N 
HETATM   22  C5  UNL     1      18.469 -31.402   5.444  1.00  0.00     0.110 C 
ATOM     23  H5  UNL     1      18.578 -33.263   4.731  1.00  0.00     0.185 HD
BRANCH  22  24
HETATM   24  C6  UNL     1      18.178 -30.458   6.537  1.00  0.00     0.318 C 
BRANCH  24  25
HETATM   25  N6  UNL     1      19.407 -30.070   7.203  1.00  0.00     0.097 N 
HETATM   26  C7  UNL     1      20.454 -30.061   6.219  1.00  0.00     0.299 C 
HETATM   27  C8  UNL     1      21.588 -29.134   6.556  1.00  0.00     0.198 C 
HETATM   28  O1  UNL     1      21.150 -27.880   6.963  1.00  0.00    -0.388 OA
HETATM   29  C9  UNL     1      20.466 -28.070   8.166  1.00  0.00     0.198 C 
HETATM   30  C10 UNL     1      19.192 -28.810   7.847  1.00  0.00     0.299 C 
ENDBRANCH  24  25
ENDBRANCH  22  24
ENDBRANCH  19  21
ENDBRANCH  17  19
ENDBRANCH   1  17
TORSDOF 8
ENDMDL
