MODEL 1
REMARK VINA RESULT: -8.367572232      0.000      0.000
REMARK  8 active torsions:
REMARK  status: ('A' for Active; 'I' for Inactive)
REMARK    1  A    between atoms: N1_2  and  N2_3 
REMARK    2  A    between atoms: N1_2  and  C2_6 
REMARK    3  A    between atoms: C2_6  and  C3_7 
REMARK    4  A    between atoms: C5_9  and  C6_10 
REMARK    5  A    between atoms: C6_10  and  O1_11 
REMARK    6  A    between atoms: C6_10  and  C7_13 
REMARK    7  A    between atoms: C8_16  and  O4_17 
REMARK    8  A    between atoms: C12_24  and  N3_25 
ROOT
HETATM    1  C3  UNL     1      17.715 -31.628   7.930  1.00  0.00     0.044 C 
HETATM    2  C4  UNL     1      17.699 -33.130   8.101  1.00  0.00     0.019 C 
HETATM    3  C5  UNL     1      18.845 -33.243   9.113  1.00  0.00     0.057 C 
HETATM    4  C8  UNL     1      19.926 -32.515   8.457  1.00  0.00     0.166 C 
HETATM    5  C9  UNL     1      19.190 -31.386   7.695  1.00  0.00     0.153 C 
HETATM    6  O5  UNL     1      19.527 -31.477   6.366  1.00  0.00    -0.224 OA
HETATM    7  O6  UNL     1      19.753 -30.350   5.767  1.00  0.00    -0.239 OA
HETATM    8  C10 UNL     1      20.826 -29.631   6.262  1.00  0.00     0.219 C 
HETATM    9  C11 UNL     1      20.924 -29.642   7.761  1.00  0.00     0.077 C 
HETATM   10  C12 UNL     1      20.951 -28.204   8.243  1.00  0.00     0.216 C 
HETATM   11  C13 UNL     1      19.479 -27.870   8.256  1.00  0.00     0.201 C 
HETATM   12  O7  UNL     1      18.779 -29.021   8.002  1.00  0.00    -0.380 OA
HETATM   13  C14 UNL     1      19.572 -30.093   8.323  1.00  0.00     0.170 C 
ENDROOT
BRANCH   1  14
HETATM   14  C2  UNL     1      16.804 -31.070   6.921  1.00  0.00     0.120 C 
BRANCH  14  15
HETATM   15  N1  UNL     1      15.594 -30.466   7.362  1.00  0.00    -0.242 NA
HETATM   16  C1  UNL     1      15.443 -29.235   6.547  1.00  0.00     0.135 C 
BRANCH  15  17
HETATM   17  N2  UNL     1      15.829 -29.938   8.666  1.00  0.00    -0.364 NA
ATOM     18  H22 UNL     1      15.122 -29.224   8.840  1.00  0.00     0.171 HD
ATOM     19  H21 UNL     1      15.578 -30.724   9.266  1.00  0.00     0.171 HD
ENDBRANCH  15  17
ENDBRANCH  14  15
ENDBRANCH   1  14
BRANCH   4  20
HETATM   20  O4  UNL     1      20.761 -33.164   7.602  1.00  0.00    -0.392 OA
ATOM     21  H4  UNL     1      21.671 -33.299   7.839  1.00  0.00     0.210 HD
ENDBRANCH   4  20
BRANCH   3  22
HETATM   22  C6  UNL     1      19.028 -34.556   9.719  1.00  0.00     0.225 C 
BRANCH  22  23
HETATM   23  O1  UNL     1      20.448 -34.720   9.872  1.00  0.00    -0.384 OA
ATOM     24  H1  UNL     1      20.593 -35.657   9.941  1.00  0.00     0.210 HD
ENDBRANCH  22  23
BRANCH  22  25
HETATM   25  C7  UNL     1      18.476 -34.832  11.035  1.00  0.00     0.203 C 
HETATM   26  O2  UNL     1      17.789 -33.988  11.691  1.00  0.00    -0.646 OA
HETATM   27  O3  UNL     1      18.662 -36.046  11.678  1.00  0.00    -0.646 OA
ENDBRANCH  22  25
ENDBRANCH   3  22
BRANCH  10  28
HETATM   28  N3  UNL     1      21.713 -27.414   7.325  1.00  0.00    -0.072 N 
ATOM     29  H33 UNL     1      22.702 -27.665   7.326  1.00  0.00     0.274 HD
ATOM     30  H32 UNL     1      21.507 -27.645   6.353  1.00  0.00     0.274 HD
ATOM     31  H31 UNL     1      21.564 -26.426   7.528  1.00  0.00     0.274 HD
ENDBRANCH  10  28
TORSDOF 8
ENDMDL
MODEL 2
REMARK VINA RESULT: -8.126298922      3.911      6.058
REMARK  8 active torsions:
REMARK  status: ('A' for Active; 'I' for Inactive)
REMARK    1  A    between atoms: N1_2  and  N2_3 
REMARK    2  A    between atoms: N1_2  and  C2_6 
REMARK    3  A    between atoms: C2_6  and  C3_7 
REMARK    4  A    between atoms: C5_9  and  C6_10 
REMARK    5  A    between atoms: C6_10  and  O1_11 
REMARK    6  A    between atoms: C6_10  and  C7_13 
REMARK    7  A    between atoms: C8_16  and  O4_17 
REMARK    8  A    between atoms: C12_24  and  N3_25 
ROOT
HETATM    1  C3  UNL     1      18.762 -33.243   5.509  1.00  0.00     0.044 C 
HETATM    2  C4  UNL     1      19.134 -34.249   4.443  1.00  0.00     0.019 C 
HETATM    3  C5  UNL     1      17.825 -35.049   4.437  1.00  0.00     0.057 C 
HETATM    4  C8  UNL     1      17.651 -35.389   5.845  1.00  0.00     0.166 C 
HETATM    5  C9  UNL     1      18.228 -34.159   6.587  1.00  0.00     0.153 C 
HETATM    6  O5  UNL     1      19.216 -34.598   7.435  1.00  0.00    -0.224 OA
HETATM    7  O6  UNL     1      19.235 -34.043   8.607  1.00  0.00    -0.239 OA
HETATM    8  C10 UNL     1      18.108 -34.269   9.378  1.00  0.00     0.219 C 
HETATM    9  C11 UNL     1      16.821 -34.197   8.607  1.00  0.00     0.077 C 
HETATM   10  C12 UNL     1      15.923 -33.178   9.281  1.00  0.00     0.216 C 
HETATM   11  C13 UNL     1      16.447 -31.889   8.694  1.00  0.00     0.201 C 
HETATM   12  O7  UNL     1      17.354 -32.205   7.716  1.00  0.00    -0.380 OA
HETATM   13  C14 UNL     1      17.100 -33.480   7.281  1.00  0.00     0.170 C 
ENDROOT
BRANCH   1  14
HETATM   14  C2  UNL     1      19.814 -32.305   5.925  1.00  0.00     0.120 C 
BRANCH  14  15
HETATM   15  N1  UNL     1      19.818 -30.999   5.363  1.00  0.00    -0.242 NA
HETATM   16  C1  UNL     1      21.050 -30.348   5.874  1.00  0.00     0.135 C 
BRANCH  15  17
HETATM   17  N2  UNL     1      18.790 -30.250   6.008  1.00  0.00    -0.364 NA
ATOM     18  H22 UNL     1      17.924 -30.411   5.494  1.00  0.00     0.171 HD
ATOM     19  H21 UNL     1      18.681 -30.750   6.892  1.00  0.00     0.171 HD
ENDBRANCH  15  17
ENDBRANCH  14  15
ENDBRANCH   1  14
BRANCH   4  20
HETATM   20  O4  UNL     1      18.214 -36.521   6.344  1.00  0.00    -0.392 OA
ATOM     21  H4  UNL     1      17.993 -36.815   7.220  1.00  0.00     0.210 HD
ENDBRANCH   4  20
BRANCH   3  22
HETATM   22  C6  UNL     1      17.684 -36.023   3.363  1.00  0.00     0.225 C 
BRANCH  22  23
HETATM   23  O1  UNL     1      16.624 -36.904   3.772  1.00  0.00    -0.384 OA
ATOM     24  H1  UNL     1      16.763 -37.714   3.296  1.00  0.00     0.210 HD
ENDBRANCH  22  23
BRANCH  22  25
HETATM   25  C7  UNL     1      17.310 -35.584   2.028  1.00  0.00     0.203 C 
HETATM   26  O2  UNL     1      16.309 -34.836   1.799  1.00  0.00    -0.646 OA
HETATM   27  O3  UNL     1      18.021 -35.955   0.898  1.00  0.00    -0.646 OA
ENDBRANCH  22  25
ENDBRANCH   3  22
BRANCH  10  28
HETATM   28  N3  UNL     1      16.086 -33.274  10.699  1.00  0.00    -0.072 N 
ATOM     29  H33 UNL     1      15.208 -33.482  11.177  1.00  0.00     0.274 HD
ATOM     30  H32 UNL     1      16.601 -34.109  10.974  1.00  0.00     0.274 HD
ATOM     31  H31 UNL     1      16.521 -32.418  11.046  1.00  0.00     0.274 HD
ENDBRANCH  10  28
TORSDOF 8
ENDMDL
MODEL 3
REMARK VINA RESULT: -8.058530138      2.771      5.465
REMARK  8 active torsions:
REMARK  status: ('A' for Active; 'I' for Inactive)
REMARK    1  A    between atoms: N1_2  and  N2_3 
REMARK    2  A    between atoms: N1_2  and  C2_6 
REMARK    3  A    between atoms: C2_6  and  C3_7 
REMARK    4  A    between atoms: C5_9  and  C6_10 
REMARK    5  A    between atoms: C6_10  and  O1_11 
REMARK    6  A    between atoms: C6_10  and  C7_13 
REMARK    7  A    between atoms: C8_16  and  O4_17 
REMARK    8  A    between atoms: C12_24  and  N3_25 
ROOT
HETATM    1  C3  UNL     1      18.300 -30.819   6.189  1.00  0.00     0.044 C 
HETATM    2  C4  UNL     1      19.238 -29.854   6.879  1.00  0.00     0.019 C 
HETATM    3  C5  UNL     1      20.553 -30.373   6.286  1.00  0.00     0.057 C 
HETATM    4  C8  UNL     1      20.498 -31.801   6.583  1.00  0.00     0.166 C 
HETATM    5  C9  UNL     1      18.991 -32.135   6.471  1.00  0.00     0.153 C 
HETATM    6  O5  UNL     1      18.588 -32.692   7.660  1.00  0.00    -0.224 OA
HETATM    7  O6  UNL     1      17.783 -33.703   7.560  1.00  0.00    -0.239 OA
HETATM    8  C10 UNL     1      18.312 -34.809   6.918  1.00  0.00     0.219 C 
HETATM    9  C11 UNL     1      19.140 -34.471   5.712  1.00  0.00     0.077 C 
HETATM   10  C12 UNL     1      18.577 -35.229   4.525  1.00  0.00     0.216 C 
HETATM   11  C13 UNL     1      17.444 -34.322   4.107  1.00  0.00     0.201 C 
HETATM   12  O7  UNL     1      17.526 -33.170   4.847  1.00  0.00    -0.380 OA
HETATM   13  C14 UNL     1      18.813 -33.032   5.297  1.00  0.00     0.170 C 
ENDROOT
BRANCH   1  14
HETATM   14  C2  UNL     1      16.882 -30.744   6.570  1.00  0.00     0.120 C 
BRANCH  14  15
HETATM   15  N1  UNL     1      16.485 -29.754   7.510  1.00  0.00    -0.242 NA
HETATM   16  C1  UNL     1      16.116 -30.497   8.741  1.00  0.00     0.135 C 
BRANCH  15  17
HETATM   17  N2  UNL     1      15.227 -29.234   7.082  1.00  0.00    -0.364 NA
ATOM     18  H22 UNL     1      14.718 -28.938   7.915  1.00  0.00     0.171 HD
ATOM     19  H21 UNL     1      15.500 -28.374   6.606  1.00  0.00     0.171 HD
ENDBRANCH  15  17
ENDBRANCH  14  15
ENDBRANCH   1  14
BRANCH   4  20
HETATM   20  O4  UNL     1      20.976 -32.266   7.768  1.00  0.00    -0.392 OA
ATOM     21  H4  UNL     1      21.563 -33.012   7.783  1.00  0.00     0.210 HD
ENDBRANCH   4  20
BRANCH   3  22
HETATM   22  C6  UNL     1      21.731 -29.554   6.544  1.00  0.00     0.225 C 
BRANCH  22  23
HETATM   23  O1  UNL     1      21.544 -28.351   5.779  1.00  0.00    -0.384 OA
ATOM     24  H1  UNL     1      21.575 -28.617   4.868  1.00  0.00     0.210 HD
ENDBRANCH  22  23
BRANCH  22  25
HETATM   25  C7  UNL     1      22.016 -29.097   7.894  1.00  0.00     0.203 C 
HETATM   26  O2  UNL     1      22.385 -29.876   8.828  1.00  0.00    -0.646 OA
HETATM   27  O3  UNL     1      21.903 -27.766   8.266  1.00  0.00    -0.646 OA
ENDBRANCH  22  25
ENDBRANCH   3  22
BRANCH  10  28
HETATM   28  N3  UNL     1      18.149 -36.525   4.954  1.00  0.00    -0.072 N 
ATOM     29  H33 UNL     1      17.204 -36.746   4.638  1.00  0.00     0.274 HD
ATOM     30  H32 UNL     1      18.642 -37.275   4.471  1.00  0.00     0.274 HD
ATOM     31  H31 UNL     1      18.242 -36.590   5.968  1.00  0.00     0.274 HD
ENDBRANCH  10  28
TORSDOF 8
ENDMDL
MODEL 4
REMARK VINA RESULT: -8.036952445      3.217      5.159
REMARK  8 active torsions:
REMARK  status: ('A' for Active; 'I' for Inactive)
REMARK    1  A    between atoms: N1_2  and  N2_3 
REMARK    2  A    between atoms: N1_2  and  C2_6 
REMARK    3  A    between atoms: C2_6  and  C3_7 
REMARK    4  A    between atoms: C5_9  and  C6_10 
REMARK    5  A    between atoms: C6_10  and  O1_11 
REMARK    6  A    between atoms: C6_10  and  C7_13 
REMARK    7  A    between atoms: C8_16  and  O4_17 
REMARK    8  A    between atoms: C12_24  and  N3_25 
ROOT
HETATM    1  C3  UNL     1      17.204 -32.411   6.293  1.00  0.00     0.044 C 
HETATM    2  C4  UNL     1      17.748 -32.716   4.916  1.00  0.00     0.019 C 
HETATM    3  C5  UNL     1      17.932 -34.229   5.090  1.00  0.00     0.057 C 
HETATM    4  C8  UNL     1      18.726 -34.317   6.311  1.00  0.00     0.166 C 
HETATM    5  C9  UNL     1      18.213 -33.130   7.161  1.00  0.00     0.153 C 
HETATM    6  O5  UNL     1      19.288 -32.336   7.479  1.00  0.00    -0.224 OA
HETATM    7  O6  UNL     1      19.309 -31.880   8.692  1.00  0.00    -0.239 OA
HETATM    8  C10 UNL     1      19.397 -32.847   9.677  1.00  0.00     0.219 C 
HETATM    9  C11 UNL     1      18.549 -34.059   9.415  1.00  0.00     0.077 C 
HETATM   10  C12 UNL     1      17.642 -34.268  10.612  1.00  0.00     0.216 C 
HETATM   11  C13 UNL     1      16.518 -33.308  10.301  1.00  0.00     0.201 C 
HETATM   12  O7  UNL     1      16.718 -32.815   9.038  1.00  0.00    -0.380 OA
HETATM   13  C14 UNL     1      17.513 -33.693   8.347  1.00  0.00     0.170 C 
ENDROOT
BRANCH   1  14
HETATM   14  C2  UNL     1      16.978 -30.993   6.612  1.00  0.00     0.120 C 
BRANCH  14  15
HETATM   15  N1  UNL     1      15.645 -30.560   6.855  1.00  0.00    -0.242 NA
HETATM   16  C1  UNL     1      15.533 -29.230   6.204  1.00  0.00     0.135 C 
BRANCH  15  17
HETATM   17  N2  UNL     1      15.547 -30.227   8.239  1.00  0.00    -0.364 NA
ATOM     18  H22 UNL     1      14.915 -30.900   8.672  1.00  0.00     0.171 HD
ATOM     19  H21 UNL     1      16.478 -30.465   8.584  1.00  0.00     0.171 HD
ENDBRANCH  15  17
ENDBRANCH  14  15
ENDBRANCH   1  14
BRANCH   4  20
HETATM   20  O4  UNL     1      20.083 -34.269   6.243  1.00  0.00    -0.392 OA
ATOM     21  H4  UNL     1      20.604 -34.917   6.703  1.00  0.00     0.210 HD
ENDBRANCH   4  20
BRANCH   3  22
HETATM   22  C6  UNL     1      18.257 -34.970   3.878  1.00  0.00     0.225 C 
BRANCH  22  23
HETATM   23  O1  UNL     1      18.961 -36.145   4.316  1.00  0.00    -0.384 OA
ATOM     24  H1  UNL     1      19.807 -35.839   4.623  1.00  0.00     0.210 HD
ENDBRANCH  22  23
BRANCH  22  25
HETATM   25  C7  UNL     1      17.192 -35.470   3.025  1.00  0.00     0.203 C 
HETATM   26  O2  UNL     1      16.765 -36.666   3.078  1.00  0.00    -0.646 OA
HETATM   27  O3  UNL     1      16.561 -34.675   2.081  1.00  0.00    -0.646 OA
ENDBRANCH  22  25
ENDBRANCH   3  22
BRANCH  10  28
HETATM   28  N3  UNL     1      18.359 -33.947  11.808  1.00  0.00    -0.072 N 
ATOM     29  H33 UNL     1      18.498 -34.762  12.406  1.00  0.00     0.274 HD
ATOM     30  H32 UNL     1      19.339 -33.732  11.625  1.00  0.00     0.274 HD
ATOM     31  H31 UNL     1      17.880 -33.188  12.293  1.00  0.00     0.274 HD
ENDBRANCH  10  28
TORSDOF 8
ENDMDL
MODEL 5
REMARK VINA RESULT: -8.022145194      1.447      1.956
REMARK  8 active torsions:
REMARK  status: ('A' for Active; 'I' for Inactive)
REMARK    1  A    between atoms: N1_2  and  N2_3 
REMARK    2  A    between atoms: N1_2  and  C2_6 
REMARK    3  A    between atoms: C2_6  and  C3_7 
REMARK    4  A    between atoms: C5_9  and  C6_10 
REMARK    5  A    between atoms: C6_10  and  O1_11 
REMARK    6  A    between atoms: C6_10  and  C7_13 
REMARK    7  A    between atoms: C8_16  and  O4_17 
REMARK    8  A    between atoms: C12_24  and  N3_25 
ROOT
HETATM    1  C3  UNL     1      16.839 -32.299   8.536  1.00  0.00     0.044 C 
HETATM    2  C4  UNL     1      16.237 -33.644   8.874  1.00  0.00     0.019 C 
HETATM    3  C5  UNL     1      17.211 -34.041   9.990  1.00  0.00     0.057 C 
HETATM    4  C8  UNL     1      18.513 -33.874   9.354  1.00  0.00     0.166 C 
HETATM    5  C9  UNL     1      18.300 -32.668   8.407  1.00  0.00     0.153 C 
HETATM    6  O5  UNL     1      18.627 -33.063   7.132  1.00  0.00    -0.224 OA
HETATM    7  O6  UNL     1      19.294 -32.199   6.432  1.00  0.00    -0.239 OA
HETATM    8  C10 UNL     1      20.542 -31.878   6.936  1.00  0.00     0.219 C 
HETATM    9  C11 UNL     1      20.570 -31.718   8.428  1.00  0.00     0.077 C 
HETATM   10  C12 UNL     1      21.132 -30.345   8.745  1.00  0.00     0.216 C 
HETATM   11  C13 UNL     1      19.904 -29.481   8.590  1.00  0.00     0.201 C 
HETATM   12  O7  UNL     1      18.824 -30.306   8.407  1.00  0.00    -0.380 OA
HETATM   13  C14 UNL     1      19.128 -31.542   8.916  1.00  0.00     0.170 C 
ENDROOT
BRANCH   1  14
HETATM   14  C2  UNL     1      16.253 -31.584   7.393  1.00  0.00     0.120 C 
BRANCH  14  15
HETATM   15  N1  UNL     1      15.386 -30.487   7.654  1.00  0.00    -0.242 NA
HETATM   16  C1  UNL     1      15.769 -29.435   6.679  1.00  0.00     0.135 C 
BRANCH  15  17
HETATM   17  N2  UNL     1      15.786 -29.909   8.896  1.00  0.00    -0.364 NA
ATOM     18  H22 UNL     1      15.168 -29.119   9.080  1.00  0.00     0.171 HD
ATOM     19  H21 UNL     1      15.518 -30.630   9.566  1.00  0.00     0.171 HD
ENDBRANCH  15  17
ENDBRANCH  14  15
ENDBRANCH   1  14
BRANCH   4  20
HETATM   20  O4  UNL     1      19.065 -34.902   8.656  1.00  0.00    -0.392 OA
ATOM     21  H4  UNL     1      19.907 -34.790   8.232  1.00  0.00     0.210 HD
ENDBRANCH   4  20
BRANCH   3  22
HETATM   22  C6  UNL     1      16.848 -35.228  10.754  1.00  0.00     0.225 C 
BRANCH  22  23
HETATM   23  O1  UNL     1      16.698 -36.283   9.788  1.00  0.00    -0.384 OA
ATOM     24  H1  UNL     1      17.205 -37.013  10.122  1.00  0.00     0.210 HD
ENDBRANCH  22  23
BRANCH  22  25
HETATM   25  C7  UNL     1      17.765 -35.761  11.747  1.00  0.00     0.203 C 
HETATM   26  O2  UNL     1      17.590 -35.624  12.998  1.00  0.00    -0.646 OA
HETATM   27  O3  UNL     1      18.910 -36.462  11.401  1.00  0.00    -0.646 OA
ENDBRANCH  22  25
ENDBRANCH   3  22
BRANCH  10  28
HETATM   28  N3  UNL     1      22.175 -30.038   7.815  1.00  0.00    -0.072 N 
ATOM     29  H33 UNL     1      21.999 -30.434   6.891  1.00  0.00     0.274 HD
ATOM     30  H32 UNL     1      22.179 -29.053   7.551  1.00  0.00     0.274 HD
ATOM     31  H31 UNL     1      23.069 -30.339   8.201  1.00  0.00     0.274 HD
ENDBRANCH  10  28
TORSDOF 8
ENDMDL
