MODEL 1
REMARK VINA RESULT: -9.860146030      0.000      0.000
REMARK  8 active torsions:
REMARK  status: ('A' for Active; 'I' for Inactive)
REMARK    1  A    between atoms: C4_7  and  N3_8 
REMARK    2  A    between atoms: C5_11  and  N4_12 
REMARK       I    between atoms: N4_12  and  C6_14 
REMARK    3  A    between atoms: C6_14  and  C7_16 
REMARK    4  A    between atoms: C10_19  and  C11_20 
REMARK    5  A    between atoms: C12_21  and  C13_22 
REMARK    6  A    between atoms: C20_29  and  O2_30 
REMARK    7  A    between atoms: O2_30  and  C21_31 
REMARK    8  A    between atoms: C24_34  and  C25_35 
ROOT
HETATM    1  N1  UNL     1      19.880  14.235-106.861  1.00  0.00    -0.191 NA
HETATM    2  C1  UNL     1      18.832  14.024-106.456  1.00  0.00     0.101 C 
HETATM    3  C2  UNL     1      17.513  13.735-105.940  1.00  0.00     0.062 A 
HETATM    4  C3  UNL     1      17.108  12.470-105.626  1.00  0.00     0.112 A 
HETATM    5  N2  UNL     1      15.892  12.209-105.152  1.00  0.00    -0.349 N 
ATOM      6  H2  UNL     1      15.642  11.245-104.936  1.00  0.00     0.167 HD
HETATM    7  C4  UNL     1      14.989  13.176-104.952  1.00  0.00     0.126 A 
HETATM    8  C5  UNL     1      15.353  14.493-105.258  1.00  0.00     0.080 A 
HETATM    9  C27 UNL     1      16.589  14.776-105.743  1.00  0.00     0.057 A 
ENDROOT
BRANCH   8  10
HETATM   10  N4  UNL     1      14.369  15.487-105.031  1.00  0.00    -0.320 N 
HETATM   11  C6  UNL     1      13.584  16.188-105.931  1.00  0.00     0.259 C 
HETATM   12  O1  UNL     1      13.721  15.919-107.152  1.00  0.00    -0.267 OA
ATOM     13  H4  UNL     1      14.215  15.723-104.050  1.00  0.00     0.169 HD
BRANCH  11  14
HETATM   14  C7  UNL     1      12.617  17.218-105.606  1.00  0.00     0.066 A 
HETATM   15  C8  UNL     1      11.358  16.722-105.202  1.00  0.00     0.021 A 
HETATM   16  C9  UNL     1      10.454  17.539-104.612  1.00  0.00     0.022 A 
HETATM   17  C10 UNL     1      10.690  18.877-104.367  1.00  0.00     0.020 A 
HETATM   18  C19 UNL     1      11.909  19.347-104.766  1.00  0.00     0.059 A 
HETATM   19  C20 UNL     1      12.876  18.523-105.391  1.00  0.00     0.095 A 
BRANCH  17  20
HETATM   20  C11 UNL     1       9.738  19.748-103.736  1.00  0.00    -0.061 C 
HETATM   21  C12 UNL     1       8.927  20.477-103.219  1.00  0.00    -0.061 C 
BRANCH  21  22
HETATM   22  C13 UNL     1       7.938  21.353-102.614  1.00  0.00     0.018 A 
HETATM   23  C14 UNL     1       7.840  22.625-103.084  1.00  0.00     0.020 A 
HETATM   24  C15 UNL     1       6.903  23.471-102.519  1.00  0.00     0.001 A 
HETATM   25  C16 UNL     1       6.071  23.064-101.497  1.00  0.00     0.000 A 
HETATM   26  C17 UNL     1       6.182  21.773-101.032  1.00  0.00     0.001 A 
HETATM   27  C18 UNL     1       7.114  20.938-101.598  1.00  0.00     0.020 A 
ENDBRANCH  21  22
ENDBRANCH  17  20
BRANCH  19  28
HETATM   28  O2  UNL     1      14.064  19.184-105.749  1.00  0.00    -0.293 OA
BRANCH  28  29
HETATM   29  C21 UNL     1      14.400  19.353-107.095  1.00  0.00     0.147 A 
HETATM   30  C22 UNL     1      13.881  20.191-107.993  1.00  0.00     0.057 A 
HETATM   31  C23 UNL     1      14.315  20.257-109.318  1.00  0.00     0.022 A 
HETATM   32  C24 UNL     1      15.324  19.411-109.694  1.00  0.00     0.044 A 
HETATM   33  C26 UNL     1      15.859  18.543-108.761  1.00  0.00     0.106 A 
HETATM   34  N6  UNL     1      15.409  18.526-107.524  1.00  0.00    -0.346 N 
ATOM     35  H6  UNL     1      15.825  17.874-106.859  1.00  0.00     0.167 HD
BRANCH  32  36
HETATM   36  C25 UNL     1      15.846  19.405-111.055  1.00  0.00     0.266 C 
HETATM   37  N5  UNL     1      17.186  19.791-111.316  1.00  0.00    -0.057 NA
HETATM   38  O3  UNL     1      15.145  19.064-112.036  1.00  0.00    -0.271 OA
ENDBRANCH  32  36
ENDBRANCH  28  29
ENDBRANCH  19  28
ENDBRANCH  11  14
ENDBRANCH   8  10
BRANCH   7  39
HETATM   39  N3  UNL     1      13.832  12.870-104.493  1.00  0.00    -0.384 N 
ATOM     40  H32 UNL     1      13.689  12.546-103.536  1.00  0.00     0.157 HD
ATOM     41  H31 UNL     1      13.017  12.949-105.100  1.00  0.00     0.157 HD
ENDBRANCH   7  39
TORSDOF 8
ENDMDL
MODEL 2
REMARK VINA RESULT: -9.699531074      1.130      1.319
REMARK  8 active torsions:
REMARK  status: ('A' for Active; 'I' for Inactive)
REMARK    1  A    between atoms: C4_7  and  N3_8 
REMARK    2  A    between atoms: C5_11  and  N4_12 
REMARK       I    between atoms: N4_12  and  C6_14 
REMARK    3  A    between atoms: C6_14  and  C7_16 
REMARK    4  A    between atoms: C10_19  and  C11_20 
REMARK    5  A    between atoms: C12_21  and  C13_22 
REMARK    6  A    between atoms: C20_29  and  O2_30 
REMARK    7  A    between atoms: O2_30  and  C21_31 
REMARK    8  A    between atoms: C24_34  and  C25_35 
ROOT
HETATM    1  N1  UNL     1      20.161  15.445-107.859  1.00  0.00    -0.191 NA
HETATM    2  C1  UNL     1      19.216  15.147-107.291  1.00  0.00     0.101 C 
HETATM    3  C2  UNL     1      18.029  14.750-106.568  1.00  0.00     0.062 A 
HETATM    4  C3  UNL     1      17.849  13.484-106.090  1.00  0.00     0.112 A 
HETATM    5  N2  UNL     1      16.754  13.123-105.426  1.00  0.00    -0.349 N 
ATOM      6  H2  UNL     1      16.671  12.163-105.093  1.00  0.00     0.167 HD
HETATM    7  C4  UNL     1      15.759  13.984-105.183  1.00  0.00     0.126 A 
HETATM    8  C5  UNL     1      15.892  15.297-105.652  1.00  0.00     0.080 A 
HETATM    9  C27 UNL     1      17.002  15.681-106.331  1.00  0.00     0.057 A 
ENDROOT
BRANCH   8  10
HETATM   10  N4  UNL     1      14.817  16.176-105.372  1.00  0.00    -0.320 N 
HETATM   11  C6  UNL     1      13.716  16.513-106.143  1.00  0.00     0.259 C 
HETATM   12  O1  UNL     1      13.605  15.961-107.268  1.00  0.00    -0.267 OA
ATOM     13  H4  UNL     1      14.860  16.633-104.461  1.00  0.00     0.169 HD
BRANCH  11  14
HETATM   14  C7  UNL     1      12.674  17.455-105.784  1.00  0.00     0.066 A 
HETATM   15  C8  UNL     1      11.537  16.862-105.193  1.00  0.00     0.021 A 
HETATM   16  C9  UNL     1      10.612  17.624-104.564  1.00  0.00     0.022 A 
HETATM   17  C10 UNL     1      10.710  18.996-104.456  1.00  0.00     0.020 A 
HETATM   18  C19 UNL     1      11.811  19.560-105.035  1.00  0.00     0.059 A 
HETATM   19  C20 UNL     1      12.795  18.795-105.706  1.00  0.00     0.095 A 
BRANCH  17  20
HETATM   20  C11 UNL     1       9.736  19.811-103.784  1.00  0.00    -0.061 C 
HETATM   21  C12 UNL     1       8.906  20.491-103.233  1.00  0.00    -0.061 C 
BRANCH  21  22
HETATM   22  C13 UNL     1       7.893  21.309-102.586  1.00  0.00     0.018 A 
HETATM   23  C14 UNL     1       7.757  22.598-102.994  1.00  0.00     0.020 A 
HETATM   24  C15 UNL     1       6.797  23.388-102.388  1.00  0.00     0.001 A 
HETATM   25  C16 UNL     1       5.979  22.908-101.386  1.00  0.00     0.000 A 
HETATM   26  C17 UNL     1       6.129  21.600-100.983  1.00  0.00     0.001 A 
HETATM   27  C18 UNL     1       7.084  20.822-101.590  1.00  0.00     0.020 A 
ENDBRANCH  21  22
ENDBRANCH  17  20
BRANCH  19  28
HETATM   28  O2  UNL     1      13.847  19.548-106.256  1.00  0.00    -0.293 OA
BRANCH  28  29
HETATM   29  C21 UNL     1      14.131  19.471-107.623  1.00  0.00     0.147 A 
HETATM   30  C22 UNL     1      15.234  19.030-108.228  1.00  0.00     0.057 A 
HETATM   31  C23 UNL     1      15.388  19.008-109.615  1.00  0.00     0.022 A 
HETATM   32  C24 UNL     1      14.343  19.466-110.373  1.00  0.00     0.044 A 
HETATM   33  C26 UNL     1      13.202  19.923-109.741  1.00  0.00     0.106 A 
HETATM   34  N6  UNL     1      13.114  19.919-108.428  1.00  0.00    -0.346 N 
ATOM     35  H6  UNL     1      12.257  20.262-107.993  1.00  0.00     0.167 HD
BRANCH  32  36
HETATM   36  C25 UNL     1      14.408  19.482-111.829  1.00  0.00     0.266 C 
HETATM   37  N5  UNL     1      13.273  19.845-112.598  1.00  0.00    -0.057 NA
HETATM   38  O3  UNL     1      15.452  19.183-112.453  1.00  0.00    -0.271 OA
ENDBRANCH  32  36
ENDBRANCH  28  29
ENDBRANCH  19  28
ENDBRANCH  11  14
ENDBRANCH   8  10
BRANCH   7  39
HETATM   39  N3  UNL     1      14.726  13.584-104.537  1.00  0.00    -0.384 N 
ATOM     40  H32 UNL     1      14.620  13.720-103.532  1.00  0.00     0.157 HD
ATOM     41  H31 UNL     1      13.976  13.110-105.040  1.00  0.00     0.157 HD
ENDBRANCH   7  39
TORSDOF 8
ENDMDL
MODEL 3
REMARK VINA RESULT: -9.560984250      3.638      5.316
REMARK  8 active torsions:
REMARK  status: ('A' for Active; 'I' for Inactive)
REMARK    1  A    between atoms: C4_7  and  N3_8 
REMARK    2  A    between atoms: C5_11  and  N4_12 
REMARK       I    between atoms: N4_12  and  C6_14 
REMARK    3  A    between atoms: C6_14  and  C7_16 
REMARK    4  A    between atoms: C10_19  and  C11_20 
REMARK    5  A    between atoms: C12_21  and  C13_22 
REMARK    6  A    between atoms: C20_29  and  O2_30 
REMARK    7  A    between atoms: O2_30  and  C21_31 
REMARK    8  A    between atoms: C24_34  and  C25_35 
ROOT
HETATM    1  N1  UNL     1      17.481  14.493-102.757  1.00  0.00    -0.191 NA
HETATM    2  C1  UNL     1      17.041  15.036-103.662  1.00  0.00     0.101 C 
HETATM    3  C2  UNL     1      16.502  15.713-104.819  1.00  0.00     0.062 A 
HETATM    4  C3  UNL     1      17.107  15.675-106.042  1.00  0.00     0.112 A 
HETATM    5  N2  UNL     1      16.607  16.300-107.104  1.00  0.00    -0.349 N 
ATOM      6  H2  UNL     1      17.102  16.239-107.994  1.00  0.00     0.167 HD
HETATM    7  C4  UNL     1      15.472  17.006-107.039  1.00  0.00     0.126 A 
HETATM    8  C5  UNL     1      14.810  17.079-105.807  1.00  0.00     0.080 A 
HETATM    9  C27 UNL     1      15.307  16.447-104.714  1.00  0.00     0.057 A 
ENDROOT
BRANCH   8  10
HETATM   10  N4  UNL     1      13.612  17.835-105.781  1.00  0.00    -0.320 N 
HETATM   11  C6  UNL     1      12.301  17.424-105.610  1.00  0.00     0.259 C 
HETATM   12  O1  UNL     1      12.096  16.196-105.430  1.00  0.00    -0.267 OA
ATOM     13  H4  UNL     1      13.735  18.840-105.908  1.00  0.00     0.169 HD
BRANCH  11  14
HETATM   14  C7  UNL     1      11.126  18.274-105.629  1.00  0.00     0.066 A 
HETATM   15  C8  UNL     1       9.982  17.666-106.192  1.00  0.00     0.021 A 
HETATM   16  C9  UNL     1       8.758  18.223-106.033  1.00  0.00     0.022 A 
HETATM   17  C10 UNL     1       8.545  19.392-105.329  1.00  0.00     0.020 A 
HETATM   18  C19 UNL     1       9.659  19.974-104.793  1.00  0.00     0.059 A 
HETATM   19  C20 UNL     1      10.955  19.422-104.945  1.00  0.00     0.095 A 
BRANCH  17  20
HETATM   20  C11 UNL     1       7.249  19.985-105.151  1.00  0.00    -0.061 C 
HETATM   21  C12 UNL     1       6.168  20.497-104.992  1.00  0.00    -0.061 C 
BRANCH  21  22
HETATM   22  C13 UNL     1       4.875  21.127-104.787  1.00  0.00     0.018 A 
HETATM   23  C14 UNL     1       4.180  21.533-105.882  1.00  0.00     0.020 A 
HETATM   24  C15 UNL     1       2.948  22.134-105.703  1.00  0.00     0.001 A 
HETATM   25  C16 UNL     1       2.406  22.333-104.450  1.00  0.00     0.000 A 
HETATM   26  C17 UNL     1       3.120  21.916-103.349  1.00  0.00     0.001 A 
HETATM   27  C18 UNL     1       4.344  21.320-103.535  1.00  0.00     0.020 A 
ENDBRANCH  21  22
ENDBRANCH  17  20
BRANCH  19  28
HETATM   28  O2  UNL     1      11.981  20.168-104.342  1.00  0.00    -0.293 OA
BRANCH  28  29
HETATM   29  C21 UNL     1      11.765  21.500-103.976  1.00  0.00     0.147 A 
HETATM   30  C22 UNL     1      11.357  21.995-102.808  1.00  0.00     0.057 A 
HETATM   31  C23 UNL     1      11.181  23.360-102.576  1.00  0.00     0.022 A 
HETATM   32  C24 UNL     1      11.446  24.215-103.612  1.00  0.00     0.044 A 
HETATM   33  C26 UNL     1      11.868  23.698-104.821  1.00  0.00     0.106 A 
HETATM   34  N6  UNL     1      12.017  22.400-104.982  1.00  0.00    -0.346 N 
ATOM     35  H6  UNL     1      12.331  22.051-105.887  1.00  0.00     0.167 HD
BRANCH  32  36
HETATM   36  C25 UNL     1      11.292  25.658-103.467  1.00  0.00     0.266 C 
HETATM   37  N5  UNL     1      11.073  26.478-104.603  1.00  0.00    -0.057 NA
HETATM   38  O3  UNL     1      11.344  26.225-102.351  1.00  0.00    -0.271 OA
ENDBRANCH  32  36
ENDBRANCH  28  29
ENDBRANCH  19  28
ENDBRANCH  11  14
ENDBRANCH   8  10
BRANCH   7  39
HETATM   39  N3  UNL     1      15.034  17.589-108.093  1.00  0.00    -0.384 N 
ATOM     40  H32 UNL     1      15.449  18.445-108.460  1.00  0.00     0.157 HD
ATOM     41  H31 UNL     1      14.240  17.188-108.592  1.00  0.00     0.157 HD
ENDBRANCH   7  39
TORSDOF 8
ENDMDL
MODEL 4
REMARK VINA RESULT: -9.524098300      1.630      1.860
REMARK  8 active torsions:
REMARK  status: ('A' for Active; 'I' for Inactive)
REMARK    1  A    between atoms: C4_7  and  N3_8 
REMARK    2  A    between atoms: C5_11  and  N4_12 
REMARK       I    between atoms: N4_12  and  C6_14 
REMARK    3  A    between atoms: C6_14  and  C7_16 
REMARK    4  A    between atoms: C10_19  and  C11_20 
REMARK    5  A    between atoms: C12_21  and  C13_22 
REMARK    6  A    between atoms: C20_29  and  O2_30 
REMARK    7  A    between atoms: O2_30  and  C21_31 
REMARK    8  A    between atoms: C24_34  and  C25_35 
ROOT
HETATM    1  N1  UNL     1      19.795  15.347-108.439  1.00  0.00    -0.191 NA
HETATM    2  C1  UNL     1      19.022  15.202-107.611  1.00  0.00     0.101 C 
HETATM    3  C2  UNL     1      18.056  15.000-106.555  1.00  0.00     0.062 A 
HETATM    4  C3  UNL     1      18.103  13.928-105.711  1.00  0.00     0.112 A 
HETATM    5  N2  UNL     1      17.211  13.747-104.741  1.00  0.00    -0.349 N 
ATOM      6  H2  UNL     1      17.293  12.927-104.140  1.00  0.00     0.167 HD
HETATM    7  C4  UNL     1      16.209  14.609-104.531  1.00  0.00     0.126 A 
HETATM    8  C5  UNL     1      16.114  15.727-105.369  1.00  0.00     0.080 A 
HETATM    9  C27 UNL     1      17.016  15.927-106.364  1.00  0.00     0.057 A 
ENDROOT
BRANCH   8  10
HETATM   10  N4  UNL     1      15.041  16.615-105.113  1.00  0.00    -0.320 N 
HETATM   11  C6  UNL     1      13.807  16.726-105.733  1.00  0.00     0.259 C 
HETATM   12  O1  UNL     1      13.551  15.920-106.664  1.00  0.00    -0.267 OA
ATOM     13  H4  UNL     1      15.201  17.277-104.353  1.00  0.00     0.169 HD
BRANCH  11  14
HETATM   14  C7  UNL     1      12.775  17.695-105.421  1.00  0.00     0.066 A 
HETATM   15  C8  UNL     1      11.497  17.131-105.209  1.00  0.00     0.021 A 
HETATM   16  C9  UNL     1      10.506  17.863-104.649  1.00  0.00     0.022 A 
HETATM   17  C10 UNL     1      10.667  19.176-104.254  1.00  0.00     0.020 A 
HETATM   18  C19 UNL     1      11.904  19.714-104.468  1.00  0.00     0.059 A 
HETATM   19  C20 UNL     1      12.962  18.979-105.058  1.00  0.00     0.095 A 
BRANCH  17  20
HETATM   20  C11 UNL     1       9.621  19.958-103.653  1.00  0.00    -0.061 C 
HETATM   21  C12 UNL     1       8.755  20.619-103.137  1.00  0.00    -0.061 C 
BRANCH  21  22
HETATM   22  C13 UNL     1       7.724  21.421-102.498  1.00  0.00     0.018 A 
HETATM   23  C14 UNL     1       7.576  22.710-102.901  1.00  0.00     0.020 A 
HETATM   24  C15 UNL     1       6.600  23.485-102.303  1.00  0.00     0.001 A 
HETATM   25  C16 UNL     1       5.777  22.990-101.312  1.00  0.00     0.000 A 
HETATM   26  C17 UNL     1       5.939  21.683-100.914  1.00  0.00     0.001 A 
HETATM   27  C18 UNL     1       6.910  20.919-101.513  1.00  0.00     0.020 A 
ENDBRANCH  21  22
ENDBRANCH  17  20
BRANCH  19  28
HETATM   28  O2  UNL     1      14.157  19.702-105.217  1.00  0.00    -0.293 OA
BRANCH  28  29
HETATM   29  C21 UNL     1      14.471  20.285-106.448  1.00  0.00     0.147 A 
HETATM   30  C22 UNL     1      14.779  19.696-107.603  1.00  0.00     0.057 A 
HETATM   31  C23 UNL     1      15.074  20.405-108.769  1.00  0.00     0.022 A 
HETATM   32  C24 UNL     1      15.040  21.772-108.700  1.00  0.00     0.044 A 
HETATM   33  C26 UNL     1      14.720  22.379-107.501  1.00  0.00     0.106 A 
HETATM   34  N6  UNL     1      14.450  21.658-106.433  1.00  0.00    -0.346 N 
ATOM     35  H6  UNL     1      14.218  22.136-105.563  1.00  0.00     0.167 HD
BRANCH  32  36
HETATM   36  C25 UNL     1      15.332  22.601-109.864  1.00  0.00     0.266 C 
HETATM   37  N5  UNL     1      14.700  22.346-111.108  1.00  0.00    -0.057 NA
HETATM   38  O3  UNL     1      16.140  23.556-109.816  1.00  0.00    -0.271 OA
ENDBRANCH  32  36
ENDBRANCH  28  29
ENDBRANCH  19  28
ENDBRANCH  11  14
ENDBRANCH   8  10
BRANCH   7  39
HETATM   39  N3  UNL     1      15.377  14.386-103.582  1.00  0.00    -0.384 N 
ATOM     40  H32 UNL     1      14.868  13.507-103.493  1.00  0.00     0.157 HD
ATOM     41  H31 UNL     1      15.211  15.110-102.883  1.00  0.00     0.157 HD
ENDBRANCH   7  39
TORSDOF 8
ENDMDL
MODEL 5
REMARK VINA RESULT: -9.495297259      5.743     11.599
REMARK  8 active torsions:
REMARK  status: ('A' for Active; 'I' for Inactive)
REMARK    1  A    between atoms: C4_7  and  N3_8 
REMARK    2  A    between atoms: C5_11  and  N4_12 
REMARK       I    between atoms: N4_12  and  C6_14 
REMARK    3  A    between atoms: C6_14  and  C7_16 
REMARK    4  A    between atoms: C10_19  and  C11_20 
REMARK    5  A    between atoms: C12_21  and  C13_22 
REMARK    6  A    between atoms: C20_29  and  O2_30 
REMARK    7  A    between atoms: O2_30  and  C21_31 
REMARK    8  A    between atoms: C24_34  and  C25_35 
ROOT
HETATM    1  N1  UNL     1      10.922  29.766-102.300  1.00  0.00    -0.191 NA
HETATM    2  C1  UNL     1      10.254  28.862-102.503  1.00  0.00     0.101 C 
HETATM    3  C2  UNL     1       9.390  27.730-102.755  1.00  0.00     0.062 A 
HETATM    4  C3  UNL     1       8.049  27.758-102.500  1.00  0.00     0.112 A 
HETATM    5  N2  UNL     1       7.259  26.714-102.733  1.00  0.00    -0.349 N 
ATOM      6  H2  UNL     1       6.264  26.789-102.523  1.00  0.00     0.167 HD
HETATM    7  C4  UNL     1       7.732  25.567-103.236  1.00  0.00     0.126 A 
HETATM    8  C5  UNL     1       9.102  25.484-103.515  1.00  0.00     0.080 A 
HETATM    9  C27 UNL     1       9.922  26.540-103.283  1.00  0.00     0.057 A 
ENDROOT
BRANCH   8  10
HETATM   10  N4  UNL     1       9.562  24.254-104.046  1.00  0.00    -0.320 N 
HETATM   11  C6  UNL     1      10.495  23.360-103.548  1.00  0.00     0.259 C 
HETATM   12  O1  UNL     1      11.030  23.636-102.443  1.00  0.00    -0.267 OA
ATOM     13  H4  UNL     1       9.140  23.985-104.936  1.00  0.00     0.169 HD
BRANCH  11  14
HETATM   14  C7  UNL     1      10.929  22.131-104.182  1.00  0.00     0.066 A 
HETATM   15  C8  UNL     1      12.295  21.829-103.984  1.00  0.00     0.021 A 
HETATM   16  C9  UNL     1      12.777  20.598-104.276  1.00  0.00     0.022 A 
HETATM   17  C10 UNL     1      11.992  19.577-104.773  1.00  0.00     0.020 A 
HETATM   18  C19 UNL     1      10.674  19.881-104.965  1.00  0.00     0.059 A 
HETATM   19  C20 UNL     1      10.137  21.159-104.677  1.00  0.00     0.095 A 
BRANCH  17  20
HETATM   20  C11 UNL     1      12.495  18.267-105.079  1.00  0.00    -0.061 C 
HETATM   21  C12 UNL     1      12.927  17.167-105.322  1.00  0.00    -0.061 C 
BRANCH  21  22
HETATM   22  C13 UNL     1      13.460  15.843-105.596  1.00  0.00     0.018 A 
HETATM   23  C14 UNL     1      14.637  15.755-106.271  1.00  0.00     0.020 A 
HETATM   24  C15 UNL     1      15.158  14.503-106.539  1.00  0.00     0.001 A 
HETATM   25  C16 UNL     1      14.520  13.345-106.144  1.00  0.00     0.000 A 
HETATM   26  C17 UNL     1      13.328  13.449-105.462  1.00  0.00     0.001 A 
HETATM   27  C18 UNL     1      12.818  14.697-105.199  1.00  0.00     0.020 A 
ENDBRANCH  21  22
ENDBRANCH  17  20
BRANCH  19  28
HETATM   28  O2  UNL     1       8.766  21.293-104.955  1.00  0.00    -0.293 OA
BRANCH  28  29
HETATM   29  C21 UNL     1       7.819  21.121-103.942  1.00  0.00     0.147 A 
HETATM   30  C22 UNL     1       8.009  20.941-102.635  1.00  0.00     0.057 A 
HETATM   31  C23 UNL     1       6.963  20.780-101.725  1.00  0.00     0.022 A 
HETATM   32  C24 UNL     1       5.686  20.812-102.220  1.00  0.00     0.044 A 
HETATM   33  C26 UNL     1       5.493  20.999-103.575  1.00  0.00     0.106 A 
HETATM   34  N6  UNL     1       6.520  21.146-104.386  1.00  0.00    -0.346 N 
ATOM     35  H6  UNL     1       6.343  21.282-105.381  1.00  0.00     0.167 HD
BRANCH  32  36
HETATM   36  C25 UNL     1       4.528  20.654-101.349  1.00  0.00     0.266 C 
HETATM   37  N5  UNL     1       3.243  20.404-101.895  1.00  0.00    -0.057 NA
HETATM   38  O3  UNL     1       4.616  20.730-100.102  1.00  0.00    -0.271 OA
ENDBRANCH  32  36
ENDBRANCH  28  29
ENDBRANCH  19  28
ENDBRANCH  11  14
ENDBRANCH   8  10
BRANCH   7  39
HETATM   39  N3  UNL     1       6.926  24.592-103.441  1.00  0.00    -0.384 N 
ATOM     40  H32 UNL     1       6.105  24.426-102.859  1.00  0.00     0.157 HD
ATOM     41  H31 UNL     1       7.104  23.951-104.215  1.00  0.00     0.157 HD
ENDBRANCH   7  39
TORSDOF 8
ENDMDL
