MODEL 1
REMARK VINA RESULT: -8.198892183      0.000      0.000
REMARK  2 active torsions:
REMARK  status: ('A' for Active; 'I' for Inactive)
REMARK       I    between atoms: C1_2  and  N1_3 
REMARK       I    between atoms: C1_2  and  N3_12 
REMARK    1  A    between atoms: N1_3  and  C2_5 
REMARK    2  A    between atoms: N3_12  and  C5_14 
ROOT
HETATM    1  O1  UNL     1      -9.137   2.843  11.498  1.00  0.00    -0.247 OA
HETATM    2  C1  UNL     1     -10.081   3.196  10.746  1.00  0.00     0.322 C 
HETATM    3  N1  UNL     1      -9.891   3.224   9.346  1.00  0.00    -0.289 N 
ATOM      4  H1  UNL     1      -9.132   3.791   8.968  1.00  0.00     0.172 HD
HETATM    5  N3  UNL     1     -11.303   3.555  11.330  1.00  0.00    -0.338 N 
ATOM      6  H3  UNL     1     -12.066   3.841  10.716  1.00  0.00     0.164 HD
ENDROOT
BRANCH   3   7
HETATM    7  C2  UNL     1     -10.649   2.552   8.512  1.00  0.00     0.153 A 
HETATM    8  N2  UNL     1     -11.307   1.411   8.692  1.00  0.00    -0.344 N 
HETATM    9  C3  UNL     1     -12.006   0.929   7.702  1.00  0.00     0.121 A 
ATOM     10  H2  UNL     1     -11.265   0.922   9.586  1.00  0.00     0.167 HD
HETATM   11  C4  UNL     1     -12.022   1.633   6.527  1.00  0.00     0.093 A 
HETATM   12 CL1  UNL     1     -12.870   1.236   5.028  1.00  0.00    -0.075 Cl
HETATM   13  S1  UNL     1     -11.022   2.966   6.900  1.00  0.00    -0.040 SA
ENDBRANCH   3   7
BRANCH   5  14
HETATM   14  C5  UNL     1     -11.546   3.541  12.775  1.00  0.00     0.086 C 
HETATM   15  C6  UNL     1     -11.935   2.191  13.245  1.00  0.00     0.025 C 
HETATM   16  C7  UNL     1     -13.161   2.075  14.065  1.00  0.00     0.002 C 
HETATM   17  C8  UNL     1     -13.152   2.723  15.396  1.00  0.00     0.000 C 
HETATM   18  C9  UNL     1     -11.849   3.246  15.878  1.00  0.00     0.000 C 
HETATM   19  C10 UNL     1     -11.455   4.594  15.420  1.00  0.00     0.000 C 
HETATM   20  C11 UNL     1     -12.346   5.268  14.439  1.00  0.00     0.002 C 
HETATM   21  C12 UNL     1     -12.468   4.652  13.100  1.00  0.00     0.025 C 
ENDBRANCH   5  14
TORSDOF 2
ENDMDL
MODEL 2
REMARK VINA RESULT: -7.933146601      3.547      7.539
REMARK  2 active torsions:
REMARK  status: ('A' for Active; 'I' for Inactive)
REMARK       I    between atoms: C1_2  and  N1_3 
REMARK       I    between atoms: C1_2  and  N3_12 
REMARK    1  A    between atoms: N1_3  and  C2_5 
REMARK    2  A    between atoms: N3_12  and  C5_14 
ROOT
HETATM    1  O1  UNL     1     -10.185   0.757   8.980  1.00  0.00    -0.247 OA
HETATM    2  C1  UNL     1     -11.182   1.453   9.302  1.00  0.00     0.322 C 
HETATM    3  N1  UNL     1     -11.715   1.355  10.607  1.00  0.00    -0.289 N 
ATOM      4  H1  UNL     1     -12.012   0.440  10.946  1.00  0.00     0.172 HD
HETATM    5  N3  UNL     1     -11.737   2.311   8.343  1.00  0.00    -0.338 N 
ATOM      6  H3  UNL     1     -12.546   2.872   8.608  1.00  0.00     0.164 HD
ENDROOT
BRANCH   3   7
HETATM    7  C2  UNL     1     -11.845   2.391  11.401  1.00  0.00     0.153 A 
HETATM    8  N2  UNL     1     -11.741   3.689  11.130  1.00  0.00    -0.344 N 
HETATM    9  C3  UNL     1     -11.914   4.546  12.097  1.00  0.00     0.121 A 
ATOM     10  H2  UNL     1     -11.530   4.007  10.184  1.00  0.00     0.167 HD
HETATM   11  C4  UNL     1     -12.195   4.055  13.345  1.00  0.00     0.093 A 
HETATM   12 CL1  UNL     1     -12.477   4.961  14.836  1.00  0.00    -0.075 Cl
HETATM   13  S1  UNL     1     -12.197   2.370  13.070  1.00  0.00    -0.040 SA
ENDBRANCH   3   7
BRANCH   5  14
HETATM   14  C5  UNL     1     -11.217   2.444   6.979  1.00  0.00     0.086 C 
HETATM   15  C6  UNL     1     -10.380   3.658   6.836  1.00  0.00     0.025 C 
HETATM   16  C7  UNL     1     -10.689   4.579   5.720  1.00  0.00     0.002 C 
HETATM   17  C8  UNL     1     -10.490   4.071   4.344  1.00  0.00     0.000 C 
HETATM   18  C9  UNL     1      -9.799   2.765   4.205  1.00  0.00     0.000 C 
HETATM   19  C10 UNL     1     -10.628   1.549   4.340  1.00  0.00     0.000 C 
HETATM   20  C11 UNL     1     -12.058   1.735   4.702  1.00  0.00     0.002 C 
HETATM   21  C12 UNL     1     -12.350   2.300   6.037  1.00  0.00     0.025 C 
ENDBRANCH   5  14
TORSDOF 2
ENDMDL
MODEL 3
REMARK VINA RESULT: -7.849042901      3.320      7.613
REMARK  2 active torsions:
REMARK  status: ('A' for Active; 'I' for Inactive)
REMARK       I    between atoms: C1_2  and  N1_3 
REMARK       I    between atoms: C1_2  and  N3_12 
REMARK    1  A    between atoms: N1_3  and  C2_5 
REMARK    2  A    between atoms: N3_12  and  C5_14 
ROOT
HETATM    1  O1  UNL     1     -10.018   0.736   8.201  1.00  0.00    -0.247 OA
HETATM    2  C1  UNL     1     -11.043   1.350   8.592  1.00  0.00     0.322 C 
HETATM    3  N1  UNL     1     -11.548   1.120   9.890  1.00  0.00    -0.289 N 
ATOM      4  H1  UNL     1     -11.793   0.167  10.158  1.00  0.00     0.172 HD
HETATM    5  N3  UNL     1     -11.657   2.253   7.713  1.00  0.00    -0.338 N 
ATOM      6  H3  UNL     1     -12.488   2.749   8.033  1.00  0.00     0.164 HD
ENDROOT
BRANCH   3   7
HETATM    7  C2  UNL     1     -11.717   2.081  10.769  1.00  0.00     0.153 A 
HETATM    8  N2  UNL     1     -12.017   2.008  12.062  1.00  0.00    -0.344 N 
HETATM    9  C3  UNL     1     -12.134   3.115  12.741  1.00  0.00     0.121 A 
ATOM     10  H2  UNL     1     -12.155   1.103  12.514  1.00  0.00     0.167 HD
HETATM   11  C4  UNL     1     -11.937   4.297  12.076  1.00  0.00     0.093 A 
HETATM   12 CL1  UNL     1     -12.026   5.939  12.722  1.00  0.00    -0.075 Cl
HETATM   13  S1  UNL     1     -11.592   3.759  10.493  1.00  0.00    -0.040 SA
ENDBRANCH   3   7
BRANCH   5  14
HETATM   14  C5  UNL     1     -11.168   2.524   6.357  1.00  0.00     0.086 C 
HETATM   15  C6  UNL     1     -10.381   3.778   6.307  1.00  0.00     0.025 C 
HETATM   16  C7  UNL     1     -10.747   4.778   5.279  1.00  0.00     0.002 C 
HETATM   17  C8  UNL     1     -10.553   4.397   3.861  1.00  0.00     0.000 C 
HETATM   18  C9  UNL     1      -9.815   3.137   3.601  1.00  0.00     0.000 C 
HETATM   19  C10 UNL     1     -10.593   1.881   3.643  1.00  0.00     0.000 C 
HETATM   20  C11 UNL     1     -12.022   1.978   4.041  1.00  0.00     0.002 C 
HETATM   21  C12 UNL     1     -12.311   2.415   5.424  1.00  0.00     0.025 C 
ENDBRANCH   5  14
TORSDOF 2
ENDMDL
MODEL 4
REMARK VINA RESULT: -7.649126523      3.523      7.340
REMARK  2 active torsions:
REMARK  status: ('A' for Active; 'I' for Inactive)
REMARK       I    between atoms: C1_2  and  N1_3 
REMARK       I    between atoms: C1_2  and  N3_12 
REMARK    1  A    between atoms: N1_3  and  C2_5 
REMARK    2  A    between atoms: N3_12  and  C5_14 
ROOT
HETATM    1  O1  UNL     1     -10.206   0.902   9.090  1.00  0.00    -0.247 OA
HETATM    2  C1  UNL     1     -11.243   1.492   9.486  1.00  0.00     0.322 C 
HETATM    3  N1  UNL     1     -11.639   1.387  10.838  1.00  0.00    -0.289 N 
ATOM      4  H1  UNL     1     -11.795   0.459  11.231  1.00  0.00     0.172 HD
HETATM    5  N3  UNL     1     -11.980   2.243   8.560  1.00  0.00    -0.338 N 
ATOM      6  H3  UNL     1     -12.821   2.720   8.885  1.00  0.00     0.164 HD
ENDROOT
BRANCH   3   7
HETATM    7  C2  UNL     1     -11.815   2.433  11.611  1.00  0.00     0.153 A 
HETATM    8  N2  UNL     1     -11.738   3.728  11.319  1.00  0.00    -0.344 N 
HETATM    9  C3  UNL     1     -11.957   4.597  12.267  1.00  0.00     0.121 A 
ATOM     10  H2  UNL     1     -11.513   4.036  10.373  1.00  0.00     0.167 HD
HETATM   11  C4  UNL     1     -12.255   4.120  13.516  1.00  0.00     0.093 A 
HETATM   12 CL1  UNL     1     -12.596   5.044  14.984  1.00  0.00    -0.075 Cl
HETATM   13  S1  UNL     1     -12.206   2.431  13.271  1.00  0.00    -0.040 SA
ENDBRANCH   3   7
BRANCH   5  14
HETATM   14  C5  UNL     1     -11.608   2.380   7.149  1.00  0.00     0.086 C 
HETATM   15  C6  UNL     1     -11.269   1.068   6.550  1.00  0.00     0.025 C 
HETATM   16  C7  UNL     1      -9.983   0.954   5.826  1.00  0.00     0.002 C 
HETATM   17  C8  UNL     1      -9.827   1.753   4.589  1.00  0.00     0.000 C 
HETATM   18  C9  UNL     1     -11.041   2.429   4.070  1.00  0.00     0.000 C 
HETATM   19  C10 UNL     1     -11.383   3.741   4.657  1.00  0.00     0.000 C 
HETATM   20  C11 UNL     1     -10.543   4.223   5.785  1.00  0.00     0.002 C 
HETATM   21  C12 UNL     1     -10.586   3.446   7.042  1.00  0.00     0.025 C 
ENDBRANCH   5  14
TORSDOF 2
ENDMDL
MODEL 5
REMARK VINA RESULT: -7.566279245      3.194      7.178
REMARK  2 active torsions:
REMARK  status: ('A' for Active; 'I' for Inactive)
REMARK       I    between atoms: C1_2  and  N1_3 
REMARK       I    between atoms: C1_2  and  N3_12 
REMARK    1  A    between atoms: N1_3  and  C2_5 
REMARK    2  A    between atoms: N3_12  and  C5_14 
ROOT
HETATM    1  O1  UNL     1     -10.156   1.004   9.220  1.00  0.00    -0.247 OA
HETATM    2  C1  UNL     1     -11.209   1.578   9.598  1.00  0.00     0.322 C 
HETATM    3  N1  UNL     1     -11.600   1.507  10.953  1.00  0.00    -0.289 N 
ATOM      4  H1  UNL     1     -11.730   0.589  11.377  1.00  0.00     0.172 HD
HETATM    5  N3  UNL     1     -11.967   2.277   8.648  1.00  0.00    -0.338 N 
ATOM      6  H3  UNL     1     -12.821   2.740   8.959  1.00  0.00     0.164 HD
ENDROOT
BRANCH   3   7
HETATM    7  C2  UNL     1     -11.804   2.574  11.691  1.00  0.00     0.153 A 
HETATM    8  N2  UNL     1     -12.190   2.668  12.960  1.00  0.00    -0.344 N 
HETATM    9  C3  UNL     1     -12.326   3.854  13.486  1.00  0.00     0.121 A 
ATOM     10  H2  UNL     1     -12.376   1.830  13.511  1.00  0.00     0.167 HD
HETATM   11  C4  UNL     1     -12.061   4.940  12.693  1.00  0.00     0.093 A 
HETATM   12 CL1  UNL     1     -12.155   6.652  13.121  1.00  0.00    -0.075 Cl
HETATM   13  S1  UNL     1     -11.626   4.201  11.216  1.00  0.00    -0.040 SA
ENDBRANCH   3   7
BRANCH   5  14
HETATM   14  C5  UNL     1     -11.600   2.377   7.233  1.00  0.00     0.086 C 
HETATM   15  C6  UNL     1     -11.255   1.051   6.669  1.00  0.00     0.025 C 
HETATM   16  C7  UNL     1      -9.971   0.925   5.945  1.00  0.00     0.002 C 
HETATM   17  C8  UNL     1      -9.824   1.690   4.685  1.00  0.00     0.000 C 
HETATM   18  C9  UNL     1     -11.044   2.343   4.151  1.00  0.00     0.000 C 
HETATM   19  C10 UNL     1     -11.393   3.669   4.703  1.00  0.00     0.000 C 
HETATM   20  C11 UNL     1     -10.552   4.187   5.814  1.00  0.00     0.002 C 
HETATM   21  C12 UNL     1     -10.587   3.446   7.093  1.00  0.00     0.025 C 
ENDBRANCH   5  14
TORSDOF 2
ENDMDL
