MODEL 1
REMARK VINA RESULT: -5.955434774      0.000      0.000
REMARK  6 active torsions:
REMARK  status: ('A' for Active; 'I' for Inactive)
REMARK    1  A    between atoms: C4_5  and  C5_6 
REMARK    2  A    between atoms: C5_6  and  C6_7 
REMARK    3  A    between atoms: C6_7  and  N2_9 
REMARK    4  A    between atoms: C11_13  and  C13_15 
REMARK    5  A    between atoms: C15_19  and  C16_20 
REMARK       I    between atoms: N4_23  and  C19_24 
REMARK       I    between atoms: C19_24  and  N6_28 
REMARK    6  A    between atoms: N6_28  and  N7_30 
ROOT
HETATM    1  C1  UNL     1       2.014  11.402   1.849  1.00  0.00     0.221 C 
HETATM    2  N1  UNL     1       2.088  10.343   1.385  1.00  0.00    -0.464 NA
HETATM    3  C2  UNL     1       2.192   9.066   0.802  1.00  0.00     0.181 C 
HETATM    4  C3  UNL     1       3.621   8.746   0.406  1.00  0.00     0.067 C 
HETATM    5  C4  UNL     1       3.614   8.465  -1.072  1.00  0.00     0.107 C 
HETATM    6  N4  UNL     1       2.199   8.127  -1.299  1.00  0.00    -0.209 N 
HETATM    7  C19 UNL     1       1.649   7.098  -2.099  1.00  0.00     0.693 C 
HETATM    8  N5  UNL     1       1.597   7.257  -3.368  1.00  0.00    -0.233 N 
ATOM      9  H51 UNL     1       1.200   6.515  -3.944  1.00  0.00     0.174 HD
ATOM     10  H52 UNL     1       1.957   8.125  -3.765  1.00  0.00     0.174 HD
HETATM   11  N6  UNL     1       1.148   5.890  -1.546  1.00  0.00    -0.072 N 
ATOM     12  H6  UNL     1       0.397   5.398  -2.029  1.00  0.00     0.212 HD
HETATM   13  C20 UNL     1       1.452   9.083  -0.519  1.00  0.00     0.181 C 
ENDROOT
BRANCH   5  14
HETATM   14  C5  UNL     1       4.013   9.636  -1.933  1.00  0.00     0.059 C 
BRANCH  14  15
HETATM   15  C6  UNL     1       5.227   9.423  -2.765  1.00  0.00     0.189 C 
HETATM   16  C7  UNL     1       4.901   8.529  -3.912  1.00  0.00     0.040 C 
BRANCH  15  17
HETATM   17  N2  UNL     1       5.847  10.681  -3.181  1.00  0.00    -0.052 N 
HETATM   18  C8  UNL     1       5.154  11.038  -4.429  1.00  0.00     0.274 C 
HETATM   19  C9  UNL     1       5.554  11.665  -2.187  1.00  0.00     0.240 C 
HETATM   20  C10 UNL     1       6.249  12.958  -2.568  1.00  0.00     0.046 C 
HETATM   21  C11 UNL     1       7.699  12.743  -2.162  1.00  0.00     0.039 C 
HETATM   22  C12 UNL     1       7.760  13.043  -0.679  1.00  0.00     0.025 C 
HETATM   23  C14 UNL     1       8.114  11.312  -2.362  1.00  0.00     0.065 C 
HETATM   24  C15 UNL     1       7.252  10.553  -3.330  1.00  0.00     0.269 C 
BRANCH  21  25
HETATM   25  C13 UNL     1       8.625  13.695  -2.824  1.00  0.00     0.239 C 
HETATM   26  N3  UNL     1       8.461  15.098  -2.687  1.00  0.00    -0.061 NA
HETATM   27  O1  UNL     1       9.583  13.290  -3.525  1.00  0.00    -0.276 OA
ENDBRANCH  21  25
BRANCH  24  28
HETATM   28  C16 UNL     1       7.672  10.782  -4.720  1.00  0.00    -0.073 C 
HETATM   29  C17 UNL     1       8.016  10.952  -5.884  1.00  0.00    -0.109 C 
HETATM   30  C18 UNL     1       8.446  11.140  -7.267  1.00  0.00     0.112 C 
ENDBRANCH  24  28
ENDBRANCH  15  17
ENDBRANCH  14  15
ENDBRANCH   5  14
BRANCH  11  31
HETATM   31  N7  UNL     1       1.660   5.355  -0.350  1.00  0.00    -0.024 N 
HETATM   32  O2  UNL     1       0.946   5.116   0.630  1.00  0.00    -0.516 OA
HETATM   33  O3  UNL     1       2.997   5.095  -0.282  1.00  0.00    -0.516 OA
ENDBRANCH  11  31
TORSDOF 6
ENDMDL
MODEL 2
REMARK VINA RESULT: -5.867526381      3.301      7.040
REMARK  6 active torsions:
REMARK  status: ('A' for Active; 'I' for Inactive)
REMARK    1  A    between atoms: C4_5  and  C5_6 
REMARK    2  A    between atoms: C5_6  and  C6_7 
REMARK    3  A    between atoms: C6_7  and  N2_9 
REMARK    4  A    between atoms: C11_13  and  C13_15 
REMARK    5  A    between atoms: C15_19  and  C16_20 
REMARK       I    between atoms: N4_23  and  C19_24 
REMARK       I    between atoms: C19_24  and  N6_28 
REMARK    6  A    between atoms: N6_28  and  N7_30 
ROOT
HETATM    1  C1  UNL     1       2.004  12.592  -2.646  1.00  0.00     0.221 C 
HETATM    2  N1  UNL     1       2.738  11.967  -3.288  1.00  0.00    -0.464 NA
HETATM    3  C2  UNL     1       3.644  11.202  -4.047  1.00  0.00     0.181 C 
HETATM    4  C3  UNL     1       3.902   9.848  -3.412  1.00  0.00     0.067 C 
HETATM    5  C4  UNL     1       5.383   9.757  -3.162  1.00  0.00     0.107 C 
HETATM    6  N4  UNL     1       5.901  10.762  -4.105  1.00  0.00    -0.209 N 
HETATM    7  C19 UNL     1       7.035  10.688  -4.948  1.00  0.00     0.693 C 
HETATM    8  N5  UNL     1       8.198  10.868  -4.443  1.00  0.00    -0.233 N 
ATOM      9  H51 UNL     1       9.016  10.815  -5.050  1.00  0.00     0.174 HD
ATOM     10  H52 UNL     1       8.270  11.059  -3.444  1.00  0.00     0.174 HD
HETATM   11  N6  UNL     1       6.934  10.421  -6.338  1.00  0.00    -0.072 N 
ATOM     12  H6  UNL     1       7.643  10.797  -6.968  1.00  0.00     0.212 HD
HETATM   13  C20 UNL     1       4.996  11.881  -4.002  1.00  0.00     0.181 C 
ENDROOT
BRANCH   5  14
HETATM   14  C5  UNL     1       5.801  10.101  -1.755  1.00  0.00     0.059 C 
BRANCH  14  15
HETATM   15  C6  UNL     1       6.913   9.278  -1.209  1.00  0.00     0.189 C 
HETATM   16  C7  UNL     1       7.875  10.153  -0.481  1.00  0.00     0.040 C 
BRANCH  15  17
HETATM   17  N2  UNL     1       6.434   8.158  -0.400  1.00  0.00    -0.052 N 
HETATM   18  C8  UNL     1       7.645   7.626   0.246  1.00  0.00     0.274 C 
HETATM   19  C9  UNL     1       5.562   8.681   0.603  1.00  0.00     0.240 C 
HETATM   20  C10 UNL     1       5.001   7.524   1.407  1.00  0.00     0.046 C 
HETATM   21  C11 UNL     1       3.906   6.945   0.524  1.00  0.00     0.039 C 
HETATM   22  C12 UNL     1       2.687   7.814   0.758  1.00  0.00     0.025 C 
HETATM   23  C14 UNL     1       4.270   7.041  -0.930  1.00  0.00     0.065 C 
HETATM   24  C15 UNL     1       5.743   7.198  -1.184  1.00  0.00     0.269 C 
BRANCH  21  25
HETATM   25  C13 UNL     1       3.522   5.567   0.919  1.00  0.00     0.239 C 
HETATM   26  N3  UNL     1       3.662   5.117   2.257  1.00  0.00    -0.061 NA
HETATM   27  O1  UNL     1       3.062   4.756   0.081  1.00  0.00    -0.276 OA
ENDBRANCH  21  25
BRANCH  24  28
HETATM   28  C16 UNL     1       6.431   5.900  -1.183  1.00  0.00    -0.073 C 
HETATM   29  C17 UNL     1       7.008   4.819  -1.204  1.00  0.00    -0.109 C 
HETATM   30  C18 UNL     1       7.674   3.520  -1.239  1.00  0.00     0.112 C 
ENDBRANCH  24  28
ENDBRANCH  15  17
ENDBRANCH  14  15
ENDBRANCH   5  14
BRANCH  11  31
HETATM   31  N7  UNL     1       5.882   9.654  -6.870  1.00  0.00    -0.024 N 
HETATM   32  O2  UNL     1       5.756   8.446  -6.635  1.00  0.00    -0.516 OA
HETATM   33  O3  UNL     1       4.974  10.276  -7.674  1.00  0.00    -0.516 OA
ENDBRANCH  11  31
TORSDOF 6
ENDMDL
MODEL 3
REMARK VINA RESULT: -5.770484626      1.567      1.836
REMARK  6 active torsions:
REMARK  status: ('A' for Active; 'I' for Inactive)
REMARK    1  A    between atoms: C4_5  and  C5_6 
REMARK    2  A    between atoms: C5_6  and  C6_7 
REMARK    3  A    between atoms: C6_7  and  N2_9 
REMARK    4  A    between atoms: C11_13  and  C13_15 
REMARK    5  A    between atoms: C15_19  and  C16_20 
REMARK       I    between atoms: N4_23  and  C19_24 
REMARK       I    between atoms: C19_24  and  N6_28 
REMARK    6  A    between atoms: N6_28  and  N7_30 
ROOT
HETATM    1  C1  UNL     1       2.439  10.570   3.196  1.00  0.00     0.221 C 
HETATM    2  N1  UNL     1       2.843   9.726   2.514  1.00  0.00    -0.464 NA
HETATM    3  C2  UNL     1       3.336   8.717   1.665  1.00  0.00     0.181 C 
HETATM    4  C3  UNL     1       4.553   9.183   0.889  1.00  0.00     0.067 C 
HETATM    5  C4  UNL     1       4.223   9.041  -0.572  1.00  0.00     0.107 C 
HETATM    6  N4  UNL     1       3.127   8.058  -0.530  1.00  0.00    -0.209 N 
HETATM    7  C19 UNL     1       2.894   6.951  -1.379  1.00  0.00     0.693 C 
HETATM    8  N5  UNL     1       2.389   7.152  -2.538  1.00  0.00    -0.233 N 
ATOM      9  H51 UNL     1       2.220   6.354  -3.151  1.00  0.00     0.174 HD
ATOM     10  H52 UNL     1       2.169   8.109  -2.814  1.00  0.00     0.174 HD
HETATM   11  N6  UNL     1       3.200   5.619  -0.995  1.00  0.00    -0.072 N 
ATOM     12  H6  UNL     1       2.651   4.852  -1.383  1.00  0.00     0.212 HD
HETATM   13  C20 UNL     1       2.305   8.455   0.587  1.00  0.00     0.181 C 
ENDROOT
BRANCH   5  14
HETATM   14  C5  UNL     1       3.755  10.312  -1.234  1.00  0.00     0.059 C 
BRANCH  14  15
HETATM   15  C6  UNL     1       3.790  10.300  -2.720  1.00  0.00     0.189 C 
HETATM   16  C7  UNL     1       2.472  10.738  -3.258  1.00  0.00     0.040 C 
BRANCH  15  17
HETATM   17  N2  UNL     1       4.911  11.070  -3.258  1.00  0.00    -0.052 N 
HETATM   18  C8  UNL     1       4.378  11.690  -4.482  1.00  0.00     0.274 C 
HETATM   19  C9  UNL     1       5.232  12.097  -2.318  1.00  0.00     0.240 C 
HETATM   20  C10 UNL     1       6.438  12.861  -2.829  1.00  0.00     0.046 C 
HETATM   21  C11 UNL     1       7.622  11.963  -2.500  1.00  0.00     0.039 C 
HETATM   22  C12 UNL     1       7.954  12.234  -1.047  1.00  0.00     0.025 C 
HETATM   23  C14 UNL     1       7.256  10.511  -2.627  1.00  0.00     0.065 C 
HETATM   24  C15 UNL     1       6.050  10.255  -3.486  1.00  0.00     0.269 C 
BRANCH  21  25
HETATM   25  C13 UNL     1       8.835  12.309  -3.281  1.00  0.00     0.239 C 
HETATM   26  N3  UNL     1       9.663  11.303  -3.843  1.00  0.00    -0.061 NA
HETATM   27  O1  UNL     1       9.167  13.503  -3.470  1.00  0.00    -0.276 OA
ENDBRANCH  21  25
BRANCH  24  28
HETATM   28  C16 UNL     1       6.404  10.205  -4.911  1.00  0.00    -0.073 C 
HETATM   29  C17 UNL     1       6.717  10.150  -6.095  1.00  0.00    -0.109 C 
HETATM   30  C18 UNL     1       7.108  10.099  -7.501  1.00  0.00     0.112 C 
ENDBRANCH  24  28
ENDBRANCH  15  17
ENDBRANCH  14  15
ENDBRANCH   5  14
BRANCH  11  31
HETATM   31  N7  UNL     1       4.239   5.329  -0.092  1.00  0.00    -0.024 N 
HETATM   32  O2  UNL     1       5.415   5.199  -0.452  1.00  0.00    -0.516 OA
HETATM   33  O3  UNL     1       3.925   5.188   1.227  1.00  0.00    -0.516 OA
ENDBRANCH  11  31
TORSDOF 6
ENDMDL
MODEL 4
REMARK VINA RESULT: -5.763292363      2.111      3.108
REMARK  6 active torsions:
REMARK  status: ('A' for Active; 'I' for Inactive)
REMARK    1  A    between atoms: C4_5  and  C5_6 
REMARK    2  A    between atoms: C5_6  and  C6_7 
REMARK    3  A    between atoms: C6_7  and  N2_9 
REMARK    4  A    between atoms: C11_13  and  C13_15 
REMARK    5  A    between atoms: C15_19  and  C16_20 
REMARK       I    between atoms: N4_23  and  C19_24 
REMARK       I    between atoms: C19_24  and  N6_28 
REMARK    6  A    between atoms: N6_28  and  N7_30 
ROOT
HETATM    1  C1  UNL     1       5.971   6.433  -0.624  1.00  0.00     0.221 C 
HETATM    2  N1  UNL     1       4.828   6.510  -0.794  1.00  0.00    -0.464 NA
HETATM    3  C2  UNL     1       3.441   6.628  -1.005  1.00  0.00     0.181 C 
HETATM    4  C3  UNL     1       3.132   7.417  -2.264  1.00  0.00     0.067 C 
HETATM    5  C4  UNL     1       2.289   8.592  -1.848  1.00  0.00     0.107 C 
HETATM    6  N4  UNL     1       1.753   8.125  -0.558  1.00  0.00    -0.209 N 
HETATM    7  C19 UNL     1       0.443   8.258  -0.041  1.00  0.00     0.693 C 
HETATM    8  N5  UNL     1       0.080   9.382   0.453  1.00  0.00    -0.233 N 
ATOM      9  H51 UNL     1      -0.864   9.477   0.827  1.00  0.00     0.174 HD
ATOM     10  H52 UNL     1       0.750  10.150   0.458  1.00  0.00     0.174 HD
HETATM   11  N6  UNL     1      -0.490   7.188  -0.047  1.00  0.00    -0.072 N 
ATOM     12  H6  UNL     1      -1.204   7.148   0.680  1.00  0.00     0.212 HD
HETATM   13  C20 UNL     1       2.862   7.482   0.103  1.00  0.00     0.181 C 
ENDROOT
BRANCH   5  14
HETATM   14  C5  UNL     1       3.056   9.875  -1.658  1.00  0.00     0.059 C 
BRANCH  14  15
HETATM   15  C6  UNL     1       2.785  10.928  -2.672  1.00  0.00     0.189 C 
HETATM   16  C7  UNL     1       2.028  12.048  -2.046  1.00  0.00     0.040 C 
BRANCH  15  17
HETATM   17  N2  UNL     1       4.001  11.371  -3.355  1.00  0.00    -0.052 N 
HETATM   18  C8  UNL     1       3.525  12.314  -4.380  1.00  0.00     0.274 C 
HETATM   19  C9  UNL     1       4.803  12.079  -2.408  1.00  0.00     0.240 C 
HETATM   20  C10 UNL     1       6.100  12.486  -3.081  1.00  0.00     0.046 C 
HETATM   21  C11 UNL     1       6.937  11.215  -3.088  1.00  0.00     0.039 C 
HETATM   22  C12 UNL     1       7.572  11.134  -1.715  1.00  0.00     0.025 C 
HETATM   23  C14 UNL     1       6.078   9.996  -3.273  1.00  0.00     0.065 C 
HETATM   24  C15 UNL     1       4.736  10.280  -3.886  1.00  0.00     0.269 C 
BRANCH  21  25
HETATM   25  C13 UNL     1       8.052  11.271  -4.065  1.00  0.00     0.239 C 
HETATM   26  N3  UNL     1       9.036  12.292  -4.005  1.00  0.00    -0.061 NA
HETATM   27  O1  UNL     1       8.161  10.417  -4.977  1.00  0.00    -0.276 OA
ENDBRANCH  21  25
BRANCH  24  28
HETATM   28  C16 UNL     1       4.816  10.344  -5.352  1.00  0.00    -0.073 C 
HETATM   29  C17 UNL     1       4.890  10.376  -6.575  1.00  0.00    -0.109 C 
HETATM   30  C18 UNL     1       5.004  10.417  -8.030  1.00  0.00     0.112 C 
ENDBRANCH  24  28
ENDBRANCH  15  17
ENDBRANCH  14  15
ENDBRANCH   5  14
BRANCH  11  31
HETATM   31  N7  UNL     1      -0.454   6.181  -1.029  1.00  0.00    -0.024 N 
HETATM   32  O2  UNL     1      -1.034   6.291  -2.115  1.00  0.00    -0.516 OA
HETATM   33  O3  UNL     1       0.249   5.044  -0.759  1.00  0.00    -0.516 OA
ENDBRANCH  11  31
TORSDOF 6
ENDMDL
MODEL 5
REMARK VINA RESULT: -5.736597105      2.273      3.260
REMARK  6 active torsions:
REMARK  status: ('A' for Active; 'I' for Inactive)
REMARK    1  A    between atoms: C4_5  and  C5_6 
REMARK    2  A    between atoms: C5_6  and  C6_7 
REMARK    3  A    between atoms: C6_7  and  N2_9 
REMARK    4  A    between atoms: C11_13  and  C13_15 
REMARK    5  A    between atoms: C15_19  and  C16_20 
REMARK       I    between atoms: N4_23  and  C19_24 
REMARK       I    between atoms: C19_24  and  N6_28 
REMARK    6  A    between atoms: N6_28  and  N7_30 
ROOT
HETATM    1  C1  UNL     1      -0.911   6.393  -1.661  1.00  0.00     0.221 C 
HETATM    2  N1  UNL     1       0.104   6.557  -1.128  1.00  0.00    -0.464 NA
HETATM    3  C2  UNL     1       1.344   6.773  -0.498  1.00  0.00     0.181 C 
HETATM    4  C3  UNL     1       1.686   8.249  -0.426  1.00  0.00     0.067 C 
HETATM    5  C4  UNL     1       2.999   8.430  -1.138  1.00  0.00     0.107 C 
HETATM    6  N4  UNL     1       3.549   7.065  -1.090  1.00  0.00    -0.209 N 
HETATM    7  C19 UNL     1       4.874   6.649  -0.823  1.00  0.00     0.693 C 
HETATM    8  N5  UNL     1       5.754   6.746  -1.747  1.00  0.00    -0.233 N 
ATOM      9  H51 UNL     1       6.710   6.446  -1.554  1.00  0.00     0.174 HD
ATOM     10  H52 UNL     1       5.472   7.122  -2.651  1.00  0.00     0.174 HD
HETATM   11  N6  UNL     1       5.268   6.125   0.437  1.00  0.00    -0.072 N 
ATOM     12  H6  UNL     1       6.035   5.455   0.477  1.00  0.00     0.212 HD
HETATM   13  C20 UNL     1       2.433   6.197  -1.380  1.00  0.00     0.181 C 
ENDROOT
BRANCH   5  14
HETATM   14  C5  UNL     1       2.877   8.892  -2.568  1.00  0.00     0.059 C 
BRANCH  14  15
HETATM   15  C6  UNL     1       2.752  10.362  -2.747  1.00  0.00     0.189 C 
HETATM   16  C7  UNL     1       2.429  11.003  -1.442  1.00  0.00     0.040 C 
BRANCH  15  17
HETATM   17  N2  UNL     1       3.926  10.947  -3.396  1.00  0.00    -0.052 N 
HETATM   18  C8  UNL     1       3.372  11.907  -4.364  1.00  0.00     0.274 C 
HETATM   19  C9  UNL     1       4.667  11.660  -2.404  1.00  0.00     0.240 C 
HETATM   20  C10 UNL     1       5.925  12.214  -3.046  1.00  0.00     0.046 C 
HETATM   21  C11 UNL     1       6.866  11.021  -3.127  1.00  0.00     0.039 C 
HETATM   22  C12 UNL     1       7.506  10.909  -1.759  1.00  0.00     0.025 C 
HETATM   23  C14 UNL     1       6.111   9.748  -3.390  1.00  0.00     0.065 C 
HETATM   24  C15 UNL     1       4.749   9.956  -3.990  1.00  0.00     0.269 C 
BRANCH  21  25
HETATM   25  C13 UNL     1       7.971  11.230  -4.094  1.00  0.00     0.239 C 
HETATM   26  N3  UNL     1       8.831  12.355  -4.000  1.00  0.00    -0.061 NA
HETATM   27  O1  UNL     1       8.181  10.418  -5.026  1.00  0.00    -0.276 OA
ENDBRANCH  21  25
BRANCH  24  28
HETATM   28  C16 UNL     1       4.823  10.116  -5.449  1.00  0.00    -0.073 C 
HETATM   29  C17 UNL     1       4.907  10.249  -6.665  1.00  0.00    -0.109 C 
HETATM   30  C18 UNL     1       5.015  10.429  -8.110  1.00  0.00     0.112 C 
ENDBRANCH  24  28
ENDBRANCH  15  17
ENDBRANCH  14  15
ENDBRANCH   5  14
BRANCH  11  31
HETATM   31  N7  UNL     1       4.627   6.507   1.630  1.00  0.00    -0.024 N 
HETATM   32  O2  UNL     1       4.667   7.663   2.065  1.00  0.00    -0.516 OA
HETATM   33  O3  UNL     1       3.941   5.555   2.324  1.00  0.00    -0.516 OA
ENDBRANCH  11  31
TORSDOF 6
ENDMDL
