MODEL 1
REMARK VINA RESULT: -6.571534554      0.000      0.000
REMARK  4 active torsions:
REMARK  status: ('A' for Active; 'I' for Inactive)
REMARK    1  A    between atoms: C2_2  and  C4_4 
REMARK       I    between atoms: C4_4  and  N1_6 
REMARK    2  A    between atoms: N1_6  and  N2_8 
REMARK    3  A    between atoms: N2_8  and  C5_10 
REMARK    4  A    between atoms: C5_10  and  N3_12 
REMARK       I    between atoms: N3_12  and  C6_14 
REMARK       I    between atoms: C6_14  and  N5_18 
ROOT
HETATM    1  N3  UNL     1     -17.087  10.046  33.440  1.00  0.00    -0.164 N 
ATOM      2  H3  UNL     1     -16.429  10.216  34.201  1.00  0.00     0.186 HD
HETATM    3  C6  UNL     1     -16.712   9.083  32.481  1.00  0.00     0.689 C 
HETATM    4  N4  UNL     1     -15.820   9.394  31.609  1.00  0.00    -0.230 N 
ATOM      5  H4  UNL     1     -15.544   8.702  30.912  1.00  0.00     0.177 HD
HETATM    6  C7  UNL     1     -15.205  10.682  31.591  1.00  0.00     0.165 C 
HETATM    7  N5  UNL     1     -17.248   7.772  32.426  1.00  0.00    -0.126 N 
ATOM      8  H5  UNL     1     -17.986   7.492  33.072  1.00  0.00     0.197 HD
HETATM    9  C8  UNL     1     -16.752   6.849  31.466  1.00  0.00     0.196 C 
HETATM   10  N6  UNL     1     -16.325   6.099  30.678  1.00  0.00    -0.171 NA
ENDROOT
BRANCH   1  11
HETATM   11  C5  UNL     1     -18.266  10.789  33.453  1.00  0.00     0.205 C 
HETATM   12  S1  UNL     1     -18.153  12.476  33.503  1.00  0.00    -0.039 SA
BRANCH  11  13
HETATM   13  N2  UNL     1     -19.583  10.335  33.429  1.00  0.00    -0.273 N 
ATOM     14  H2  UNL     1     -19.741   9.342  33.258  1.00  0.00     0.189 HD
BRANCH  13  15
HETATM   15  N1  UNL     1     -20.686  11.138  33.621  1.00  0.00    -0.264 N 
HETATM   16  C4  UNL     1     -21.477  11.060  34.819  1.00  0.00     0.265 C 
HETATM   17  O1  UNL     1     -21.147  10.234  35.714  1.00  0.00    -0.266 OA
ATOM     18  H1  UNL     1     -20.948  11.805  32.895  1.00  0.00     0.190 HD
BRANCH  16  19
HETATM   19  C2  UNL     1     -22.622  11.907  34.996  1.00  0.00    -0.002 C 
HETATM   20  C1  UNL     1     -23.849  11.579  34.654  1.00  0.00     0.024 C 
HETATM   21  C3  UNL     1     -22.416  13.261  35.614  1.00  0.00     0.053 C 
ENDBRANCH  16  19
ENDBRANCH  13  15
ENDBRANCH  11  13
ENDBRANCH   1  11
TORSDOF 4
ENDMDL
MODEL 2
REMARK VINA RESULT: -6.291973581      2.725      6.204
REMARK  4 active torsions:
REMARK  status: ('A' for Active; 'I' for Inactive)
REMARK    1  A    between atoms: C2_2  and  C4_4 
REMARK       I    between atoms: C4_4  and  N1_6 
REMARK    2  A    between atoms: N1_6  and  N2_8 
REMARK    3  A    between atoms: N2_8  and  C5_10 
REMARK    4  A    between atoms: C5_10  and  N3_12 
REMARK       I    between atoms: N3_12  and  C6_14 
REMARK       I    between atoms: C6_14  and  N5_18 
ROOT
HETATM    1  N3  UNL     1     -18.196  11.796  32.374  1.00  0.00    -0.164 N 
ATOM      2  H3  UNL     1     -18.451  12.362  31.564  1.00  0.00     0.186 HD
HETATM    3  C6  UNL     1     -19.158  11.686  33.397  1.00  0.00     0.689 C 
HETATM    4  N4  UNL     1     -19.341  12.686  34.184  1.00  0.00    -0.230 N 
ATOM      5  H4  UNL     1     -20.036  12.614  34.927  1.00  0.00     0.177 HD
HETATM    6  C7  UNL     1     -18.597  13.897  34.044  1.00  0.00     0.165 C 
HETATM    7  N5  UNL     1     -19.961  10.536  33.608  1.00  0.00    -0.126 N 
ATOM      8  H5  UNL     1     -19.825   9.704  33.035  1.00  0.00     0.197 HD
HETATM    9  C8  UNL     1     -20.955  10.549  34.623  1.00  0.00     0.196 C 
HETATM   10  N6  UNL     1     -21.777  10.581  35.453  1.00  0.00    -0.171 NA
ENDROOT
BRANCH   1  11
HETATM   11  C5  UNL     1     -16.932  11.209  32.356  1.00  0.00     0.205 C 
HETATM   12  S1  UNL     1     -15.753  11.869  31.338  1.00  0.00    -0.039 SA
BRANCH  11  13
HETATM   13  N2  UNL     1     -16.469  10.113  33.081  1.00  0.00    -0.273 N 
ATOM     14  H2  UNL     1     -15.800  10.286  33.831  1.00  0.00     0.189 HD
BRANCH  13  15
HETATM   15  N1  UNL     1     -16.857   8.810  32.854  1.00  0.00    -0.264 N 
HETATM   16  C4  UNL     1     -16.324   8.044  31.761  1.00  0.00     0.265 C 
HETATM   17  O1  UNL     1     -15.479   8.582  30.994  1.00  0.00    -0.266 OA
ATOM     18  H1  UNL     1     -17.539   8.378  33.478  1.00  0.00     0.190 HD
BRANCH  16  19
HETATM   19  C2  UNL     1     -16.744   6.688  31.545  1.00  0.00    -0.002 C 
HETATM   20  C1  UNL     1     -16.618   6.044  30.406  1.00  0.00     0.024 C 
HETATM   21  C3  UNL     1     -17.369   5.947  32.693  1.00  0.00     0.053 C 
ENDBRANCH  16  19
ENDBRANCH  13  15
ENDBRANCH  11  13
ENDBRANCH   1  11
TORSDOF 4
ENDMDL
MODEL 3
REMARK VINA RESULT: -6.166664272      3.412      6.009
REMARK  4 active torsions:
REMARK  status: ('A' for Active; 'I' for Inactive)
REMARK    1  A    between atoms: C2_2  and  C4_4 
REMARK       I    between atoms: C4_4  and  N1_6 
REMARK    2  A    between atoms: N1_6  and  N2_8 
REMARK    3  A    between atoms: N2_8  and  C5_10 
REMARK    4  A    between atoms: C5_10  and  N3_12 
REMARK       I    between atoms: N3_12  and  C6_14 
REMARK       I    between atoms: C6_14  and  N5_18 
ROOT
HETATM    1  N3  UNL     1     -17.433  11.442  31.794  1.00  0.00    -0.164 N 
ATOM      2  H3  UNL     1     -17.611  11.991  30.953  1.00  0.00     0.186 HD
HETATM    3  C6  UNL     1     -18.453  11.423  32.766  1.00  0.00     0.689 C 
HETATM    4  N4  UNL     1     -18.620  12.460  33.507  1.00  0.00    -0.230 N 
ATOM      5  H4  UNL     1     -19.356  12.453  34.213  1.00  0.00     0.177 HD
HETATM    6  C7  UNL     1     -17.801  13.622  33.368  1.00  0.00     0.165 C 
HETATM    7  N5  UNL     1     -19.330  10.328  32.971  1.00  0.00    -0.126 N 
ATOM      8  H5  UNL     1     -19.211   9.468  32.435  1.00  0.00     0.197 HD
HETATM    9  C8  UNL     1     -20.375  10.433  33.928  1.00  0.00     0.196 C 
HETATM   10  N6  UNL     1     -21.236  10.541  34.711  1.00  0.00    -0.171 NA
ENDROOT
BRANCH   1  11
HETATM   11  C5  UNL     1     -16.205  10.786  31.866  1.00  0.00     0.205 C 
HETATM   12  S1  UNL     1     -16.188   9.097  31.769  1.00  0.00    -0.039 SA
BRANCH  11  13
HETATM   13  N2  UNL     1     -14.931  11.333  32.010  1.00  0.00    -0.273 N 
ATOM     14  H2  UNL     1     -14.164  10.894  31.502  1.00  0.00     0.189 HD
BRANCH  13  15
HETATM   15  N1  UNL     1     -14.640  12.429  32.793  1.00  0.00    -0.264 N 
HETATM   16  C4  UNL     1     -14.627  12.349  34.229  1.00  0.00     0.265 C 
HETATM   17  O1  UNL     1     -14.888  11.244  34.779  1.00  0.00    -0.266 OA
ATOM     18  H1  UNL     1     -14.428  13.319  32.343  1.00  0.00     0.190 HD
BRANCH  16  19
HETATM   19  C2  UNL     1     -14.320  13.504  35.023  1.00  0.00    -0.002 C 
HETATM   20  C1  UNL     1     -13.600  14.522  34.607  1.00  0.00     0.024 C 
HETATM   21  C3  UNL     1     -14.856  13.565  36.426  1.00  0.00     0.053 C 
ENDBRANCH  16  19
ENDBRANCH  13  15
ENDBRANCH  11  13
ENDBRANCH   1  11
TORSDOF 4
ENDMDL
MODEL 4
REMARK VINA RESULT: -6.161981001      2.532      6.746
REMARK  4 active torsions:
REMARK  status: ('A' for Active; 'I' for Inactive)
REMARK    1  A    between atoms: C2_2  and  C4_4 
REMARK       I    between atoms: C4_4  and  N1_6 
REMARK    2  A    between atoms: N1_6  and  N2_8 
REMARK    3  A    between atoms: N2_8  and  C5_10 
REMARK    4  A    between atoms: C5_10  and  N3_12 
REMARK       I    between atoms: N3_12  and  C6_14 
REMARK       I    between atoms: C6_14  and  N5_18 
ROOT
HETATM    1  N3  UNL     1     -19.985  12.102  35.845  1.00  0.00    -0.164 N 
ATOM      2  H3  UNL     1     -19.788  12.664  36.673  1.00  0.00     0.186 HD
HETATM    3  C6  UNL     1     -21.300  11.613  35.708  1.00  0.00     0.689 C 
HETATM    4  N4  UNL     1     -21.669  10.622  36.439  1.00  0.00    -0.230 N 
ATOM      5  H4  UNL     1     -22.619  10.262  36.346  1.00  0.00     0.177 HD
HETATM    6  C7  UNL     1     -20.783  10.011  37.378  1.00  0.00     0.165 C 
HETATM    7  N5  UNL     1     -22.259  12.160  34.820  1.00  0.00    -0.126 N 
ATOM      8  H5  UNL     1     -22.001  12.922  34.192  1.00  0.00     0.197 HD
HETATM    9  C8  UNL     1     -23.582  11.643  34.808  1.00  0.00     0.196 C 
HETATM   10  N6  UNL     1     -24.669  11.214  34.820  1.00  0.00    -0.171 NA
ENDROOT
BRANCH   1  11
HETATM   11  C5  UNL     1     -18.927  11.897  34.961  1.00  0.00     0.205 C 
HETATM   12  S1  UNL     1     -18.574  13.106  33.832  1.00  0.00    -0.039 SA
BRANCH  11  13
HETATM   13  N2  UNL     1     -18.075  10.798  34.862  1.00  0.00    -0.273 N 
ATOM     14  H2  UNL     1     -17.654  10.443  35.720  1.00  0.00     0.189 HD
BRANCH  13  15
HETATM   15  N1  UNL     1     -17.764  10.158  33.682  1.00  0.00    -0.264 N 
HETATM   16  C4  UNL     1     -16.416  10.101  33.186  1.00  0.00     0.265 C 
HETATM   17  O1  UNL     1     -15.498  10.651  33.854  1.00  0.00    -0.266 OA
ATOM     18  H1  UNL     1     -18.510   9.714  33.146  1.00  0.00     0.190 HD
BRANCH  16  19
HETATM   19  C2  UNL     1     -16.118   9.429  31.954  1.00  0.00    -0.002 C 
HETATM   20  C1  UNL     1     -15.231   9.844  31.077  1.00  0.00     0.024 C 
HETATM   21  C3  UNL     1     -16.863   8.164  31.635  1.00  0.00     0.053 C 
ENDBRANCH  16  19
ENDBRANCH  13  15
ENDBRANCH  11  13
ENDBRANCH   1  11
TORSDOF 4
ENDMDL
MODEL 5
REMARK VINA RESULT: -6.117847658      4.508      6.414
REMARK  4 active torsions:
REMARK  status: ('A' for Active; 'I' for Inactive)
REMARK    1  A    between atoms: C2_2  and  C4_4 
REMARK       I    between atoms: C4_4  and  N1_6 
REMARK    2  A    between atoms: N1_6  and  N2_8 
REMARK    3  A    between atoms: N2_8  and  C5_10 
REMARK    4  A    between atoms: C5_10  and  N3_12 
REMARK       I    between atoms: N3_12  and  C6_14 
REMARK       I    between atoms: C6_14  and  N5_18 
ROOT
HETATM    1  N3  UNL     1     -16.001  10.752  37.631  1.00  0.00    -0.164 N 
ATOM      2  H3  UNL     1     -16.802  10.889  38.247  1.00  0.00     0.186 HD
HETATM    3  C6  UNL     1     -14.995   9.876  38.085  1.00  0.00     0.689 C 
HETATM    4  N4  UNL     1     -14.190  10.282  39.002  1.00  0.00    -0.230 N 
ATOM      5  H4  UNL     1     -13.459   9.654  39.336  1.00  0.00     0.177 HD
HETATM    6  C7  UNL     1     -14.293  11.590  39.565  1.00  0.00     0.165 C 
HETATM    7  N5  UNL     1     -14.821   8.554  37.604  1.00  0.00    -0.126 N 
ATOM      8  H5  UNL     1     -15.410   8.201  36.850  1.00  0.00     0.197 HD
HETATM    9  C8  UNL     1     -13.822   7.723  38.178  1.00  0.00     0.196 C 
HETATM   10  N6  UNL     1     -13.003   7.049  38.670  1.00  0.00    -0.171 NA
ENDROOT
BRANCH   1  11
HETATM   11  C5  UNL     1     -16.013  11.449  36.424  1.00  0.00     0.205 C 
HETATM   12  S1  UNL     1     -15.112  12.877  36.311  1.00  0.00    -0.039 SA
BRANCH  11  13
HETATM   13  N2  UNL     1     -16.681  11.135  35.242  1.00  0.00    -0.273 N 
ATOM     14  H2  UNL     1     -17.591  11.566  35.081  1.00  0.00     0.189 HD
BRANCH  13  15
HETATM   15  N1  UNL     1     -16.194  10.282  34.276  1.00  0.00    -0.264 N 
HETATM   16  C4  UNL     1     -16.930  10.003  33.074  1.00  0.00     0.265 C 
HETATM   17  O1  UNL     1     -18.051  10.558  32.903  1.00  0.00    -0.266 OA
ATOM     18  H1  UNL     1     -15.286   9.837  34.418  1.00  0.00     0.190 HD
BRANCH  16  19
HETATM   19  C2  UNL     1     -16.402   9.110  32.082  1.00  0.00    -0.002 C 
HETATM   20  C1  UNL     1     -16.788   7.863  31.924  1.00  0.00     0.024 C 
HETATM   21  C3  UNL     1     -15.336   9.626  31.157  1.00  0.00     0.053 C 
ENDBRANCH  16  19
ENDBRANCH  13  15
ENDBRANCH  11  13
ENDBRANCH   1  11
TORSDOF 4
ENDMDL
