MODEL 1
REMARK VINA RESULT: -7.320115219      0.000      0.000
REMARK  3 active torsions:
REMARK  status: ('A' for Active; 'I' for Inactive)
REMARK    1  A    between atoms: O1_2  and  C2_3 
REMARK    2  A    between atoms: C2_3  and  C3_4 
REMARK    3  A    between atoms: C3_4  and  C4_5 
ROOT
HETATM    1  C4  UNL     1      -0.862  39.251  71.296  1.00  0.00     0.071 A 
HETATM    2  C5  UNL     1      -1.614  39.808  72.215  1.00  0.00     0.121 A 
HETATM    3  N1  UNL     1      -2.722  40.604  71.847  1.00  0.00    -0.361 N 
ATOM      4  H1  UNL     1      -3.296  41.031  72.574  1.00  0.00     0.165 HD
HETATM    5  C6  UNL     1      -3.046  40.821  70.496  1.00  0.00     0.078 A 
HETATM    6  C7  UNL     1      -4.120  41.592  70.134  1.00  0.00     0.007 A 
HETATM    7  C8  UNL     1      -4.963  42.216  71.144  1.00  0.00     0.054 C 
HETATM    8  C9  UNL     1      -4.378  41.761  68.798  1.00  0.00     0.133 A 
HETATM    9  F1  UNL     1      -5.438  42.523  68.446  1.00  0.00    -0.205 F 
HETATM   10  C10 UNL     1      -3.580  41.171  67.833  1.00  0.00     0.019 A 
HETATM   11  C11 UNL     1      -3.875  41.364  66.398  1.00  0.00     0.055 C 
HETATM   12  C12 UNL     1      -2.512  40.403  68.212  1.00  0.00     0.161 A 
HETATM   13  F2  UNL     1      -1.702  39.804  67.305  1.00  0.00    -0.202 F 
HETATM   14  C13 UNL     1      -2.233  40.219  69.537  1.00  0.00     0.142 A 
HETATM   15  O2  UNL     1      -1.160  39.448  69.954  1.00  0.00    -0.308 OA
ENDROOT
BRANCH   1  16
HETATM   16  C3  UNL     1       0.322  38.398  71.635  1.00  0.00     0.092 C 
BRANCH  16  17
HETATM   17  C2  UNL     1       1.550  39.241  71.716  1.00  0.00     0.173 C 
BRANCH  17  18
HETATM   18  O1  UNL     1       2.746  38.594  71.547  1.00  0.00    -0.396 OA
HETATM   19  C1  UNL     1       2.796  37.885  70.377  1.00  0.00     0.201 C 
ENDBRANCH  17  18
ENDBRANCH  16  17
ENDBRANCH   1  16
TORSDOF 3
ENDMDL
MODEL 2
REMARK VINA RESULT: -7.110163554      1.127      1.378
REMARK  3 active torsions:
REMARK  status: ('A' for Active; 'I' for Inactive)
REMARK    1  A    between atoms: O1_2  and  C2_3 
REMARK    2  A    between atoms: C2_3  and  C3_4 
REMARK    3  A    between atoms: C3_4  and  C4_5 
ROOT
HETATM    1  C4  UNL     1      -0.730  39.094  71.644  1.00  0.00     0.071 A 
HETATM    2  C5  UNL     1      -1.301  39.298  72.806  1.00  0.00     0.121 A 
HETATM    3  N1  UNL     1      -2.478  40.074  72.898  1.00  0.00    -0.361 N 
ATOM      4  H1  UNL     1      -2.910  40.224  73.810  1.00  0.00     0.165 HD
HETATM    5  C6  UNL     1      -3.065  40.645  71.755  1.00  0.00     0.078 A 
HETATM    6  C7  UNL     1      -4.207  41.399  71.839  1.00  0.00     0.007 A 
HETATM    7  C8  UNL     1      -4.852  41.633  73.123  1.00  0.00     0.054 C 
HETATM    8  C9  UNL     1      -4.725  41.926  70.684  1.00  0.00     0.133 A 
HETATM    9  F1  UNL     1      -5.851  42.669  70.772  1.00  0.00    -0.205 F 
HETATM   10  C10 UNL     1      -4.116  41.707  69.459  1.00  0.00     0.019 A 
HETATM   11  C11 UNL     1      -4.690  42.282  68.225  1.00  0.00     0.055 C 
HETATM   12  C12 UNL     1      -2.977  40.951  69.394  1.00  0.00     0.161 A 
HETATM   13  F2  UNL     1      -2.345  40.708  68.220  1.00  0.00    -0.202 F 
HETATM   14  C13 UNL     1      -2.440  40.415  70.530  1.00  0.00     0.142 A 
HETATM   15  O2  UNL     1      -1.288  39.646  70.498  1.00  0.00    -0.308 OA
ENDROOT
BRANCH   1  16
HETATM   16  C3  UNL     1       0.519  38.278  71.493  1.00  0.00     0.092 C 
BRANCH  16  17
HETATM   17  C2  UNL     1       1.718  39.150  71.651  1.00  0.00     0.173 C 
BRANCH  17  18
HETATM   18  O1  UNL     1       2.930  38.577  71.367  1.00  0.00    -0.396 OA
HETATM   19  C1  UNL     1       2.855  37.675  70.341  1.00  0.00     0.201 C 
ENDBRANCH  17  18
ENDBRANCH  16  17
ENDBRANCH   1  16
TORSDOF 3
ENDMDL
MODEL 3
REMARK VINA RESULT: -7.108669264      1.624      2.689
REMARK  3 active torsions:
REMARK  status: ('A' for Active; 'I' for Inactive)
REMARK    1  A    between atoms: O1_2  and  C2_3 
REMARK    2  A    between atoms: C2_3  and  C3_4 
REMARK    3  A    between atoms: C3_4  and  C4_5 
ROOT
HETATM    1  C4  UNL     1      -0.338  39.404  70.567  1.00  0.00     0.071 A 
HETATM    2  C5  UNL     1      -0.081  39.494  69.285  1.00  0.00     0.121 A 
HETATM    3  N1  UNL     1      -0.963  40.185  68.425  1.00  0.00    -0.361 N 
ATOM      4  H1  UNL     1      -0.748  40.246  67.429  1.00  0.00     0.165 HD
HETATM    5  C6  UNL     1      -2.133  40.791  68.916  1.00  0.00     0.078 A 
HETATM    6  C7  UNL     1      -2.992  41.464  68.086  1.00  0.00     0.007 A 
HETATM    7  C8  UNL     1      -2.718  41.572  66.660  1.00  0.00     0.054 C 
HETATM    8  C9  UNL     1      -4.114  42.030  68.632  1.00  0.00     0.133 A 
HETATM    9  F1  UNL     1      -4.959  42.692  67.810  1.00  0.00    -0.205 F 
HETATM   10  C10 UNL     1      -4.381  41.932  69.988  1.00  0.00     0.019 A 
HETATM   11  C11 UNL     1      -5.596  42.550  70.558  1.00  0.00     0.055 C 
HETATM   12  C12 UNL     1      -3.512  41.257  70.803  1.00  0.00     0.161 A 
HETATM   13  F2  UNL     1      -3.728  41.133  72.134  1.00  0.00    -0.202 F 
HETATM   14  C13 UNL     1      -2.386  40.683  70.282  1.00  0.00     0.142 A 
HETATM   15  O2  UNL     1      -1.487  39.994  71.080  1.00  0.00    -0.308 OA
ENDROOT
BRANCH   1  16
HETATM   16  C3  UNL     1       0.565  38.683  71.520  1.00  0.00     0.092 C 
BRANCH  16  17
HETATM   17  C2  UNL     1       1.906  39.335  71.542  1.00  0.00     0.173 C 
BRANCH  17  18
HETATM   18  O1  UNL     1       2.991  38.500  71.461  1.00  0.00    -0.396 OA
HETATM   19  C1  UNL     1       2.933  37.671  70.375  1.00  0.00     0.201 C 
ENDBRANCH  17  18
ENDBRANCH  16  17
ENDBRANCH   1  16
TORSDOF 3
ENDMDL
MODEL 4
REMARK VINA RESULT: -7.027817446      1.377      1.688
REMARK  3 active torsions:
REMARK  status: ('A' for Active; 'I' for Inactive)
REMARK    1  A    between atoms: O1_2  and  C2_3 
REMARK    2  A    between atoms: C2_3  and  C3_4 
REMARK    3  A    between atoms: C3_4  and  C4_5 
ROOT
HETATM    1  C4  UNL     1      -1.188  39.392  71.867  1.00  0.00     0.071 A 
HETATM    2  C5  UNL     1      -2.024  40.035  72.647  1.00  0.00     0.121 A 
HETATM    3  N1  UNL     1      -3.063  40.816  72.093  1.00  0.00    -0.361 N 
ATOM      4  H1  UNL     1      -3.704  41.310  72.714  1.00  0.00     0.165 HD
HETATM    5  C6  UNL     1      -3.228  40.926  70.701  1.00  0.00     0.078 A 
HETATM    6  C7  UNL     1      -4.235  41.682  70.158  1.00  0.00     0.007 A 
HETATM    7  C8  UNL     1      -5.170  42.400  71.013  1.00  0.00     0.054 C 
HETATM    8  C9  UNL     1      -4.338  41.744  68.793  1.00  0.00     0.133 A 
HETATM    9  F1  UNL     1      -5.332  42.492  68.263  1.00  0.00    -0.205 F 
HETATM   10  C10 UNL     1      -3.452  41.064  67.975  1.00  0.00     0.019 A 
HETATM   11  C11 UNL     1      -3.579  41.143  66.505  1.00  0.00     0.055 C 
HETATM   12  C12 UNL     1      -2.453  40.312  68.533  1.00  0.00     0.161 A 
HETATM   13  F2  UNL     1      -1.562  39.628  67.775  1.00  0.00    -0.202 F 
HETATM   14  C13 UNL     1      -2.329  40.234  69.891  1.00  0.00     0.142 A 
HETATM   15  O2  UNL     1      -1.329  39.482  70.488  1.00  0.00    -0.308 OA
ENDROOT
BRANCH   1  16
HETATM   16  C3  UNL     1      -0.071  38.551  72.405  1.00  0.00     0.092 C 
BRANCH  16  17
HETATM   17  C2  UNL     1      -0.057  37.226  71.720  1.00  0.00     0.173 C 
BRANCH  17  18
HETATM   18  O1  UNL     1      -0.451  36.148  72.470  1.00  0.00    -0.396 OA
HETATM   19  C1  UNL     1      -0.442  36.414  73.812  1.00  0.00     0.201 C 
ENDBRANCH  17  18
ENDBRANCH  16  17
ENDBRANCH   1  16
TORSDOF 3
ENDMDL
MODEL 5
REMARK VINA RESULT: -7.004298325      1.915      2.959
REMARK  3 active torsions:
REMARK  status: ('A' for Active; 'I' for Inactive)
REMARK    1  A    between atoms: O1_2  and  C2_3 
REMARK    2  A    between atoms: C2_3  and  C3_4 
REMARK    3  A    between atoms: C3_4  and  C4_5 
ROOT
HETATM    1  C4  UNL     1       0.180  40.084  68.986  1.00  0.00     0.071 A 
HETATM    2  C5  UNL     1      -0.102  40.239  67.715  1.00  0.00     0.121 A 
HETATM    3  N1  UNL     1      -1.383  40.682  67.315  1.00  0.00    -0.361 N 
ATOM      4  H1  UNL     1      -1.587  40.797  66.322  1.00  0.00     0.165 HD
HETATM    5  C6  UNL     1      -2.383  40.967  68.262  1.00  0.00     0.078 A 
HETATM    6  C7  UNL     1      -3.627  41.397  67.880  1.00  0.00     0.007 A 
HETATM    7  C8  UNL     1      -3.954  41.574  66.472  1.00  0.00     0.054 C 
HETATM    8  C9  UNL     1      -4.554  41.656  68.856  1.00  0.00     0.133 A 
HETATM    9  F1  UNL     1      -5.780  42.080  68.474  1.00  0.00    -0.205 F 
HETATM   10  C10 UNL     1      -4.250  41.491  70.197  1.00  0.00     0.019 A 
HETATM   11  C11 UNL     1      -5.262  41.776  71.235  1.00  0.00     0.055 C 
HETATM   12  C12 UNL     1      -3.002  41.061  70.561  1.00  0.00     0.161 A 
HETATM   13  F2  UNL     1      -2.656  40.884  71.859  1.00  0.00    -0.202 F 
HETATM   14  C13 UNL     1      -2.060  40.795  69.607  1.00  0.00     0.142 A 
HETATM   15  O2  UNL     1      -0.788  40.359  69.943  1.00  0.00    -0.308 OA
ENDROOT
BRANCH   1  16
HETATM   16  C3  UNL     1       1.523  39.618  69.460  1.00  0.00     0.092 C 
BRANCH  16  17
HETATM   17  C2  UNL     1       1.625  39.783  70.939  1.00  0.00     0.173 C 
BRANCH  17  18
HETATM   18  O1  UNL     1       2.555  39.002  71.576  1.00  0.00    -0.396 OA
HETATM   19  C1  UNL     1       3.111  38.068  70.746  1.00  0.00     0.201 C 
ENDBRANCH  17  18
ENDBRANCH  16  17
ENDBRANCH   1  16
TORSDOF 3
ENDMDL
