MODEL 1
REMARK VINA RESULT: -7.283694918      0.000      0.000
REMARK  6 active torsions:
REMARK  status: ('A' for Active; 'I' for Inactive)
REMARK    1  A    between atoms: N2_7  and  C4_8 
REMARK    2  A    between atoms: C4_8  and  C5_9 
REMARK       I    between atoms: C5_9  and  N3_11 
REMARK    3  A    between atoms: C12_20  and  N4_21 
REMARK       I    between atoms: N4_21  and  C13_23 
REMARK    4  A    between atoms: C13_23  and  C14_25 
REMARK       I    between atoms: N5_29  and  C18_30 
REMARK    5  A    between atoms: C18_30  and  C19_32 
REMARK    6  A    between atoms: C19_32  and  C20_33 
ROOT
HETATM    1  N4  UNL     1     -10.988 -11.657   3.305  1.00  0.00    -0.341 N 
ATOM      2  H4  UNL     1     -11.507 -12.034   2.512  1.00  0.00     0.163 HD
HETATM    3  C13 UNL     1      -9.606 -11.834   3.396  1.00  0.00     0.241 C 
HETATM    4  O3  UNL     1      -8.960 -11.367   4.365  1.00  0.00    -0.271 OA
ENDROOT
BRANCH   1   5
HETATM    5  C12 UNL     1     -11.671 -10.932   4.353  1.00  0.00     0.222 C 
HETATM    6  C1  UNL     1     -12.894 -11.634   4.816  1.00  0.00     0.013 C 
HETATM    7  N1  UNL     1     -13.011 -12.927   4.740  1.00  0.00    -0.403 N 
HETATM    8  C2  UNL     1     -14.002 -10.817   5.372  1.00  0.00     0.074 C 
ATOM      9  H12 UNL     1     -13.851 -13.409   5.058  1.00  0.00     0.155 HD
ATOM     10  H11 UNL     1     -12.250 -13.488   4.357  1.00  0.00     0.155 HD
HETATM   11  C3  UNL     1     -13.543  -9.477   5.911  1.00  0.00     0.132 C 
HETATM   12  N2  UNL     1     -12.753  -8.768   4.900  1.00  0.00    -0.341 N 
HETATM   13  C11 UNL     1     -12.083  -9.572   3.943  1.00  0.00     0.248 C 
HETATM   14  O2  UNL     1     -11.833  -9.178   2.787  1.00  0.00    -0.271 OA
BRANCH  12  15
HETATM   15  C4  UNL     1     -12.649  -7.328   4.868  1.00  0.00     0.228 C 
BRANCH  15  16
HETATM   16  C5  UNL     1     -13.254  -6.807   3.617  1.00  0.00     0.237 C 
HETATM   17  O1  UNL     1     -14.403  -7.226   3.308  1.00  0.00    -0.272 OA
HETATM   18  N3  UNL     1     -12.621  -5.874   2.758  1.00  0.00    -0.351 N 
HETATM   19  C6  UNL     1     -13.291  -5.450   1.564  1.00  0.00     0.127 C 
HETATM   20  C10 UNL     1     -11.302  -5.397   3.158  1.00  0.00     0.127 C 
HETATM   21  C7  UNL     1     -12.400  -5.528   0.345  1.00  0.00     0.040 C 
HETATM   22  C8  UNL     1     -10.938  -5.411   0.713  1.00  0.00     0.085 C 
HETATM   23 CL1  UNL     1     -10.274  -7.042   0.949  1.00  0.00    -0.125 Cl
HETATM   24  C9  UNL     1     -10.745  -4.619   1.986  1.00  0.00     0.040 C 
ENDBRANCH  15  16
ENDBRANCH  12  15
ENDBRANCH   1   5
BRANCH   3  25
HETATM   25  C14 UNL     1      -8.846 -12.578   2.354  1.00  0.00     0.179 C 
HETATM   26  C15 UNL     1      -7.523 -11.815   2.139  1.00  0.00     0.037 C 
HETATM   27  C16 UNL     1      -8.104 -10.630   1.345  1.00  0.00     0.022 C 
HETATM   28  C17 UNL     1      -8.889 -11.392   0.297  1.00  0.00     0.127 C 
HETATM   29  N5  UNL     1      -9.518 -12.441   1.053  1.00  0.00    -0.339 N 
HETATM   30  C18 UNL     1     -10.618 -13.231   0.639  1.00  0.00     0.221 C 
HETATM   31  O4  UNL     1     -11.050 -14.104   1.435  1.00  0.00    -0.273 OA
BRANCH  30  32
HETATM   32  C19 UNL     1     -11.284 -13.089  -0.667  1.00  0.00     0.112 C 
BRANCH  32  33
HETATM   33  C20 UNL     1     -12.492 -12.218  -0.696  1.00  0.00    -0.031 C 
HETATM   34  C21 UNL     1     -12.102 -10.790  -0.899  1.00  0.00     0.014 C 
HETATM   35  C22 UNL     1     -13.366  -9.951  -0.964  1.00  0.00    -0.013 C 
HETATM   36  C23 UNL     1     -14.158 -10.382  -2.158  1.00  0.00     0.009 C 
HETATM   37  C27 UNL     1     -14.196 -10.083   0.287  1.00  0.00     0.009 C 
HETATM   38  C24 UNL     1     -14.565 -11.830  -1.987  1.00  0.00    -0.013 C 
HETATM   39  C25 UNL     1     -15.387 -11.999  -0.747  1.00  0.00     0.009 C 
HETATM   40  C29 UNL     1     -13.328 -12.664  -1.890  1.00  0.00     0.014 C 
HETATM   41  C26 UNL     1     -14.582 -11.535   0.447  1.00  0.00    -0.013 C 
HETATM   42  C28 UNL     1     -13.345 -12.359   0.527  1.00  0.00     0.014 C 
ENDBRANCH  32  33
ENDBRANCH  30  32
ENDBRANCH   3  25
TORSDOF 6
ENDMDL
MODEL 2
REMARK VINA RESULT: -7.194060248      3.547      5.597
REMARK  6 active torsions:
REMARK  status: ('A' for Active; 'I' for Inactive)
REMARK    1  A    between atoms: N2_7  and  C4_8 
REMARK    2  A    between atoms: C4_8  and  C5_9 
REMARK       I    between atoms: C5_9  and  N3_11 
REMARK    3  A    between atoms: C12_20  and  N4_21 
REMARK       I    between atoms: N4_21  and  C13_23 
REMARK    4  A    between atoms: C13_23  and  C14_25 
REMARK       I    between atoms: N5_29  and  C18_30 
REMARK    5  A    between atoms: C18_30  and  C19_32 
REMARK    6  A    between atoms: C19_32  and  C20_33 
ROOT
HETATM    1  N4  UNL     1     -12.721  -8.478   4.143  1.00  0.00    -0.341 N 
ATOM      2  H4  UNL     1     -12.476  -9.020   3.315  1.00  0.00     0.163 HD
HETATM    3  C13 UNL     1     -12.457  -7.108   4.199  1.00  0.00     0.241 C 
HETATM    4  O3  UNL     1     -12.763  -6.434   5.212  1.00  0.00    -0.271 OA
ENDROOT
BRANCH   1   5
HETATM    5  C12 UNL     1     -13.349  -9.115   5.280  1.00  0.00     0.222 C 
HETATM    6  C1  UNL     1     -12.722 -10.420   5.608  1.00  0.00     0.013 C 
HETATM    7  N1  UNL     1     -11.475 -10.668   5.331  1.00  0.00    -0.403 N 
HETATM    8  C2  UNL     1     -13.560 -11.454   6.265  1.00  0.00     0.074 C 
ATOM      9  H12 UNL     1     -11.045 -11.565   5.557  1.00  0.00     0.155 HD
ATOM     10  H11 UNL     1     -10.899  -9.958   4.879  1.00  0.00     0.155 HD
HETATM   11  C3  UNL     1     -14.744 -10.876   7.012  1.00  0.00     0.132 C 
HETATM   12  N2  UNL     1     -15.509  -9.982   6.136  1.00  0.00    -0.341 N 
HETATM   13  C11 UNL     1     -14.791  -9.370   5.078  1.00  0.00     0.248 C 
HETATM   14  O2  UNL     1     -15.327  -9.042   4.001  1.00  0.00    -0.271 OA
BRANCH  12  15
HETATM   15  C4  UNL     1     -16.917  -9.728   6.328  1.00  0.00     0.228 C 
BRANCH  15  16
HETATM   16  C5  UNL     1     -17.103  -8.653   7.334  1.00  0.00     0.237 C 
HETATM   17  O1  UNL     1     -16.881  -8.941   8.542  1.00  0.00    -0.272 OA
HETATM   18  N3  UNL     1     -17.512  -7.334   7.018  1.00  0.00    -0.351 N 
HETATM   19  C6  UNL     1     -17.678  -6.377   8.073  1.00  0.00     0.127 C 
HETATM   20  C10 UNL     1     -17.740  -7.032   5.609  1.00  0.00     0.127 C 
HETATM   21  C7  UNL     1     -18.996  -5.641   7.981  1.00  0.00     0.040 C 
HETATM   22  C8  UNL     1     -19.514  -5.597   6.562  1.00  0.00     0.085 C 
HETATM   23 CL1  UNL     1     -20.597  -6.983   6.305  1.00  0.00    -0.125 Cl
HETATM   24  C9  UNL     1     -18.389  -5.666   5.554  1.00  0.00     0.040 C 
ENDBRANCH  15  16
ENDBRANCH  12  15
ENDBRANCH   1   5
BRANCH   3  25
HETATM   25  C14 UNL     1     -11.805  -6.394   3.066  1.00  0.00     0.179 C 
HETATM   26  C15 UNL     1     -12.691  -5.174   2.741  1.00  0.00     0.037 C 
HETATM   27  C16 UNL     1     -13.832  -5.937   2.043  1.00  0.00     0.022 C 
HETATM   28  C17 UNL     1     -13.021  -6.753   1.057  1.00  0.00     0.127 C 
HETATM   29  N5  UNL     1     -11.905  -7.205   1.842  1.00  0.00    -0.339 N 
HETATM   30  C18 UNL     1     -11.025  -8.266   1.518  1.00  0.00     0.221 C 
HETATM   31  O4  UNL     1     -10.101  -8.534   2.329  1.00  0.00    -0.273 OA
BRANCH  30  32
HETATM   32  C19 UNL     1     -11.130  -9.072   0.290  1.00  0.00     0.112 C 
BRANCH  32  33
HETATM   33  C20 UNL     1     -11.681 -10.446   0.451  1.00  0.00    -0.031 C 
HETATM   34  C21 UNL     1     -12.792 -10.450   1.449  1.00  0.00     0.014 C 
HETATM   35  C22 UNL     1     -13.347 -11.859   1.546  1.00  0.00    -0.013 C 
HETATM   36  C23 UNL     1     -13.926 -12.232   0.217  1.00  0.00     0.009 C 
HETATM   37  C27 UNL     1     -12.291 -12.855   1.951  1.00  0.00     0.009 C 
HETATM   38  C24 UNL     1     -12.824 -12.232  -0.821  1.00  0.00    -0.013 C 
HETATM   39  C25 UNL     1     -11.752 -13.208  -0.445  1.00  0.00     0.009 C 
HETATM   40  C29 UNL     1     -12.248 -10.856  -0.903  1.00  0.00     0.014 C 
HETATM   41  C26 UNL     1     -11.195 -12.833   0.911  1.00  0.00    -0.013 C 
HETATM   42  C28 UNL     1     -10.638 -11.455   0.824  1.00  0.00     0.014 C 
ENDBRANCH  32  33
ENDBRANCH  30  32
ENDBRANCH   3  25
TORSDOF 6
ENDMDL
MODEL 3
REMARK VINA RESULT: -7.165765636      3.527      5.584
REMARK  6 active torsions:
REMARK  status: ('A' for Active; 'I' for Inactive)
REMARK    1  A    between atoms: N2_7  and  C4_8 
REMARK    2  A    between atoms: C4_8  and  C5_9 
REMARK       I    between atoms: C5_9  and  N3_11 
REMARK    3  A    between atoms: C12_20  and  N4_21 
REMARK       I    between atoms: N4_21  and  C13_23 
REMARK    4  A    between atoms: C13_23  and  C14_25 
REMARK       I    between atoms: N5_29  and  C18_30 
REMARK    5  A    between atoms: C18_30  and  C19_32 
REMARK    6  A    between atoms: C19_32  and  C20_33 
ROOT
HETATM    1  N4  UNL     1     -12.671  -8.457   4.108  1.00  0.00    -0.341 N 
ATOM      2  H4  UNL     1     -12.423  -8.995   3.278  1.00  0.00     0.163 HD
HETATM    3  C13 UNL     1     -12.396  -7.090   4.174  1.00  0.00     0.241 C 
HETATM    4  O3  UNL     1     -12.706  -6.419   5.189  1.00  0.00    -0.271 OA
ENDROOT
BRANCH   1   5
HETATM    5  C12 UNL     1     -13.313  -9.096   5.234  1.00  0.00     0.222 C 
HETATM    6  C1  UNL     1     -12.712 -10.417   5.547  1.00  0.00     0.013 C 
HETATM    7  N1  UNL     1     -11.470 -10.686   5.270  1.00  0.00    -0.403 N 
HETATM    8  C2  UNL     1     -13.572 -11.443   6.189  1.00  0.00     0.074 C 
ATOM      9  H12 UNL     1     -11.057 -11.593   5.485  1.00  0.00     0.155 HD
ATOM     10  H11 UNL     1     -10.879  -9.981   4.828  1.00  0.00     0.155 HD
HETATM   11  C3  UNL     1     -14.746 -10.852   6.941  1.00  0.00     0.132 C 
HETATM   12  N2  UNL     1     -15.492  -9.933   6.075  1.00  0.00    -0.341 N 
HETATM   13  C11 UNL     1     -14.760  -9.320   5.026  1.00  0.00     0.248 C 
HETATM   14  O2  UNL     1     -15.287  -8.968   3.952  1.00  0.00    -0.271 OA
BRANCH  12  15
HETATM   15  C4  UNL     1     -16.895  -9.654   6.267  1.00  0.00     0.228 C 
BRANCH  15  16
HETATM   16  C5  UNL     1     -17.063  -8.580   7.278  1.00  0.00     0.237 C 
HETATM   17  O1  UNL     1     -16.845  -8.878   8.484  1.00  0.00    -0.272 OA
HETATM   18  N3  UNL     1     -17.450  -7.253   6.968  1.00  0.00    -0.351 N 
HETATM   19  C6  UNL     1     -17.600  -6.299   8.027  1.00  0.00     0.127 C 
HETATM   20  C10 UNL     1     -17.674  -6.941   5.561  1.00  0.00     0.127 C 
HETATM   21  C7  UNL     1     -18.905  -5.541   7.940  1.00  0.00     0.040 C 
HETATM   22  C8  UNL     1     -19.423  -5.482   6.521  1.00  0.00     0.085 C 
HETATM   23 CL1  UNL     1     -20.529  -6.848   6.258  1.00  0.00    -0.125 Cl
HETATM   24  C9  UNL     1     -18.301  -5.564   5.513  1.00  0.00     0.040 C 
ENDBRANCH  15  16
ENDBRANCH  12  15
ENDBRANCH   1   5
BRANCH   3  25
HETATM   25  C14 UNL     1     -11.729  -6.373   3.052  1.00  0.00     0.179 C 
HETATM   26  C15 UNL     1     -12.625  -5.169   2.698  1.00  0.00     0.037 C 
HETATM   27  C16 UNL     1     -13.738  -5.954   1.979  1.00  0.00     0.022 C 
HETATM   28  C17 UNL     1     -12.892  -6.764   1.018  1.00  0.00     0.127 C 
HETATM   29  N5  UNL     1     -11.788  -7.194   1.832  1.00  0.00    -0.339 N 
HETATM   30  C18 UNL     1     -10.884  -8.243   1.537  1.00  0.00     0.221 C 
HETATM   31  O4  UNL     1      -9.976  -8.492   2.370  1.00  0.00    -0.273 OA
BRANCH  30  32
HETATM   32  C19 UNL     1     -10.949  -9.059   0.311  1.00  0.00     0.112 C 
BRANCH  32  33
HETATM   33  C20 UNL     1     -11.562 -10.409   0.453  1.00  0.00    -0.031 C 
HETATM   34  C21 UNL     1     -12.076 -10.891  -0.864  1.00  0.00     0.014 C 
HETATM   35  C22 UNL     1     -12.650 -12.283  -0.676  1.00  0.00    -0.013 C 
HETATM   36  C23 UNL     1     -11.545 -13.198  -0.255  1.00  0.00     0.009 C 
HETATM   37  C27 UNL     1     -13.759 -12.303   0.345  1.00  0.00     0.009 C 
HETATM   38  C24 UNL     1     -10.996 -12.734   1.077  1.00  0.00    -0.013 C 
HETATM   39  C25 UNL     1     -12.075 -12.734   2.116  1.00  0.00     0.009 C 
HETATM   40  C29 UNL     1     -10.455 -11.350   0.912  1.00  0.00     0.014 C 
HETATM   41  C26 UNL     1     -13.197 -11.825   1.663  1.00  0.00    -0.013 C 
HETATM   42  C28 UNL     1     -12.646 -10.453   1.486  1.00  0.00     0.014 C 
ENDBRANCH  32  33
ENDBRANCH  30  32
ENDBRANCH   3  25
TORSDOF 6
ENDMDL
MODEL 4
REMARK VINA RESULT: -7.087440920      2.267      3.519
REMARK  6 active torsions:
REMARK  status: ('A' for Active; 'I' for Inactive)
REMARK    1  A    between atoms: N2_7  and  C4_8 
REMARK    2  A    between atoms: C4_8  and  C5_9 
REMARK       I    between atoms: C5_9  and  N3_11 
REMARK    3  A    between atoms: C12_20  and  N4_21 
REMARK       I    between atoms: N4_21  and  C13_23 
REMARK    4  A    between atoms: C13_23  and  C14_25 
REMARK       I    between atoms: N5_29  and  C18_30 
REMARK    5  A    between atoms: C18_30  and  C19_32 
REMARK    6  A    between atoms: C19_32  and  C20_33 
ROOT
HETATM    1  N4  UNL     1     -11.785  -9.255   2.751  1.00  0.00    -0.341 N 
ATOM      2  H4  UNL     1     -12.206  -9.957   2.143  1.00  0.00     0.163 HD
HETATM    3  C13 UNL     1     -10.740  -9.596   3.612  1.00  0.00     0.241 C 
HETATM    4  O3  UNL     1     -10.213  -8.735   4.357  1.00  0.00    -0.271 OA
ENDROOT
BRANCH   1   5
HETATM    5  C12 UNL     1     -12.261  -7.889   2.736  1.00  0.00     0.222 C 
HETATM    6  C1  UNL     1     -13.729  -7.809   2.534  1.00  0.00     0.013 C 
HETATM    7  N1  UNL     1     -14.524  -8.769   2.906  1.00  0.00    -0.403 N 
HETATM    8  C2  UNL     1     -14.281  -6.593   1.884  1.00  0.00     0.074 C 
ATOM      9  H12 UNL     1     -15.533  -8.713   2.767  1.00  0.00     0.155 HD
ATOM     10  H11 UNL     1     -14.145  -9.604   3.352  1.00  0.00     0.155 HD
HETATM   11  C3  UNL     1     -13.381  -5.383   2.021  1.00  0.00     0.132 C 
HETATM   12  N2  UNL     1     -12.021  -5.709   1.578  1.00  0.00    -0.341 N 
HETATM   13  C11 UNL     1     -11.635  -7.069   1.677  1.00  0.00     0.248 C 
HETATM   14  O2  UNL     1     -10.797  -7.589   0.914  1.00  0.00    -0.271 OA
BRANCH  12  15
HETATM   15  C4  UNL     1     -11.112  -4.709   1.069  1.00  0.00     0.228 C 
BRANCH  15  16
HETATM   16  C5  UNL     1     -10.757  -3.753   2.147  1.00  0.00     0.237 C 
HETATM   17  O1  UNL     1     -11.460  -2.711   2.254  1.00  0.00    -0.272 OA
HETATM   18  N3  UNL     1      -9.685  -3.942   3.054  1.00  0.00    -0.351 N 
HETATM   19  C6  UNL     1      -9.421  -2.944   4.048  1.00  0.00     0.127 C 
HETATM   20  C10 UNL     1      -8.908  -5.169   2.913  1.00  0.00     0.127 C 
HETATM   21  C7  UNL     1      -7.960  -2.555   4.099  1.00  0.00     0.040 C 
HETATM   22  C8  UNL     1      -7.068  -3.670   3.604  1.00  0.00     0.085 C 
HETATM   23 CL1  UNL     1      -6.773  -3.439   1.867  1.00  0.00    -0.125 Cl
HETATM   24  C9  UNL     1      -7.700  -5.027   3.813  1.00  0.00     0.040 C 
ENDBRANCH  15  16
ENDBRANCH  12  15
ENDBRANCH   1   5
BRANCH   3  25
HETATM   25  C14 UNL     1     -10.210 -10.986   3.682  1.00  0.00     0.179 C 
HETATM   26  C15 UNL     1      -8.676 -10.884   3.557  1.00  0.00     0.037 C 
HETATM   27  C16 UNL     1      -8.620 -10.580   2.048  1.00  0.00     0.022 C 
HETATM   28  C17 UNL     1      -9.495 -11.704   1.533  1.00  0.00     0.127 C 
HETATM   29  N5  UNL     1     -10.589 -11.725   2.467  1.00  0.00    -0.339 N 
HETATM   30  C18 UNL     1     -11.847 -12.345   2.274  1.00  0.00     0.221 C 
HETATM   31  O4  UNL     1     -12.696 -12.257   3.197  1.00  0.00    -0.273 OA
BRANCH  30  32
HETATM   32  C19 UNL     1     -12.217 -13.086   1.055  1.00  0.00     0.112 C 
BRANCH  32  33
HETATM   33  C20 UNL     1     -12.953 -12.313   0.016  1.00  0.00    -0.031 C 
HETATM   34  C21 UNL     1     -12.670 -12.863  -1.343  1.00  0.00     0.014 C 
HETATM   35  C22 UNL     1     -13.474 -12.072  -2.359  1.00  0.00    -0.013 C 
HETATM   36  C23 UNL     1     -14.928 -12.279  -2.077  1.00  0.00     0.009 C 
HETATM   37  C27 UNL     1     -13.142 -10.602  -2.322  1.00  0.00     0.009 C 
HETATM   38  C24 UNL     1     -15.249 -11.737  -0.700  1.00  0.00    -0.013 C 
HETATM   39  C25 UNL     1     -14.923 -10.278  -0.625  1.00  0.00     0.009 C 
HETATM   40  C29 UNL     1     -14.439 -12.488   0.307  1.00  0.00     0.014 C 
HETATM   41  C26 UNL     1     -13.456 -10.081  -0.939  1.00  0.00    -0.013 C 
HETATM   42  C28 UNL     1     -12.657 -10.845   0.059  1.00  0.00     0.014 C 
ENDBRANCH  32  33
ENDBRANCH  30  32
ENDBRANCH   3  25
TORSDOF 6
ENDMDL
MODEL 5
REMARK VINA RESULT: -7.054267034      2.577      6.299
REMARK  6 active torsions:
REMARK  status: ('A' for Active; 'I' for Inactive)
REMARK    1  A    between atoms: N2_7  and  C4_8 
REMARK    2  A    between atoms: C4_8  and  C5_9 
REMARK       I    between atoms: C5_9  and  N3_11 
REMARK    3  A    between atoms: C12_20  and  N4_21 
REMARK       I    between atoms: N4_21  and  C13_23 
REMARK    4  A    between atoms: C13_23  and  C14_25 
REMARK       I    between atoms: N5_29  and  C18_30 
REMARK    5  A    between atoms: C18_30  and  C19_32 
REMARK    6  A    between atoms: C19_32  and  C20_33 
ROOT
HETATM    1  N4  UNL     1     -11.437 -13.002   0.498  1.00  0.00    -0.341 N 
ATOM      2  H4  UNL     1     -11.886 -13.686   1.108  1.00  0.00     0.163 HD
HETATM    3  C13 UNL     1     -12.177 -11.961  -0.066  1.00  0.00     0.241 C 
HETATM    4  O3  UNL     1     -11.629 -11.112  -0.811  1.00  0.00    -0.271 OA
ENDROOT
BRANCH   1   5
HETATM    5  C12 UNL     1     -10.025 -13.096   0.203  1.00  0.00     0.222 C 
HETATM    6  C1  UNL     1      -9.588 -14.499  -0.007  1.00  0.00     0.013 C 
HETATM    7  N1  UNL     1     -10.404 -15.411  -0.446  1.00  0.00    -0.403 N 
HETATM    8  C2  UNL     1      -8.178 -14.847   0.304  1.00  0.00     0.074 C 
ATOM      9  H12 UNL     1     -10.103 -16.375  -0.590  1.00  0.00     0.155 HD
ATOM     10  H11 UNL     1     -11.373 -15.172  -0.659  1.00  0.00     0.155 HD
HETATM   11  C3  UNL     1      -7.244 -13.656   0.252  1.00  0.00     0.132 C 
HETATM   12  N2  UNL     1      -7.767 -12.565   1.081  1.00  0.00    -0.341 N 
HETATM   13  C11 UNL     1      -9.171 -12.534   1.272  1.00  0.00     0.248 C 
HETATM   14  O2  UNL     1      -9.703 -12.057   2.294  1.00  0.00    -0.271 OA
BRANCH  12  15
HETATM   15  C4  UNL     1      -6.911 -11.566   1.677  1.00  0.00     0.228 C 
BRANCH  15  16
HETATM   16  C5  UNL     1      -6.916 -10.336   0.847  1.00  0.00     0.237 C 
HETATM   17  O1  UNL     1      -6.682 -10.466  -0.386  1.00  0.00    -0.272 OA
HETATM   18  N3  UNL     1      -7.167  -9.038   1.354  1.00  0.00    -0.351 N 
HETATM   19  C6  UNL     1      -7.130  -7.915   0.463  1.00  0.00     0.127 C 
HETATM   20  C10 UNL     1      -7.453  -8.929   2.781  1.00  0.00     0.127 C 
HETATM   21  C7  UNL     1      -6.290  -6.779   1.002  1.00  0.00     0.040 C 
HETATM   22  C8  UNL     1      -6.221  -6.803   2.512  1.00  0.00     0.085 C 
HETATM   23 CL1  UNL     1      -4.782  -7.722   3.006  1.00  0.00    -0.125 Cl
HETATM   24  C9  UNL     1      -7.444  -7.454   3.117  1.00  0.00     0.040 C 
ENDBRANCH  15  16
ENDBRANCH  12  15
ENDBRANCH   1   5
BRANCH   3  25
HETATM   25  C14 UNL     1     -13.636 -11.813   0.191  1.00  0.00     0.179 C 
HETATM   26  C15 UNL     1     -14.360 -12.233  -1.104  1.00  0.00     0.037 C 
HETATM   27  C16 UNL     1     -14.037 -10.974  -1.929  1.00  0.00     0.022 C 
HETATM   28  C17 UNL     1     -14.484  -9.909  -0.949  1.00  0.00     0.127 C 
HETATM   29  N5  UNL     1     -13.979 -10.388   0.310  1.00  0.00    -0.339 N 
HETATM   30  C18 UNL     1     -13.819  -9.628   1.494  1.00  0.00     0.221 C 
HETATM   31  O4  UNL     1     -13.351 -10.207   2.508  1.00  0.00    -0.273 OA
BRANCH  30  32
HETATM   32  C19 UNL     1     -14.167  -8.200   1.605  1.00  0.00     0.112 C 
BRANCH  32  33
HETATM   33  C20 UNL     1     -13.029  -7.241   1.548  1.00  0.00    -0.031 C 
HETATM   34  C21 UNL     1     -12.190  -7.496   0.340  1.00  0.00     0.014 C 
HETATM   35  C22 UNL     1     -11.073  -6.469   0.304  1.00  0.00    -0.013 C 
HETATM   36  C23 UNL     1     -11.683  -5.111   0.157  1.00  0.00     0.009 C 
HETATM   37  C27 UNL     1     -10.217  -6.523   1.543  1.00  0.00     0.009 C 
HETATM   38  C24 UNL     1     -12.547  -4.822   1.366  1.00  0.00    -0.013 C 
HETATM   39  C25 UNL     1     -11.728  -4.875   2.619  1.00  0.00     0.009 C 
HETATM   40  C29 UNL     1     -13.634  -5.847   1.430  1.00  0.00     0.014 C 
HETATM   41  C26 UNL     1     -11.097  -6.245   2.739  1.00  0.00    -0.013 C 
HETATM   42  C28 UNL     1     -12.185  -7.260   2.786  1.00  0.00     0.014 C 
ENDBRANCH  32  33
ENDBRANCH  30  32
ENDBRANCH   3  25
TORSDOF 6
ENDMDL
