MODEL 1
REMARK VINA RESULT: -9.378656290      0.000      0.000
REMARK  1 active torsions:
REMARK  status: ('A' for Active; 'I' for Inactive)
REMARK    1  A    between atoms: N2_5  and  C3_6 
ROOT
HETATM    1  C1  UNL     1      -1.478 -32.816  39.478  1.00  0.00     0.071 C 
HETATM    2  C2  UNL     1      -1.389 -32.649  37.988  1.00  0.00     0.040 A 
HETATM    3  N1  UNL     1      -0.641 -31.820  37.286  1.00  0.00    -0.297 N 
ATOM      4  H1  UNL     1       0.009 -31.150  37.696  1.00  0.00     0.187 HD
HETATM    5  N2  UNL     1      -0.841 -31.966  35.952  1.00  0.00    -0.252 N 
HETATM    6  C13 UNL     1      -1.757 -32.931  35.836  1.00  0.00     0.087 A 
HETATM    7  C14 UNL     1      -2.142 -33.402  37.097  1.00  0.00     0.085 A 
HETATM    8  C15 UNL     1      -3.074 -34.398  37.264  1.00  0.00     0.260 A 
HETATM    9  O3  UNL     1      -3.384 -34.783  38.417  1.00  0.00    -0.267 OA
HETATM   10  N5  UNL     1      -3.662 -34.969  36.216  1.00  0.00    -0.322 N 
ATOM     11  H5  UNL     1      -4.354 -35.709  36.335  1.00  0.00     0.169 HD
HETATM   12  C16 UNL     1      -3.309 -34.534  35.001  1.00  0.00     0.047 A 
HETATM   13  C17 UNL     1      -3.938 -35.149  33.913  1.00  0.00     0.030 A 
HETATM   14  C18 UNL     1      -3.616 -34.744  32.643  1.00  0.00     0.002 A 
HETATM   15  C19 UNL     1      -2.696 -33.756  32.389  1.00  0.00     0.001 A 
HETATM   16  C20 UNL     1      -2.075 -33.152  33.486  1.00  0.00     0.016 A 
HETATM   17  C21 UNL     1      -2.372 -33.530  34.763  1.00  0.00     0.021 A 
ENDROOT
BRANCH   5  18
HETATM   18  C3  UNL     1      -0.138 -31.174  35.010  1.00  0.00     0.084 A 
HETATM   19  C4  UNL     1       1.079 -31.532  34.444  1.00  0.00     0.034 A 
HETATM   20  C5  UNL     1       1.778 -30.733  33.585  1.00  0.00     0.003 A 
HETATM   21  C6  UNL     1       1.280 -29.503  33.239  1.00  0.00     0.015 A 
HETATM   22  C7  UNL     1       0.067 -29.093  33.774  1.00  0.00     0.011 A 
HETATM   23  C8  UNL     1      -0.681 -27.939  33.624  1.00  0.00     0.077 A 
HETATM   24  C10 UNL     1      -0.623 -29.914  34.640  1.00  0.00     0.073 A 
HETATM   25  C9  UNL     1      -1.809 -28.069  34.393  1.00  0.00     0.118 A 
HETATM   26  C12 UNL     1      -0.662 -26.662  32.932  1.00  0.00     0.261 A 
HETATM   27  N3  UNL     1      -1.740 -29.279  34.994  1.00  0.00    -0.348 N 
HETATM   28  C11 UNL     1      -2.558 -26.827  34.198  1.00  0.00     0.276 A 
ATOM     29  H3  UNL     1      -2.444 -29.652  35.631  1.00  0.00     0.166 HD
HETATM   30  O1  UNL     1      -3.669 -26.583  34.758  1.00  0.00    -0.266 OA
HETATM   31  N4  UNL     1      -1.855 -25.978  33.309  1.00  0.00    -0.288 N 
ATOM     32  H4  UNL     1      -2.148 -25.052  32.997  1.00  0.00     0.172 HD
HETATM   33  O2  UNL     1       0.189 -26.192  32.152  1.00  0.00    -0.267 OA
ENDBRANCH   5  18
TORSDOF 1
ENDMDL
MODEL 2
REMARK VINA RESULT: -8.731550788      3.292      6.229
REMARK  1 active torsions:
REMARK  status: ('A' for Active; 'I' for Inactive)
REMARK    1  A    between atoms: N2_5  and  C3_6 
ROOT
HETATM    1  C1  UNL     1       1.604 -30.622  32.613  1.00  0.00     0.071 C 
HETATM    2  C2  UNL     1       1.007 -31.715  33.453  1.00  0.00     0.040 A 
HETATM    3  N1  UNL     1       1.457 -32.245  34.573  1.00  0.00    -0.297 N 
ATOM      4  H1  UNL     1       2.320 -31.959  35.034  1.00  0.00     0.187 HD
HETATM    5  N2  UNL     1       0.635 -33.218  35.038  1.00  0.00    -0.252 N 
HETATM    6  C13 UNL     1      -0.367 -33.285  34.157  1.00  0.00     0.087 A 
HETATM    7  C14 UNL     1      -0.183 -32.353  33.128  1.00  0.00     0.085 A 
HETATM    8  C15 UNL     1      -1.070 -32.211  32.088  1.00  0.00     0.260 A 
HETATM    9  O3  UNL     1      -0.858 -31.360  31.191  1.00  0.00    -0.267 OA
HETATM   10  N5  UNL     1      -2.162 -32.967  32.012  1.00  0.00    -0.322 N 
ATOM     11  H5  UNL     1      -2.824 -32.866  31.243  1.00  0.00     0.169 HD
HETATM   12  C16 UNL     1      -2.358 -33.865  32.984  1.00  0.00     0.047 A 
HETATM   13  C17 UNL     1      -3.512 -34.648  32.885  1.00  0.00     0.030 A 
HETATM   14  C18 UNL     1      -3.765 -35.586  33.854  1.00  0.00     0.002 A 
HETATM   15  C19 UNL     1      -2.931 -35.791  34.926  1.00  0.00     0.001 A 
HETATM   16  C20 UNL     1      -1.781 -35.000  35.011  1.00  0.00     0.016 A 
HETATM   17  C21 UNL     1      -1.498 -34.058  34.065  1.00  0.00     0.021 A 
ENDROOT
BRANCH   5  18
HETATM   18  C3  UNL     1       0.927 -33.923  36.233  1.00  0.00     0.084 A 
HETATM   19  C4  UNL     1       1.800 -35.000  36.309  1.00  0.00     0.034 A 
HETATM   20  C5  UNL     1       2.026 -35.712  37.454  1.00  0.00     0.003 A 
HETATM   21  C6  UNL     1       1.373 -35.370  38.609  1.00  0.00     0.015 A 
HETATM   22  C7  UNL     1       0.488 -34.301  38.592  1.00  0.00     0.011 A 
HETATM   23  C8  UNL     1      -0.304 -33.724  39.568  1.00  0.00     0.077 A 
HETATM   24  C10 UNL     1       0.273 -33.595  37.427  1.00  0.00     0.073 A 
HETATM   25  C9  UNL     1      -0.986 -32.683  38.993  1.00  0.00     0.118 A 
HETATM   26  C12 UNL     1      -0.641 -33.859  40.975  1.00  0.00     0.261 A 
HETATM   27  N3  UNL     1      -0.611 -32.635  37.694  1.00  0.00    -0.348 N 
HETATM   28  C11 UNL     1      -1.804 -32.113  40.065  1.00  0.00     0.276 A 
ATOM     29  H3  UNL     1      -0.958 -31.959  37.014  1.00  0.00     0.166 HD
HETATM   30  O1  UNL     1      -2.579 -31.122  39.904  1.00  0.00    -0.266 OA
HETATM   31  N4  UNL     1      -1.588 -32.833  41.265  1.00  0.00    -0.288 N 
ATOM     32  H4  UNL     1      -2.027 -32.650  42.168  1.00  0.00     0.172 HD
HETATM   33  O2  UNL     1      -0.227 -34.678  41.818  1.00  0.00    -0.267 OA
ENDBRANCH   5  18
TORSDOF 1
ENDMDL
MODEL 3
REMARK VINA RESULT: -8.711503767      3.373      6.716
REMARK  1 active torsions:
REMARK  status: ('A' for Active; 'I' for Inactive)
REMARK    1  A    between atoms: N2_5  and  C3_6 
ROOT
HETATM    1  C1  UNL     1      -0.981 -28.672  34.728  1.00  0.00     0.071 C 
HETATM    2  C2  UNL     1      -1.129 -30.098  35.176  1.00  0.00     0.040 A 
HETATM    3  N1  UNL     1      -0.592 -30.705  36.216  1.00  0.00    -0.297 N 
ATOM      4  H1  UNL     1       0.028 -30.250  36.885  1.00  0.00     0.187 HD
HETATM    5  N2  UNL     1      -0.964 -32.007  36.288  1.00  0.00    -0.252 N 
HETATM    6  C13 UNL     1      -1.767 -32.204  35.240  1.00  0.00     0.087 A 
HETATM    7  C14 UNL     1      -1.908 -31.025  34.497  1.00  0.00     0.085 A 
HETATM    8  C15 UNL     1      -2.682 -30.951  33.364  1.00  0.00     0.260 A 
HETATM    9  O3  UNL     1      -2.774 -29.870  32.735  1.00  0.00    -0.267 OA
HETATM   10  N5  UNL     1      -3.343 -32.014  32.915  1.00  0.00    -0.322 N 
ATOM     11  H5  UNL     1      -3.920 -31.964  32.075  1.00  0.00     0.169 HD
HETATM   12  C16 UNL     1      -3.223 -33.152  33.609  1.00  0.00     0.047 A 
HETATM   13  C17 UNL     1      -3.927 -34.257  33.121  1.00  0.00     0.030 A 
HETATM   14  C18 UNL     1      -3.841 -35.450  33.792  1.00  0.00     0.002 A 
HETATM   15  C19 UNL     1      -3.090 -35.610  34.931  1.00  0.00     0.001 A 
HETATM   16  C20 UNL     1      -2.392 -34.496  35.407  1.00  0.00     0.016 A 
HETATM   17  C21 UNL     1      -2.455 -33.294  34.765  1.00  0.00     0.021 A 
ENDROOT
BRANCH   5  18
HETATM   18  C3  UNL     1      -0.503 -32.849  37.331  1.00  0.00     0.084 A 
HETATM   19  C4  UNL     1      -0.945 -32.778  38.645  1.00  0.00     0.034 A 
HETATM   20  C5  UNL     1      -0.449 -33.552  39.656  1.00  0.00     0.003 A 
HETATM   21  C6  UNL     1       0.542 -34.462  39.392  1.00  0.00     0.015 A 
HETATM   22  C7  UNL     1       1.025 -34.577  38.097  1.00  0.00     0.011 A 
HETATM   23  C8  UNL     1       1.995 -35.380  37.525  1.00  0.00     0.077 A 
HETATM   24  C10 UNL     1       0.510 -33.786  37.091  1.00  0.00     0.073 A 
HETATM   25  C9  UNL     1       2.061 -35.073  36.191  1.00  0.00     0.118 A 
HETATM   26  C12 UNL     1       2.948 -36.421  37.872  1.00  0.00     0.261 A 
HETATM   27  N3  UNL     1       1.146 -34.103  35.963  1.00  0.00    -0.348 N 
HETATM   28  C11 UNL     1       3.098 -35.947  35.640  1.00  0.00     0.276 A 
ATOM     29  H3  UNL     1       0.968 -33.673  35.056  1.00  0.00     0.166 HD
HETATM   30  O1  UNL     1       3.441 -35.945  34.420  1.00  0.00    -0.266 OA
HETATM   31  N4  UNL     1       3.631 -36.763  36.668  1.00  0.00    -0.288 N 
ATOM     32  H4  UNL     1       4.366 -37.463  36.565  1.00  0.00     0.172 HD
HETATM   33  O2  UNL     1       3.176 -36.957  38.973  1.00  0.00    -0.267 OA
ENDBRANCH   5  18
TORSDOF 1
ENDMDL
MODEL 4
REMARK VINA RESULT: -8.510806493      2.655      6.812
REMARK  1 active torsions:
REMARK  status: ('A' for Active; 'I' for Inactive)
REMARK    1  A    between atoms: N2_5  and  C3_6 
ROOT
HETATM    1  C1  UNL     1       0.295 -27.535  34.564  1.00  0.00     0.071 C 
HETATM    2  C2  UNL     1      -0.230 -28.926  34.782  1.00  0.00     0.040 A 
HETATM    3  N1  UNL     1      -0.425 -29.576  35.912  1.00  0.00    -0.297 N 
ATOM      4  H1  UNL     1      -0.231 -29.188  36.835  1.00  0.00     0.187 HD
HETATM    5  N2  UNL     1      -0.915 -30.823  35.700  1.00  0.00    -0.252 N 
HETATM    6  C13 UNL     1      -1.022 -30.940  34.375  1.00  0.00     0.087 A 
HETATM    7  C14 UNL     1      -0.601 -29.765  33.739  1.00  0.00     0.085 A 
HETATM    8  C15 UNL     1      -0.609 -29.617  32.373  1.00  0.00     0.260 A 
HETATM    9  O3  UNL     1      -0.221 -28.543  31.854  1.00  0.00    -0.267 OA
HETATM   10  N5  UNL     1      -1.025 -30.600  31.580  1.00  0.00    -0.322 N 
ATOM     11  H5  UNL     1      -1.034 -30.496  30.565  1.00  0.00     0.169 HD
HETATM   12  C16 UNL     1      -1.432 -31.733  32.166  1.00  0.00     0.047 A 
HETATM   13  C17 UNL     1      -1.866 -32.753  31.314  1.00  0.00     0.030 A 
HETATM   14  C18 UNL     1      -2.295 -33.937  31.858  1.00  0.00     0.002 A 
HETATM   15  C19 UNL     1      -2.318 -34.167  33.212  1.00  0.00     0.001 A 
HETATM   16  C20 UNL     1      -1.882 -33.137  34.051  1.00  0.00     0.016 A 
HETATM   17  C21 UNL     1      -1.449 -31.947  33.544  1.00  0.00     0.021 A 
ENDROOT
BRANCH   5  18
HETATM   18  C3  UNL     1      -1.199 -31.697  36.780  1.00  0.00     0.084 A 
HETATM   19  C4  UNL     1      -2.225 -31.499  37.694  1.00  0.00     0.034 A 
HETATM   20  C5  UNL     1      -2.452 -32.314  38.767  1.00  0.00     0.003 A 
HETATM   21  C6  UNL     1      -1.640 -33.397  38.983  1.00  0.00     0.015 A 
HETATM   22  C7  UNL     1      -0.598 -33.645  38.101  1.00  0.00     0.011 A 
HETATM   23  C8  UNL     1       0.370 -34.632  38.047  1.00  0.00     0.077 A 
HETATM   24  C10 UNL     1      -0.386 -32.810  37.024  1.00  0.00     0.073 A 
HETATM   25  C9  UNL     1       1.155 -34.390  36.949  1.00  0.00     0.118 A 
HETATM   26  C12 UNL     1       0.818 -35.815  38.761  1.00  0.00     0.261 A 
HETATM   27  N3  UNL     1       0.666 -33.277  36.353  1.00  0.00    -0.348 N 
HETATM   28  C11 UNL     1       2.156 -35.456  36.942  1.00  0.00     0.276 A 
ATOM     29  H3  UNL     1       1.050 -32.855  35.507  1.00  0.00     0.166 HD
HETATM   30  O1  UNL     1       3.063 -35.561  36.063  1.00  0.00    -0.266 OA
HETATM   31  N4  UNL     1       1.945 -36.318  38.046  1.00  0.00    -0.288 N 
ATOM     32  H4  UNL     1       2.494 -37.144  38.284  1.00  0.00     0.172 HD
HETATM   33  O2  UNL     1       0.360 -36.344  39.793  1.00  0.00    -0.267 OA
ENDBRANCH   5  18
TORSDOF 1
ENDMDL
MODEL 5
REMARK VINA RESULT: -8.484305888      4.274      7.370
REMARK  1 active torsions:
REMARK  status: ('A' for Active; 'I' for Inactive)
REMARK    1  A    between atoms: N2_5  and  C3_6 
ROOT
HETATM    1  C1  UNL     1      -3.281 -33.378  33.025  1.00  0.00     0.071 C 
HETATM    2  C2  UNL     1      -2.140 -33.458  33.999  1.00  0.00     0.040 A 
HETATM    3  N1  UNL     1      -0.851 -33.602  33.764  1.00  0.00    -0.297 N 
ATOM      4  H1  UNL     1      -0.446 -33.681  32.831  1.00  0.00     0.187 HD
HETATM    5  N2  UNL     1      -0.128 -33.632  34.911  1.00  0.00    -0.252 N 
HETATM    6  C13 UNL     1      -1.021 -33.500  35.895  1.00  0.00     0.087 A 
HETATM    7  C14 UNL     1      -2.316 -33.386  35.375  1.00  0.00     0.085 A 
HETATM    8  C15 UNL     1      -3.425 -33.239  36.173  1.00  0.00     0.260 A 
HETATM    9  O3  UNL     1      -4.564 -33.141  35.656  1.00  0.00    -0.267 OA
HETATM   10  N5  UNL     1      -3.315 -33.198  37.498  1.00  0.00    -0.322 N 
ATOM     11  H5  UNL     1      -4.135 -33.089  38.095  1.00  0.00     0.169 HD
HETATM   12  C16 UNL     1      -2.087 -33.306  38.017  1.00  0.00     0.047 A 
HETATM   13  C17 UNL     1      -1.994 -33.260  39.411  1.00  0.00     0.030 A 
HETATM   14  C18 UNL     1      -0.759 -33.365  39.999  1.00  0.00     0.002 A 
HETATM   15  C19 UNL     1       0.399 -33.514  39.275  1.00  0.00     0.001 A 
HETATM   16  C20 UNL     1       0.290 -33.558  37.882  1.00  0.00     0.016 A 
HETATM   17  C21 UNL     1      -0.922 -33.456  37.264  1.00  0.00     0.021 A 
ENDROOT
BRANCH   5  18
HETATM   18  C3  UNL     1       1.282 -33.779  34.890  1.00  0.00     0.084 A 
HETATM   19  C4  UNL     1       2.174 -32.724  34.755  1.00  0.00     0.034 A 
HETATM   20  C5  UNL     1       3.529 -32.883  34.673  1.00  0.00     0.003 A 
HETATM   21  C6  UNL     1       4.071 -34.141  34.726  1.00  0.00     0.015 A 
HETATM   22  C7  UNL     1       3.227 -35.234  34.861  1.00  0.00     0.011 A 
HETATM   23  C8  UNL     1       3.461 -36.595  34.943  1.00  0.00     0.077 A 
HETATM   24  C10 UNL     1       1.863 -35.052  34.942  1.00  0.00     0.073 A 
HETATM   25  C9  UNL     1       2.249 -37.222  35.070  1.00  0.00     0.118 A 
HETATM   26  C12 UNL     1       4.551 -37.557  34.936  1.00  0.00     0.261 A 
HETATM   27  N3  UNL     1       1.302 -36.255  35.066  1.00  0.00    -0.348 N 
HETATM   28  C11 UNL     1       2.554 -38.650  35.150  1.00  0.00     0.276 A 
ATOM     29  H3  UNL     1       0.299 -36.422  35.146  1.00  0.00     0.166 HD
HETATM   30  O1  UNL     1       1.670 -39.551  35.274  1.00  0.00    -0.266 OA
HETATM   31  N4  UNL     1       3.954 -38.845  35.069  1.00  0.00    -0.288 N 
ATOM     32  H4  UNL     1       4.444 -39.739  35.100  1.00  0.00     0.172 HD
HETATM   33  O2  UNL     1       5.778 -37.368  34.840  1.00  0.00    -0.267 OA
ENDBRANCH   5  18
TORSDOF 1
ENDMDL
