MODEL 1
REMARK VINA RESULT: -7.567311630      0.000      0.000
REMARK  7 active torsions:
REMARK  status: ('A' for Active; 'I' for Inactive)
REMARK    1  A    between atoms: N1_1  and  C1_4 
REMARK    2  A    between atoms: C4_12  and  C5_13 
REMARK    3  A    between atoms: C6_17  and  C7_18 
REMARK       I    between atoms: C7_18  and  N5_20 
REMARK    4  A    between atoms: N5_20  and  N6_22 
REMARK    5  A    between atoms: N8_27  and  S2_28 
REMARK    6  A    between atoms: S2_28  and  N9_29 
REMARK    7  A    between atoms: S2_28  and  C8_33 
ROOT
HETATM    1  C1  UNL     1      70.963   7.424  -0.335  1.00  0.00     0.680 A 
HETATM    2  N2  UNL     1      69.884   7.811  -1.040  1.00  0.00    -0.154 N 
ATOM      3  H2  UNL     1      69.942   8.604  -1.679  1.00  0.00     0.187 HD
HETATM    4  C2  UNL     1      68.711   7.129  -0.888  1.00  0.00     0.290 A 
HETATM    5  O1  UNL     1      67.669   7.433  -1.508  1.00  0.00    -0.265 OA
HETATM    6  C3  UNL     1      68.618   6.056  -0.028  1.00  0.00     0.149 A 
HETATM    7  N3  UNL     1      67.598   5.257   0.293  1.00  0.00    -0.331 N 
ATOM      8  H3  UNL     1      66.644   5.294  -0.068  1.00  0.00     0.168 HD
HETATM    9  C4  UNL     1      68.100   4.388   1.199  1.00  0.00     0.168 A 
HETATM   10  N8  UNL     1      69.402   4.600   1.469  1.00  0.00    -0.214 N 
HETATM   11  C9  UNL     1      69.720   5.660   0.690  1.00  0.00     0.170 A 
HETATM   12  N10 UNL     1      70.869   6.379   0.500  1.00  0.00    -0.173 N 
ATOM     13  H10 UNL     1      71.700   6.104   1.023  1.00  0.00     0.186 HD
ENDROOT
BRANCH   9  14
HETATM   14  C5  UNL     1      67.229   3.347   1.833  1.00  0.00     0.159 A 
HETATM   15  N4  UNL     1      66.030   3.640   2.332  1.00  0.00    -0.307 N 
HETATM   16  S1  UNL     1      65.437   2.173   2.869  1.00  0.00     0.011 SA
ATOM     17  H4  UNL     1      65.577   4.552   2.377  1.00  0.00     0.176 HD
HETATM   18  C6  UNL     1      66.769   1.201   2.430  1.00  0.00     0.162 A 
HETATM   19  N7  UNL     1      67.590   2.080   1.896  1.00  0.00    -0.328 N 
ATOM     20  H7  UNL     1      68.496   1.784   1.534  1.00  0.00     0.168 HD
BRANCH  18  21
HETATM   21  C7  UNL     1      66.984  -0.239   2.586  1.00  0.00     0.294 C 
HETATM   22  O2  UNL     1      66.015  -1.000   2.448  1.00  0.00    -0.264 OA
HETATM   23  N5  UNL     1      68.267  -0.720   2.882  1.00  0.00    -0.271 N 
ATOM     24  H5  UNL     1      69.032  -0.054   2.985  1.00  0.00     0.189 HD
BRANCH  23  25
HETATM   25  N6  UNL     1      68.531  -2.097   3.042  1.00  0.00    -0.342 N 
ATOM     26  H62 UNL     1      67.854  -2.657   3.559  1.00  0.00     0.176 HD
ATOM     27  H61 UNL     1      69.369  -2.535   2.659  1.00  0.00     0.176 HD
ENDBRANCH  23  25
ENDBRANCH  18  21
ENDBRANCH   9  14
BRANCH  10  28
HETATM   28  S2  UNL     1      70.491   3.659   2.538  1.00  0.00     0.172 S 
HETATM   29  O3  UNL     1      69.460   5.147   4.152  1.00  0.00    -0.220 OA
BRANCH  28  30
HETATM   30  N9  UNL     1      72.004   4.026   2.228  1.00  0.00    -0.339 N 
ATOM     31  H92 UNL     1      72.550   4.703   2.760  1.00  0.00     0.167 HD
ATOM     32  H91 UNL     1      72.338   3.485   1.430  1.00  0.00     0.167 HD
ENDBRANCH  28  30
BRANCH  28  33
HETATM   33  C8  UNL     1      70.433   2.815   3.996  1.00  0.00     0.366 C 
HETATM   34  O4  UNL     1      69.738   1.770   4.257  1.00  0.00    -0.290 OA
ENDBRANCH  28  33
ENDBRANCH  10  28
BRANCH   1  35
HETATM   35  N1  UNL     1      72.051   8.096  -0.511  1.00  0.00    -0.234 N 
ATOM     36  H12 UNL     1      72.398   8.374  -1.429  1.00  0.00     0.174 HD
ATOM     37  H11 UNL     1      72.575   8.356   0.325  1.00  0.00     0.174 HD
ENDBRANCH   1  35
TORSDOF 7
ENDMDL
MODEL 2
REMARK VINA RESULT: -7.459736862      1.864      2.520
REMARK  7 active torsions:
REMARK  status: ('A' for Active; 'I' for Inactive)
REMARK    1  A    between atoms: N1_1  and  C1_4 
REMARK    2  A    between atoms: C4_12  and  C5_13 
REMARK    3  A    between atoms: C6_17  and  C7_18 
REMARK       I    between atoms: C7_18  and  N5_20 
REMARK    4  A    between atoms: N5_20  and  N6_22 
REMARK    5  A    between atoms: N8_27  and  S2_28 
REMARK    6  A    between atoms: S2_28  and  N9_29 
REMARK    7  A    between atoms: S2_28  and  C8_33 
ROOT
HETATM    1  C1  UNL     1      70.829   7.054  -0.059  1.00  0.00     0.680 A 
HETATM    2  N2  UNL     1      69.763   7.319  -0.839  1.00  0.00    -0.154 N 
ATOM      3  H2  UNL     1      69.805   8.064  -1.534  1.00  0.00     0.187 HD
HETATM    4  C2  UNL     1      68.626   6.579  -0.685  1.00  0.00     0.290 A 
HETATM    5  O1  UNL     1      67.599   6.770  -1.372  1.00  0.00    -0.265 OA
HETATM    6  C3  UNL     1      68.556   5.569   0.251  1.00  0.00     0.149 A 
HETATM    7  N3  UNL     1      67.570   4.734   0.588  1.00  0.00    -0.331 N 
ATOM      8  H3  UNL     1      66.635   4.684   0.184  1.00  0.00     0.168 HD
HETATM    9  C4  UNL     1      68.079   3.968   1.579  1.00  0.00     0.168 A 
HETATM   10  N8  UNL     1      69.352   4.280   1.888  1.00  0.00    -0.214 N 
HETATM   11  C9  UNL     1      69.643   5.298   1.044  1.00  0.00     0.170 A 
HETATM   12  N10 UNL     1      70.756   6.071   0.848  1.00  0.00    -0.173 N 
ATOM     13  H10 UNL     1      71.576   5.888   1.427  1.00  0.00     0.186 HD
ENDROOT
BRANCH   9  14
HETATM   14  C5  UNL     1      67.242   2.925   2.253  1.00  0.00     0.159 A 
HETATM   15  N4  UNL     1      67.705   1.701   2.502  1.00  0.00    -0.307 N 
HETATM   16  S1  UNL     1      66.449   0.938   3.297  1.00  0.00     0.011 SA
ATOM     17  H4  UNL     1      68.618   1.317   2.263  1.00  0.00     0.176 HD
HETATM   18  C6  UNL     1      65.339   2.234   3.289  1.00  0.00     0.162 A 
HETATM   19  N7  UNL     1      66.015   3.176   2.669  1.00  0.00    -0.328 N 
ATOM     20  H7  UNL     1      65.596   4.092   2.510  1.00  0.00     0.168 HD
BRANCH  18  21
HETATM   21  C7  UNL     1      63.979   2.320   3.826  1.00  0.00     0.294 C 
HETATM   22  O2  UNL     1      63.039   2.485   3.034  1.00  0.00    -0.264 OA
HETATM   23  N5  UNL     1      63.773   2.214   5.209  1.00  0.00    -0.271 N 
ATOM     24  H5  UNL     1      64.578   2.079   5.820  1.00  0.00     0.189 HD
BRANCH  23  25
HETATM   25  N6  UNL     1      62.484   2.289   5.781  1.00  0.00    -0.342 N 
ATOM     26  H62 UNL     1      62.064   3.212   5.894  1.00  0.00     0.176 HD
ATOM     27  H61 UNL     1      61.976   1.457   6.078  1.00  0.00     0.176 HD
ENDBRANCH  23  25
ENDBRANCH  18  21
ENDBRANCH   9  14
BRANCH  10  28
HETATM   28  S2  UNL     1      70.442   3.492   3.073  1.00  0.00     0.172 S 
HETATM   29  O3  UNL     1      69.277   5.056   4.513  1.00  0.00    -0.220 OA
BRANCH  28  30
HETATM   30  N9  UNL     1      71.946   3.909   2.787  1.00  0.00    -0.339 N 
ATOM     31  H92 UNL     1      72.397   4.735   3.179  1.00  0.00     0.167 HD
ATOM     32  H91 UNL     1      72.383   3.231   2.161  1.00  0.00     0.167 HD
ENDBRANCH  28  30
BRANCH  28  33
HETATM   33  C8  UNL     1      70.367   2.774   4.596  1.00  0.00     0.366 C 
HETATM   34  O4  UNL     1      69.612   1.802   4.956  1.00  0.00    -0.290 OA
ENDBRANCH  28  33
ENDBRANCH  10  28
BRANCH   1  35
HETATM   35  N1  UNL     1      71.882   7.778  -0.239  1.00  0.00    -0.234 N 
ATOM     36  H12 UNL     1      72.271   7.986  -1.160  1.00  0.00     0.174 HD
ATOM     37  H11 UNL     1      72.333   8.154   0.594  1.00  0.00     0.174 HD
ENDBRANCH   1  35
TORSDOF 7
ENDMDL
MODEL 3
REMARK VINA RESULT: -7.317571054      2.806      6.748
REMARK  7 active torsions:
REMARK  status: ('A' for Active; 'I' for Inactive)
REMARK    1  A    between atoms: N1_1  and  C1_4 
REMARK    2  A    between atoms: C4_12  and  C5_13 
REMARK    3  A    between atoms: C6_17  and  C7_18 
REMARK       I    between atoms: C7_18  and  N5_20 
REMARK    4  A    between atoms: N5_20  and  N6_22 
REMARK    5  A    between atoms: N8_27  and  S2_28 
REMARK    6  A    between atoms: S2_28  and  N9_29 
REMARK    7  A    between atoms: S2_28  and  C8_33 
ROOT
HETATM    1  C1  UNL     1      69.593   1.665   4.365  1.00  0.00     0.680 A 
HETATM    2  N2  UNL     1      70.528   2.584   4.675  1.00  0.00    -0.154 N 
ATOM      3  H2  UNL     1      71.307   2.341   5.287  1.00  0.00     0.187 HD
HETATM    4  C2  UNL     1      70.419   3.843   4.158  1.00  0.00     0.290 A 
HETATM    5  O1  UNL     1      71.248   4.746   4.403  1.00  0.00    -0.265 OA
HETATM    6  C3  UNL     1      69.372   4.184   3.329  1.00  0.00     0.149 A 
HETATM    7  N3  UNL     1      69.051   5.330   2.725  1.00  0.00    -0.331 N 
ATOM      8  H3  UNL     1      69.557   6.215   2.764  1.00  0.00     0.168 HD
HETATM    9  C4  UNL     1      67.910   5.067   2.049  1.00  0.00     0.168 A 
HETATM   10  N8  UNL     1      67.489   3.796   2.198  1.00  0.00    -0.214 N 
HETATM   11  C9  UNL     1      68.420   3.246   3.013  1.00  0.00     0.170 A 
HETATM   12  N10 UNL     1      68.577   2.001   3.559  1.00  0.00    -0.173 N 
ATOM     13  H10 UNL     1      67.881   1.289   3.338  1.00  0.00     0.186 HD
ENDROOT
BRANCH   9  14
HETATM   14  C5  UNL     1      67.210   6.138   1.271  1.00  0.00     0.159 A 
HETATM   15  N4  UNL     1      66.473   7.074   1.865  1.00  0.00    -0.307 N 
HETATM   16  S1  UNL     1      65.955   8.050   0.611  1.00  0.00     0.011 SA
ATOM     17  H4  UNL     1      66.269   7.173   2.859  1.00  0.00     0.176 HD
HETATM   18  C6  UNL     1      66.714   7.215  -0.670  1.00  0.00     0.162 A 
HETATM   19  N7  UNL     1      67.320   6.231  -0.040  1.00  0.00    -0.328 N 
ATOM     20  H7  UNL     1      67.868   5.547  -0.561  1.00  0.00     0.168 HD
BRANCH  18  21
HETATM   21  C7  UNL     1      66.720   7.490  -2.108  1.00  0.00     0.294 C 
HETATM   22  O2  UNL     1      66.013   6.790  -2.848  1.00  0.00    -0.264 OA
HETATM   23  N5  UNL     1      67.515   8.530  -2.611  1.00  0.00    -0.271 N 
ATOM     24  H5  UNL     1      68.079   9.078  -1.963  1.00  0.00     0.189 HD
BRANCH  23  25
HETATM   25  N6  UNL     1      67.559   8.840  -3.987  1.00  0.00    -0.342 N 
ATOM     26  H62 UNL     1      68.379   8.545  -4.518  1.00  0.00     0.176 HD
ATOM     27  H61 UNL     1      66.803   9.342  -4.453  1.00  0.00     0.176 HD
ENDBRANCH  23  25
ENDBRANCH  18  21
ENDBRANCH   9  14
BRANCH  10  28
HETATM   28  S2  UNL     1      66.082   2.986   1.438  1.00  0.00     0.172 S 
HETATM   29  O3  UNL     1      65.592   2.619   3.784  1.00  0.00    -0.220 OA
BRANCH  28  30
HETATM   30  N9  UNL     1      66.554   1.671   0.685  1.00  0.00    -0.339 N 
ATOM     31  H92 UNL     1      67.463   1.564   0.234  1.00  0.00     0.167 HD
ATOM     32  H91 UNL     1      65.820   0.964   0.724  1.00  0.00     0.167 HD
ENDBRANCH  28  30
BRANCH  28  33
HETATM   33  C8  UNL     1      64.402   2.950   1.575  1.00  0.00     0.366 C 
HETATM   34  O4  UNL     1      63.571   3.821   1.136  1.00  0.00    -0.290 OA
ENDBRANCH  28  33
ENDBRANCH  10  28
BRANCH   1  35
HETATM   35  N1  UNL     1      69.737   0.488   4.875  1.00  0.00    -0.234 N 
ATOM     36  H12 UNL     1      68.981  -0.022   5.334  1.00  0.00     0.174 HD
ATOM     37  H11 UNL     1      70.660   0.062   4.805  1.00  0.00     0.174 HD
ENDBRANCH   1  35
TORSDOF 7
ENDMDL
MODEL 4
REMARK VINA RESULT: -7.222337628      1.764      1.947
REMARK  7 active torsions:
REMARK  status: ('A' for Active; 'I' for Inactive)
REMARK    1  A    between atoms: N1_1  and  C1_4 
REMARK    2  A    between atoms: C4_12  and  C5_13 
REMARK    3  A    between atoms: C6_17  and  C7_18 
REMARK       I    between atoms: C7_18  and  N5_20 
REMARK    4  A    between atoms: N5_20  and  N6_22 
REMARK    5  A    between atoms: N8_27  and  S2_28 
REMARK    6  A    between atoms: S2_28  and  N9_29 
REMARK    7  A    between atoms: S2_28  and  C8_33 
ROOT
HETATM    1  C1  UNL     1      70.950   7.387  -0.305  1.00  0.00     0.680 A 
HETATM    2  N2  UNL     1      69.882   7.784  -1.023  1.00  0.00    -0.154 N 
ATOM      3  H2  UNL     1      69.953   8.582  -1.654  1.00  0.00     0.187 HD
HETATM    4  C2  UNL     1      68.705   7.105  -0.895  1.00  0.00     0.290 A 
HETATM    5  O1  UNL     1      67.673   7.418  -1.528  1.00  0.00    -0.265 OA
HETATM    6  C3  UNL     1      68.596   6.024  -0.046  1.00  0.00     0.149 A 
HETATM    7  N3  UNL     1      67.568   5.225   0.251  1.00  0.00    -0.331 N 
ATOM      8  H3  UNL     1      66.620   5.269  -0.123  1.00  0.00     0.168 HD
HETATM    9  C4  UNL     1      68.053   4.346   1.156  1.00  0.00     0.168 A 
HETATM   10  N8  UNL     1      69.352   4.552   1.449  1.00  0.00    -0.214 N 
HETATM   11  C9  UNL     1      69.685   5.618   0.684  1.00  0.00     0.170 A 
HETATM   12  N10 UNL     1      70.839   6.335   0.518  1.00  0.00    -0.173 N 
ATOM     13  H10 UNL     1      71.661   6.052   1.052  1.00  0.00     0.186 HD
ENDROOT
BRANCH   9  14
HETATM   14  C5  UNL     1      67.170   3.303   1.768  1.00  0.00     0.159 A 
HETATM   15  N4  UNL     1      66.522   2.405   1.027  1.00  0.00    -0.307 N 
HETATM   16  S1  UNL     1      65.728   1.446   2.141  1.00  0.00     0.011 SA
ATOM     17  H4  UNL     1      66.512   2.323   0.011  1.00  0.00     0.176 HD
HETATM   18  C6  UNL     1      66.259   2.236   3.558  1.00  0.00     0.162 A 
HETATM   19  N7  UNL     1      67.017   3.195   3.073  1.00  0.00    -0.328 N 
ATOM     20  H7  UNL     1      67.483   3.850   3.701  1.00  0.00     0.168 HD
BRANCH  18  21
HETATM   21  C7  UNL     1      65.972   1.951   4.965  1.00  0.00     0.294 C 
HETATM   22  O2  UNL     1      66.234   2.820   5.810  1.00  0.00    -0.264 OA
HETATM   23  N5  UNL     1      65.414   0.715   5.322  1.00  0.00    -0.271 N 
ATOM     24  H5  UNL     1      65.217   0.033   4.590  1.00  0.00     0.189 HD
BRANCH  23  25
HETATM   25  N6  UNL     1      65.117   0.387   6.662  1.00  0.00    -0.342 N 
ATOM     26  H62 UNL     1      65.229   1.114   7.369  1.00  0.00     0.176 HD
ATOM     27  H61 UNL     1      64.798  -0.543   6.933  1.00  0.00     0.176 HD
ENDBRANCH  23  25
ENDBRANCH  18  21
ENDBRANCH   9  14
BRANCH  10  28
HETATM   28  S2  UNL     1      70.421   3.597   2.525  1.00  0.00     0.172 S 
HETATM   29  O3  UNL     1      69.398   5.099   4.132  1.00  0.00    -0.220 OA
BRANCH  28  30
HETATM   30  N9  UNL     1      71.941   3.944   2.226  1.00  0.00    -0.339 N 
ATOM     31  H92 UNL     1      72.483   4.638   2.742  1.00  0.00     0.167 HD
ATOM     32  H91 UNL     1      72.284   3.374   1.453  1.00  0.00     0.167 HD
ENDBRANCH  28  30
BRANCH  28  33
HETATM   33  C8  UNL     1      70.342   2.755   3.983  1.00  0.00     0.366 C 
HETATM   34  O4  UNL     1      69.574   1.769   4.266  1.00  0.00    -0.290 OA
ENDBRANCH  28  33
ENDBRANCH  10  28
BRANCH   1  35
HETATM   35  N1  UNL     1      72.042   8.057  -0.458  1.00  0.00    -0.234 N 
ATOM     36  H12 UNL     1      72.073   9.076  -0.511  1.00  0.00     0.174 HD
ATOM     37  H11 UNL     1      72.908   7.523  -0.525  1.00  0.00     0.174 HD
ENDBRANCH   1  35
TORSDOF 7
ENDMDL
MODEL 5
REMARK VINA RESULT: -7.201389109      1.160      1.160
REMARK  7 active torsions:
REMARK  status: ('A' for Active; 'I' for Inactive)
REMARK    1  A    between atoms: N1_1  and  C1_4 
REMARK    2  A    between atoms: C4_12  and  C5_13 
REMARK    3  A    between atoms: C6_17  and  C7_18 
REMARK       I    between atoms: C7_18  and  N5_20 
REMARK    4  A    between atoms: N5_20  and  N6_22 
REMARK    5  A    between atoms: N8_27  and  S2_28 
REMARK    6  A    between atoms: S2_28  and  N9_29 
REMARK    7  A    between atoms: S2_28  and  C8_33 
ROOT
HETATM    1  C1  UNL     1      70.950   7.106  -0.095  1.00  0.00     0.680 A 
HETATM    2  N2  UNL     1      69.873   7.333  -0.871  1.00  0.00    -0.154 N 
ATOM      3  H2  UNL     1      69.901   8.051  -1.595  1.00  0.00     0.187 HD
HETATM    4  C2  UNL     1      68.743   6.592  -0.674  1.00  0.00     0.290 A 
HETATM    5  O1  UNL     1      67.707   6.749  -1.355  1.00  0.00    -0.265 OA
HETATM    6  C3  UNL     1      68.692   5.618   0.301  1.00  0.00     0.149 A 
HETATM    7  N3  UNL     1      67.717   4.790   0.682  1.00  0.00    -0.331 N 
ATOM      8  H3  UNL     1      66.776   4.719   0.293  1.00  0.00     0.168 HD
HETATM    9  C4  UNL     1      68.243   4.067   1.696  1.00  0.00     0.168 A 
HETATM   10  N8  UNL     1      69.517   4.401   1.977  1.00  0.00    -0.214 N 
HETATM   11  C9  UNL     1      69.791   5.386   1.090  1.00  0.00     0.170 A 
HETATM   12  N10 UNL     1      70.895   6.158   0.851  1.00  0.00    -0.173 N 
ATOM     13  H10 UNL     1      71.723   6.004   1.426  1.00  0.00     0.186 HD
ENDROOT
BRANCH   9  14
HETATM   14  C5  UNL     1      67.422   3.046   2.421  1.00  0.00     0.159 A 
HETATM   15  N4  UNL     1      66.592   3.379   3.407  1.00  0.00    -0.307 N 
HETATM   16  S1  UNL     1      65.879   1.935   3.854  1.00  0.00     0.011 SA
ATOM     17  H4  UNL     1      66.428   4.305   3.801  1.00  0.00     0.176 HD
HETATM   18  C6  UNL     1      66.681   0.920   2.741  1.00  0.00     0.162 A 
HETATM   19  N7  UNL     1      67.451   1.768   2.095  1.00  0.00    -0.328 N 
ATOM     20  H7  UNL     1      68.066   1.441   1.350  1.00  0.00     0.168 HD
BRANCH  18  21
HETATM   21  C7  UNL     1      66.567  -0.524   2.524  1.00  0.00     0.294 C 
HETATM   22  O2  UNL     1      67.508  -1.251   2.876  1.00  0.00    -0.264 OA
HETATM   23  N5  UNL     1      65.409  -1.047   1.931  1.00  0.00    -0.271 N 
ATOM     24  H5  UNL     1      64.663  -0.408   1.659  1.00  0.00     0.189 HD
BRANCH  23  25
HETATM   25  N6  UNL     1      65.246  -2.429   1.699  1.00  0.00    -0.342 N 
ATOM     26  H62 UNL     1      64.953  -3.014   2.481  1.00  0.00     0.176 HD
ATOM     27  H61 UNL     1      65.411  -2.847   0.783  1.00  0.00     0.176 HD
ENDBRANCH  23  25
ENDBRANCH  18  21
ENDBRANCH   9  14
BRANCH  10  28
HETATM   28  S2  UNL     1      70.628   3.666   3.178  1.00  0.00     0.172 S 
HETATM   29  O3  UNL     1      69.236   5.022   4.629  1.00  0.00    -0.220 OA
BRANCH  28  30
HETATM   30  N9  UNL     1      72.091   4.251   2.992  1.00  0.00    -0.339 N 
ATOM     31  H92 UNL     1      72.366   4.879   2.236  1.00  0.00     0.167 HD
ATOM     32  H91 UNL     1      72.701   3.907   3.734  1.00  0.00     0.167 HD
ENDBRANCH  28  30
BRANCH  28  33
HETATM   33  C8  UNL     1      70.557   2.863   4.658  1.00  0.00     0.366 C 
HETATM   34  O4  UNL     1      69.818   1.860   4.959  1.00  0.00    -0.290 OA
ENDBRANCH  28  33
ENDBRANCH  10  28
BRANCH   1  35
HETATM   35  N1  UNL     1      71.995   7.830  -0.317  1.00  0.00    -0.234 N 
ATOM     36  H12 UNL     1      72.311   8.090  -1.251  1.00  0.00     0.174 HD
ATOM     37  H11 UNL     1      72.518   8.150   0.498  1.00  0.00     0.174 HD
ENDBRANCH   1  35
TORSDOF 7
ENDMDL
