MODEL 1
REMARK VINA RESULT: -7.571165771      0.000      0.000
REMARK  10 active torsions:
REMARK  status: ('A' for Active; 'I' for Inactive)
REMARK    1  A    between atoms: C2_2  and  C3_3 
REMARK    2  A    between atoms: C2_2  and  C12_15 
REMARK    3  A    between atoms: C3_3  and  N1_4 
REMARK    4  A    between atoms: N1_4  and  C4_7 
REMARK    5  A    between atoms: C4_7  and  C5_8 
REMARK    6  A    between atoms: C5_8  and  C6_9 
REMARK    7  A    between atoms: C12_15  and  O1_16 
REMARK    8  A    between atoms: O1_16  and  C13_17 
REMARK    9  A    between atoms: C16_20  and  S1_21 
REMARK   10  A    between atoms: S1_21  and  N2_24 
REMARK       I    between atoms: N2_24  and  C17_26 
ROOT
HETATM    1  C13 UNL     1       6.928  -5.455 -19.165  1.00  0.00     0.069 A 
HETATM    2  C14 UNL     1       5.776  -4.731 -19.009  1.00  0.00     0.038 A 
HETATM    3  C15 UNL     1       5.028  -4.291 -20.071  1.00  0.00     0.028 A 
HETATM    4  C16 UNL     1       5.444  -4.584 -21.337  1.00  0.00     0.080 A 
HETATM    5  C18 UNL     1       6.598  -5.311 -21.535  1.00  0.00     0.028 A 
HETATM    6  C19 UNL     1       7.345  -5.751 -20.462  1.00  0.00     0.038 A 
ENDROOT
BRANCH   1   7
HETATM    7  O1  UNL     1       7.705  -5.914 -18.141  1.00  0.00    -0.347 OA
BRANCH   7   8
HETATM    8  C12 UNL     1       8.787  -5.209 -17.573  1.00  0.00     0.210 C 
BRANCH   8   9
HETATM    9  C2  UNL     1      10.031  -6.003 -17.670  1.00  0.00    -0.040 C 
HETATM   10  C1  UNL     1      10.912  -5.713 -18.608  1.00  0.00     0.018 C 
BRANCH   9  11
HETATM   11  C3  UNL     1      10.279  -7.111 -16.719  1.00  0.00     0.267 C 
BRANCH  11  12
HETATM   12  N1  UNL     1       9.105  -7.352 -15.874  1.00  0.00    -0.071 N 
ATOM     13  H12 UNL     1       9.235  -7.049 -14.908  1.00  0.00     0.277 HD
ATOM     14  H11 UNL     1       8.319  -6.742 -16.094  1.00  0.00     0.277 HD
BRANCH  12  15
HETATM   15  C4  UNL     1       8.791  -8.751 -15.994  1.00  0.00     0.237 C 
BRANCH  15  16
HETATM   16  C5  UNL     1       7.320  -9.035 -15.817  1.00  0.00     0.066 C 
BRANCH  16  17
HETATM   17  C6  UNL     1       6.570  -8.932 -17.094  1.00  0.00    -0.057 A 
HETATM   18  C7  UNL     1       5.259  -8.510 -17.144  1.00  0.00     0.007 A 
HETATM   19  C8  UNL     1       4.566  -8.418 -18.348  1.00  0.00     0.001 A 
HETATM   20  C9  UNL     1       5.174  -8.747 -19.542  1.00  0.00     0.000 A 
HETATM   21  C10 UNL     1       6.480  -9.167 -19.493  1.00  0.00     0.001 A 
HETATM   22  C11 UNL     1       7.164  -9.257 -18.295  1.00  0.00     0.007 A 
ENDBRANCH  16  17
ENDBRANCH  15  16
ENDBRANCH  12  15
ENDBRANCH  11  12
ENDBRANCH   9  11
ENDBRANCH   8   9
ENDBRANCH   7   8
ENDBRANCH   1   7
BRANCH   4  23
HETATM   23  S1  UNL     1       4.476  -4.015 -22.688  1.00  0.00     0.265 S 
HETATM   24  O2  UNL     1       5.185  -2.824 -23.277  1.00  0.00    -0.200 OA
HETATM   25  O3  UNL     1       3.149  -3.595 -22.116  1.00  0.00    -0.200 OA
BRANCH  23  26
HETATM   26  N2  UNL     1       4.278  -5.251 -23.877  1.00  0.00    -0.254 N 
HETATM   27  C17 UNL     1       4.540  -4.947 -25.229  1.00  0.00     0.195 C 
HETATM   28  N3  UNL     1       5.740  -4.922 -25.659  1.00  0.00    -0.373 N 
HETATM   29  N4  UNL     1       3.471  -4.672 -26.106  1.00  0.00    -0.063 NA
ATOM     30  H32 UNL     1       6.514  -5.120 -25.024  1.00  0.00     0.158 HD
ATOM     31  H31 UNL     1       5.929  -4.702 -26.637  1.00  0.00     0.158 HD
ATOM     32  H2  UNL     1       3.978  -6.186 -23.606  1.00  0.00     0.181 HD
ENDBRANCH  23  26
ENDBRANCH   4  23
TORSDOF 10
ENDMDL
MODEL 2
REMARK VINA RESULT: -7.499010765      1.683      2.357
REMARK  10 active torsions:
REMARK  status: ('A' for Active; 'I' for Inactive)
REMARK    1  A    between atoms: C2_2  and  C3_3 
REMARK    2  A    between atoms: C2_2  and  C12_15 
REMARK    3  A    between atoms: C3_3  and  N1_4 
REMARK    4  A    between atoms: N1_4  and  C4_7 
REMARK    5  A    between atoms: C4_7  and  C5_8 
REMARK    6  A    between atoms: C5_8  and  C6_9 
REMARK    7  A    between atoms: C12_15  and  O1_16 
REMARK    8  A    between atoms: O1_16  and  C13_17 
REMARK    9  A    between atoms: C16_20  and  S1_21 
REMARK   10  A    between atoms: S1_21  and  N2_24 
REMARK       I    between atoms: N2_24  and  C17_26 
ROOT
HETATM    1  C13 UNL     1       9.384  -5.254 -18.741  1.00  0.00     0.069 A 
HETATM    2  C14 UNL     1       9.819  -5.508 -20.014  1.00  0.00     0.038 A 
HETATM    3  C15 UNL     1       9.085  -5.187 -21.127  1.00  0.00     0.028 A 
HETATM    4  C16 UNL     1       7.868  -4.589 -20.963  1.00  0.00     0.080 A 
HETATM    5  C18 UNL     1       7.396  -4.317 -19.698  1.00  0.00     0.028 A 
HETATM    6  C19 UNL     1       8.141  -4.643 -18.584  1.00  0.00     0.038 A 
ENDROOT
BRANCH   1   7
HETATM    7  O1  UNL     1      10.079  -5.555 -17.605  1.00  0.00    -0.347 OA
BRANCH   7   8
HETATM    8  C12 UNL     1      10.909  -6.685 -17.445  1.00  0.00     0.210 C 
BRANCH   8   9
HETATM    9  C2  UNL     1      10.411  -7.541 -16.346  1.00  0.00    -0.040 C 
HETATM   10  C1  UNL     1      11.026  -8.678 -16.083  1.00  0.00     0.018 C 
BRANCH   9  11
HETATM   11  C3  UNL     1       9.234  -7.120 -15.553  1.00  0.00     0.267 C 
BRANCH  11  12
HETATM   12  N1  UNL     1       8.588  -8.273 -14.917  1.00  0.00    -0.071 N 
ATOM     13  H12 UNL     1       9.032  -9.161 -15.149  1.00  0.00     0.277 HD
ATOM     14  H11 UNL     1       8.738  -8.314 -13.910  1.00  0.00     0.277 HD
BRANCH  12  15
HETATM   15  C4  UNL     1       7.197  -8.219 -15.283  1.00  0.00     0.237 C 
BRANCH  15  16
HETATM   16  C5  UNL     1       6.753  -9.430 -16.066  1.00  0.00     0.066 C 
BRANCH  16  17
HETATM   17  C6  UNL     1       6.308  -9.081 -17.438  1.00  0.00    -0.057 A 
HETATM   18  C7  UNL     1       5.085  -9.478 -17.936  1.00  0.00     0.007 A 
HETATM   19  C8  UNL     1       4.678  -9.144 -19.224  1.00  0.00     0.001 A 
HETATM   20  C9  UNL     1       5.490  -8.399 -20.053  1.00  0.00     0.000 A 
HETATM   21  C10 UNL     1       6.708  -8.003 -19.558  1.00  0.00     0.001 A 
HETATM   22  C11 UNL     1       7.108  -8.336 -18.277  1.00  0.00     0.007 A 
ENDBRANCH  16  17
ENDBRANCH  15  16
ENDBRANCH  12  15
ENDBRANCH  11  12
ENDBRANCH   9  11
ENDBRANCH   8   9
ENDBRANCH   7   8
ENDBRANCH   1   7
BRANCH   4  23
HETATM   23  S1  UNL     1       6.938  -4.183 -22.397  1.00  0.00     0.265 S 
HETATM   24  O2  UNL     1       7.814  -4.455 -23.591  1.00  0.00    -0.200 OA
HETATM   25  O3  UNL     1       6.631  -2.713 -22.307  1.00  0.00    -0.200 OA
BRANCH  23  26
HETATM   26  N2  UNL     1       5.489  -5.118 -22.484  1.00  0.00    -0.254 N 
HETATM   27  C17 UNL     1       4.608  -4.915 -23.566  1.00  0.00     0.195 C 
HETATM   28  N3  UNL     1       4.852  -5.448 -24.698  1.00  0.00    -0.373 N 
HETATM   29  N4  UNL     1       3.455  -4.122 -23.393  1.00  0.00    -0.063 NA
ATOM     30  H32 UNL     1       5.686  -6.022 -24.824  1.00  0.00     0.158 HD
ATOM     31  H31 UNL     1       4.214  -5.301 -25.481  1.00  0.00     0.158 HD
ATOM     32  H2  UNL     1       5.274  -5.807 -21.764  1.00  0.00     0.181 HD
ENDBRANCH  23  26
ENDBRANCH   4  23
TORSDOF 10
ENDMDL
MODEL 3
REMARK VINA RESULT: -7.411565088      1.778      2.192
REMARK  10 active torsions:
REMARK  status: ('A' for Active; 'I' for Inactive)
REMARK    1  A    between atoms: C2_2  and  C3_3 
REMARK    2  A    between atoms: C2_2  and  C12_15 
REMARK    3  A    between atoms: C3_3  and  N1_4 
REMARK    4  A    between atoms: N1_4  and  C4_7 
REMARK    5  A    between atoms: C4_7  and  C5_8 
REMARK    6  A    between atoms: C5_8  and  C6_9 
REMARK    7  A    between atoms: C12_15  and  O1_16 
REMARK    8  A    between atoms: O1_16  and  C13_17 
REMARK    9  A    between atoms: C16_20  and  S1_21 
REMARK   10  A    between atoms: S1_21  and  N2_24 
REMARK       I    between atoms: N2_24  and  C17_26 
ROOT
HETATM    1  C13 UNL     1       8.978  -4.859 -18.222  1.00  0.00     0.069 A 
HETATM    2  C14 UNL     1       8.007  -4.081 -17.649  1.00  0.00     0.038 A 
HETATM    3  C15 UNL     1       6.924  -3.614 -18.346  1.00  0.00     0.028 A 
HETATM    4  C16 UNL     1       6.803  -3.934 -19.668  1.00  0.00     0.080 A 
HETATM    5  C18 UNL     1       7.759  -4.715 -20.281  1.00  0.00     0.028 A 
HETATM    6  C19 UNL     1       8.846  -5.182 -19.571  1.00  0.00     0.038 A 
ENDROOT
BRANCH   1   7
HETATM    7  O1  UNL     1      10.073  -5.347 -17.569  1.00  0.00    -0.347 OA
BRANCH   7   8
HETATM    8  C12 UNL     1      10.578  -6.657 -17.713  1.00  0.00     0.210 C 
BRANCH   8   9
HETATM    9  C2  UNL     1      10.261  -7.469 -16.518  1.00  0.00    -0.040 C 
HETATM   10  C1  UNL     1      10.948  -8.570 -16.283  1.00  0.00     0.018 C 
BRANCH   9  11
HETATM   11  C3  UNL     1       9.181  -7.044 -15.598  1.00  0.00     0.267 C 
BRANCH  11  12
HETATM   12  N1  UNL     1       8.589  -8.197 -14.912  1.00  0.00    -0.071 N 
ATOM     13  H12 UNL     1       9.050  -9.079 -15.136  1.00  0.00     0.277 HD
ATOM     14  H11 UNL     1       8.774  -8.208 -13.909  1.00  0.00     0.277 HD
BRANCH  12  15
HETATM   15  C4  UNL     1       7.186  -8.190 -15.232  1.00  0.00     0.237 C 
BRANCH  15  16
HETATM   16  C5  UNL     1       6.751  -9.432 -15.969  1.00  0.00     0.066 C 
BRANCH  16  17
HETATM   17  C6  UNL     1       6.291  -9.135 -17.348  1.00  0.00    -0.057 A 
HETATM   18  C7  UNL     1       5.041  -9.502 -17.801  1.00  0.00     0.007 A 
HETATM   19  C8  UNL     1       4.621  -9.218 -19.096  1.00  0.00     0.001 A 
HETATM   20  C9  UNL     1       5.447  -8.554 -19.980  1.00  0.00     0.000 A 
HETATM   21  C10 UNL     1       6.692  -8.188 -19.530  1.00  0.00     0.001 A 
HETATM   22  C11 UNL     1       7.105  -8.472 -18.242  1.00  0.00     0.007 A 
ENDBRANCH  16  17
ENDBRANCH  15  16
ENDBRANCH  12  15
ENDBRANCH  11  12
ENDBRANCH   9  11
ENDBRANCH   8   9
ENDBRANCH   7   8
ENDBRANCH   1   7
BRANCH   4  23
HETATM   23  S1  UNL     1       5.409  -3.328 -20.550  1.00  0.00     0.265 S 
HETATM   24  O2  UNL     1       5.371  -1.836 -20.357  1.00  0.00    -0.200 OA
HETATM   25  O3  UNL     1       4.197  -3.961 -19.922  1.00  0.00    -0.200 OA
BRANCH  23  26
HETATM   26  N2  UNL     1       5.517  -3.719 -22.228  1.00  0.00    -0.254 N 
HETATM   27  C17 UNL     1       4.472  -3.328 -23.090  1.00  0.00     0.195 C 
HETATM   28  N3  UNL     1       4.411  -2.129 -23.518  1.00  0.00    -0.373 N 
HETATM   29  N4  UNL     1       3.494  -4.266 -23.479  1.00  0.00    -0.063 NA
ATOM     30  H32 UNL     1       5.118  -1.449 -23.237  1.00  0.00     0.158 HD
ATOM     31  H31 UNL     1       3.656  -1.846 -24.142  1.00  0.00     0.158 HD
ATOM     32  H2  UNL     1       6.325  -4.226 -22.591  1.00  0.00     0.181 HD
ENDBRANCH  23  26
ENDBRANCH   4  23
TORSDOF 10
ENDMDL
MODEL 4
REMARK VINA RESULT: -7.392034622      3.813      6.465
REMARK  10 active torsions:
REMARK  status: ('A' for Active; 'I' for Inactive)
REMARK    1  A    between atoms: C2_2  and  C3_3 
REMARK    2  A    between atoms: C2_2  and  C12_15 
REMARK    3  A    between atoms: C3_3  and  N1_4 
REMARK    4  A    between atoms: N1_4  and  C4_7 
REMARK    5  A    between atoms: C4_7  and  C5_8 
REMARK    6  A    between atoms: C5_8  and  C6_9 
REMARK    7  A    between atoms: C12_15  and  O1_16 
REMARK    8  A    between atoms: O1_16  and  C13_17 
REMARK    9  A    between atoms: C16_20  and  S1_21 
REMARK   10  A    between atoms: S1_21  and  N2_24 
REMARK       I    between atoms: N2_24  and  C17_26 
ROOT
HETATM    1  C13 UNL     1       9.360  -6.516 -17.164  1.00  0.00     0.069 A 
HETATM    2  C14 UNL     1      10.661  -6.714 -17.543  1.00  0.00     0.038 A 
HETATM    3  C15 UNL     1      11.343  -5.834 -18.342  1.00  0.00     0.028 A 
HETATM    4  C16 UNL     1      10.703  -4.710 -18.781  1.00  0.00     0.080 A 
HETATM    5  C18 UNL     1       9.394  -4.475 -18.421  1.00  0.00     0.028 A 
HETATM    6  C19 UNL     1       8.715  -5.366 -17.616  1.00  0.00     0.038 A 
ENDROOT
BRANCH   1   7
HETATM    7  O1  UNL     1       8.641  -7.363 -16.371  1.00  0.00    -0.347 OA
BRANCH   7   8
HETATM    8  C12 UNL     1       8.568  -8.761 -16.545  1.00  0.00     0.210 C 
BRANCH   8   9
HETATM    9  C2  UNL     1       7.220  -9.156 -17.010  1.00  0.00    -0.040 C 
HETATM   10  C1  UNL     1       6.227  -9.204 -16.144  1.00  0.00     0.018 C 
BRANCH   9  11
HETATM   11  C3  UNL     1       6.996  -9.492 -18.435  1.00  0.00     0.267 C 
BRANCH  11  12
HETATM   12  N1  UNL     1       7.344  -8.362 -19.303  1.00  0.00    -0.071 N 
ATOM     13  H12 UNL     1       7.875  -7.635 -18.824  1.00  0.00     0.277 HD
ATOM     14  H11 UNL     1       8.048  -8.594 -20.003  1.00  0.00     0.277 HD
BRANCH  12  15
HETATM   15  C4  UNL     1       6.111  -7.885 -19.872  1.00  0.00     0.237 C 
BRANCH  15  16
HETATM   16  C5  UNL     1       6.325  -6.802 -20.900  1.00  0.00     0.066 C 
BRANCH  16  17
HETATM   17  C6  UNL     1       6.128  -5.444 -20.334  1.00  0.00    -0.057 A 
HETATM   18  C7  UNL     1       5.391  -5.224 -19.190  1.00  0.00     0.007 A 
HETATM   19  C8  UNL     1       5.213  -3.946 -18.670  1.00  0.00     0.001 A 
HETATM   20  C9  UNL     1       5.774  -2.846 -19.286  1.00  0.00     0.000 A 
HETATM   21  C10 UNL     1       6.509  -3.063 -20.425  1.00  0.00     0.001 A 
HETATM   22  C11 UNL     1       6.683  -4.335 -20.938  1.00  0.00     0.007 A 
ENDBRANCH  16  17
ENDBRANCH  15  16
ENDBRANCH  12  15
ENDBRANCH  11  12
ENDBRANCH   9  11
ENDBRANCH   8   9
ENDBRANCH   7   8
ENDBRANCH   1   7
BRANCH   4  23
HETATM   23  S1  UNL     1      11.589  -3.591 -19.804  1.00  0.00     0.265 S 
HETATM   24  O2  UNL     1      11.823  -2.339 -19.001  1.00  0.00    -0.200 OA
HETATM   25  O3  UNL     1      10.702  -3.292 -20.981  1.00  0.00    -0.200 OA
BRANCH  23  26
HETATM   26  N2  UNL     1      13.092  -4.271 -20.315  1.00  0.00    -0.254 N 
HETATM   27  C17 UNL     1      14.150  -3.407 -20.666  1.00  0.00     0.195 C 
HETATM   28  N3  UNL     1      14.864  -2.868 -19.758  1.00  0.00    -0.373 N 
HETATM   29  N4  UNL     1      14.416  -3.141 -22.025  1.00  0.00    -0.063 NA
ATOM     30  H32 UNL     1      14.671  -3.060 -18.775  1.00  0.00     0.158 HD
ATOM     31  H31 UNL     1      15.629  -2.243 -20.013  1.00  0.00     0.158 HD
ATOM     32  H2  UNL     1      13.213  -5.283 -20.361  1.00  0.00     0.181 HD
ENDBRANCH  23  26
ENDBRANCH   4  23
TORSDOF 10
ENDMDL
MODEL 5
REMARK VINA RESULT: -7.390023214      3.853      4.837
REMARK  10 active torsions:
REMARK  status: ('A' for Active; 'I' for Inactive)
REMARK    1  A    between atoms: C2_2  and  C3_3 
REMARK    2  A    between atoms: C2_2  and  C12_15 
REMARK    3  A    between atoms: C3_3  and  N1_4 
REMARK    4  A    between atoms: N1_4  and  C4_7 
REMARK    5  A    between atoms: C4_7  and  C5_8 
REMARK    6  A    between atoms: C5_8  and  C6_9 
REMARK    7  A    between atoms: C12_15  and  O1_16 
REMARK    8  A    between atoms: O1_16  and  C13_17 
REMARK    9  A    between atoms: C16_20  and  S1_21 
REMARK   10  A    between atoms: S1_21  and  N2_24 
REMARK       I    between atoms: N2_24  and  C17_26 
ROOT
HETATM    1  C13 UNL     1       8.730  -4.906 -18.300  1.00  0.00     0.069 A 
HETATM    2  C14 UNL     1       9.287  -3.711 -17.929  1.00  0.00     0.038 A 
HETATM    3  C15 UNL     1       8.602  -2.524 -17.987  1.00  0.00     0.028 A 
HETATM    4  C16 UNL     1       7.311  -2.529 -18.433  1.00  0.00     0.080 A 
HETATM    5  C18 UNL     1       6.717  -3.712 -18.815  1.00  0.00     0.028 A 
HETATM    6  C19 UNL     1       7.413  -4.902 -18.753  1.00  0.00     0.038 A 
ENDROOT
BRANCH   1   7
HETATM    7  O1  UNL     1       9.372  -6.110 -18.259  1.00  0.00    -0.347 OA
BRANCH   7   8
HETATM    8  C12 UNL     1      10.523  -6.383 -17.489  1.00  0.00     0.210 C 
BRANCH   8   9
HETATM    9  C2  UNL     1      10.216  -7.365 -16.427  1.00  0.00    -0.040 C 
HETATM   10  C1  UNL     1      10.864  -8.513 -16.401  1.00  0.00     0.018 C 
BRANCH   9  11
HETATM   11  C3  UNL     1       9.188  -7.056 -15.406  1.00  0.00     0.267 C 
BRANCH  11  12
HETATM   12  N1  UNL     1       8.567  -8.282 -14.896  1.00  0.00    -0.071 N 
ATOM     13  H12 UNL     1       9.024  -9.132 -15.226  1.00  0.00     0.277 HD
ATOM     14  H11 UNL     1       8.726  -8.430 -13.900  1.00  0.00     0.277 HD
BRANCH  12  15
HETATM   15  C4  UNL     1       7.173  -8.213 -15.246  1.00  0.00     0.237 C 
BRANCH  15  16
HETATM   16  C5  UNL     1       6.692  -9.449 -15.966  1.00  0.00     0.066 C 
BRANCH  16  17
HETATM   17  C6  UNL     1       6.243  -9.153 -17.350  1.00  0.00    -0.057 A 
HETATM   18  C7  UNL     1       7.101  -8.666 -18.312  1.00  0.00     0.007 A 
HETATM   19  C8  UNL     1       6.668  -8.393 -19.606  1.00  0.00     0.001 A 
HETATM   20  C9  UNL     1       5.355  -8.603 -19.973  1.00  0.00     0.000 A 
HETATM   21  C10 UNL     1       4.499  -9.089 -19.015  1.00  0.00     0.001 A 
HETATM   22  C11 UNL     1       4.934  -9.359 -17.732  1.00  0.00     0.007 A 
ENDBRANCH  16  17
ENDBRANCH  15  16
ENDBRANCH  12  15
ENDBRANCH  11  12
ENDBRANCH   9  11
ENDBRANCH   8   9
ENDBRANCH   7   8
ENDBRANCH   1   7
BRANCH   4  23
HETATM   23  S1  UNL     1       6.446  -1.002 -18.503  1.00  0.00     0.265 S 
HETATM   24  O2  UNL     1       5.726  -0.835 -17.191  1.00  0.00    -0.200 OA
HETATM   25  O3  UNL     1       5.452  -1.124 -19.626  1.00  0.00    -0.200 OA
BRANCH  23  26
HETATM   26  N2  UNL     1       7.530   0.315 -18.770  1.00  0.00    -0.254 N 
HETATM   27  C17 UNL     1       7.499   1.416 -17.889  1.00  0.00     0.195 C 
HETATM   28  N3  UNL     1       8.086   1.346 -16.759  1.00  0.00    -0.373 N 
HETATM   29  N4  UNL     1       6.819   2.593 -18.260  1.00  0.00    -0.063 NA
ATOM     30  H32 UNL     1       8.578   0.494 -16.490  1.00  0.00     0.158 HD
ATOM     31  H31 UNL     1       8.065   2.142 -16.122  1.00  0.00     0.158 HD
ATOM     32  H2  UNL     1       8.182   0.297 -19.554  1.00  0.00     0.181 HD
ENDBRANCH  23  26
ENDBRANCH   4  23
TORSDOF 10
ENDMDL
