MODEL 1
REMARK VINA RESULT: -7.971918330      0.000      0.000
REMARK  14 active torsions:
REMARK  status: ('A' for Active; 'I' for Inactive)
REMARK    1  A    between atoms: N1_1  and  C1_5 
REMARK    2  A    between atoms: C1_5  and  C2_6 
REMARK    3  A    between atoms: C5_9  and  S1_10 
REMARK    4  A    between atoms: S1_10  and  N2_13 
REMARK    5  A    between atoms: N2_13  and  C6_15 
REMARK    6  A    between atoms: C6_15  and  C7_16 
REMARK    7  A    between atoms: C7_16  and  C8_17 
REMARK    8  A    between atoms: C8_17  and  C9_18 
REMARK    9  A    between atoms: C9_18  and  C10_19 
REMARK   10  A    between atoms: C10_19  and  C11_20 
REMARK   11  A    between atoms: C11_20  and  N3_21 
REMARK   12  A    between atoms: N3_21  and  C12_23 
REMARK   13  A    between atoms: C16_27  and  C17_28 
REMARK   14  A    between atoms: C17_28  and  N4_29 
ROOT
HETATM    1  C7  UNL     1       6.150  -7.569 -20.400  1.00  0.00    -0.011 C 
ENDROOT
BRANCH   1   2
HETATM    2  C6  UNL     1       6.859  -6.281 -20.401  1.00  0.00     0.159 C 
BRANCH   2   3
HETATM    3  N2  UNL     1       6.249  -5.472 -19.299  1.00  0.00    -0.312 N 
ATOM      4  H2  UNL     1       6.146  -5.788 -18.335  1.00  0.00     0.172 HD
BRANCH   3   5
HETATM    5  S1  UNL     1       5.749  -3.954 -19.880  1.00  0.00     0.259 S 
HETATM    6  O1  UNL     1       4.252  -3.860 -19.899  1.00  0.00    -0.201 OA
HETATM    7  O2  UNL     1       6.238  -3.786 -21.290  1.00  0.00    -0.201 OA
BRANCH   5   8
HETATM    8  C5  UNL     1       6.412  -2.706 -18.843  1.00  0.00     0.079 A 
HETATM    9  C4  UNL     1       7.352  -2.993 -17.893  1.00  0.00     0.026 A 
HETATM   10  C3  UNL     1       7.891  -2.014 -17.058  1.00  0.00     0.010 A 
HETATM   11  C2  UNL     1       7.476  -0.705 -17.178  1.00  0.00    -0.033 A 
HETATM   12  C19 UNL     1       6.529  -0.399 -18.131  1.00  0.00     0.010 A 
HETATM   13  C18 UNL     1       5.994  -1.387 -18.963  1.00  0.00     0.026 A 
BRANCH  11  14
HETATM   14  C1  UNL     1       8.030   0.358 -16.307  1.00  0.00     0.268 C 
BRANCH  14  15
HETATM   15  N1  UNL     1       8.002   1.656 -16.966  1.00  0.00    -0.075 N 
ATOM     16  H13 UNL     1       8.943   2.016 -17.122  1.00  0.00     0.274 HD
ATOM     17  H12 UNL     1       7.700   1.575 -17.936  1.00  0.00     0.274 HD
ATOM     18  H11 UNL     1       7.428   2.325 -16.451  1.00  0.00     0.274 HD
ENDBRANCH  14  15
ENDBRANCH  11  14
ENDBRANCH   5   8
ENDBRANCH   3   5
ENDBRANCH   2   3
ENDBRANCH   1   2
BRANCH   1  19
HETATM   19  C8  UNL     1       5.249  -7.967 -19.326  1.00  0.00    -0.029 C 
BRANCH  19  20
HETATM   20  C9  UNL     1       4.838  -9.352 -19.083  1.00  0.00     0.028 C 
BRANCH  20  21
HETATM   21  C10 UNL     1       5.355 -10.051 -17.878  1.00  0.00     0.023 C 
BRANCH  21  22
HETATM   22  C11 UNL     1       5.783  -9.062 -16.789  1.00  0.00     0.121 C 
BRANCH  22  23
HETATM   23  N3  UNL     1       7.040  -9.367 -16.217  1.00  0.00    -0.376 N 
ATOM     24  H3  UNL     1       7.122 -10.217 -15.659  1.00  0.00     0.161 HD
BRANCH  23  25
HETATM   25  C12 UNL     1       8.073  -8.640 -16.359  1.00  0.00     0.101 A 
HETATM   26  C13 UNL     1       8.179  -7.538 -17.164  1.00  0.00     0.048 A 
HETATM   27  C14 UNL     1       9.364  -6.831 -17.227  1.00  0.00     0.006 A 
HETATM   28  C15 UNL     1      10.432  -7.247 -16.472  1.00  0.00     0.027 A 
HETATM   29  C16 UNL     1      10.332  -8.353 -15.663  1.00  0.00     0.036 A 
HETATM   30  N5  UNL     1       9.162  -9.008 -15.634  1.00  0.00    -0.345 N 
ATOM     31  H5  UNL     1       9.085  -9.830 -15.034  1.00  0.00     0.167 HD
BRANCH  29  32
HETATM   32  C17 UNL     1      11.484  -8.807 -14.847  1.00  0.00     0.286 C 
BRANCH  32  33
HETATM   33  N4  UNL     1      11.048  -9.703 -13.807  1.00  0.00    -0.074 N 
ATOM     34  H43 UNL     1      11.747  -9.798 -13.071  1.00  0.00     0.274 HD
ATOM     35  H42 UNL     1      10.294  -9.300 -13.251  1.00  0.00     0.274 HD
ATOM     36  H41 UNL     1      10.786 -10.608 -14.199  1.00  0.00     0.274 HD
ENDBRANCH  32  33
ENDBRANCH  29  32
ENDBRANCH  23  25
ENDBRANCH  22  23
ENDBRANCH  21  22
ENDBRANCH  20  21
ENDBRANCH  19  20
ENDBRANCH   1  19
TORSDOF 14
ENDMDL
MODEL 2
REMARK VINA RESULT: -7.700006276      2.217      2.948
REMARK  14 active torsions:
REMARK  status: ('A' for Active; 'I' for Inactive)
REMARK    1  A    between atoms: N1_1  and  C1_5 
REMARK    2  A    between atoms: C1_5  and  C2_6 
REMARK    3  A    between atoms: C5_9  and  S1_10 
REMARK    4  A    between atoms: S1_10  and  N2_13 
REMARK    5  A    between atoms: N2_13  and  C6_15 
REMARK    6  A    between atoms: C6_15  and  C7_16 
REMARK    7  A    between atoms: C7_16  and  C8_17 
REMARK    8  A    between atoms: C8_17  and  C9_18 
REMARK    9  A    between atoms: C9_18  and  C10_19 
REMARK   10  A    between atoms: C10_19  and  C11_20 
REMARK   11  A    between atoms: C11_20  and  N3_21 
REMARK   12  A    between atoms: N3_21  and  C12_23 
REMARK   13  A    between atoms: C16_27  and  C17_28 
REMARK   14  A    between atoms: C17_28  and  N4_29 
ROOT
HETATM    1  C7  UNL     1       6.066  -6.906 -20.127  1.00  0.00    -0.011 C 
ENDROOT
BRANCH   1   2
HETATM    2  C6  UNL     1       5.579  -5.877 -19.196  1.00  0.00     0.159 C 
BRANCH   2   3
HETATM    3  N2  UNL     1       5.048  -4.767 -20.048  1.00  0.00    -0.312 N 
ATOM      4  H2  UNL     1       4.313  -4.872 -20.747  1.00  0.00     0.172 HD
BRANCH   3   5
HETATM    5  S1  UNL     1       5.843  -3.307 -19.689  1.00  0.00     0.259 S 
HETATM    6  O1  UNL     1       5.458  -2.816 -18.325  1.00  0.00    -0.201 OA
HETATM    7  O2  UNL     1       5.425  -2.266 -20.687  1.00  0.00    -0.201 OA
BRANCH   5   8
HETATM    8  C5  UNL     1       7.574  -3.573 -19.761  1.00  0.00     0.079 A 
HETATM    9  C4  UNL     1       8.189  -3.966 -20.917  1.00  0.00     0.026 A 
HETATM   10  C3  UNL     1       9.565  -4.183 -20.993  1.00  0.00     0.010 A 
HETATM   11  C2  UNL     1      10.351  -4.000 -19.877  1.00  0.00    -0.033 A 
HETATM   12  C19 UNL     1       9.747  -3.604 -18.703  1.00  0.00     0.010 A 
HETATM   13  C18 UNL     1       8.368  -3.390 -18.636  1.00  0.00     0.026 A 
BRANCH  11  14
HETATM   14  C1  UNL     1      11.816  -4.222 -19.925  1.00  0.00     0.268 C 
BRANCH  14  15
HETATM   15  N1  UNL     1      12.165  -5.575 -19.516  1.00  0.00    -0.075 N 
ATOM     16  H13 UNL     1      11.339  -6.166 -19.439  1.00  0.00     0.274 HD
ATOM     17  H12 UNL     1      12.649  -6.076 -20.261  1.00  0.00     0.274 HD
ATOM     18  H11 UNL     1      12.707  -5.575 -18.652  1.00  0.00     0.274 HD
ENDBRANCH  14  15
ENDBRANCH  11  14
ENDBRANCH   5   8
ENDBRANCH   3   5
ENDBRANCH   2   3
ENDBRANCH   1   2
BRANCH   1  19
HETATM   19  C8  UNL     1       5.984  -8.331 -19.832  1.00  0.00    -0.029 C 
BRANCH  19  20
HETATM   20  C9  UNL     1       4.919  -8.932 -19.025  1.00  0.00     0.028 C 
BRANCH  20  21
HETATM   21  C10 UNL     1       5.293  -9.822 -17.896  1.00  0.00     0.023 C 
BRANCH  21  22
HETATM   22  C11 UNL     1       5.817  -9.028 -16.697  1.00  0.00     0.121 C 
BRANCH  22  23
HETATM   23  N3  UNL     1       7.118  -9.409 -16.295  1.00  0.00    -0.376 N 
ATOM     24  H3  UNL     1       7.247 -10.343 -15.904  1.00  0.00     0.161 HD
BRANCH  23  25
HETATM   25  C12 UNL     1       8.136  -8.655 -16.394  1.00  0.00     0.101 A 
HETATM   26  C13 UNL     1       8.231  -7.526 -17.164  1.00  0.00     0.048 A 
HETATM   27  C14 UNL     1       9.400  -6.790 -17.181  1.00  0.00     0.006 A 
HETATM   28  C15 UNL     1      10.462  -7.204 -16.417  1.00  0.00     0.027 A 
HETATM   29  C16 UNL     1      10.373  -8.336 -15.644  1.00  0.00     0.036 A 
HETATM   30  N5  UNL     1       9.219  -9.019 -15.659  1.00  0.00    -0.345 N 
ATOM     31  H5  UNL     1       9.150  -9.860 -15.085  1.00  0.00     0.167 HD
BRANCH  29  32
HETATM   32  C17 UNL     1      11.520  -8.787 -14.817  1.00  0.00     0.286 C 
BRANCH  32  33
HETATM   33  N4  UNL     1      11.079  -9.698 -13.793  1.00  0.00    -0.074 N 
ATOM     34  H43 UNL     1      10.073  -9.858 -13.836  1.00  0.00     0.274 HD
ATOM     35  H42 UNL     1      11.393 -10.651 -13.973  1.00  0.00     0.274 HD
ATOM     36  H41 UNL     1      11.371  -9.372 -12.871  1.00  0.00     0.274 HD
ENDBRANCH  32  33
ENDBRANCH  29  32
ENDBRANCH  23  25
ENDBRANCH  22  23
ENDBRANCH  21  22
ENDBRANCH  20  21
ENDBRANCH  19  20
ENDBRANCH   1  19
TORSDOF 14
ENDMDL
MODEL 3
REMARK VINA RESULT: -7.583787998      2.977      4.589
REMARK  14 active torsions:
REMARK  status: ('A' for Active; 'I' for Inactive)
REMARK    1  A    between atoms: N1_1  and  C1_5 
REMARK    2  A    between atoms: C1_5  and  C2_6 
REMARK    3  A    between atoms: C5_9  and  S1_10 
REMARK    4  A    between atoms: S1_10  and  N2_13 
REMARK    5  A    between atoms: N2_13  and  C6_15 
REMARK    6  A    between atoms: C6_15  and  C7_16 
REMARK    7  A    between atoms: C7_16  and  C8_17 
REMARK    8  A    between atoms: C8_17  and  C9_18 
REMARK    9  A    between atoms: C9_18  and  C10_19 
REMARK   10  A    between atoms: C10_19  and  C11_20 
REMARK   11  A    between atoms: C11_20  and  N3_21 
REMARK   12  A    between atoms: N3_21  and  C12_23 
REMARK   13  A    between atoms: C16_27  and  C17_28 
REMARK   14  A    between atoms: C17_28  and  N4_29 
ROOT
HETATM    1  C7  UNL     1       6.116  -6.959 -20.113  1.00  0.00    -0.011 C 
ENDROOT
BRANCH   1   2
HETATM    2  C6  UNL     1       5.743  -5.935 -19.126  1.00  0.00     0.159 C 
BRANCH   2   3
HETATM    3  N2  UNL     1       6.368  -4.659 -19.598  1.00  0.00    -0.312 N 
ATOM      4  H2  UNL     1       7.361  -4.439 -19.531  1.00  0.00     0.172 HD
BRANCH   3   5
HETATM    5  S1  UNL     1       5.189  -3.628 -20.262  1.00  0.00     0.259 S 
HETATM    6  O1  UNL     1       5.539  -2.192 -20.009  1.00  0.00    -0.201 OA
HETATM    7  O2  UNL     1       3.870  -3.904 -19.599  1.00  0.00    -0.201 OA
BRANCH   5   8
HETATM    8  C5  UNL     1       5.089  -3.923 -21.987  1.00  0.00     0.079 A 
HETATM    9  C4  UNL     1       3.927  -3.722 -22.679  1.00  0.00     0.026 A 
HETATM   10  C3  UNL     1       3.827  -3.951 -24.052  1.00  0.00     0.010 A 
HETATM   11  C2  UNL     1       4.926  -4.395 -24.754  1.00  0.00    -0.033 A 
HETATM   12  C19 UNL     1       6.105  -4.603 -24.072  1.00  0.00     0.010 A 
HETATM   13  C18 UNL     1       6.195  -4.371 -22.696  1.00  0.00     0.026 A 
BRANCH  11  14
HETATM   14  C1  UNL     1       4.853  -4.647 -26.213  1.00  0.00     0.268 C 
BRANCH  14  15
HETATM   15  N1  UNL     1       3.831  -3.826 -26.847  1.00  0.00    -0.075 N 
ATOM     16  H13 UNL     1       3.022  -3.704 -26.239  1.00  0.00     0.274 HD
ATOM     17  H12 UNL     1       4.126  -2.852 -26.916  1.00  0.00     0.274 HD
ATOM     18  H11 UNL     1       3.562  -4.201 -27.756  1.00  0.00     0.274 HD
ENDBRANCH  14  15
ENDBRANCH  11  14
ENDBRANCH   5   8
ENDBRANCH   3   5
ENDBRANCH   2   3
ENDBRANCH   1   2
BRANCH   1  19
HETATM   19  C8  UNL     1       6.113  -8.384 -19.805  1.00  0.00    -0.029 C 
BRANCH  19  20
HETATM   20  C9  UNL     1       5.015  -9.059 -19.108  1.00  0.00     0.028 C 
BRANCH  20  21
HETATM   21  C10 UNL     1       5.321  -9.849 -17.888  1.00  0.00     0.023 C 
BRANCH  21  22
HETATM   22  C11 UNL     1       5.830  -8.961 -16.749  1.00  0.00     0.121 C 
BRANCH  22  23
HETATM   23  N3  UNL     1       7.098  -9.349 -16.258  1.00  0.00    -0.376 N 
ATOM     24  H3  UNL     1       7.180 -10.257 -15.799  1.00  0.00     0.161 HD
BRANCH  23  25
HETATM   25  C12 UNL     1       8.141  -8.630 -16.354  1.00  0.00     0.101 A 
HETATM   26  C13 UNL     1       8.272  -7.497 -17.112  1.00  0.00     0.048 A 
HETATM   27  C14 UNL     1       9.466  -6.802 -17.127  1.00  0.00     0.006 A 
HETATM   28  C15 UNL     1      10.517  -7.262 -16.374  1.00  0.00     0.027 A 
HETATM   29  C16 UNL     1      10.392  -8.398 -15.613  1.00  0.00     0.036 A 
HETATM   30  N5  UNL     1       9.214  -9.040 -15.628  1.00  0.00    -0.345 N 
ATOM     31  H5  UNL     1       9.118  -9.884 -15.063  1.00  0.00     0.167 HD
BRANCH  29  32
HETATM   32  C17 UNL     1      11.526  -8.898 -14.798  1.00  0.00     0.286 C 
BRANCH  32  33
HETATM   33  N4  UNL     1      11.054  -9.771 -13.753  1.00  0.00    -0.074 N 
ATOM     34  H43 UNL     1      10.840  -9.257 -12.899  1.00  0.00     0.274 HD
ATOM     35  H42 UNL     1      10.121 -10.130 -13.953  1.00  0.00     0.274 HD
ATOM     36  H41 UNL     1      11.721 -10.524 -13.585  1.00  0.00     0.274 HD
ENDBRANCH  32  33
ENDBRANCH  29  32
ENDBRANCH  23  25
ENDBRANCH  22  23
ENDBRANCH  21  22
ENDBRANCH  20  21
ENDBRANCH  19  20
ENDBRANCH   1  19
TORSDOF 14
ENDMDL
MODEL 4
REMARK VINA RESULT: -7.564493069      1.611      2.026
REMARK  14 active torsions:
REMARK  status: ('A' for Active; 'I' for Inactive)
REMARK    1  A    between atoms: N1_1  and  C1_5 
REMARK    2  A    between atoms: C1_5  and  C2_6 
REMARK    3  A    between atoms: C5_9  and  S1_10 
REMARK    4  A    between atoms: S1_10  and  N2_13 
REMARK    5  A    between atoms: N2_13  and  C6_15 
REMARK    6  A    between atoms: C6_15  and  C7_16 
REMARK    7  A    between atoms: C7_16  and  C8_17 
REMARK    8  A    between atoms: C8_17  and  C9_18 
REMARK    9  A    between atoms: C9_18  and  C10_19 
REMARK   10  A    between atoms: C10_19  and  C11_20 
REMARK   11  A    between atoms: C11_20  and  N3_21 
REMARK   12  A    between atoms: N3_21  and  C12_23 
REMARK   13  A    between atoms: C16_27  and  C17_28 
REMARK   14  A    between atoms: C17_28  and  N4_29 
ROOT
HETATM    1  C7  UNL     1       5.916  -7.361 -20.610  1.00  0.00    -0.011 C 
ENDROOT
BRANCH   1   2
HETATM    2  C6  UNL     1       6.641  -6.098 -20.818  1.00  0.00     0.159 C 
BRANCH   2   3
HETATM    3  N2  UNL     1       8.040  -6.342 -20.343  1.00  0.00    -0.312 N 
ATOM      4  H2  UNL     1       8.364  -7.207 -19.910  1.00  0.00     0.172 HD
BRANCH   3   5
HETATM    5  S1  UNL     1       9.012  -4.976 -20.625  1.00  0.00     0.259 S 
HETATM    6  O1  UNL     1       8.935  -4.558 -22.064  1.00  0.00    -0.201 OA
HETATM    7  O2  UNL     1      10.442  -5.324 -20.323  1.00  0.00    -0.201 OA
BRANCH   5   8
HETATM    8  C5  UNL     1       8.462  -3.669 -19.594  1.00  0.00     0.079 A 
HETATM    9  C4  UNL     1       8.262  -2.409 -20.085  1.00  0.00     0.026 A 
HETATM   10  C3  UNL     1       7.826  -1.356 -19.281  1.00  0.00     0.010 A 
HETATM   11  C2  UNL     1       7.579  -1.572 -17.942  1.00  0.00    -0.033 A 
HETATM   12  C19 UNL     1       7.776  -2.837 -17.431  1.00  0.00     0.010 A 
HETATM   13  C18 UNL     1       8.214  -3.885 -18.245  1.00  0.00     0.026 A 
BRANCH  11  14
HETATM   14  C1  UNL     1       7.113  -0.475 -17.061  1.00  0.00     0.268 C 
BRANCH  14  15
HETATM   15  N1  UNL     1       8.086  -0.176 -16.020  1.00  0.00    -0.075 N 
ATOM     16  H13 UNL     1       8.483  -1.028 -15.625  1.00  0.00     0.274 HD
ATOM     17  H12 UNL     1       8.937   0.229 -16.410  1.00  0.00     0.274 HD
ATOM     18  H11 UNL     1       7.687   0.420 -15.295  1.00  0.00     0.274 HD
ENDBRANCH  14  15
ENDBRANCH  11  14
ENDBRANCH   5   8
ENDBRANCH   3   5
ENDBRANCH   2   3
ENDBRANCH   1   2
BRANCH   1  19
HETATM   19  C8  UNL     1       5.478  -7.806 -19.294  1.00  0.00    -0.029 C 
BRANCH  19  20
HETATM   20  C9  UNL     1       4.971  -9.153 -19.021  1.00  0.00     0.028 C 
BRANCH  20  21
HETATM   21  C10 UNL     1       5.537  -9.911 -17.875  1.00  0.00     0.023 C 
BRANCH  21  22
HETATM   22  C11 UNL     1       5.912  -8.988 -16.713  1.00  0.00     0.121 C 
BRANCH  22  23
HETATM   23  N3  UNL     1       7.147  -9.319 -16.108  1.00  0.00    -0.376 N 
ATOM     24  H3  UNL     1       7.192 -10.164 -15.537  1.00  0.00     0.161 HD
BRANCH  23  25
HETATM   25  C12 UNL     1       8.203  -8.624 -16.235  1.00  0.00     0.101 A 
HETATM   26  C13 UNL     1       8.352  -7.523 -17.037  1.00  0.00     0.048 A 
HETATM   27  C14 UNL     1       9.559  -6.853 -17.082  1.00  0.00     0.006 A 
HETATM   28  C15 UNL     1      10.604  -7.302 -16.315  1.00  0.00     0.027 A 
HETATM   29  C16 UNL     1      10.460  -8.406 -15.510  1.00  0.00     0.036 A 
HETATM   30  N5  UNL     1       9.271  -9.026 -15.497  1.00  0.00    -0.345 N 
ATOM     31  H5  UNL     1       9.162  -9.846 -14.900  1.00  0.00     0.167 HD
BRANCH  29  32
HETATM   32  C17 UNL     1      11.588  -8.896 -14.680  1.00  0.00     0.286 C 
BRANCH  32  33
HETATM   33  N4  UNL     1      11.111  -9.776 -13.644  1.00  0.00    -0.074 N 
ATOM     34  H43 UNL     1      10.674 -10.613 -14.030  1.00  0.00     0.274 HD
ATOM     35  H42 UNL     1      11.878 -10.221 -13.142  1.00  0.00     0.274 HD
ATOM     36  H41 UNL     1      10.483  -9.279 -13.011  1.00  0.00     0.274 HD
ENDBRANCH  32  33
ENDBRANCH  29  32
ENDBRANCH  23  25
ENDBRANCH  22  23
ENDBRANCH  21  22
ENDBRANCH  20  21
ENDBRANCH  19  20
ENDBRANCH   1  19
TORSDOF 14
ENDMDL
MODEL 5
REMARK VINA RESULT: -7.511439340      3.382      5.287
REMARK  14 active torsions:
REMARK  status: ('A' for Active; 'I' for Inactive)
REMARK    1  A    between atoms: N1_1  and  C1_5 
REMARK    2  A    between atoms: C1_5  and  C2_6 
REMARK    3  A    between atoms: C5_9  and  S1_10 
REMARK    4  A    between atoms: S1_10  and  N2_13 
REMARK    5  A    between atoms: N2_13  and  C6_15 
REMARK    6  A    between atoms: C6_15  and  C7_16 
REMARK    7  A    between atoms: C7_16  and  C8_17 
REMARK    8  A    between atoms: C8_17  and  C9_18 
REMARK    9  A    between atoms: C9_18  and  C10_19 
REMARK   10  A    between atoms: C10_19  and  C11_20 
REMARK   11  A    between atoms: C11_20  and  N3_21 
REMARK   12  A    between atoms: N3_21  and  C12_23 
REMARK   13  A    between atoms: C16_27  and  C17_28 
REMARK   14  A    between atoms: C17_28  and  N4_29 
ROOT
HETATM    1  C7  UNL     1       6.067  -6.397 -19.998  1.00  0.00    -0.011 C 
ENDROOT
BRANCH   1   2
HETATM    2  C6  UNL     1       7.306  -5.605 -20.012  1.00  0.00     0.159 C 
BRANCH   2   3
HETATM    3  N2  UNL     1       7.028  -4.420 -20.884  1.00  0.00    -0.312 N 
ATOM      4  H2  UNL     1       6.446  -3.627 -20.618  1.00  0.00     0.172 HD
BRANCH   3   5
HETATM    5  S1  UNL     1       7.819  -4.583 -22.380  1.00  0.00     0.259 S 
HETATM    6  O1  UNL     1       8.612  -5.855 -22.426  1.00  0.00    -0.201 OA
HETATM    7  O2  UNL     1       8.776  -3.438 -22.553  1.00  0.00    -0.201 OA
BRANCH   5   8
HETATM    8  C5  UNL     1       6.618  -4.582 -23.657  1.00  0.00     0.079 A 
HETATM    9  C4  UNL     1       5.309  -4.280 -23.405  1.00  0.00     0.026 A 
HETATM   10  C3  UNL     1       4.338  -4.275 -24.407  1.00  0.00     0.010 A 
HETATM   11  C2  UNL     1       4.690  -4.581 -25.704  1.00  0.00    -0.033 A 
HETATM   12  C19 UNL     1       6.006  -4.887 -25.976  1.00  0.00     0.010 A 
HETATM   13  C18 UNL     1       6.971  -4.890 -24.964  1.00  0.00     0.026 A 
BRANCH  11  14
HETATM   14  C1  UNL     1       3.683  -4.583 -26.792  1.00  0.00     0.268 C 
BRANCH  14  15
HETATM   15  N1  UNL     1       3.171  -5.922 -27.043  1.00  0.00    -0.075 N 
ATOM     16  H13 UNL     1       3.902  -6.542 -27.390  1.00  0.00     0.274 HD
ATOM     17  H12 UNL     1       2.952  -6.407 -26.173  1.00  0.00     0.274 HD
ATOM     18  H11 UNL     1       2.368  -5.904 -27.671  1.00  0.00     0.274 HD
ENDBRANCH  14  15
ENDBRANCH  11  14
ENDBRANCH   5   8
ENDBRANCH   3   5
ENDBRANCH   2   3
ENDBRANCH   1   2
BRANCH   1  19
HETATM   19  C8  UNL     1       6.062  -7.847 -20.140  1.00  0.00    -0.029 C 
BRANCH  19  20
HETATM   20  C9  UNL     1       5.169  -8.732 -19.390  1.00  0.00     0.028 C 
BRANCH  20  21
HETATM   21  C10 UNL     1       5.751  -9.631 -18.359  1.00  0.00     0.023 C 
BRANCH  21  22
HETATM   22  C11 UNL     1       5.860  -8.938 -16.999  1.00  0.00     0.121 C 
BRANCH  22  23
HETATM   23  N3  UNL     1       7.056  -9.242 -16.307  1.00  0.00    -0.376 N 
ATOM     24  H3  UNL     1       7.068 -10.066 -15.705  1.00  0.00     0.161 HD
BRANCH  23  25
HETATM   25  C12 UNL     1       8.116  -8.547 -16.393  1.00  0.00     0.101 A 
HETATM   26  C13 UNL     1       8.271  -7.401 -17.127  1.00  0.00     0.048 A 
HETATM   27  C14 UNL     1       9.482  -6.736 -17.134  1.00  0.00     0.006 A 
HETATM   28  C15 UNL     1      10.524  -7.237 -16.395  1.00  0.00     0.027 A 
HETATM   29  C16 UNL     1      10.375  -8.386 -15.658  1.00  0.00     0.036 A 
HETATM   30  N5  UNL     1       9.181  -8.999 -15.682  1.00  0.00    -0.345 N 
ATOM     31  H5  UNL     1       9.068  -9.852 -15.135  1.00  0.00     0.167 HD
BRANCH  29  32
HETATM   32  C17 UNL     1      11.500  -8.931 -14.859  1.00  0.00     0.286 C 
BRANCH  32  33
HETATM   33  N4  UNL     1      11.011  -9.812 -13.829  1.00  0.00    -0.074 N 
ATOM     34  H43 UNL     1      10.764  -9.302 -12.981  1.00  0.00     0.274 HD
ATOM     35  H42 UNL     1      10.090 -10.185 -14.057  1.00  0.00     0.274 HD
ATOM     36  H41 UNL     1      11.685 -10.554 -13.642  1.00  0.00     0.274 HD
ENDBRANCH  32  33
ENDBRANCH  29  32
ENDBRANCH  23  25
ENDBRANCH  22  23
ENDBRANCH  21  22
ENDBRANCH  20  21
ENDBRANCH  19  20
ENDBRANCH   1  19
TORSDOF 14
ENDMDL
