MODEL 1
REMARK VINA RESULT: -5.932175377      0.000      0.000
REMARK  12 active torsions:
REMARK  status: ('A' for Active; 'I' for Inactive)
REMARK    1  A    between atoms: C2_2  and  C3_3 
REMARK    2  A    between atoms: C3_3  and  C4_4 
REMARK    3  A    between atoms: C4_4  and  C5_5 
REMARK    4  A    between atoms: C5_5  and  O2_7 
REMARK    5  A    between atoms: C15_17  and  C16_18 
REMARK    6  A    between atoms: C15_17  and  O3_23 
REMARK    7  A    between atoms: O3_23  and  C20_24 
REMARK    8  A    between atoms: C20_24  and  C21_26 
REMARK    9  A    between atoms: C21_26  and  N2_27 
REMARK   10  A    between atoms: N2_27  and  C22_29 
REMARK   11  A    between atoms: C25_33  and  O6_34 
REMARK   12  A    between atoms: O6_34  and  C26_35 
ROOT
HETATM    1  C16 UNL     1       9.423  15.242  20.388  1.00  0.00     0.030 C 
HETATM    2  C17 UNL     1       9.462  16.140  19.459  1.00  0.00     0.018 C 
HETATM    3  C18 UNL     1       8.323  16.544  18.638  1.00  0.00     0.060 C 
HETATM    4  C19 UNL     1      10.703  16.855  19.140  1.00  0.00     0.094 C 
HETATM    5  N1  UNL     1      11.696  17.404  18.885  1.00  0.00    -0.192 NA
ENDROOT
BRANCH   1   6
HETATM    6  C15 UNL     1       8.390  14.381  20.936  1.00  0.00     0.100 C 
HETATM    7  C13 UNL     1       9.067  13.153  21.664  1.00  0.00     0.043 C 
HETATM    8  C12 UNL     1       7.904  12.374  22.128  1.00  0.00    -0.023 C 
HETATM    9  C14 UNL     1      10.079  13.542  22.613  1.00  0.00     0.017 C 
HETATM   10  C11 UNL     1       6.977  12.965  22.869  1.00  0.00    -0.025 C 
HETATM   11  C10 UNL     1       7.175  14.400  23.193  1.00  0.00     0.020 C 
HETATM   12  C9  UNL     1       6.046  14.986  23.969  1.00  0.00     0.006 C 
HETATM   13  C23 UNL     1       7.680  15.155  22.041  1.00  0.00     0.036 C 
HETATM   14  C8  UNL     1       6.464  15.042  25.444  1.00  0.00     0.007 C 
HETATM   15  C28 UNL     1       5.513  16.308  23.632  1.00  0.00     0.004 C 
HETATM   16  C7  UNL     1       6.500  16.487  25.786  1.00  0.00     0.021 C 
HETATM   17  C4  UNL     1       5.365  17.026  24.951  1.00  0.00     0.061 C 
HETATM   18  C25 UNL     1       6.263  17.092  22.621  1.00  0.00     0.142 C 
HETATM   19  C29 UNL     1       4.065  16.193  23.061  1.00  0.00     0.020 C 
HETATM   20  C24 UNL     1       6.678  16.091  21.484  1.00  0.00     0.042 C 
BRANCH  17  21
HETATM   21  C3  UNL     1       5.519  18.532  24.860  1.00  0.00     0.047 C 
BRANCH  21  22
HETATM   22  C2  UNL     1       6.828  18.831  25.560  1.00  0.00    -0.036 C 
HETATM   23  C1  UNL     1       7.643  19.786  25.170  1.00  0.00     0.007 C 
ENDBRANCH  21  22
ENDBRANCH  17  21
BRANCH  17  24
HETATM   24  C5  UNL     1       4.103  16.681  25.672  1.00  0.00     0.268 C 
HETATM   25  O1  UNL     1       3.224  17.553  25.916  1.00  0.00    -0.264 OA
BRANCH  24  26
HETATM   26  O2  UNL     1       3.794  15.403  26.122  1.00  0.00    -0.326 OA
HETATM   27  C6  UNL     1       3.345  15.192  27.443  1.00  0.00     0.213 C 
ENDBRANCH  24  26
ENDBRANCH  17  24
BRANCH  18  28
HETATM   28  O6  UNL     1       5.411  17.980  21.903  1.00  0.00    -0.315 OA
BRANCH  28  29
HETATM   29  C26 UNL     1       5.847  18.978  21.057  1.00  0.00     0.255 C 
HETATM   30  C27 UNL     1       6.373  20.254  21.618  1.00  0.00     0.126 C 
HETATM   31  O7  UNL     1       5.794  18.794  19.820  1.00  0.00    -0.266 OA
ENDBRANCH  28  29
ENDBRANCH  18  28
BRANCH   6  32
HETATM   32  O3  UNL     1       7.558  13.715  20.110  1.00  0.00    -0.303 OA
BRANCH  32  33
HETATM   33  C20 UNL     1       7.420  13.265  18.871  1.00  0.00     0.277 C 
HETATM   34  O4  UNL     1       6.445  13.722  18.222  1.00  0.00    -0.263 OA
BRANCH  33  35
HETATM   35  C21 UNL     1       8.328  12.268  18.207  1.00  0.00     0.233 C 
BRANCH  35  36
HETATM   36  N2  UNL     1       9.534  12.860  17.726  1.00  0.00    -0.359 N 
ATOM     37  H2  UNL     1      10.381  12.707  18.273  1.00  0.00     0.162 HD
BRANCH  36  38
HETATM   38  C22 UNL     1       9.650  13.638  16.559  1.00  0.00     0.348 C 
HETATM   39  O5  UNL     1       9.675  13.090  15.436  1.00  0.00    -0.284 OA
ENDBRANCH  36  38
ENDBRANCH  35  36
ENDBRANCH  33  35
ENDBRANCH  32  33
ENDBRANCH   6  32
ENDBRANCH   1   6
TORSDOF 12
ENDMDL
MODEL 2
REMARK VINA RESULT: -5.710334295      3.137      5.571
REMARK  12 active torsions:
REMARK  status: ('A' for Active; 'I' for Inactive)
REMARK    1  A    between atoms: C2_2  and  C3_3 
REMARK    2  A    between atoms: C3_3  and  C4_4 
REMARK    3  A    between atoms: C4_4  and  C5_5 
REMARK    4  A    between atoms: C5_5  and  O2_7 
REMARK    5  A    between atoms: C15_17  and  C16_18 
REMARK    6  A    between atoms: C15_17  and  O3_23 
REMARK    7  A    between atoms: O3_23  and  C20_24 
REMARK    8  A    between atoms: C20_24  and  C21_26 
REMARK    9  A    between atoms: C21_26  and  N2_27 
REMARK   10  A    between atoms: N2_27  and  C22_29 
REMARK   11  A    between atoms: C25_33  and  O6_34 
REMARK   12  A    between atoms: O6_34  and  C26_35 
ROOT
HETATM    1  C16 UNL     1       8.059  13.555  19.670  1.00  0.00     0.030 C 
HETATM    2  C17 UNL     1       7.812  13.167  18.462  1.00  0.00     0.018 C 
HETATM    3  C18 UNL     1       6.674  13.608  17.657  1.00  0.00     0.060 C 
HETATM    4  C19 UNL     1       8.689  12.214  17.772  1.00  0.00     0.094 C 
HETATM    5  N1  UNL     1       9.382  11.446  17.242  1.00  0.00    -0.192 NA
ENDROOT
BRANCH   1   6
HETATM    6  C15 UNL     1       7.414  14.461  20.606  1.00  0.00     0.100 C 
HETATM    7  C13 UNL     1       6.071  13.807  21.120  1.00  0.00     0.043 C 
HETATM    8  C12 UNL     1       5.533  14.846  22.018  1.00  0.00    -0.023 C 
HETATM    9  C14 UNL     1       6.245  12.466  21.619  1.00  0.00     0.017 C 
HETATM   10  C11 UNL     1       6.289  15.313  23.002  1.00  0.00    -0.025 C 
HETATM   11  C10 UNL     1       7.654  14.747  23.141  1.00  0.00     0.020 C 
HETATM   12  C9  UNL     1       8.445  15.387  24.230  1.00  0.00     0.006 C 
HETATM   13  C23 UNL     1       8.304  14.563  21.838  1.00  0.00     0.036 C 
HETATM   14  C8  UNL     1       8.407  14.460  25.451  1.00  0.00     0.007 C 
HETATM   15  C28 UNL     1       9.849  15.750  24.021  1.00  0.00     0.004 C 
HETATM   16  C7  UNL     1       9.813  14.033  25.664  1.00  0.00     0.021 C 
HETATM   17  C4  UNL     1      10.572  15.273  25.256  1.00  0.00     0.061 C 
HETATM   18  C25 UNL     1      10.478  15.286  22.761  1.00  0.00     0.142 C 
HETATM   19  C29 UNL     1      10.026  17.301  24.013  1.00  0.00     0.020 C 
HETATM   20  C24 UNL     1       9.423  15.506  21.617  1.00  0.00     0.042 C 
BRANCH  17  21
HETATM   21  C3  UNL     1      12.019  14.884  25.020  1.00  0.00     0.047 C 
BRANCH  21  22
HETATM   22  C2  UNL     1      12.242  13.668  25.893  1.00  0.00    -0.036 C 
HETATM   23  C1  UNL     1      13.313  12.912  25.802  1.00  0.00     0.007 C 
ENDBRANCH  21  22
ENDBRANCH  17  21
BRANCH  17  24
HETATM   24  C5  UNL     1      10.476  16.227  26.401  1.00  0.00     0.268 C 
HETATM   25  O1  UNL     1      11.427  17.005  26.691  1.00  0.00    -0.264 OA
BRANCH  24  26
HETATM   26  O2  UNL     1       9.362  16.341  27.222  1.00  0.00    -0.326 OA
HETATM   27  C6  UNL     1       8.803  17.605  27.509  1.00  0.00     0.213 C 
ENDBRANCH  24  26
ENDBRANCH  17  24
BRANCH  18  28
HETATM   28  O6  UNL     1      11.522  16.158  22.338  1.00  0.00    -0.315 OA
BRANCH  28  29
HETATM   29  C26 UNL     1      12.443  15.867  21.355  1.00  0.00     0.255 C 
HETATM   30  C27 UNL     1      12.713  16.853  20.270  1.00  0.00     0.126 C 
HETATM   31  O7  UNL     1      13.043  14.769  21.388  1.00  0.00    -0.266 OA
ENDBRANCH  28  29
ENDBRANCH  18  28
BRANCH   6  32
HETATM   32  O3  UNL     1       6.932  15.644  20.176  1.00  0.00    -0.303 OA
BRANCH  32  33
HETATM   33  C20 UNL     1       7.279  16.808  19.645  1.00  0.00     0.277 C 
HETATM   34  O4  UNL     1       7.798  16.761  18.500  1.00  0.00    -0.263 OA
BRANCH  33  35
HETATM   35  C21 UNL     1       7.099  18.148  20.303  1.00  0.00     0.233 C 
BRANCH  35  36
HETATM   36  N2  UNL     1       5.733  18.436  20.596  1.00  0.00    -0.359 N 
ATOM     37  H2  UNL     1       5.087  18.493  19.809  1.00  0.00     0.162 HD
BRANCH  36  38
HETATM   38  C22 UNL     1       5.203  18.646  21.883  1.00  0.00     0.348 C 
HETATM   39  O5  UNL     1       4.035  18.289  22.151  1.00  0.00    -0.284 OA
ENDBRANCH  36  38
ENDBRANCH  35  36
ENDBRANCH  33  35
ENDBRANCH  32  33
ENDBRANCH   6  32
ENDBRANCH   1   6
TORSDOF 12
ENDMDL
MODEL 3
REMARK VINA RESULT: -5.697586616      3.121      5.162
REMARK  12 active torsions:
REMARK  status: ('A' for Active; 'I' for Inactive)
REMARK    1  A    between atoms: C2_2  and  C3_3 
REMARK    2  A    between atoms: C3_3  and  C4_4 
REMARK    3  A    between atoms: C4_4  and  C5_5 
REMARK    4  A    between atoms: C5_5  and  O2_7 
REMARK    5  A    between atoms: C15_17  and  C16_18 
REMARK    6  A    between atoms: C15_17  and  O3_23 
REMARK    7  A    between atoms: O3_23  and  C20_24 
REMARK    8  A    between atoms: C20_24  and  C21_26 
REMARK    9  A    between atoms: C21_26  and  N2_27 
REMARK   10  A    between atoms: N2_27  and  C22_29 
REMARK   11  A    between atoms: C25_33  and  O6_34 
REMARK   12  A    between atoms: O6_34  and  C26_35 
ROOT
HETATM    1  C16 UNL     1       8.116  13.470  19.725  1.00  0.00     0.030 C 
HETATM    2  C17 UNL     1       7.788  12.974  18.578  1.00  0.00     0.018 C 
HETATM    3  C18 UNL     1       6.598  13.345  17.815  1.00  0.00     0.060 C 
HETATM    4  C19 UNL     1       8.617  11.957  17.921  1.00  0.00     0.094 C 
HETATM    5  N1  UNL     1       9.273  11.140  17.417  1.00  0.00    -0.192 NA
ENDROOT
BRANCH   1   6
HETATM    6  C15 UNL     1       7.536  14.461  20.616  1.00  0.00     0.100 C 
HETATM    7  C13 UNL     1       6.119  13.958  21.100  1.00  0.00     0.043 C 
HETATM    8  C12 UNL     1       5.659  15.070  21.953  1.00  0.00    -0.023 C 
HETATM    9  C14 UNL     1       6.141  12.621  21.637  1.00  0.00     0.017 C 
HETATM   10  C11 UNL     1       6.426  15.487  22.950  1.00  0.00    -0.025 C 
HETATM   11  C10 UNL     1       7.723  14.792  23.151  1.00  0.00     0.020 C 
HETATM   12  C9  UNL     1       8.538  15.380  24.250  1.00  0.00     0.006 C 
HETATM   13  C23 UNL     1       8.392  14.509  21.876  1.00  0.00     0.036 C 
HETATM   14  C8  UNL     1       8.368  14.496  25.491  1.00  0.00     0.007 C 
HETATM   15  C28 UNL     1       9.978  15.595  24.081  1.00  0.00     0.004 C 
HETATM   16  C7  UNL     1       9.717  13.937  25.763  1.00  0.00     0.021 C 
HETATM   17  C4  UNL     1      10.609  15.084  25.352  1.00  0.00     0.061 C 
HETATM   18  C25 UNL     1      10.597  15.036  22.855  1.00  0.00     0.142 C 
HETATM   19  C29 UNL     1      10.310  17.120  24.041  1.00  0.00     0.020 C 
HETATM   20  C24 UNL     1       9.607  15.328  21.671  1.00  0.00     0.042 C 
BRANCH  17  21
HETATM   21  C3  UNL     1      12.017  14.546  25.175  1.00  0.00     0.047 C 
BRANCH  21  22
HETATM   22  C2  UNL     1      12.152  13.462  26.223  1.00  0.00    -0.036 C 
HETATM   23  C1  UNL     1      13.197  13.364  27.015  1.00  0.00     0.007 C 
ENDBRANCH  21  22
ENDBRANCH  17  21
BRANCH  17  24
HETATM   24  C5  UNL     1      10.573  16.074  26.469  1.00  0.00     0.268 C 
HETATM   25  O1  UNL     1      11.559  16.823  26.718  1.00  0.00    -0.264 OA
BRANCH  24  26
HETATM   26  O2  UNL     1       9.480  16.256  27.307  1.00  0.00    -0.326 OA
HETATM   27  C6  UNL     1       8.967  17.547  27.554  1.00  0.00     0.213 C 
ENDBRANCH  24  26
ENDBRANCH  17  24
BRANCH  18  28
HETATM   28  O6  UNL     1      11.736  15.788  22.447  1.00  0.00    -0.315 OA
BRANCH  28  29
HETATM   29  C26 UNL     1      12.708  15.339  21.579  1.00  0.00     0.255 C 
HETATM   30  C27 UNL     1      13.029  16.119  20.351  1.00  0.00     0.126 C 
HETATM   31  O7  UNL     1      13.310  14.273  21.838  1.00  0.00    -0.266 OA
ENDBRANCH  28  29
ENDBRANCH  18  28
BRANCH   6  32
HETATM   32  O3  UNL     1       7.189  15.674  20.141  1.00  0.00    -0.303 OA
BRANCH  32  33
HETATM   33  C20 UNL     1       7.546  16.630  19.294  1.00  0.00     0.277 C 
HETATM   34  O4  UNL     1       6.944  17.727  19.415  1.00  0.00    -0.263 OA
BRANCH  33  35
HETATM   35  C21 UNL     1       8.594  16.492  18.226  1.00  0.00     0.233 C 
BRANCH  35  36
HETATM   36  N2  UNL     1       8.032  16.337  16.923  1.00  0.00    -0.359 N 
ATOM     37  H2  UNL     1       7.044  16.560  16.809  1.00  0.00     0.162 HD
BRANCH  36  38
HETATM   38  C22 UNL     1       8.731  15.901  15.782  1.00  0.00     0.348 C 
HETATM   39  O5  UNL     1       8.910  14.681  15.579  1.00  0.00    -0.284 OA
ENDBRANCH  36  38
ENDBRANCH  35  36
ENDBRANCH  33  35
ENDBRANCH  32  33
ENDBRANCH   6  32
ENDBRANCH   1   6
TORSDOF 12
ENDMDL
MODEL 4
REMARK VINA RESULT: -5.604376765      3.578      6.923
REMARK  12 active torsions:
REMARK  status: ('A' for Active; 'I' for Inactive)
REMARK    1  A    between atoms: C2_2  and  C3_3 
REMARK    2  A    between atoms: C3_3  and  C4_4 
REMARK    3  A    between atoms: C4_4  and  C5_5 
REMARK    4  A    between atoms: C5_5  and  O2_7 
REMARK    5  A    between atoms: C15_17  and  C16_18 
REMARK    6  A    between atoms: C15_17  and  O3_23 
REMARK    7  A    between atoms: O3_23  and  C20_24 
REMARK    8  A    between atoms: C20_24  and  C21_26 
REMARK    9  A    between atoms: C21_26  and  N2_27 
REMARK   10  A    between atoms: N2_27  and  C22_29 
REMARK   11  A    between atoms: C25_33  and  O6_34 
REMARK   12  A    between atoms: O6_34  and  C26_35 
ROOT
HETATM    1  C16 UNL     1       7.981  14.389  22.245  1.00  0.00     0.030 C 
HETATM    2  C17 UNL     1       7.346  13.323  22.608  1.00  0.00     0.018 C 
HETATM    3  C18 UNL     1       6.340  12.633  21.802  1.00  0.00     0.060 C 
HETATM    4  C19 UNL     1       7.594  12.693  23.909  1.00  0.00     0.094 C 
HETATM    5  N1  UNL     1       7.787  12.211  24.949  1.00  0.00    -0.192 NA
ENDROOT
BRANCH   1   6
HETATM    6  C15 UNL     1       7.973  15.232  21.061  1.00  0.00     0.100 C 
HETATM    7  C13 UNL     1       6.672  16.127  21.070  1.00  0.00     0.043 C 
HETATM    8  C12 UNL     1       6.797  16.886  19.811  1.00  0.00    -0.023 C 
HETATM    9  C14 UNL     1       6.480  16.842  22.306  1.00  0.00     0.017 C 
HETATM   10  C11 UNL     1       7.900  17.582  19.576  1.00  0.00    -0.025 C 
HETATM   11  C10 UNL     1       8.958  17.556  20.618  1.00  0.00     0.020 C 
HETATM   12  C9  UNL     1      10.182  18.311  20.227  1.00  0.00     0.006 C 
HETATM   13  C23 UNL     1       9.132  16.214  21.185  1.00  0.00     0.036 C 
HETATM   14  C8  UNL     1      10.138  19.677  20.924  1.00  0.00     0.007 C 
HETATM   15  C28 UNL     1      11.515  17.756  20.476  1.00  0.00     0.004 C 
HETATM   16  C7  UNL     1      11.302  19.685  21.846  1.00  0.00     0.021 C 
HETATM   17  C4  UNL     1      12.317  18.892  21.061  1.00  0.00     0.061 C 
HETATM   18  C25 UNL     1      11.581  16.516  21.286  1.00  0.00     0.142 C 
HETATM   19  C29 UNL     1      12.226  17.399  19.133  1.00  0.00     0.020 C 
HETATM   20  C24 UNL     1      10.413  15.587  20.793  1.00  0.00     0.042 C 
BRANCH  17  21
HETATM   21  C3  UNL     1      13.413  18.453  22.015  1.00  0.00     0.047 C 
BRANCH  21  22
HETATM   22  C2  UNL     1      13.012  19.027  23.356  1.00  0.00    -0.036 C 
HETATM   23  C1  UNL     1      13.451  18.545  24.498  1.00  0.00     0.007 C 
ENDBRANCH  21  22
ENDBRANCH  17  21
BRANCH  17  24
HETATM   24  C5  UNL     1      12.874  19.815  20.027  1.00  0.00     0.268 C 
HETATM   25  O1  UNL     1      14.118  19.922  19.841  1.00  0.00    -0.264 OA
BRANCH  24  26
HETATM   26  O2  UNL     1      12.093  20.612  19.201  1.00  0.00    -0.326 OA
HETATM   27  C6  UNL     1      12.663  21.288  18.102  1.00  0.00     0.213 C 
ENDBRANCH  24  26
ENDBRANCH  17  24
BRANCH  18  28
HETATM   28  O6  UNL     1      12.717  15.724  20.950  1.00  0.00    -0.315 OA
BRANCH  28  29
HETATM   29  C26 UNL     1      13.365  14.869  21.815  1.00  0.00     0.255 C 
HETATM   30  C27 UNL     1      13.099  14.946  23.279  1.00  0.00     0.126 C 
HETATM   31  O7  UNL     1      14.175  14.034  21.354  1.00  0.00    -0.266 OA
ENDBRANCH  28  29
ENDBRANCH  18  28
BRANCH   6  32
HETATM   32  O3  UNL     1       7.851  14.677  19.839  1.00  0.00    -0.303 OA
BRANCH  32  33
HETATM   33  C20 UNL     1       8.484  13.949  18.929  1.00  0.00     0.277 C 
HETATM   34  O4  UNL     1       8.912  12.832  19.316  1.00  0.00    -0.263 OA
BRANCH  33  35
HETATM   35  C21 UNL     1       8.719  14.361  17.503  1.00  0.00     0.233 C 
BRANCH  35  36
HETATM   36  N2  UNL     1       9.989  14.984  17.314  1.00  0.00    -0.359 N 
ATOM     37  H2  UNL     1      10.104  15.932  17.673  1.00  0.00     0.162 HD
BRANCH  36  38
HETATM   38  C22 UNL     1      11.097  14.397  16.674  1.00  0.00     0.348 C 
HETATM   39  O5  UNL     1      11.913  13.710  17.326  1.00  0.00    -0.284 OA
ENDBRANCH  36  38
ENDBRANCH  35  36
ENDBRANCH  33  35
ENDBRANCH  32  33
ENDBRANCH   6  32
ENDBRANCH   1   6
TORSDOF 12
ENDMDL
MODEL 5
REMARK VINA RESULT: -5.577483642      3.547      6.985
REMARK  12 active torsions:
REMARK  status: ('A' for Active; 'I' for Inactive)
REMARK    1  A    between atoms: C2_2  and  C3_3 
REMARK    2  A    between atoms: C3_3  and  C4_4 
REMARK    3  A    between atoms: C4_4  and  C5_5 
REMARK    4  A    between atoms: C5_5  and  O2_7 
REMARK    5  A    between atoms: C15_17  and  C16_18 
REMARK    6  A    between atoms: C15_17  and  O3_23 
REMARK    7  A    between atoms: O3_23  and  C20_24 
REMARK    8  A    between atoms: C20_24  and  C21_26 
REMARK    9  A    between atoms: C21_26  and  N2_27 
REMARK   10  A    between atoms: N2_27  and  C22_29 
REMARK   11  A    between atoms: C25_33  and  O6_34 
REMARK   12  A    between atoms: O6_34  and  C26_35 
ROOT
HETATM    1  C16 UNL     1       7.820  14.836  22.087  1.00  0.00     0.030 C 
HETATM    2  C17 UNL     1       7.115  13.791  22.375  1.00  0.00     0.018 C 
HETATM    3  C18 UNL     1       5.927  13.355  21.643  1.00  0.00     0.060 C 
HETATM    4  C19 UNL     1       7.465  12.922  23.504  1.00  0.00     0.094 C 
HETATM    5  N1  UNL     1       7.743  12.249  24.410  1.00  0.00    -0.192 NA
ENDROOT
BRANCH   1   6
HETATM    6  C15 UNL     1       7.749  15.869  21.067  1.00  0.00     0.100 C 
HETATM    7  C13 UNL     1       6.585  16.874  21.426  1.00  0.00     0.043 C 
HETATM    8  C12 UNL     1       6.623  17.825  20.299  1.00  0.00    -0.023 C 
HETATM    9  C14 UNL     1       6.662  17.377  22.775  1.00  0.00     0.017 C 
HETATM   10  C11 UNL     1       7.760  18.438  20.002  1.00  0.00    -0.025 C 
HETATM   11  C10 UNL     1       8.944  18.125  20.842  1.00  0.00     0.020 C 
HETATM   12  C9  UNL     1      10.185  18.811  20.382  1.00  0.00     0.006 C 
HETATM   13  C23 UNL     1       9.027  16.694  21.155  1.00  0.00     0.036 C 
HETATM   14  C8  UNL     1      10.412  20.032  21.283  1.00  0.00     0.007 C 
HETATM   15  C28 UNL     1      11.459  18.091  20.322  1.00  0.00     0.004 C 
HETATM   16  C7  UNL     1      11.687  19.763  21.995  1.00  0.00     0.021 C 
HETATM   17  C4  UNL     1      12.473  19.021  20.941  1.00  0.00     0.061 C 
HETATM   18  C25 UNL     1      11.484  16.728  20.905  1.00  0.00     0.142 C 
HETATM   19  C29 UNL     1      11.921  17.904  18.842  1.00  0.00     0.020 C 
HETATM   20  C24 UNL     1      10.151  16.020  20.468  1.00  0.00     0.042 C 
BRANCH  17  21
HETATM   21  C3  UNL     1      13.629  18.316  21.624  1.00  0.00     0.047 C 
BRANCH  21  22
HETATM   22  C2  UNL     1      13.341  18.443  23.105  1.00  0.00    -0.036 C 
HETATM   23  C1  UNL     1      13.661  17.512  23.976  1.00  0.00     0.007 C 
ENDBRANCH  21  22
ENDBRANCH  17  21
BRANCH  17  24
HETATM   24  C5  UNL     1      12.988  20.050  19.989  1.00  0.00     0.268 C 
HETATM   25  O1  UNL     1      14.218  20.140  19.718  1.00  0.00    -0.264 OA
BRANCH  24  26
HETATM   26  O2  UNL     1      12.180  20.971  19.335  1.00  0.00    -0.326 OA
HETATM   27  C6  UNL     1      12.618  21.602  18.151  1.00  0.00     0.213 C 
ENDBRANCH  24  26
ENDBRANCH  17  24
BRANCH  18  28
HETATM   28  O6  UNL     1      12.452  15.898  20.270  1.00  0.00    -0.315 OA
BRANCH  28  29
HETATM   29  C26 UNL     1      13.362  15.101  20.931  1.00  0.00     0.255 C 
HETATM   30  C27 UNL     1      14.750  14.959  20.405  1.00  0.00     0.126 C 
HETATM   31  O7  UNL     1      13.006  14.503  21.972  1.00  0.00    -0.266 OA
ENDBRANCH  28  29
ENDBRANCH  18  28
BRANCH   6  32
HETATM   32  O3  UNL     1       7.386  15.551  19.809  1.00  0.00    -0.303 OA
BRANCH  32  33
HETATM   33  C20 UNL     1       7.766  14.894  18.722  1.00  0.00     0.277 C 
HETATM   34  O4  UNL     1       7.781  15.555  17.653  1.00  0.00    -0.263 OA
BRANCH  33  35
HETATM   35  C21 UNL     1       8.169  13.446  18.684  1.00  0.00     0.233 C 
BRANCH  35  36
HETATM   36  N2  UNL     1       9.482  13.256  18.160  1.00  0.00    -0.359 N 
ATOM     37  H2  UNL     1      10.250  13.726  18.639  1.00  0.00     0.162 HD
BRANCH  36  38
HETATM   38  C22 UNL     1       9.806  12.473  17.035  1.00  0.00     0.348 C 
HETATM   39  O5  UNL     1       9.681  12.941  15.883  1.00  0.00    -0.284 OA
ENDBRANCH  36  38
ENDBRANCH  35  36
ENDBRANCH  33  35
ENDBRANCH  32  33
ENDBRANCH   6  32
ENDBRANCH   1   6
TORSDOF 12
ENDMDL
