MODEL 1
REMARK VINA RESULT: -6.223887547      0.000      0.000
REMARK  5 active torsions:
REMARK  status: ('A' for Active; 'I' for Inactive)
REMARK    1  A    between atoms: N1_1  and  C1_5 
REMARK    2  A    between atoms: C1_5  and  C2_6 
REMARK    3  A    between atoms: C2_6  and  N2_7 
REMARK    4  A    between atoms: C2_6  and  C8_13 
REMARK    5  A    between atoms: C8_13  and  N3_14 
ROOT
HETATM    1  C8  UNL     1     -15.518  11.506  32.899  1.00  0.00     0.242 C 
HETATM    2  C9  UNL     1     -15.586  10.109  33.401  1.00  0.00     0.057 C 
HETATM    3  C10 UNL     1     -16.584   9.234  32.661  1.00  0.00     0.023 C 
HETATM    4  C11 UNL     1     -17.983   9.813  32.697  1.00  0.00     0.122 C 
HETATM    5  N4  UNL     1     -17.957  11.245  32.453  1.00  0.00    -0.359 N 
ATOM      6  H4  UNL     1     -18.840  11.757  32.447  1.00  0.00     0.162 HD
HETATM    7  C12 UNL     1     -16.771  11.951  32.226  1.00  0.00     0.260 C 
HETATM    8  O1  UNL     1     -16.685  12.961  31.474  1.00  0.00    -0.270 OA
ENDROOT
BRANCH   1   9
HETATM    9  C2  UNL     1     -15.140  12.442  34.027  1.00  0.00     0.055 C 
BRANCH   9  10
HETATM   10  C1  UNL     1     -13.807  13.105  33.855  1.00  0.00     0.284 C 
BRANCH  10  11
HETATM   11  N1  UNL     1     -12.976  12.738  35.003  1.00  0.00    -0.074 N 
ATOM     12  H13 UNL     1     -13.498  12.245  35.728  1.00  0.00     0.274 HD
ATOM     13  H12 UNL     1     -12.309  11.997  34.788  1.00  0.00     0.274 HD
ATOM     14  H11 UNL     1     -12.529  13.588  35.345  1.00  0.00     0.274 HD
ENDBRANCH  10  11
ENDBRANCH   9  10
BRANCH   9  15
HETATM   15  N2  UNL     1     -16.223  13.173  34.464  1.00  0.00    -0.384 N 
HETATM   16  C3  UNL     1     -16.336  14.554  34.428  1.00  0.00     0.122 C 
HETATM   17  C4  UNL     1     -17.738  14.959  33.928  1.00  0.00     0.020 C 
HETATM   18  C5  UNL     1     -18.786  14.009  34.445  1.00  0.00     0.003 C 
HETATM   19  C6  UNL     1     -18.346  13.277  35.678  1.00  0.00     0.020 C 
HETATM   20  C7  UNL     1     -17.006  12.595  35.516  1.00  0.00     0.122 C 
ENDBRANCH   9  15
ENDBRANCH   1   9
BRANCH   1  21
HETATM   21  N3  UNL     1     -14.501  11.596  31.834  1.00  0.00    -0.056 N 
ATOM     22  H33 UNL     1     -14.689  10.956  31.063  1.00  0.00     0.276 HD
ATOM     23  H32 UNL     1     -14.563  12.471  31.312  1.00  0.00     0.276 HD
ATOM     24  H31 UNL     1     -13.577  11.453  32.242  1.00  0.00     0.276 HD
ENDBRANCH   1  21
TORSDOF 5
ENDMDL
MODEL 2
REMARK VINA RESULT: -6.121995444      1.419      1.690
REMARK  5 active torsions:
REMARK  status: ('A' for Active; 'I' for Inactive)
REMARK    1  A    between atoms: N1_1  and  C1_5 
REMARK    2  A    between atoms: C1_5  and  C2_6 
REMARK    3  A    between atoms: C2_6  and  N2_7 
REMARK    4  A    between atoms: C2_6  and  C8_13 
REMARK    5  A    between atoms: C8_13  and  N3_14 
ROOT
HETATM    1  C8  UNL     1     -16.336  11.167  32.707  1.00  0.00     0.242 C 
HETATM    2  C9  UNL     1     -15.167  10.597  31.989  1.00  0.00     0.057 C 
HETATM    3  C10 UNL     1     -15.487   9.356  31.173  1.00  0.00     0.023 C 
HETATM    4  C11 UNL     1     -16.098   8.260  32.022  1.00  0.00     0.122 C 
HETATM    5  N4  UNL     1     -17.091   8.803  32.934  1.00  0.00    -0.359 N 
ATOM      6  H4  UNL     1     -17.580   8.164  33.561  1.00  0.00     0.162 HD
HETATM    7  C12 UNL     1     -17.402  10.165  32.986  1.00  0.00     0.260 C 
HETATM    8  O1  UNL     1     -18.549  10.615  33.259  1.00  0.00    -0.270 OA
ENDROOT
BRANCH   1   9
HETATM    9  C2  UNL     1     -15.878  11.850  33.979  1.00  0.00     0.055 C 
BRANCH   9  10
HETATM   10  C1  UNL     1     -14.401  12.090  34.051  1.00  0.00     0.284 C 
BRANCH  10  11
HETATM   11  N1  UNL     1     -13.999  11.971  35.453  1.00  0.00    -0.074 N 
ATOM     12  H13 UNL     1     -14.202  12.811  35.996  1.00  0.00     0.274 HD
ATOM     13  H12 UNL     1     -14.586  11.324  35.980  1.00  0.00     0.274 HD
ATOM     14  H11 UNL     1     -13.012  11.717  35.472  1.00  0.00     0.274 HD
ENDBRANCH  10  11
ENDBRANCH   9  10
BRANCH   9  15
HETATM   15  N2  UNL     1     -16.757  12.837  34.369  1.00  0.00    -0.384 N 
HETATM   16  C3  UNL     1     -16.600  14.196  34.146  1.00  0.00     0.122 C 
HETATM   17  C4  UNL     1     -17.932  14.813  33.674  1.00  0.00     0.020 C 
HETATM   18  C5  UNL     1     -19.100  14.171  34.376  1.00  0.00     0.003 C 
HETATM   19  C6  UNL     1     -18.710  13.526  35.673  1.00  0.00     0.020 C 
HETATM   20  C7  UNL     1     -17.548  12.569  35.533  1.00  0.00     0.122 C 
ENDBRANCH   9  15
ENDBRANCH   1   9
BRANCH   1  21
HETATM   21  N3  UNL     1     -17.007  12.157  31.842  1.00  0.00    -0.056 N 
ATOM     22  H33 UNL     1     -16.385  12.917  31.568  1.00  0.00     0.276 HD
ATOM     23  H32 UNL     1     -17.203  11.789  30.911  1.00  0.00     0.276 HD
ATOM     24  H31 UNL     1     -17.848  12.494  32.311  1.00  0.00     0.276 HD
ENDBRANCH   1  21
TORSDOF 5
ENDMDL
MODEL 3
REMARK VINA RESULT: -5.790805131      2.119      4.715
REMARK  5 active torsions:
REMARK  status: ('A' for Active; 'I' for Inactive)
REMARK    1  A    between atoms: N1_1  and  C1_5 
REMARK    2  A    between atoms: C1_5  and  C2_6 
REMARK    3  A    between atoms: C2_6  and  N2_7 
REMARK    4  A    between atoms: C2_6  and  C8_13 
REMARK    5  A    between atoms: C8_13  and  N3_14 
ROOT
HETATM    1  C8  UNL     1     -15.357  12.477  34.804  1.00  0.00     0.242 C 
HETATM    2  C9  UNL     1     -14.206  13.079  34.083  1.00  0.00     0.057 C 
HETATM    3  C10 UNL     1     -13.208  13.780  34.988  1.00  0.00     0.023 C 
HETATM    4  C11 UNL     1     -13.861  14.865  35.820  1.00  0.00     0.122 C 
HETATM    5  N4  UNL     1     -15.131  14.411  36.359  1.00  0.00    -0.359 N 
ATOM      6  H4  UNL     1     -15.672  15.051  36.943  1.00  0.00     0.162 HD
HETATM    7  C12 UNL     1     -15.644  13.134  36.110  1.00  0.00     0.260 C 
HETATM    8  O1  UNL     1     -16.347  12.485  36.932  1.00  0.00    -0.270 OA
ENDROOT
BRANCH   1   9
HETATM    9  C2  UNL     1     -16.581  12.473  33.912  1.00  0.00     0.055 C 
BRANCH   9  10
HETATM   10  C1  UNL     1     -16.939  13.817  33.353  1.00  0.00     0.284 C 
BRANCH  10  11
HETATM   11  N1  UNL     1     -18.276  14.158  33.838  1.00  0.00    -0.074 N 
ATOM     12  H13 UNL     1     -18.873  14.552  33.111  1.00  0.00     0.274 HD
ATOM     13  H12 UNL     1     -18.843  13.336  34.048  1.00  0.00     0.274 HD
ATOM     14  H11 UNL     1     -18.166  14.779  34.640  1.00  0.00     0.274 HD
ENDBRANCH  10  11
ENDBRANCH   9  10
BRANCH   9  15
HETATM   15  N2  UNL     1     -16.614  11.358  33.102  1.00  0.00    -0.384 N 
HETATM   16  C3  UNL     1     -15.958  11.217  31.890  1.00  0.00     0.122 C 
HETATM   17  C4  UNL     1     -15.295   9.827  31.804  1.00  0.00     0.020 C 
HETATM   18  C5  UNL     1     -16.158   8.780  32.459  1.00  0.00     0.003 C 
HETATM   19  C6  UNL     1     -17.599   9.188  32.543  1.00  0.00     0.020 C 
HETATM   20  C7  UNL     1     -17.794  10.548  33.175  1.00  0.00     0.122 C 
ENDBRANCH   9  15
ENDBRANCH   1   9
BRANCH   1  21
HETATM   21  N3  UNL     1     -15.029  11.087  35.179  1.00  0.00    -0.056 N 
ATOM     22  H33 UNL     1     -14.162  10.764  34.750  1.00  0.00     0.276 HD
ATOM     23  H32 UNL     1     -14.745  11.007  36.156  1.00  0.00     0.276 HD
ATOM     24  H31 UNL     1     -15.821  10.485  34.955  1.00  0.00     0.276 HD
ENDBRANCH   1  21
TORSDOF 5
ENDMDL
MODEL 4
REMARK VINA RESULT: -5.788841038      2.343      4.876
REMARK  5 active torsions:
REMARK  status: ('A' for Active; 'I' for Inactive)
REMARK    1  A    between atoms: N1_1  and  C1_5 
REMARK    2  A    between atoms: C1_5  and  C2_6 
REMARK    3  A    between atoms: C2_6  and  N2_7 
REMARK    4  A    between atoms: C2_6  and  C8_13 
REMARK    5  A    between atoms: C8_13  and  N3_14 
ROOT
HETATM    1  C8  UNL     1     -14.964  12.604  34.786  1.00  0.00     0.242 C 
HETATM    2  C9  UNL     1     -15.078  14.075  34.615  1.00  0.00     0.057 C 
HETATM    3  C10 UNL     1     -14.278  14.879  35.627  1.00  0.00     0.023 C 
HETATM    4  C11 UNL     1     -14.663  14.540  37.052  1.00  0.00     0.122 C 
HETATM    5  N4  UNL     1     -14.811  13.105  37.223  1.00  0.00    -0.359 N 
ATOM      6  H4  UNL     1     -15.067  12.746  38.143  1.00  0.00     0.162 HD
HETATM    7  C12 UNL     1     -14.617  12.197  36.177  1.00  0.00     0.260 C 
HETATM    8  O1  UNL     1     -14.159  11.032  36.333  1.00  0.00    -0.270 OA
ENDROOT
BRANCH   1   9
HETATM    9  C2  UNL     1     -16.237  11.930  34.319  1.00  0.00     0.055 C 
BRANCH   9  10
HETATM   10  C1  UNL     1     -17.483  12.721  34.578  1.00  0.00     0.284 C 
BRANCH  10  11
HETATM   11  N1  UNL     1     -18.344  11.923  35.451  1.00  0.00    -0.074 N 
ATOM     12  H13 UNL     1     -17.830  11.469  36.207  1.00  0.00     0.274 HD
ATOM     13  H12 UNL     1     -18.960  12.494  36.030  1.00  0.00     0.274 HD
ATOM     14  H11 UNL     1     -18.852  11.261  34.864  1.00  0.00     0.274 HD
ENDBRANCH  10  11
ENDBRANCH   9  10
BRANCH   9  15
HETATM   15  N2  UNL     1     -16.060  11.297  33.107  1.00  0.00    -0.384 N 
HETATM   16  C3  UNL     1     -16.335  11.841  31.863  1.00  0.00     0.122 C 
HETATM   17  C4  UNL     1     -15.191  11.520  30.879  1.00  0.00     0.020 C 
HETATM   18  C5  UNL     1     -14.641  10.140  31.129  1.00  0.00     0.003 C 
HETATM   19  C6  UNL     1     -15.615   9.249  31.843  1.00  0.00     0.020 C 
HETATM   20  C7  UNL     1     -16.166   9.868  33.108  1.00  0.00     0.122 C 
ENDBRANCH   9  15
ENDBRANCH   1   9
BRANCH   1  21
HETATM   21  N3  UNL     1     -13.830  12.102  33.985  1.00  0.00    -0.056 N 
ATOM     22  H33 UNL     1     -13.558  11.155  34.249  1.00  0.00     0.276 HD
ATOM     23  H32 UNL     1     -14.093  11.912  33.018  1.00  0.00     0.276 HD
ATOM     24  H31 UNL     1     -13.055  12.762  34.054  1.00  0.00     0.276 HD
ENDBRANCH   1  21
TORSDOF 5
ENDMDL
MODEL 5
REMARK VINA RESULT: -5.769706197      1.782      3.574
REMARK  5 active torsions:
REMARK  status: ('A' for Active; 'I' for Inactive)
REMARK    1  A    between atoms: N1_1  and  C1_5 
REMARK    2  A    between atoms: C1_5  and  C2_6 
REMARK    3  A    between atoms: C2_6  and  N2_7 
REMARK    4  A    between atoms: C2_6  and  C8_13 
REMARK    5  A    between atoms: C8_13  and  N3_14 
ROOT
HETATM    1  C8  UNL     1     -17.200  12.101  32.626  1.00  0.00     0.242 C 
HETATM    2  C9  UNL     1     -15.887  12.266  31.949  1.00  0.00     0.057 C 
HETATM    3  C10 UNL     1     -15.394  11.013  31.245  1.00  0.00     0.023 C 
HETATM    4  C11 UNL     1     -15.291   9.833  32.189  1.00  0.00     0.122 C 
HETATM    5  N4  UNL     1     -16.452   9.763  33.060  1.00  0.00    -0.359 N 
ATOM      6  H4  UNL     1     -16.506   9.008  33.744  1.00  0.00     0.162 HD
HETATM    7  C12 UNL     1     -17.498  10.690  32.999  1.00  0.00     0.260 C 
HETATM    8  O1  UNL     1     -18.703  10.408  33.243  1.00  0.00    -0.270 OA
ENDROOT
BRANCH   1   9
HETATM    9  C2  UNL     1     -17.277  13.015  33.831  1.00  0.00     0.055 C 
BRANCH   9  10
HETATM   10  C1  UNL     1     -18.453  12.757  34.724  1.00  0.00     0.284 C 
BRANCH  10  11
HETATM   11  N1  UNL     1     -19.327  13.929  34.658  1.00  0.00    -0.074 N 
ATOM     12  H13 UNL     1     -18.846  14.796  34.902  1.00  0.00     0.274 HD
ATOM     13  H12 UNL     1     -19.582  14.180  33.703  1.00  0.00     0.274 HD
ATOM     14  H11 UNL     1     -20.136  13.746  35.250  1.00  0.00     0.274 HD
ENDBRANCH  10  11
ENDBRANCH   9  10
BRANCH   9  15
HETATM   15  N2  UNL     1     -16.032  13.240  34.378  1.00  0.00    -0.384 N 
HETATM   16  C3  UNL     1     -15.421  12.462  35.349  1.00  0.00     0.122 C 
HETATM   17  C4  UNL     1     -13.940  12.231  34.989  1.00  0.00     0.020 C 
HETATM   18  C5  UNL     1     -13.345  13.459  34.350  1.00  0.00     0.003 C 
HETATM   19  C6  UNL     1     -14.100  14.710  34.689  1.00  0.00     0.020 C 
HETATM   20  C7  UNL     1     -15.583  14.600  34.414  1.00  0.00     0.122 C 
ENDBRANCH   9  15
ENDBRANCH   1   9
BRANCH   1  21
HETATM   21  N3  UNL     1     -18.284  12.449  31.686  1.00  0.00    -0.056 N 
ATOM     22  H33 UNL     1     -17.941  12.954  30.869  1.00  0.00     0.276 HD
ATOM     23  H32 UNL     1     -18.655  11.630  31.204  1.00  0.00     0.276 HD
ATOM     24  H31 UNL     1     -19.007  12.965  32.187  1.00  0.00     0.276 HD
ENDBRANCH   1  21
TORSDOF 5
ENDMDL
