MODEL 1
REMARK VINA RESULT: -6.687169515      0.000      0.000
REMARK  2 active torsions:
REMARK  status: ('A' for Active; 'I' for Inactive)
REMARK       I    between atoms: C2_2  and  N1_4 
REMARK    1  A    between atoms: N1_4  and  C3_6 
REMARK    2  A    between atoms: C3_6  and  C4_7 
REMARK       I    between atoms: C4_7  and  N2_9 
ROOT
HETATM    1  C3  UNL     1     -17.053  12.114  33.225  1.00  0.00     0.123 C 
HETATM    2  C6  UNL     1     -17.375  13.514  32.820  1.00  0.00     0.052 C 
HETATM    3  C7  UNL     1     -18.307  14.115  33.824  1.00  0.00     0.077 C 
HETATM    4  S1  UNL     1     -19.307  12.669  34.349  1.00  0.00    -0.166 SA
HETATM    5  C8  UNL     1     -18.362  11.384  33.439  1.00  0.00     0.115 C 
ENDROOT
BRANCH   1   6
HETATM    6  N1  UNL     1     -16.237  11.985  34.382  1.00  0.00    -0.343 N 
HETATM    7  C2  UNL     1     -15.041  12.682  34.671  1.00  0.00     0.214 C 
HETATM    8  C1  UNL     1     -14.252  12.476  35.909  1.00  0.00     0.117 C 
HETATM    9  O1  UNL     1     -14.617  13.521  33.845  1.00  0.00    -0.274 OA
ATOM     10  H1  UNL     1     -16.549  11.313  35.083  1.00  0.00     0.163 HD
ENDBRANCH   1   6
BRANCH   1  11
HETATM   11  C4  UNL     1     -16.405  11.444  32.078  1.00  0.00     0.253 C 
HETATM   12  O2  UNL     1     -15.869  12.119  31.183  1.00  0.00    -0.270 OA
HETATM   13  N2  UNL     1     -16.401  10.028  32.007  1.00  0.00    -0.301 N 
HETATM   14  C5  UNL     1     -15.534   9.367  31.317  1.00  0.00     0.203 C 
ATOM     15  H2  UNL     1     -17.112   9.510  32.523  1.00  0.00     0.171 HD
HETATM   16  N3  UNL     1     -15.578   7.946  31.283  1.00  0.00    -0.066 NA
HETATM   17  N4  UNL     1     -14.516  10.022  30.573  1.00  0.00    -0.066 NA
ENDBRANCH   1  11
TORSDOF 2
ENDMDL
MODEL 2
REMARK VINA RESULT: -6.474598147      1.026      1.035
REMARK  2 active torsions:
REMARK  status: ('A' for Active; 'I' for Inactive)
REMARK       I    between atoms: C2_2  and  N1_4 
REMARK    1  A    between atoms: N1_4  and  C3_6 
REMARK    2  A    between atoms: C3_6  and  C4_7 
REMARK       I    between atoms: C4_7  and  N2_9 
ROOT
HETATM    1  C3  UNL     1     -16.473  12.690  33.144  1.00  0.00     0.123 C 
HETATM    2  C6  UNL     1     -17.462  13.651  32.572  1.00  0.00     0.052 C 
HETATM    3  C7  UNL     1     -18.208  14.313  33.687  1.00  0.00     0.077 C 
HETATM    4  S1  UNL     1     -18.294  12.982  34.947  1.00  0.00    -0.166 SA
HETATM    5  C8  UNL     1     -17.220  11.768  34.084  1.00  0.00     0.115 C 
ENDROOT
BRANCH   1   6
HETATM    6  N1  UNL     1     -15.371  13.278  33.823  1.00  0.00    -0.343 N 
HETATM    7  C2  UNL     1     -14.320  12.610  34.492  1.00  0.00     0.214 C 
HETATM    8  C1  UNL     1     -13.210  13.313  35.180  1.00  0.00     0.117 C 
HETATM    9  O1  UNL     1     -14.316  11.359  34.512  1.00  0.00    -0.274 OA
ATOM     10  H1  UNL     1     -15.335  14.298  33.827  1.00  0.00     0.163 HD
ENDBRANCH   1   6
BRANCH   1  11
HETATM   11  C4  UNL     1     -15.984  11.830  32.046  1.00  0.00     0.253 C 
HETATM   12  O2  UNL     1     -15.393  12.333  31.076  1.00  0.00    -0.270 OA
HETATM   13  N2  UNL     1     -16.195  10.429  32.109  1.00  0.00    -0.301 N 
HETATM   14  C5  UNL     1     -15.468   9.585  31.458  1.00  0.00     0.203 C 
ATOM     15  H2  UNL     1     -16.952  10.075  32.692  1.00  0.00     0.171 HD
HETATM   16  N3  UNL     1     -15.725   8.191  31.559  1.00  0.00    -0.066 NA
HETATM   17  N4  UNL     1     -14.396  10.009  30.626  1.00  0.00    -0.066 NA
ENDBRANCH   1  11
TORSDOF 2
ENDMDL
MODEL 3
REMARK VINA RESULT: -6.181868301      1.978      3.193
REMARK  2 active torsions:
REMARK  status: ('A' for Active; 'I' for Inactive)
REMARK       I    between atoms: C2_2  and  N1_4 
REMARK    1  A    between atoms: N1_4  and  C3_6 
REMARK    2  A    between atoms: C3_6  and  C4_7 
REMARK       I    between atoms: C4_7  and  N2_9 
ROOT
HETATM    1  C3  UNL     1     -15.221  12.315  33.900  1.00  0.00     0.123 C 
HETATM    2  C6  UNL     1     -15.017  11.300  34.976  1.00  0.00     0.052 C 
HETATM    3  C7  UNL     1     -14.702  12.000  36.260  1.00  0.00     0.077 C 
HETATM    4  S1  UNL     1     -13.762  13.469  35.688  1.00  0.00    -0.166 SA
HETATM    5  C8  UNL     1     -14.006  13.218  33.885  1.00  0.00     0.115 C 
ENDROOT
BRANCH   1   6
HETATM    6  N1  UNL     1     -16.401  13.099  34.016  1.00  0.00    -0.343 N 
HETATM    7  C2  UNL     1     -17.739  12.641  34.029  1.00  0.00     0.214 C 
HETATM    8  C1  UNL     1     -18.911  13.540  34.149  1.00  0.00     0.117 C 
HETATM    9  O1  UNL     1     -17.956  11.412  33.935  1.00  0.00    -0.274 OA
ATOM     10  H1  UNL     1     -16.268  14.107  34.098  1.00  0.00     0.163 HD
ENDBRANCH   1   6
BRANCH   1  11
HETATM   11  C4  UNL     1     -15.212  11.611  32.601  1.00  0.00     0.253 C 
HETATM   12  O2  UNL     1     -14.896  12.220  31.565  1.00  0.00    -0.270 OA
HETATM   13  N2  UNL     1     -15.565  10.239  32.547  1.00  0.00    -0.301 N 
HETATM   14  C5  UNL     1     -15.190   9.460  31.589  1.00  0.00     0.203 C 
ATOM     15  H2  UNL     1     -16.140   9.852  33.295  1.00  0.00     0.171 HD
HETATM   16  N3  UNL     1     -15.575   8.091  31.588  1.00  0.00    -0.066 NA
HETATM   17  N4  UNL     1     -14.390   9.931  30.514  1.00  0.00    -0.066 NA
ENDBRANCH   1  11
TORSDOF 2
ENDMDL
MODEL 4
REMARK VINA RESULT: -6.124767387      1.102      1.297
REMARK  2 active torsions:
REMARK  status: ('A' for Active; 'I' for Inactive)
REMARK       I    between atoms: C2_2  and  N1_4 
REMARK    1  A    between atoms: N1_4  and  C3_6 
REMARK    2  A    between atoms: C3_6  and  C4_7 
REMARK       I    between atoms: C4_7  and  N2_9 
ROOT
HETATM    1  C3  UNL     1     -17.731  12.490  33.716  1.00  0.00     0.123 C 
HETATM    2  C6  UNL     1     -18.212  13.898  33.843  1.00  0.00     0.052 C 
HETATM    3  C7  UNL     1     -19.174  13.988  34.985  1.00  0.00     0.077 C 
HETATM    4  S1  UNL     1     -19.999  12.349  34.936  1.00  0.00    -0.166 SA
HETATM    5  C8  UNL     1     -18.948  11.594  33.633  1.00  0.00     0.115 C 
ENDROOT
BRANCH   1   6
HETATM    6  N1  UNL     1     -16.873  12.041  34.757  1.00  0.00    -0.343 N 
HETATM    7  C2  UNL     1     -15.537  12.435  34.998  1.00  0.00     0.214 C 
HETATM    8  C1  UNL     1     -14.716  11.906  36.113  1.00  0.00     0.117 C 
HETATM    9  O1  UNL     1     -15.008  13.275  34.235  1.00  0.00    -0.274 OA
ATOM     10  H1  UNL     1     -17.267  11.358  35.404  1.00  0.00     0.163 HD
ENDBRANCH   1   6
BRANCH   1  11
HETATM   11  C4  UNL     1     -17.048  12.357  32.412  1.00  0.00     0.253 C 
HETATM   12  O2  UNL     1     -17.009  13.320  31.628  1.00  0.00    -0.270 OA
HETATM   13  N2  UNL     1     -16.439  11.125  32.065  1.00  0.00    -0.301 N 
HETATM   14  C5  UNL     1     -15.493  11.036  31.192  1.00  0.00     0.203 C 
ATOM     15  H2  UNL     1     -16.762  10.274  32.524  1.00  0.00     0.171 HD
HETATM   16  N3  UNL     1     -14.919   9.772  30.884  1.00  0.00    -0.066 NA
HETATM   17  N4  UNL     1     -14.994  12.180  30.513  1.00  0.00    -0.066 NA
ENDBRANCH   1  11
TORSDOF 2
ENDMDL
MODEL 5
REMARK VINA RESULT: -5.846046121      1.979      2.355
REMARK  2 active torsions:
REMARK  status: ('A' for Active; 'I' for Inactive)
REMARK       I    between atoms: C2_2  and  N1_4 
REMARK    1  A    between atoms: N1_4  and  C3_6 
REMARK    2  A    between atoms: C3_6  and  C4_7 
REMARK       I    between atoms: C4_7  and  N2_9 
ROOT
HETATM    1  C3  UNL     1     -17.128  13.810  34.229  1.00  0.00     0.123 C 
HETATM    2  C6  UNL     1     -18.575  14.176  34.250  1.00  0.00     0.052 C 
HETATM    3  C7  UNL     1     -18.954  14.607  35.631  1.00  0.00     0.077 C 
HETATM    4  S1  UNL     1     -17.882  13.552  36.683  1.00  0.00    -0.166 SA
HETATM    5  C8  UNL     1     -16.894  12.798  35.330  1.00  0.00     0.115 C 
ENDROOT
BRANCH   1   6
HETATM    6  N1  UNL     1     -16.221  14.896  34.373  1.00  0.00    -0.343 N 
HETATM    7  C2  UNL     1     -14.812  14.829  34.475  1.00  0.00     0.214 C 
HETATM    8  C1  UNL     1     -13.946  16.022  34.628  1.00  0.00     0.117 C 
HETATM    9  O1  UNL     1     -14.257  13.709  34.434  1.00  0.00    -0.274 OA
ATOM     10  H1  UNL     1     -16.634  15.828  34.407  1.00  0.00     0.163 HD
ENDBRANCH   1   6
BRANCH   1  11
HETATM   11  C4  UNL     1     -16.856  13.094  32.965  1.00  0.00     0.253 C 
HETATM   12  O2  UNL     1     -17.191  13.598  31.880  1.00  0.00    -0.270 OA
HETATM   13  N2  UNL     1     -16.212  11.832  33.001  1.00  0.00    -0.301 N 
HETATM   14  C5  UNL     1     -15.569  11.348  31.993  1.00  0.00     0.203 C 
ATOM     15  H2  UNL     1     -16.259  11.284  33.860  1.00  0.00     0.171 HD
HETATM   16  N3  UNL     1     -14.942  10.075  32.087  1.00  0.00    -0.066 NA
HETATM   17  N4  UNL     1     -15.463  12.056  30.766  1.00  0.00    -0.066 NA
ENDBRANCH   1  11
TORSDOF 2
ENDMDL
