MODEL 1
REMARK VINA RESULT: -7.441768788      0.000      0.000
REMARK  4 active torsions:
REMARK  status: ('A' for Active; 'I' for Inactive)
REMARK    1  A    between atoms: C1_2  and  C2_3 
REMARK       I    between atoms: C1_2  and  N1_6 
REMARK    2  A    between atoms: C7_9  and  C8_10 
REMARK    3  A    between atoms: C8_10  and  C9_11 
REMARK    4  A    between atoms: C9_11  and  C10_12 
REMARK       I    between atoms: N2_17  and  C13_18 
REMARK       I    between atoms: C13_18  and  N3_20 
ROOT
HETATM    1  C9  UNL     1      48.033  48.354  31.241  1.00  0.00     0.022 C 
HETATM    2  C11 UNL     1      48.783  48.852  30.058  1.00  0.00     0.035 C 
HETATM    3  C12 UNL     1      50.119  48.131  29.850  1.00  0.00     0.128 C 
HETATM    4  N2  UNL     1      49.810  46.693  29.753  1.00  0.00    -0.334 N 
HETATM    5  C13 UNL     1      50.056  46.007  28.558  1.00  0.00     0.320 C 
HETATM    6  O2  UNL     1      50.524  46.737  27.603  1.00  0.00    -0.247 OA
HETATM    7  N3  UNL     1      49.874  44.658  28.245  1.00  0.00    -0.331 N 
HETATM    8  C14 UNL     1      50.208  44.209  26.880  1.00  0.00     0.155 C 
HETATM    9  C15 UNL     1      51.295  43.147  26.918  1.00  0.00     0.252 C 
HETATM   10  N4  UNL     1      50.990  42.141  27.920  1.00  0.00    -0.072 N 
ATOM     11  H41 UNL     1      51.664  42.158  28.685  1.00  0.00     0.277 HD
ATOM     12  H42 UNL     1      51.172  41.199  27.572  1.00  0.00     0.277 HD
HETATM   13  C16 UNL     1      49.641  42.274  28.401  1.00  0.00     0.252 C 
HETATM   14  C17 UNL     1      49.399  43.608  29.111  1.00  0.00     0.155 C 
HETATM   15  C18 UNL     1      49.269  46.153  30.980  1.00  0.00     0.128 C 
HETATM   16  C19 UNL     1      48.859  47.228  31.933  1.00  0.00     0.035 C 
ENDROOT
BRANCH   1  17
HETATM   17  C8  UNL     1      47.936  49.413  32.289  1.00  0.00     0.020 C 
BRANCH  17  18
HETATM   18  C7  UNL     1      47.877  49.074  33.712  1.00  0.00    -0.011 C 
HETATM   19  C6  UNL     1      49.013  49.862  34.398  1.00  0.00     0.024 C 
HETATM   20  C5  UNL     1      48.547  50.588  35.626  1.00  0.00     0.126 C 
HETATM   21  N1  UNL     1      47.805  49.721  36.512  1.00  0.00    -0.352 N 
HETATM   22  C1  UNL     1      47.980  49.759  37.894  1.00  0.00     0.224 C 
HETATM   23  C21 UNL     1      46.872  48.810  35.908  1.00  0.00     0.126 C 
HETATM   24  O1  UNL     1      48.793  50.562  38.398  1.00  0.00    -0.273 OA
HETATM   25  C20 UNL     1      46.639  49.375  34.485  1.00  0.00     0.024 C 
BRANCH  22  26
HETATM   26  C2  UNL     1      47.215  48.858  38.774  1.00  0.00     0.078 A 
HETATM   27  C3  UNL     1      48.007  47.607  39.164  1.00  0.00     0.015 A 
HETATM   28  C4  UNL     1      47.631  48.626  40.179  1.00  0.00     0.015 A 
ENDBRANCH  22  26
ENDBRANCH  17  18
ENDBRANCH   1  17
BRANCH   1  29
HETATM   29  C10 UNL     1      46.708  47.718  30.969  1.00  0.00     0.361 C 
HETATM   30  F1  UNL     1      45.608  48.461  31.336  1.00  0.00    -0.214 F 
HETATM   31  F2  UNL     1      46.499  47.463  29.602  1.00  0.00    -0.214 F 
ENDBRANCH   1  29
TORSDOF 4
ENDMDL
MODEL 2
REMARK VINA RESULT: -7.282210204      4.864      7.457
REMARK  4 active torsions:
REMARK  status: ('A' for Active; 'I' for Inactive)
REMARK    1  A    between atoms: C1_2  and  C2_3 
REMARK       I    between atoms: C1_2  and  N1_6 
REMARK    2  A    between atoms: C7_9  and  C8_10 
REMARK    3  A    between atoms: C8_10  and  C9_11 
REMARK    4  A    between atoms: C9_11  and  C10_12 
REMARK       I    between atoms: N2_17  and  C13_18 
REMARK       I    between atoms: C13_18  and  N3_20 
ROOT
HETATM    1  C9  UNL     1      49.365  45.573  31.247  1.00  0.00     0.022 C 
HETATM    2  C11 UNL     1      49.280  46.400  32.481  1.00  0.00     0.035 C 
HETATM    3  C12 UNL     1      49.099  47.893  32.189  1.00  0.00     0.128 C 
HETATM    4  N2  UNL     1      47.894  48.014  31.348  1.00  0.00    -0.334 N 
HETATM    5  C13 UNL     1      46.770  48.690  31.835  1.00  0.00     0.320 C 
HETATM    6  O2  UNL     1      46.890  49.140  33.039  1.00  0.00    -0.247 OA
HETATM    7  N3  UNL     1      45.545  48.954  31.219  1.00  0.00    -0.331 N 
HETATM    8  C14 UNL     1      44.521  49.686  31.988  1.00  0.00     0.155 C 
HETATM    9  C15 UNL     1      44.154  50.985  31.288  1.00  0.00     0.252 C 
HETATM   10  N4  UNL     1      43.919  50.753  29.874  1.00  0.00    -0.072 N 
ATOM     11  H41 UNL     1      44.623  51.213  29.297  1.00  0.00     0.277 HD
ATOM     12  H42 UNL     1      43.094  51.254  29.545  1.00  0.00     0.277 HD
HETATM   13  C16 UNL     1      43.834  49.347  29.582  1.00  0.00     0.252 C 
HETATM   14  C17 UNL     1      45.138  48.604  29.880  1.00  0.00     0.155 C 
HETATM   15  C18 UNL     1      48.048  47.385  30.055  1.00  0.00     0.128 C 
HETATM   16  C19 UNL     1      49.252  46.502  30.001  1.00  0.00     0.035 C 
ENDROOT
BRANCH   1  17
HETATM   17  C8  UNL     1      50.723  44.966  31.111  1.00  0.00     0.020 C 
BRANCH  17  18
HETATM   18  C7  UNL     1      51.755  45.173  32.128  1.00  0.00    -0.011 C 
HETATM   19  C6  UNL     1      52.633  43.904  32.128  1.00  0.00     0.024 C 
HETATM   20  C5  UNL     1      54.099  44.221  32.078  1.00  0.00     0.126 C 
HETATM   21  N1  UNL     1      54.470  45.200  33.073  1.00  0.00    -0.352 N 
HETATM   22  C1  UNL     1      55.641  45.083  33.819  1.00  0.00     0.224 C 
HETATM   23  C21 UNL     1      53.576  46.309  33.266  1.00  0.00     0.126 C 
HETATM   24  O1  UNL     1      56.406  44.113  33.631  1.00  0.00    -0.273 OA
HETATM   25  C20 UNL     1      52.691  46.325  31.996  1.00  0.00     0.024 C 
BRANCH  22  26
HETATM   26  C2  UNL     1      55.992  46.092  34.833  1.00  0.00     0.078 A 
HETATM   27  C3  UNL     1      55.872  45.554  36.262  1.00  0.00     0.015 A 
HETATM   28  C4  UNL     1      57.192  45.931  35.690  1.00  0.00     0.015 A 
ENDBRANCH  22  26
ENDBRANCH  17  18
ENDBRANCH   1  17
BRANCH   1  29
HETATM   29  C10 UNL     1      48.282  44.563  31.048  1.00  0.00     0.361 C 
HETATM   30  F1  UNL     1      48.603  43.506  30.225  1.00  0.00    -0.214 F 
HETATM   31  F2  UNL     1      47.888  43.945  32.247  1.00  0.00    -0.214 F 
ENDBRANCH   1  29
TORSDOF 4
ENDMDL
MODEL 3
REMARK VINA RESULT: -7.181484237      5.545      6.684
REMARK  4 active torsions:
REMARK  status: ('A' for Active; 'I' for Inactive)
REMARK    1  A    between atoms: C1_2  and  C2_3 
REMARK       I    between atoms: C1_2  and  N1_6 
REMARK    2  A    between atoms: C7_9  and  C8_10 
REMARK    3  A    between atoms: C8_10  and  C9_11 
REMARK    4  A    between atoms: C9_11  and  C10_12 
REMARK       I    between atoms: N2_17  and  C13_18 
REMARK       I    between atoms: C13_18  and  N3_20 
ROOT
HETATM    1  C9  UNL     1      53.265  45.852  32.041  1.00  0.00     0.022 C 
HETATM    2  C11 UNL     1      54.388  45.891  31.066  1.00  0.00     0.035 C 
HETATM    3  C12 UNL     1      54.750  44.508  30.515  1.00  0.00     0.128 C 
HETATM    4  N2  UNL     1      53.516  43.953  29.928  1.00  0.00    -0.334 N 
HETATM    5  C13 UNL     1      53.449  43.709  28.552  1.00  0.00     0.320 C 
HETATM    6  O2  UNL     1      54.510  44.034  27.893  1.00  0.00    -0.247 OA
HETATM    7  N3  UNL     1      52.414  43.168  27.786  1.00  0.00    -0.331 N 
HETATM    8  C14 UNL     1      52.617  43.040  26.331  1.00  0.00     0.155 C 
HETATM    9  C15 UNL     1      52.512  41.584  25.903  1.00  0.00     0.252 C 
HETATM   10  N4  UNL     1      51.339  40.963  26.493  1.00  0.00    -0.072 N 
ATOM     11  H41 UNL     1      51.596  40.237  27.162  1.00  0.00     0.277 HD
ATOM     12  H42 UNL     1      50.842  40.384  25.817  1.00  0.00     0.277 HD
HETATM   13  C16 UNL     1      50.471  41.944  27.087  1.00  0.00     0.252 C 
HETATM   14  C17 UNL     1      51.133  42.691  28.247  1.00  0.00     0.155 C 
HETATM   15  C18 UNL     1      52.485  43.716  30.913  1.00  0.00     0.128 C 
HETATM   16  C19 UNL     1      52.793  44.377  32.217  1.00  0.00     0.035 C 
ENDROOT
BRANCH   1  17
HETATM   17  C8  UNL     1      53.736  46.235  33.405  1.00  0.00     0.020 C 
BRANCH  17  18
HETATM   18  C7  UNL     1      54.622  47.382  33.610  1.00  0.00    -0.011 C 
HETATM   19  C6  UNL     1      53.773  48.476  34.290  1.00  0.00     0.024 C 
HETATM   20  C5  UNL     1      54.454  49.068  35.489  1.00  0.00     0.126 C 
HETATM   21  N1  UNL     1      55.810  49.467  35.193  1.00  0.00    -0.352 N 
HETATM   22  C1  UNL     1      56.346  50.662  35.669  1.00  0.00     0.224 C 
HETATM   23  C21 UNL     1      56.592  48.576  34.382  1.00  0.00     0.126 C 
HETATM   24  O1  UNL     1      55.649  51.419  36.378  1.00  0.00    -0.273 OA
HETATM   25  C20 UNL     1      55.842  47.223  34.451  1.00  0.00     0.024 C 
BRANCH  22  26
HETATM   26  C2  UNL     1      57.731  51.047  35.346  1.00  0.00     0.078 A 
HETATM   27  C3  UNL     1      57.818  51.929  34.096  1.00  0.00     0.015 A 
HETATM   28  C4  UNL     1      58.173  52.461  35.438  1.00  0.00     0.015 A 
ENDBRANCH  22  26
ENDBRANCH  17  18
ENDBRANCH   1  17
BRANCH   1  29
HETATM   29  C10 UNL     1      52.023  46.587  31.654  1.00  0.00     0.361 C 
HETATM   30  F1  UNL     1      51.074  46.708  32.645  1.00  0.00    -0.214 F 
HETATM   31  F2  UNL     1      52.276  47.916  31.271  1.00  0.00    -0.214 F 
ENDBRANCH   1  29
TORSDOF 4
ENDMDL
MODEL 4
REMARK VINA RESULT: -7.084284988      1.744      2.205
REMARK  4 active torsions:
REMARK  status: ('A' for Active; 'I' for Inactive)
REMARK    1  A    between atoms: C1_2  and  C2_3 
REMARK       I    between atoms: C1_2  and  N1_6 
REMARK    2  A    between atoms: C7_9  and  C8_10 
REMARK    3  A    between atoms: C8_10  and  C9_11 
REMARK    4  A    between atoms: C9_11  and  C10_12 
REMARK       I    between atoms: N2_17  and  C13_18 
REMARK       I    between atoms: C13_18  and  N3_20 
ROOT
HETATM    1  C9  UNL     1      48.688  47.961  31.304  1.00  0.00     0.022 C 
HETATM    2  C11 UNL     1      49.065  46.718  32.029  1.00  0.00     0.035 C 
HETATM    3  C12 UNL     1      48.377  45.468  31.470  1.00  0.00     0.128 C 
HETATM    4  N2  UNL     1      48.717  45.406  30.037  1.00  0.00    -0.334 N 
HETATM    5  C13 UNL     1      49.486  44.344  29.548  1.00  0.00     0.320 C 
HETATM    6  O2  UNL     1      49.866  43.496  30.444  1.00  0.00    -0.247 OA
HETATM    7  N3  UNL     1      49.901  44.062  28.246  1.00  0.00    -0.331 N 
HETATM    8  C14 UNL     1      50.730  42.863  28.023  1.00  0.00     0.155 C 
HETATM    9  C15 UNL     1      50.035  41.902  27.070  1.00  0.00     0.252 C 
HETATM   10  N4  UNL     1      49.525  42.613  25.911  1.00  0.00    -0.072 N 
ATOM     11  H41 UNL     1      48.506  42.603  25.885  1.00  0.00     0.277 HD
ATOM     12  H42 UNL     1      49.710  42.102  25.048  1.00  0.00     0.277 HD
HETATM   13  C16 UNL     1      50.042  43.954  25.851  1.00  0.00     0.252 C 
HETATM   14  C17 UNL     1      49.606  44.806  27.046  1.00  0.00     0.155 C 
HETATM   15  C18 UNL     1      48.171  46.514  29.284  1.00  0.00     0.128 C 
HETATM   16  C19 UNL     1      47.675  47.606  30.175  1.00  0.00     0.035 C 
ENDROOT
BRANCH   1  17
HETATM   17  C8  UNL     1      47.915  48.878  32.194  1.00  0.00     0.020 C 
BRANCH  17  18
HETATM   18  C7  UNL     1      47.849  48.658  33.640  1.00  0.00    -0.011 C 
HETATM   19  C6  UNL     1      48.993  49.485  34.263  1.00  0.00     0.024 C 
HETATM   20  C5  UNL     1      48.533  50.316  35.425  1.00  0.00     0.126 C 
HETATM   21  N1  UNL     1      47.777  49.535  36.377  1.00  0.00    -0.352 N 
HETATM   22  C1  UNL     1      47.949  49.684  37.751  1.00  0.00     0.224 C 
HETATM   23  C21 UNL     1      46.834  48.589  35.846  1.00  0.00     0.126 C 
HETATM   24  O1  UNL     1      48.771  50.517  38.191  1.00  0.00    -0.273 OA
HETATM   25  C20 UNL     1      46.612  49.037  34.380  1.00  0.00     0.024 C 
BRANCH  22  26
HETATM   26  C2  UNL     1      47.170  48.870  38.700  1.00  0.00     0.078 A 
HETATM   27  C3  UNL     1      47.937  47.633  39.178  1.00  0.00     0.015 A 
HETATM   28  C4  UNL     1      47.590  48.733  40.116  1.00  0.00     0.015 A 
ENDBRANCH  22  26
ENDBRANCH  17  18
ENDBRANCH   1  17
BRANCH   1  29
HETATM   29  C10 UNL     1      49.791  48.676  30.592  1.00  0.00     0.361 C 
HETATM   30  F1  UNL     1      50.151  49.892  31.128  1.00  0.00    -0.214 F 
HETATM   31  F2  UNL     1      50.992  47.946  30.581  1.00  0.00    -0.214 F 
ENDBRANCH   1  29
TORSDOF 4
ENDMDL
MODEL 5
REMARK VINA RESULT: -7.052909620      6.462      7.173
REMARK  4 active torsions:
REMARK  status: ('A' for Active; 'I' for Inactive)
REMARK    1  A    between atoms: C1_2  and  C2_3 
REMARK       I    between atoms: C1_2  and  N1_6 
REMARK    2  A    between atoms: C7_9  and  C8_10 
REMARK    3  A    between atoms: C8_10  and  C9_11 
REMARK    4  A    between atoms: C9_11  and  C10_12 
REMARK       I    between atoms: N2_17  and  C13_18 
REMARK       I    between atoms: C13_18  and  N3_20 
ROOT
HETATM    1  C9  UNL     1      53.930  49.756  33.577  1.00  0.00     0.022 C 
HETATM    2  C11 UNL     1      55.022  50.275  34.442  1.00  0.00     0.035 C 
HETATM    3  C12 UNL     1      55.509  49.249  35.471  1.00  0.00     0.128 C 
HETATM    4  N2  UNL     1      55.914  48.052  34.713  1.00  0.00    -0.334 N 
HETATM    5  C13 UNL     1      57.253  47.645  34.716  1.00  0.00     0.320 C 
HETATM    6  O2  UNL     1      58.047  48.408  35.391  1.00  0.00    -0.247 OA
HETATM    7  N3  UNL     1      57.859  46.545  34.106  1.00  0.00    -0.331 N 
HETATM    8  C14 UNL     1      59.314  46.371  34.269  1.00  0.00     0.155 C 
HETATM    9  C15 UNL     1      59.621  45.048  34.954  1.00  0.00     0.252 C 
HETATM   10  N4  UNL     1      58.862  43.971  34.344  1.00  0.00    -0.072 N 
ATOM     11  H41 UNL     1      58.174  43.584  34.992  1.00  0.00     0.277 HD
ATOM     12  H42 UNL     1      59.435  43.139  34.209  1.00  0.00     0.277 HD
HETATM   13  C16 UNL     1      58.248  44.394  33.114  1.00  0.00     0.252 C 
HETATM   14  C17 UNL     1      57.226  45.513  33.321  1.00  0.00     0.155 C 
HETATM   15  C18 UNL     1      54.807  47.418  34.032  1.00  0.00     0.128 C 
HETATM   16  C19 UNL     1      53.596  48.293  33.998  1.00  0.00     0.035 C 
ENDROOT
BRANCH   1  17
HETATM   17  C8  UNL     1      52.657  50.495  33.834  1.00  0.00     0.020 C 
BRANCH  17  18
HETATM   18  C7  UNL     1      51.649  49.976  34.759  1.00  0.00    -0.011 C 
HETATM   19  C6  UNL     1      51.869  50.704  36.101  1.00  0.00     0.024 C 
HETATM   20  C5  UNL     1      50.594  51.253  36.671  1.00  0.00     0.126 C 
HETATM   21  N1  UNL     1      49.547  50.258  36.699  1.00  0.00    -0.352 N 
HETATM   22  C1  UNL     1      48.688  50.125  37.788  1.00  0.00     0.224 C 
HETATM   23  C21 UNL     1      49.424  49.404  35.550  1.00  0.00     0.126 C 
HETATM   24  O1  UNL     1      48.809  50.882  38.774  1.00  0.00    -0.273 OA
HETATM   25  C20 UNL     1      50.204  50.138  34.431  1.00  0.00     0.024 C 
BRANCH  22  26
HETATM   26  C2  UNL     1      47.632  49.097  37.793  1.00  0.00     0.078 A 
HETATM   27  C3  UNL     1      48.045  47.836  38.557  1.00  0.00     0.015 A 
HETATM   28  C4  UNL     1      46.948  48.709  39.050  1.00  0.00     0.015 A 
ENDBRANCH  22  26
ENDBRANCH  17  18
ENDBRANCH   1  17
BRANCH   1  29
HETATM   29  C10 UNL     1      54.229  49.655  32.117  1.00  0.00     0.361 C 
HETATM   30  F1  UNL     1      53.622  50.601  31.321  1.00  0.00    -0.214 F 
HETATM   31  F2  UNL     1      55.597  49.807  31.831  1.00  0.00    -0.214 F 
ENDBRANCH   1  29
TORSDOF 4
ENDMDL
