MODEL 1
REMARK VINA RESULT: -7.787397755      0.000      0.000
REMARK  8 active torsions:
REMARK  status: ('A' for Active; 'I' for Inactive)
REMARK    1  A    between atoms: C3_3  and  C4_4 
REMARK       I    between atoms: C4_4  and  N1_6 
REMARK    2  A    between atoms: C8_10  and  C9_11 
REMARK    3  A    between atoms: C9_11  and  O2_12 
REMARK    4  A    between atoms: N2_18  and  C14_19 
REMARK    5  A    between atoms: C14_19  and  C15_20 
REMARK    6  A    between atoms: C15_20  and  N3_21 
REMARK    7  A    between atoms: N3_21  and  C16_23 
REMARK    8  A    between atoms: C22_29  and  O3_30 
ROOT
HETATM    1  C1  UNL     1      12.906 -24.108 -21.335  1.00  0.00     0.033 C 
HETATM    2  C2  UNL     1      12.225 -25.414 -20.995  1.00  0.00     0.092 C 
HETATM    3  C3  UNL     1      11.564 -25.221 -19.644  1.00  0.00     0.100 C 
HETATM    4  C10 UNL     1      10.840 -26.444 -19.180  1.00  0.00     0.016 C 
HETATM    5  C11 UNL     1      11.859 -27.431 -18.625  1.00  0.00     0.002 C 
HETATM    6  C12 UNL     1      12.121 -28.458 -19.695  1.00  0.00     0.020 C 
HETATM    7  C13 UNL     1      12.240 -27.786 -21.034  1.00  0.00     0.122 C 
HETATM    8  N2  UNL     1      12.966 -26.571 -21.048  1.00  0.00    -0.384 N 
ENDROOT
BRANCH   8   9
HETATM    9  C14 UNL     1      14.318 -26.684 -21.340  1.00  0.00     0.102 C 
BRANCH   9  10
HETATM   10  C15 UNL     1      15.276 -26.580 -20.169  1.00  0.00     0.100 C 
BRANCH  10  11
HETATM   11  N3  UNL     1      16.374 -25.763 -20.275  1.00  0.00    -0.388 N 
ATOM     12  H3  UNL     1      17.180 -26.174 -20.747  1.00  0.00     0.159 HD
BRANCH  11  13
HETATM   13  C16 UNL     1      16.545 -24.476 -19.837  1.00  0.00     0.036 C 
HETATM   14  C17 UNL     1      16.777 -23.406 -20.871  1.00  0.00     0.036 C 
HETATM   15  C18 UNL     1      17.499 -22.361 -20.035  1.00  0.00    -0.009 C 
HETATM   16  C19 UNL     1      18.648 -23.260 -19.543  1.00  0.00     0.012 C 
HETATM   17  C23 UNL     1      16.686 -21.895 -18.869  1.00  0.00     0.042 C 
HETATM   18  C20 UNL     1      17.833 -24.397 -18.974  1.00  0.00     0.017 C 
HETATM   19  C21 UNL     1      17.373 -23.956 -17.601  1.00  0.00     0.045 C 
HETATM   20  C22 UNL     1      16.234 -23.039 -17.999  1.00  0.00     0.061 C 
HETATM   21  C24 UNL     1      15.457 -24.002 -18.914  1.00  0.00     0.069 C 
BRANCH  20  22
HETATM   22  O3  UNL     1      15.488 -22.599 -16.939  1.00  0.00    -0.390 OA
ATOM     23  H3  UNL     1      15.335 -21.662 -16.945  1.00  0.00     0.210 HD
ENDBRANCH  20  22
ENDBRANCH  11  13
ENDBRANCH  10  11
ENDBRANCH   9  10
ENDBRANCH   8   9
BRANCH   3  24
HETATM   24  C4  UNL     1      10.710 -24.036 -19.573  1.00  0.00     0.226 C 
HETATM   25  O1  UNL     1      11.178 -22.991 -18.960  1.00  0.00    -0.273 OA
HETATM   26  N1  UNL     1       9.411 -23.889 -20.102  1.00  0.00    -0.345 N 
HETATM   27  C5  UNL     1       8.649 -22.623 -19.977  1.00  0.00     0.126 C 
HETATM   28  C8  UNL     1       8.509 -24.739 -20.808  1.00  0.00     0.110 C 
HETATM   29  C6  UNL     1       7.918 -22.522 -21.311  1.00  0.00     0.022 C 
HETATM   30  C7  UNL     1       8.161 -23.845 -22.010  1.00  0.00     0.029 C 
BRANCH  28  31
HETATM   31  C9  UNL     1       7.199 -24.951 -20.065  1.00  0.00     0.189 C 
BRANCH  31  32
HETATM   32  O2  UNL     1       7.153 -26.171 -19.417  1.00  0.00    -0.399 OA
ATOM     33  H2  UNL     1       6.896 -26.879 -19.997  1.00  0.00     0.209 HD
ENDBRANCH  31  32
ENDBRANCH  28  31
ENDBRANCH   3  24
TORSDOF 8
ENDMDL
MODEL 2
REMARK VINA RESULT: -7.764130082      3.185      5.366
REMARK  8 active torsions:
REMARK  status: ('A' for Active; 'I' for Inactive)
REMARK    1  A    between atoms: C3_3  and  C4_4 
REMARK       I    between atoms: C4_4  and  N1_6 
REMARK    2  A    between atoms: C8_10  and  C9_11 
REMARK    3  A    between atoms: C9_11  and  O2_12 
REMARK    4  A    between atoms: N2_18  and  C14_19 
REMARK    5  A    between atoms: C14_19  and  C15_20 
REMARK    6  A    between atoms: C15_20  and  N3_21 
REMARK    7  A    between atoms: N3_21  and  C16_23 
REMARK    8  A    between atoms: C22_29  and  O3_30 
ROOT
HETATM    1  C1  UNL     1      16.093 -24.616 -19.033  1.00  0.00     0.033 C 
HETATM    2  C2  UNL     1      14.766 -24.283 -19.676  1.00  0.00     0.092 C 
HETATM    3  C3  UNL     1      14.750 -24.976 -21.024  1.00  0.00     0.100 C 
HETATM    4  C10 UNL     1      13.481 -24.737 -21.777  1.00  0.00     0.016 C 
HETATM    5  C11 UNL     1      13.542 -23.351 -22.406  1.00  0.00     0.002 C 
HETATM    6  C12 UNL     1      12.748 -22.421 -21.528  1.00  0.00     0.020 C 
HETATM    7  C13 UNL     1      13.041 -22.705 -20.080  1.00  0.00     0.122 C 
HETATM    8  N2  UNL     1      14.398 -22.962 -19.769  1.00  0.00    -0.384 N 
ENDROOT
BRANCH   8   9
HETATM    9  C14 UNL     1      15.140 -21.858 -19.374  1.00  0.00     0.102 C 
BRANCH   9  10
HETATM   10  C15 UNL     1      15.795 -21.050 -20.478  1.00  0.00     0.100 C 
BRANCH  10  11
HETATM   11  N3  UNL     1      16.321 -21.705 -21.564  1.00  0.00    -0.388 N 
ATOM     12  H3  UNL     1      15.641 -22.184 -22.155  1.00  0.00     0.159 HD
BRANCH  11  13
HETATM   13  C16 UNL     1      17.626 -21.809 -21.967  1.00  0.00     0.036 C 
HETATM   14  C17 UNL     1      17.894 -22.014 -23.435  1.00  0.00     0.036 C 
HETATM   15  C18 UNL     1      19.265 -22.671 -23.379  1.00  0.00    -0.009 C 
HETATM   16  C19 UNL     1      18.884 -23.849 -22.464  1.00  0.00     0.012 C 
HETATM   17  C23 UNL     1      20.286 -21.814 -22.701  1.00  0.00     0.042 C 
HETATM   18  C20 UNL     1      18.259 -23.073 -21.328  1.00  0.00     0.017 C 
HETATM   19  C21 UNL     1      19.399 -22.565 -20.471  1.00  0.00     0.045 C 
HETATM   20  C22 UNL     1      19.851 -21.395 -21.321  1.00  0.00     0.061 C 
HETATM   21  C24 UNL     1      18.498 -20.681 -21.489  1.00  0.00     0.069 C 
BRANCH  20  22
HETATM   22  O3  UNL     1      20.792 -20.608 -20.715  1.00  0.00    -0.390 OA
ATOM     23  H3  UNL     1      21.618 -20.573 -21.184  1.00  0.00     0.210 HD
ENDBRANCH  20  22
ENDBRANCH  11  13
ENDBRANCH  10  11
ENDBRANCH   9  10
ENDBRANCH   8   9
BRANCH   3  24
HETATM   24  C4  UNL     1      15.068 -26.402 -20.954  1.00  0.00     0.226 C 
HETATM   25  O1  UNL     1      16.193 -26.795 -21.470  1.00  0.00    -0.273 OA
HETATM   26  N1  UNL     1      14.283 -27.424 -20.380  1.00  0.00    -0.345 N 
HETATM   27  C5  UNL     1      14.726 -28.838 -20.357  1.00  0.00     0.126 C 
HETATM   28  C8  UNL     1      13.008 -27.475 -19.740  1.00  0.00     0.110 C 
HETATM   29  C6  UNL     1      14.236 -29.336 -19.002  1.00  0.00     0.022 C 
HETATM   30  C7  UNL     1      13.372 -28.222 -18.446  1.00  0.00     0.029 C 
BRANCH  28  31
HETATM   31  C9  UNL     1      12.023 -28.376 -20.467  1.00  0.00     0.189 C 
BRANCH  31  32
HETATM   32  O2  UNL     1      10.901 -28.649 -19.708  1.00  0.00    -0.399 OA
ATOM     33  H2  UNL     1      10.145 -28.862 -20.243  1.00  0.00     0.209 HD
ENDBRANCH  31  32
ENDBRANCH  28  31
ENDBRANCH   3  24
TORSDOF 8
ENDMDL
MODEL 3
REMARK VINA RESULT: -7.754122574      1.477      2.578
REMARK  8 active torsions:
REMARK  status: ('A' for Active; 'I' for Inactive)
REMARK    1  A    between atoms: C3_3  and  C4_4 
REMARK       I    between atoms: C4_4  and  N1_6 
REMARK    2  A    between atoms: C8_10  and  C9_11 
REMARK    3  A    between atoms: C9_11  and  O2_12 
REMARK    4  A    between atoms: N2_18  and  C14_19 
REMARK    5  A    between atoms: C14_19  and  C15_20 
REMARK    6  A    between atoms: C15_20  and  N3_21 
REMARK    7  A    between atoms: N3_21  and  C16_23 
REMARK    8  A    between atoms: C22_29  and  O3_30 
ROOT
HETATM    1  C1  UNL     1      13.233 -24.952 -21.909  1.00  0.00     0.033 C 
HETATM    2  C2  UNL     1      12.545 -26.149 -21.293  1.00  0.00     0.092 C 
HETATM    3  C3  UNL     1      11.712 -25.625 -20.140  1.00  0.00     0.100 C 
HETATM    4  C10 UNL     1      10.963 -26.710 -19.434  1.00  0.00     0.016 C 
HETATM    5  C11 UNL     1      11.925 -27.440 -18.506  1.00  0.00     0.002 C 
HETATM    6  C12 UNL     1      12.348 -28.708 -19.200  1.00  0.00     0.020 C 
HETATM    7  C13 UNL     1      12.623 -28.432 -20.652  1.00  0.00     0.122 C 
HETATM    8  N2  UNL     1      13.314 -27.228 -20.926  1.00  0.00    -0.384 N 
ENDROOT
BRANCH   8   9
HETATM    9  C14 UNL     1      14.695 -27.338 -21.014  1.00  0.00     0.102 C 
BRANCH   9  10
HETATM   10  C15 UNL     1      15.502 -26.614 -19.953  1.00  0.00     0.100 C 
BRANCH  10  11
HETATM   11  N3  UNL     1      16.413 -25.662 -20.339  1.00  0.00    -0.388 N 
ATOM     12  H3  UNL     1      17.058 -25.949 -21.076  1.00  0.00     0.159 HD
BRANCH  11  13
HETATM   13  C16 UNL     1      16.582 -24.383 -19.878  1.00  0.00     0.036 C 
HETATM   14  C17 UNL     1      16.853 -23.301 -20.889  1.00  0.00     0.036 C 
HETATM   15  C18 UNL     1      17.559 -22.274 -20.017  1.00  0.00    -0.009 C 
HETATM   16  C19 UNL     1      18.685 -23.190 -19.504  1.00  0.00     0.012 C 
HETATM   17  C23 UNL     1      16.715 -21.818 -18.869  1.00  0.00     0.042 C 
HETATM   18  C20 UNL     1      17.843 -24.328 -18.976  1.00  0.00     0.017 C 
HETATM   19  C21 UNL     1      17.346 -23.902 -17.611  1.00  0.00     0.045 C 
HETATM   20  C22 UNL     1      16.228 -22.970 -18.030  1.00  0.00     0.061 C 
HETATM   21  C24 UNL     1      15.470 -23.912 -18.982  1.00  0.00     0.069 C 
BRANCH  20  22
HETATM   22  O3  UNL     1      15.454 -22.538 -16.986  1.00  0.00    -0.390 OA
ATOM     23  H3  UNL     1      15.588 -21.624 -16.766  1.00  0.00     0.210 HD
ENDBRANCH  20  22
ENDBRANCH  11  13
ENDBRANCH  10  11
ENDBRANCH   9  10
ENDBRANCH   8   9
BRANCH   3  24
HETATM   24  C4  UNL     1      10.826 -24.521 -20.510  1.00  0.00     0.226 C 
HETATM   25  O1  UNL     1       9.654 -24.821 -20.982  1.00  0.00    -0.273 OA
HETATM   26  N1  UNL     1      11.099 -23.141 -20.414  1.00  0.00    -0.345 N 
HETATM   27  C5  UNL     1      10.105 -22.113 -20.809  1.00  0.00     0.126 C 
HETATM   28  C8  UNL     1      12.218 -22.363 -19.993  1.00  0.00     0.110 C 
HETATM   29  C6  UNL     1      10.307 -21.016 -19.770  1.00  0.00     0.022 C 
HETATM   30  C7  UNL     1      11.542 -21.416 -18.988  1.00  0.00     0.029 C 
BRANCH  28  31
HETATM   31  C9  UNL     1      12.756 -21.466 -21.097  1.00  0.00     0.189 C 
BRANCH  31  32
HETATM   32  O2  UNL     1      14.038 -21.021 -20.835  1.00  0.00    -0.399 OA
ATOM     33  H2  UNL     1      14.693 -21.693 -20.987  1.00  0.00     0.209 HD
ENDBRANCH  31  32
ENDBRANCH  28  31
ENDBRANCH   3  24
TORSDOF 8
ENDMDL
MODEL 4
REMARK VINA RESULT: -7.675318071      3.898      6.251
REMARK  8 active torsions:
REMARK  status: ('A' for Active; 'I' for Inactive)
REMARK    1  A    between atoms: C3_3  and  C4_4 
REMARK       I    between atoms: C4_4  and  N1_6 
REMARK    2  A    between atoms: C8_10  and  C9_11 
REMARK    3  A    between atoms: C9_11  and  O2_12 
REMARK    4  A    between atoms: N2_18  and  C14_19 
REMARK    5  A    between atoms: C14_19  and  C15_20 
REMARK    6  A    between atoms: C15_20  and  N3_21 
REMARK    7  A    between atoms: N3_21  and  C16_23 
REMARK    8  A    between atoms: C22_29  and  O3_30 
ROOT
HETATM    1  C1  UNL     1      16.026 -21.908 -23.088  1.00  0.00     0.033 C 
HETATM    2  C2  UNL     1      16.601 -21.146 -21.916  1.00  0.00     0.092 C 
HETATM    3  C3  UNL     1      15.995 -19.758 -21.961  1.00  0.00     0.100 C 
HETATM    4  C10 UNL     1      16.474 -18.885 -20.845  1.00  0.00     0.016 C 
HETATM    5  C11 UNL     1      17.865 -18.371 -21.193  1.00  0.00     0.002 C 
HETATM    6  C12 UNL     1      18.860 -19.221 -20.447  1.00  0.00     0.020 C 
HETATM    7  C13 UNL     1      18.454 -20.667 -20.514  1.00  0.00     0.122 C 
HETATM    8  N2  UNL     1      17.967 -21.109 -21.767  1.00  0.00    -0.384 N 
ENDROOT
BRANCH   8   9
HETATM    9  C14 UNL     1      18.915 -21.666 -22.614  1.00  0.00     0.102 C 
BRANCH   9  10
HETATM   10  C15 UNL     1      19.541 -22.973 -22.165  1.00  0.00     0.100 C 
BRANCH  10  11
HETATM   11  N3  UNL     1      18.771 -24.110 -22.142  1.00  0.00    -0.388 N 
ATOM     12  H3  UNL     1      18.454 -24.440 -23.054  1.00  0.00     0.159 HD
BRANCH  11  13
HETATM   13  C16 UNL     1      18.367 -24.864 -21.072  1.00  0.00     0.036 C 
HETATM   14  C17 UNL     1      18.688 -26.335 -21.087  1.00  0.00     0.036 C 
HETATM   15  C18 UNL     1      17.611 -26.866 -20.153  1.00  0.00    -0.009 C 
HETATM   16  C19 UNL     1      16.396 -26.305 -20.914  1.00  0.00     0.012 C 
HETATM   17  C23 UNL     1      17.681 -26.255 -18.790  1.00  0.00     0.042 C 
HETATM   18  C20 UNL     1      16.817 -24.857 -20.999  1.00  0.00     0.017 C 
HETATM   19  C21 UNL     1      16.477 -24.227 -19.665  1.00  0.00     0.045 C 
HETATM   20  C22 UNL     1      17.634 -24.750 -18.839  1.00  0.00     0.061 C 
HETATM   21  C24 UNL     1      18.797 -24.308 -19.744  1.00  0.00     0.069 C 
BRANCH  20  22
HETATM   22  O3  UNL     1      17.702 -24.205 -17.585  1.00  0.00    -0.390 OA
ATOM     23  H3  UNL     1      18.554 -24.298 -17.176  1.00  0.00     0.210 HD
ENDBRANCH  20  22
ENDBRANCH  11  13
ENDBRANCH  10  11
ENDBRANCH   9  10
ENDBRANCH   8   9
BRANCH   3  24
HETATM   24  C4  UNL     1      14.534 -19.758 -22.047  1.00  0.00     0.226 C 
HETATM   25  O1  UNL     1      13.991 -19.160 -23.065  1.00  0.00    -0.273 OA
HETATM   26  N1  UNL     1      13.627 -20.341 -21.140  1.00  0.00    -0.345 N 
HETATM   27  C5  UNL     1      12.160 -20.287 -21.349  1.00  0.00     0.126 C 
HETATM   28  C8  UNL     1      13.751 -21.055 -19.911  1.00  0.00     0.110 C 
HETATM   29  C6  UNL     1      11.686 -21.651 -20.860  1.00  0.00     0.022 C 
HETATM   30  C7  UNL     1      12.898 -22.298 -20.219  1.00  0.00     0.029 C 
BRANCH  28  31
HETATM   31  C9  UNL     1      13.051 -20.358 -18.755  1.00  0.00     0.189 C 
BRANCH  31  32
HETATM   32  O2  UNL     1      13.814 -19.340 -18.215  1.00  0.00    -0.399 OA
ATOM     33  H2  UNL     1      13.707 -19.267 -17.273  1.00  0.00     0.209 HD
ENDBRANCH  31  32
ENDBRANCH  28  31
ENDBRANCH   3  24
TORSDOF 8
ENDMDL
MODEL 5
REMARK VINA RESULT: -7.640116930      2.258      3.618
REMARK  8 active torsions:
REMARK  status: ('A' for Active; 'I' for Inactive)
REMARK    1  A    between atoms: C3_3  and  C4_4 
REMARK       I    between atoms: C4_4  and  N1_6 
REMARK    2  A    between atoms: C8_10  and  C9_11 
REMARK    3  A    between atoms: C9_11  and  O2_12 
REMARK    4  A    between atoms: N2_18  and  C14_19 
REMARK    5  A    between atoms: C14_19  and  C15_20 
REMARK    6  A    between atoms: C15_20  and  N3_21 
REMARK    7  A    between atoms: N3_21  and  C16_23 
REMARK    8  A    between atoms: C22_29  and  O3_30 
ROOT
HETATM    1  C1  UNL     1      13.686 -25.061 -21.811  1.00  0.00     0.033 C 
HETATM    2  C2  UNL     1      12.766 -26.136 -21.281  1.00  0.00     0.092 C 
HETATM    3  C3  UNL     1      11.983 -25.515 -20.142  1.00  0.00     0.100 C 
HETATM    4  C10 UNL     1      11.018 -26.473 -19.519  1.00  0.00     0.016 C 
HETATM    5  C11 UNL     1      11.787 -27.399 -18.585  1.00  0.00     0.002 C 
HETATM    6  C12 UNL     1      12.010 -28.695 -19.319  1.00  0.00     0.020 C 
HETATM    7  C13 UNL     1      12.403 -28.418 -20.744  1.00  0.00     0.122 C 
HETATM    8  N2  UNL     1      13.311 -27.349 -20.933  1.00  0.00    -0.384 N 
ENDROOT
BRANCH   8   9
HETATM    9  C14 UNL     1      14.653 -27.703 -20.967  1.00  0.00     0.102 C 
BRANCH   9  10
HETATM   10  C15 UNL     1      15.479 -27.348 -19.746  1.00  0.00     0.100 C 
BRANCH  10  11
HETATM   11  N3  UNL     1      16.825 -27.124 -19.891  1.00  0.00    -0.388 N 
ATOM     12  H3  UNL     1      17.393 -27.959 -20.037  1.00  0.00     0.159 HD
BRANCH  11  13
HETATM   13  C16 UNL     1      17.516 -25.941 -19.868  1.00  0.00     0.036 C 
HETATM   14  C17 UNL     1      17.027 -24.858 -18.944  1.00  0.00     0.036 C 
HETATM   15  C18 UNL     1      17.596 -23.626 -19.631  1.00  0.00    -0.009 C 
HETATM   16  C19 UNL     1      16.950 -23.853 -21.011  1.00  0.00     0.012 C 
HETATM   17  C23 UNL     1      19.085 -23.674 -19.756  1.00  0.00     0.042 C 
HETATM   18  C20 UNL     1      17.419 -25.266 -21.262  1.00  0.00     0.017 C 
HETATM   19  C21 UNL     1      18.843 -25.168 -21.765  1.00  0.00     0.045 C 
HETATM   20  C22 UNL     1      19.557 -24.925 -20.451  1.00  0.00     0.061 C 
HETATM   21  C24 UNL     1      18.994 -26.109 -19.646  1.00  0.00     0.069 C 
BRANCH  20  22
HETATM   22  O3  UNL     1      20.922 -24.957 -20.554  1.00  0.00    -0.390 OA
ATOM     23  H3  UNL     1      21.285 -25.834 -20.523  1.00  0.00     0.210 HD
ENDBRANCH  20  22
ENDBRANCH  11  13
ENDBRANCH  10  11
ENDBRANCH   9  10
ENDBRANCH   8   9
BRANCH   3  24
HETATM   24  C4  UNL     1      11.328 -24.256 -20.498  1.00  0.00     0.226 C 
HETATM   25  O1  UNL     1      10.173 -24.323 -21.089  1.00  0.00    -0.273 OA
HETATM   26  N1  UNL     1      11.811 -22.951 -20.271  1.00  0.00    -0.345 N 
HETATM   27  C5  UNL     1      11.040 -21.747 -20.666  1.00  0.00     0.126 C 
HETATM   28  C8  UNL     1      12.996 -22.401 -19.698  1.00  0.00     0.110 C 
HETATM   29  C6  UNL     1      11.317 -20.767 -19.531  1.00  0.00     0.022 C 
HETATM   30  C7  UNL     1      12.389 -21.419 -18.681  1.00  0.00     0.029 C 
BRANCH  28  31
HETATM   31  C9  UNL     1      13.777 -21.540 -20.679  1.00  0.00     0.189 C 
BRANCH  31  32
HETATM   32  O2  UNL     1      14.931 -21.023 -20.121  1.00  0.00    -0.399 OA
ATOM     33  H2  UNL     1      15.643 -21.653 -20.114  1.00  0.00     0.209 HD
ENDBRANCH  31  32
ENDBRANCH  28  31
ENDBRANCH   3  24
TORSDOF 8
ENDMDL
