MODEL 1
REMARK VINA RESULT: -7.263656364      0.000      0.000
REMARK  6 active torsions:
REMARK  status: ('A' for Active; 'I' for Inactive)
REMARK    1  A    between atoms: O1_2  and  N1_3 
REMARK    2  A    between atoms: N1_3  and  C2_5 
REMARK    3  A    between atoms: N2_6  and  C3_7 
REMARK    4  A    between atoms: C6_15  and  C7_16 
REMARK    5  A    between atoms: C12_28  and  O3_29 
REMARK    6  A    between atoms: O3_29  and  C13_30 
ROOT
HETATM    1  C2  UNL     1      17.173 -43.042 -72.575  1.00  0.00     0.145 C 
HETATM    2  N2  UNL     1      17.577 -44.319 -73.026  1.00  0.00    -0.295 N 
HETATM    3  C10 UNL     1      18.451 -43.695 -73.988  1.00  0.00     0.335 C 
HETATM    4  N7  UNL     1      17.988 -43.608 -75.329  1.00  0.00    -0.047 N 
ATOM      5  H71 UNL     1      17.601 -44.428 -75.795  1.00  0.00     0.279 HD
ATOM      6  H72 UNL     1      18.649 -43.493 -76.097  1.00  0.00     0.279 HD
HETATM    7  C11 UNL     1      17.114 -42.501 -74.932  1.00  0.00     0.285 C 
HETATM    8  C12 UNL     1      17.893 -42.369 -73.687  1.00  0.00     0.191 C 
ENDROOT
BRANCH   2   9
HETATM    9  C3  UNL     1      17.298 -45.714 -72.724  1.00  0.00     0.310 C 
HETATM   10  N3  UNL     1      18.530 -46.421 -72.945  1.00  0.00    -0.334 N 
HETATM   11  C4  UNL     1      18.899 -47.559 -73.353  1.00  0.00     0.163 A 
ATOM     12  H3  UNL     1      19.333 -45.840 -72.704  1.00  0.00     0.165 HD
HETATM   13  N4  UNL     1      19.885 -48.427 -73.641  1.00  0.00    -0.242 N 
HETATM   14  C5  UNL     1      18.030 -48.575 -73.756  1.00  0.00     0.168 A 
HETATM   15  O2  UNL     1      19.052 -49.330 -74.000  1.00  0.00    -0.230 OA
ATOM     16  H4  UNL     1      20.903 -48.383 -73.593  1.00  0.00     0.196 HD
HETATM   17  C6  UNL     1      16.706 -48.588 -73.805  1.00  0.00     0.069 C 
HETATM   18  N5  UNL     1      15.882 -47.490 -73.439  1.00  0.00    -0.303 N 
HETATM   19  N6  UNL     1      16.195 -46.130 -73.522  1.00  0.00    -0.295 N 
ATOM     20  H5  UNL     1      14.958 -47.721 -73.074  1.00  0.00     0.186 HD
ATOM     21  H6  UNL     1      15.670 -45.483 -74.111  1.00  0.00     0.184 HD
BRANCH  17  22
HETATM   22  C7  UNL     1      16.007 -49.779 -74.264  1.00  0.00     0.040 A 
HETATM   23  C8  UNL     1      14.651 -49.800 -74.814  1.00  0.00     0.011 A 
HETATM   24  C9  UNL     1      15.786 -49.764 -75.804  1.00  0.00     0.011 A 
ENDBRANCH  17  22
ENDBRANCH   2   9
BRANCH   1  25
HETATM   25  N1  UNL     1      16.474 -42.627 -71.605  1.00  0.00    -0.252 N 
ATOM     26  H1  UNL     1      16.940 -42.271 -70.771  1.00  0.00     0.196 HD
BRANCH  25  27
HETATM   27  O1  UNL     1      15.129 -42.646 -71.649  1.00  0.00    -0.284 OA
HETATM   28  C1  UNL     1      14.304 -43.765 -71.483  1.00  0.00     0.237 C 
ENDBRANCH  25  27
ENDBRANCH   1  25
BRANCH   8  29
HETATM   29  O3  UNL     1      18.585 -41.338 -73.301  1.00  0.00    -0.357 OA
BRANCH  29  30
HETATM   30  C13 UNL     1      19.619 -40.761 -73.912  1.00  0.00     0.052 C 
HETATM   31  C14 UNL     1      19.824 -39.411 -73.184  1.00  0.00     0.045 C 
HETATM   32  C15 UNL     1      20.951 -41.462 -73.779  1.00  0.00     0.045 C 
HETATM   33  C16 UNL     1      19.464 -40.386 -75.361  1.00  0.00     0.045 C 
ENDBRANCH  29  30
ENDBRANCH   8  29
TORSDOF 6
ENDMDL
MODEL 2
REMARK VINA RESULT: -6.914690658      6.222      9.334
REMARK  6 active torsions:
REMARK  status: ('A' for Active; 'I' for Inactive)
REMARK    1  A    between atoms: O1_2  and  N1_3 
REMARK    2  A    between atoms: N1_3  and  C2_5 
REMARK    3  A    between atoms: N2_6  and  C3_7 
REMARK    4  A    between atoms: C6_15  and  C7_16 
REMARK    5  A    between atoms: C12_28  and  O3_29 
REMARK    6  A    between atoms: O3_29  and  C13_30 
ROOT
HETATM    1  C2  UNL     1      24.907 -48.117 -76.452  1.00  0.00     0.145 C 
HETATM    2  N2  UNL     1      24.003 -47.131 -75.994  1.00  0.00    -0.295 N 
HETATM    3  C10 UNL     1      23.958 -46.565 -77.319  1.00  0.00     0.335 C 
HETATM    4  N7  UNL     1      24.754 -45.413 -77.562  1.00  0.00    -0.047 N 
ATOM      5  H71 UNL     1      24.723 -44.620 -76.920  1.00  0.00     0.279 HD
ATOM      6  H72 UNL     1      24.530 -44.785 -78.335  1.00  0.00     0.279 HD
HETATM    7  C11 UNL     1      25.939 -46.270 -77.624  1.00  0.00     0.285 C 
HETATM    8  C12 UNL     1      25.053 -47.440 -77.766  1.00  0.00     0.191 C 
ENDROOT
BRANCH   2   9
HETATM    9  C3  UNL     1      23.342 -46.759 -74.753  1.00  0.00     0.310 C 
HETATM   10  N3  UNL     1      21.999 -46.395 -75.113  1.00  0.00    -0.334 N 
HETATM   11  C4  UNL     1      21.114 -45.577 -74.733  1.00  0.00     0.163 A 
ATOM     12  H3  UNL     1      21.666 -46.957 -75.897  1.00  0.00     0.165 HD
HETATM   13  N4  UNL     1      19.881 -45.054 -74.863  1.00  0.00    -0.242 N 
HETATM   14  C5  UNL     1      21.272 -44.673 -73.680  1.00  0.00     0.168 A 
HETATM   15  O2  UNL     1      20.070 -44.243 -73.890  1.00  0.00    -0.230 OA
ATOM     16  H4  UNL     1      19.099 -45.235 -75.492  1.00  0.00     0.196 HD
HETATM   17  C6  UNL     1      22.313 -44.470 -72.886  1.00  0.00     0.069 C 
HETATM   18  N5  UNL     1      23.539 -45.181 -72.980  1.00  0.00    -0.303 N 
HETATM   19  N6  UNL     1      24.113 -45.738 -74.128  1.00  0.00    -0.295 N 
ATOM     20  H5  UNL     1      24.060 -45.300 -72.111  1.00  0.00     0.186 HD
ATOM     21  H6  UNL     1      25.016 -45.435 -74.490  1.00  0.00     0.184 HD
BRANCH  17  22
HETATM   22  C7  UNL     1      22.245 -43.459 -71.842  1.00  0.00     0.040 A 
HETATM   23  C8  UNL     1      23.400 -42.873 -71.161  1.00  0.00     0.011 A 
HETATM   24  C9  UNL     1      22.824 -42.096 -72.316  1.00  0.00     0.011 A 
ENDBRANCH  17  22
ENDBRANCH   2   9
BRANCH   1  25
HETATM   25  N1  UNL     1      25.401 -49.166 -75.946  1.00  0.00    -0.252 N 
ATOM     26  H1  UNL     1      26.405 -49.211 -75.773  1.00  0.00     0.196 HD
BRANCH  25  27
HETATM   27  O1  UNL     1      24.632 -50.224 -75.631  1.00  0.00    -0.284 OA
HETATM   28  C1  UNL     1      23.857 -50.378 -74.475  1.00  0.00     0.237 C 
ENDBRANCH  25  27
ENDBRANCH   1  25
BRANCH   8  29
HETATM   29  O3  UNL     1      24.990 -48.257 -78.775  1.00  0.00    -0.357 OA
BRANCH  29  30
HETATM   30  C13 UNL     1      25.967 -48.630 -79.599  1.00  0.00     0.052 C 
HETATM   31  C14 UNL     1      25.255 -49.259 -80.821  1.00  0.00     0.045 C 
HETATM   32  C15 UNL     1      26.806 -47.520 -80.188  1.00  0.00     0.045 C 
HETATM   33  C16 UNL     1      26.918 -49.697 -79.130  1.00  0.00     0.045 C 
ENDBRANCH  29  30
ENDBRANCH   8  29
TORSDOF 6
ENDMDL
MODEL 3
REMARK VINA RESULT: -6.837718178      2.570      3.266
REMARK  6 active torsions:
REMARK  status: ('A' for Active; 'I' for Inactive)
REMARK    1  A    between atoms: O1_2  and  N1_3 
REMARK    2  A    between atoms: N1_3  and  C2_5 
REMARK    3  A    between atoms: N2_6  and  C3_7 
REMARK    4  A    between atoms: C6_15  and  C7_16 
REMARK    5  A    between atoms: C12_28  and  O3_29 
REMARK    6  A    between atoms: O3_29  and  C13_30 
ROOT
HETATM    1  C2  UNL     1      19.803 -44.977 -72.519  1.00  0.00     0.145 C 
HETATM    2  N2  UNL     1      19.995 -46.192 -73.214  1.00  0.00    -0.295 N 
HETATM    3  C10 UNL     1      21.354 -45.808 -73.500  1.00  0.00     0.335 C 
HETATM    4  N7  UNL     1      21.624 -45.278 -74.791  1.00  0.00    -0.047 N 
ATOM      5  H71 UNL     1      21.290 -45.760 -75.625  1.00  0.00     0.279 HD
ATOM      6  H72 UNL     1      22.571 -45.297 -75.169  1.00  0.00     0.279 HD
HETATM    7  C11 UNL     1      21.018 -44.012 -74.374  1.00  0.00     0.285 C 
HETATM    8  C12 UNL     1      21.118 -44.456 -72.972  1.00  0.00     0.191 C 
ENDROOT
BRANCH   2   9
HETATM    9  C3  UNL     1      19.226 -47.380 -73.554  1.00  0.00     0.310 C 
HETATM   10  N3  UNL     1      19.046 -47.341 -74.979  1.00  0.00    -0.334 N 
HETATM   11  C4  UNL     1      18.168 -47.678 -75.824  1.00  0.00     0.163 A 
ATOM     12  H3  UNL     1      19.855 -46.923 -75.439  1.00  0.00     0.165 HD
HETATM   13  N4  UNL     1      17.755 -47.761 -77.101  1.00  0.00    -0.242 N 
HETATM   14  C5  UNL     1      16.948 -48.278 -75.500  1.00  0.00     0.168 A 
HETATM   15  O2  UNL     1      16.649 -48.310 -76.759  1.00  0.00    -0.230 OA
ATOM     16  H4  UNL     1      18.164 -47.491 -77.996  1.00  0.00     0.196 HD
HETATM   17  C6  UNL     1      16.455 -48.610 -74.317  1.00  0.00     0.069 C 
HETATM   18  N5  UNL     1      17.123 -48.392 -73.083  1.00  0.00    -0.303 N 
HETATM   19  N6  UNL     1      18.033 -47.375 -72.778  1.00  0.00    -0.295 N 
ATOM     20  H5  UNL     1      16.916 -49.053 -72.334  1.00  0.00     0.186 HD
ATOM     21  H6  UNL     1      17.854 -46.680 -72.053  1.00  0.00     0.184 HD
BRANCH  17  22
HETATM   22  C7  UNL     1      15.144 -49.236 -74.226  1.00  0.00     0.040 A 
HETATM   23  C8  UNL     1      14.208 -49.397 -75.340  1.00  0.00     0.011 A 
HETATM   24  C9  UNL     1      15.086 -50.577 -75.012  1.00  0.00     0.011 A 
ENDBRANCH  17  22
ENDBRANCH   2   9
BRANCH   1  25
HETATM   25  N1  UNL     1      18.877 -44.510 -71.793  1.00  0.00    -0.252 N 
ATOM     26  H1  UNL     1      19.082 -44.257 -70.827  1.00  0.00     0.196 HD
BRANCH  25  27
HETATM   27  O1  UNL     1      17.629 -44.340 -72.267  1.00  0.00    -0.284 OA
HETATM   28  C1  UNL     1      17.276 -43.874 -73.539  1.00  0.00     0.237 C 
ENDBRANCH  25  27
ENDBRANCH   1  25
BRANCH   8  29
HETATM   29  O3  UNL     1      21.805 -43.896 -72.020  1.00  0.00    -0.357 OA
BRANCH  29  30
HETATM   30  C13 UNL     1      22.772 -42.987 -72.123  1.00  0.00     0.052 C 
HETATM   31  C14 UNL     1      23.146 -42.618 -70.667  1.00  0.00     0.045 C 
HETATM   32  C15 UNL     1      24.072 -43.459 -72.732  1.00  0.00     0.045 C 
HETATM   33  C16 UNL     1      22.438 -41.669 -72.769  1.00  0.00     0.045 C 
ENDBRANCH  29  30
ENDBRANCH   8  29
TORSDOF 6
ENDMDL
MODEL 4
REMARK VINA RESULT: -6.837692315      1.939      7.113
REMARK  6 active torsions:
REMARK  status: ('A' for Active; 'I' for Inactive)
REMARK    1  A    between atoms: O1_2  and  N1_3 
REMARK    2  A    between atoms: N1_3  and  C2_5 
REMARK    3  A    between atoms: N2_6  and  C3_7 
REMARK    4  A    between atoms: C6_15  and  C7_16 
REMARK    5  A    between atoms: C12_28  and  O3_29 
REMARK    6  A    between atoms: O3_29  and  C13_30 
ROOT
HETATM    1  C2  UNL     1      17.056 -46.831 -73.705  1.00  0.00     0.145 C 
HETATM    2  N2  UNL     1      18.382 -46.360 -73.576  1.00  0.00    -0.295 N 
HETATM    3  C10 UNL     1      18.819 -47.348 -74.531  1.00  0.00     0.335 C 
HETATM    4  N7  UNL     1      19.420 -48.529 -74.017  1.00  0.00    -0.047 N 
ATOM      5  H71 UNL     1      20.162 -48.468 -73.320  1.00  0.00     0.279 HD
ATOM      6  H72 UNL     1      20.031 -49.095 -74.606  1.00  0.00     0.279 HD
HETATM    7  C11 UNL     1      18.091 -49.017 -73.643  1.00  0.00     0.285 C 
HETATM    8  C12 UNL     1      17.497 -47.991 -74.521  1.00  0.00     0.191 C 
ENDROOT
BRANCH   2   9
HETATM    9  C3  UNL     1      19.102 -45.335 -72.836  1.00  0.00     0.310 C 
HETATM   10  N3  UNL     1      18.706 -44.079 -73.412  1.00  0.00    -0.334 N 
HETATM   11  C4  UNL     1      19.220 -42.947 -73.640  1.00  0.00     0.163 A 
ATOM     12  H3  UNL     1      17.735 -44.110 -73.725  1.00  0.00     0.165 HD
HETATM   13  N4  UNL     1      19.109 -41.695 -74.120  1.00  0.00    -0.242 N 
HETATM   14  C5  UNL     1      20.535 -42.597 -73.324  1.00  0.00     0.168 A 
HETATM   15  O2  UNL     1      20.321 -41.418 -73.811  1.00  0.00    -0.230 OA
ATOM     16  H4  UNL     1      18.353 -41.170 -74.559  1.00  0.00     0.196 HD
HETATM   17  C6  UNL     1      21.489 -43.317 -72.752  1.00  0.00     0.069 C 
HETATM   18  N5  UNL     1      21.333 -44.667 -72.340  1.00  0.00    -0.303 N 
HETATM   19  N6  UNL     1      20.492 -45.634 -72.900  1.00  0.00    -0.295 N 
ATOM     20  H5  UNL     1      21.898 -44.965 -71.544  1.00  0.00     0.186 HD
ATOM     21  H6  UNL     1      20.849 -46.490 -73.323  1.00  0.00     0.184 HD
BRANCH  17  22
HETATM   22  C7  UNL     1      22.800 -42.730 -72.517  1.00  0.00     0.040 A 
HETATM   23  C8  UNL     1      23.039 -41.403 -71.948  1.00  0.00     0.011 A 
HETATM   24  C9  UNL     1      23.100 -42.572 -70.999  1.00  0.00     0.011 A 
ENDBRANCH  17  22
ENDBRANCH   2   9
BRANCH   1  25
HETATM   25  N1  UNL     1      15.930 -46.428 -73.290  1.00  0.00    -0.252 N 
ATOM     26  H1  UNL     1      15.273 -47.102 -72.898  1.00  0.00     0.196 HD
BRANCH  25  27
HETATM   27  O1  UNL     1      15.580 -45.130 -73.355  1.00  0.00    -0.284 OA
HETATM   28  C1  UNL     1      15.368 -44.267 -72.273  1.00  0.00     0.237 C 
ENDBRANCH  25  27
ENDBRANCH   1  25
BRANCH   8  29
HETATM   29  O3  UNL     1      16.757 -48.192 -75.572  1.00  0.00    -0.357 OA
BRANCH  29  30
HETATM   30  C13 UNL     1      15.840 -49.136 -75.768  1.00  0.00     0.052 C 
HETATM   31  C14 UNL     1      14.733 -48.464 -76.615  1.00  0.00     0.045 C 
HETATM   32  C15 UNL     1      16.270 -50.326 -76.595  1.00  0.00     0.045 C 
HETATM   33  C16 UNL     1      15.114 -49.678 -74.566  1.00  0.00     0.045 C 
ENDBRANCH  29  30
ENDBRANCH   8  29
TORSDOF 6
ENDMDL
MODEL 5
REMARK VINA RESULT: -6.633510235      2.839      5.214
REMARK  6 active torsions:
REMARK  status: ('A' for Active; 'I' for Inactive)
REMARK    1  A    between atoms: O1_2  and  N1_3 
REMARK    2  A    between atoms: N1_3  and  C2_5 
REMARK    3  A    between atoms: N2_6  and  C3_7 
REMARK    4  A    between atoms: C6_15  and  C7_16 
REMARK    5  A    between atoms: C12_28  and  O3_29 
REMARK    6  A    between atoms: O3_29  and  C13_30 
ROOT
HETATM    1  C2  UNL     1      16.710 -46.733 -73.334  1.00  0.00     0.145 C 
HETATM    2  N2  UNL     1      18.093 -46.446 -73.272  1.00  0.00    -0.295 N 
HETATM    3  C10 UNL     1      17.794 -45.036 -73.270  1.00  0.00     0.335 C 
HETATM    4  N7  UNL     1      17.926 -44.341 -74.502  1.00  0.00    -0.047 N 
ATOM      5  H71 UNL     1      18.770 -44.445 -75.065  1.00  0.00     0.279 HD
ATOM      6  H72 UNL     1      18.054 -43.328 -74.512  1.00  0.00     0.279 HD
HETATM    7  C11 UNL     1      16.662 -44.931 -74.946  1.00  0.00     0.285 C 
HETATM    8  C12 UNL     1      16.375 -45.303 -73.549  1.00  0.00     0.191 C 
ENDROOT
BRANCH   2   9
HETATM    9  C3  UNL     1      19.351 -47.175 -73.225  1.00  0.00     0.310 C 
HETATM   10  N3  UNL     1      20.367 -46.194 -72.962  1.00  0.00    -0.334 N 
HETATM   11  C4  UNL     1      21.578 -45.992 -73.265  1.00  0.00     0.163 A 
ATOM     12  H3  UNL     1      20.011 -45.450 -72.361  1.00  0.00     0.165 HD
HETATM   13  N4  UNL     1      22.687 -45.236 -73.178  1.00  0.00    -0.242 N 
HETATM   14  C5  UNL     1      22.343 -46.835 -74.074  1.00  0.00     0.168 A 
HETATM   15  O2  UNL     1      23.351 -46.038 -73.924  1.00  0.00    -0.230 OA
ATOM     16  H4  UNL     1      22.913 -44.362 -72.702  1.00  0.00     0.196 HD
HETATM   17  C6  UNL     1      22.006 -47.966 -74.677  1.00  0.00     0.069 C 
HETATM   18  N5  UNL     1      20.715 -48.555 -74.606  1.00  0.00    -0.303 N 
HETATM   19  N6  UNL     1      19.491 -47.899 -74.443  1.00  0.00    -0.295 N 
ATOM     20  H5  UNL     1      20.677 -49.571 -74.683  1.00  0.00     0.186 HD
ATOM     21  H6  UNL     1      18.752 -47.937 -75.146  1.00  0.00     0.184 HD
BRANCH  17  22
HETATM   22  C7  UNL     1      22.986 -48.682 -75.479  1.00  0.00     0.040 A 
HETATM   23  C8  UNL     1      24.401 -48.836 -75.139  1.00  0.00     0.011 A 
HETATM   24  C9  UNL     1      23.485 -49.972 -74.767  1.00  0.00     0.011 A 
ENDBRANCH  17  22
ENDBRANCH   2   9
BRANCH   1  25
HETATM   25  N1  UNL     1      16.022 -47.792 -73.242  1.00  0.00    -0.252 N 
ATOM     26  H1  UNL     1      15.127 -47.763 -72.756  1.00  0.00     0.196 HD
BRANCH  25  27
HETATM   27  O1  UNL     1      16.446 -48.954 -73.772  1.00  0.00    -0.284 OA
HETATM   28  C1  UNL     1      16.238 -49.399 -75.083  1.00  0.00     0.237 C 
ENDBRANCH  25  27
ENDBRANCH   1  25
BRANCH   8  29
HETATM   29  O3  UNL     1      15.381 -44.892 -72.817  1.00  0.00    -0.357 OA
BRANCH  29  30
HETATM   30  C13 UNL     1      14.993 -43.642 -72.576  1.00  0.00     0.052 C 
HETATM   31  C14 UNL     1      13.991 -43.742 -71.401  1.00  0.00     0.045 C 
HETATM   32  C15 UNL     1      16.059 -42.695 -72.076  1.00  0.00     0.045 C 
HETATM   33  C16 UNL     1      14.234 -42.917 -73.655  1.00  0.00     0.045 C 
ENDBRANCH  29  30
ENDBRANCH   8  29
TORSDOF 6
ENDMDL
