MODEL 1
REMARK VINA RESULT: -6.313241751      0.000      0.000
REMARK  6 active torsions:
REMARK  status: ('A' for Active; 'I' for Inactive)
REMARK    1  A    between atoms: C2_2  and  C3_3 
REMARK    2  A    between atoms: C3_3  and  C4_5 
REMARK    3  A    between atoms: C4_5  and  N1_6 
REMARK    4  A    between atoms: C8_10  and  N2_11 
REMARK    5  A    between atoms: N2_11  and  C9_13 
REMARK    6  A    between atoms: C11_15  and  C12_16 
ROOT
HETATM    1  N2  UNL     1      31.456  13.786  54.697  1.00  0.00    -0.371 N 
ATOM      2  H2  UNL     1      32.267  13.225  54.959  1.00  0.00     0.161 HD
ENDROOT
BRANCH   1   3
HETATM    3  C8  UNL     1      30.306  13.099  54.169  1.00  0.00     0.084 C 
HETATM    4  C7  UNL     1      30.519  11.604  54.097  1.00  0.00     0.027 C 
HETATM    5  C6  UNL     1      29.604  11.078  52.994  1.00  0.00     0.032 C 
HETATM    6  C5  UNL     1      28.280  10.630  53.569  1.00  0.00     0.273 C 
HETATM    7  N1  UNL     1      28.141  11.171  54.931  1.00  0.00     0.095 N 
HETATM    8  C17 UNL     1      27.933  12.579  54.768  1.00  0.00     0.275 C 
HETATM    9  C16 UNL     1      29.171  13.318  55.153  1.00  0.00     0.055 C 
BRANCH   7  10
HETATM   10  C4  UNL     1      27.073  10.530  55.604  1.00  0.00     0.350 C 
BRANCH  10  11
HETATM   11  C3  UNL     1      27.480   9.764  56.793  1.00  0.00     0.154 C 
HETATM   12  O1  UNL     1      28.334   8.904  56.853  1.00  0.00    -0.296 OA
BRANCH  11  13
HETATM   13  C2  UNL     1      26.786  10.045  58.110  1.00  0.00     0.076 C 
HETATM   14  C1  UNL     1      26.675  11.557  58.201  1.00  0.00     0.013 C 
ENDBRANCH  11  13
ENDBRANCH  10  11
ENDBRANCH   7  10
ENDBRANCH   1   3
BRANCH   1  15
HETATM   15  C9  UNL     1      31.534  15.198  54.879  1.00  0.00     0.117 A 
HETATM   16  C10 UNL     1      31.954  15.818  56.040  1.00  0.00     0.076 A 
HETATM   17  C11 UNL     1      31.915  17.202  55.876  1.00  0.00     0.037 A 
HETATM   18  N3  UNL     1      31.468  17.375  54.613  1.00  0.00    -0.302 N 
HETATM   19  N4  UNL     1      31.245  16.203  54.033  1.00  0.00    -0.286 N 
ATOM     20  H3  UNL     1      31.321  18.281  54.167  1.00  0.00     0.186 HD
ATOM     21  H4  UNL     1      30.901  16.080  53.080  1.00  0.00     0.188 HD
BRANCH  17  22
HETATM   22  C12 UNL     1      32.305  18.247  56.862  1.00  0.00    -0.007 C 
HETATM   23  C13 UNL     1      32.459  17.559  58.218  1.00  0.00     0.021 C 
HETATM   24  C14 UNL     1      33.625  18.873  56.459  1.00  0.00     0.021 C 
HETATM   25  C15 UNL     1      31.222  19.285  57.020  1.00  0.00     0.021 C 
ENDBRANCH  17  22
ENDBRANCH   1  15
TORSDOF 6
ENDMDL
MODEL 2
REMARK VINA RESULT: -6.237436169      1.073      1.231
REMARK  6 active torsions:
REMARK  status: ('A' for Active; 'I' for Inactive)
REMARK    1  A    between atoms: C2_2  and  C3_3 
REMARK    2  A    between atoms: C3_3  and  C4_5 
REMARK    3  A    between atoms: C4_5  and  N1_6 
REMARK    4  A    between atoms: C8_10  and  N2_11 
REMARK    5  A    between atoms: N2_11  and  C9_13 
REMARK    6  A    between atoms: C11_15  and  C12_16 
ROOT
HETATM    1  N2  UNL     1      31.320  14.043  54.774  1.00  0.00    -0.371 N 
ATOM      2  H2  UNL     1      32.128  13.436  54.917  1.00  0.00     0.161 HD
ENDROOT
BRANCH   1   3
HETATM    3  C8  UNL     1      30.082  13.429  54.371  1.00  0.00     0.084 C 
HETATM    4  C7  UNL     1      30.111  11.927  54.534  1.00  0.00     0.027 C 
HETATM    5  C6  UNL     1      29.109  11.352  53.536  1.00  0.00     0.032 C 
HETATM    6  C5  UNL     1      27.757  11.166  54.186  1.00  0.00     0.273 C 
HETATM    7  N1  UNL     1      27.721  11.928  55.445  1.00  0.00     0.095 N 
HETATM    8  C17 UNL     1      27.681  13.307  55.063  1.00  0.00     0.275 C 
HETATM    9  C16 UNL     1      29.009  13.938  55.316  1.00  0.00     0.055 C 
BRANCH   7  10
HETATM   10  C4  UNL     1      26.602  11.536  56.220  1.00  0.00     0.350 C 
BRANCH  10  11
HETATM   11  C3  UNL     1      26.903  11.302  57.641  1.00  0.00     0.154 C 
HETATM   12  O1  UNL     1      26.569  11.989  58.583  1.00  0.00    -0.296 OA
BRANCH  11  13
HETATM   13  C2  UNL     1      27.717  10.080  58.019  1.00  0.00     0.076 C 
HETATM   14  C1  UNL     1      26.707   8.973  58.260  1.00  0.00     0.013 C 
ENDBRANCH  11  13
ENDBRANCH  10  11
ENDBRANCH   7  10
ENDBRANCH   1   3
BRANCH   1  15
HETATM   15  C9  UNL     1      31.492  15.442  54.986  1.00  0.00     0.117 A 
HETATM   16  C10 UNL     1      31.885  16.013  56.181  1.00  0.00     0.076 A 
HETATM   17  C11 UNL     1      31.958  17.398  56.041  1.00  0.00     0.037 A 
HETATM   18  N3  UNL     1      31.601  17.622  54.757  1.00  0.00    -0.302 N 
HETATM   19  N4  UNL     1      31.328  16.478  54.143  1.00  0.00    -0.286 N 
ATOM     20  H3  UNL     1      31.549  18.542  54.321  1.00  0.00     0.186 HD
ATOM     21  H4  UNL     1      31.035  16.395  53.169  1.00  0.00     0.188 HD
BRANCH  17  22
HETATM   22  C12 UNL     1      32.364  18.397  57.068  1.00  0.00    -0.007 C 
HETATM   23  C13 UNL     1      32.431  17.668  58.410  1.00  0.00     0.021 C 
HETATM   24  C14 UNL     1      33.728  18.963  56.730  1.00  0.00     0.021 C 
HETATM   25  C15 UNL     1      31.330  19.485  57.214  1.00  0.00     0.021 C 
ENDBRANCH  17  22
ENDBRANCH   1  15
TORSDOF 6
ENDMDL
MODEL 3
REMARK VINA RESULT: -6.184449357      1.504      1.940
REMARK  6 active torsions:
REMARK  status: ('A' for Active; 'I' for Inactive)
REMARK    1  A    between atoms: C2_2  and  C3_3 
REMARK    2  A    between atoms: C3_3  and  C4_5 
REMARK    3  A    between atoms: C4_5  and  N1_6 
REMARK    4  A    between atoms: C8_10  and  N2_11 
REMARK    5  A    between atoms: N2_11  and  C9_13 
REMARK    6  A    between atoms: C11_15  and  C12_16 
ROOT
HETATM    1  N2  UNL     1      30.777  14.154  54.333  1.00  0.00    -0.371 N 
ATOM      2  H2  UNL     1      31.305  14.485  53.525  1.00  0.00     0.161 HD
ENDROOT
BRANCH   1   3
HETATM    3  C8  UNL     1      30.328  12.786  54.329  1.00  0.00     0.084 C 
HETATM    4  C7  UNL     1      30.453  12.142  55.691  1.00  0.00     0.027 C 
HETATM    5  C6  UNL     1      30.588  10.639  55.460  1.00  0.00     0.032 C 
HETATM    6  C5  UNL     1      29.236   9.967  55.520  1.00  0.00     0.273 C 
HETATM    7  N1  UNL     1      28.185  10.992  55.412  1.00  0.00     0.095 N 
HETATM    8  C17 UNL     1      28.230  11.451  54.057  1.00  0.00     0.275 C 
HETATM    9  C16 UNL     1      28.845  12.810  54.005  1.00  0.00     0.055 C 
BRANCH   7  10
HETATM   10  C4  UNL     1      26.930  10.443  55.769  1.00  0.00     0.350 C 
BRANCH  10  11
HETATM   11  C3  UNL     1      26.688  10.378  57.219  1.00  0.00     0.154 C 
HETATM   12  O1  UNL     1      26.143   9.484  57.831  1.00  0.00    -0.296 OA
BRANCH  11  13
HETATM   13  C2  UNL     1      27.154  11.532  58.085  1.00  0.00     0.076 C 
HETATM   14  C1  UNL     1      26.363  12.741  57.617  1.00  0.00     0.013 C 
ENDBRANCH  11  13
ENDBRANCH  10  11
ENDBRANCH   7  10
ENDBRANCH   1   3
BRANCH   1  15
HETATM   15  C9  UNL     1      30.532  15.077  55.393  1.00  0.00     0.117 A 
HETATM   16  C10 UNL     1      31.500  15.858  55.993  1.00  0.00     0.076 A 
HETATM   17  C11 UNL     1      30.921  16.648  56.985  1.00  0.00     0.037 A 
HETATM   18  N3  UNL     1      29.613  16.314  56.954  1.00  0.00    -0.302 N 
HETATM   19  N4  UNL     1      29.388  15.395  56.024  1.00  0.00    -0.286 N 
ATOM     20  H3  UNL     1      28.897  16.712  57.562  1.00  0.00     0.186 HD
ATOM     21  H4  UNL     1      28.476  14.987  55.816  1.00  0.00     0.188 HD
BRANCH  17  22
HETATM   22  C12 UNL     1      31.593  17.650  57.859  1.00  0.00    -0.007 C 
HETATM   23  C13 UNL     1      31.113  19.032  57.419  1.00  0.00     0.021 C 
HETATM   24  C14 UNL     1      31.206  17.416  59.306  1.00  0.00     0.021 C 
HETATM   25  C15 UNL     1      33.089  17.626  57.671  1.00  0.00     0.021 C 
ENDBRANCH  17  22
ENDBRANCH   1  15
TORSDOF 6
ENDMDL
MODEL 4
REMARK VINA RESULT: -6.101191283      1.272      1.880
REMARK  6 active torsions:
REMARK  status: ('A' for Active; 'I' for Inactive)
REMARK    1  A    between atoms: C2_2  and  C3_3 
REMARK    2  A    between atoms: C3_3  and  C4_5 
REMARK    3  A    between atoms: C4_5  and  N1_6 
REMARK    4  A    between atoms: C8_10  and  N2_11 
REMARK    5  A    between atoms: N2_11  and  C9_13 
REMARK    6  A    between atoms: C11_15  and  C12_16 
ROOT
HETATM    1  N2  UNL     1      30.526  14.682  54.653  1.00  0.00    -0.371 N 
ATOM      2  H2  UNL     1      30.722  14.251  53.750  1.00  0.00     0.161 HD
ENDROOT
BRANCH   1   3
HETATM    3  C8  UNL     1      29.668  13.972  55.565  1.00  0.00     0.084 C 
HETATM    4  C7  UNL     1      28.214  14.049  55.156  1.00  0.00     0.027 C 
HETATM    5  C6  UNL     1      27.386  13.870  56.426  1.00  0.00     0.032 C 
HETATM    6  C5  UNL     1      27.015  12.418  56.619  1.00  0.00     0.273 C 
HETATM    7  N1  UNL     1      27.862  11.586  55.747  1.00  0.00     0.095 N 
HETATM    8  C17 UNL     1      29.174  11.638  56.318  1.00  0.00     0.275 C 
HETATM    9  C16 UNL     1      30.053  12.506  55.482  1.00  0.00     0.055 C 
BRANCH   7  10
HETATM   10  C4  UNL     1      27.342  10.271  55.674  1.00  0.00     0.350 C 
BRANCH  10  11
HETATM   11  C3  UNL     1      28.084   9.282  56.472  1.00  0.00     0.154 C 
HETATM   12  O1  UNL     1      29.029   8.612  56.112  1.00  0.00    -0.296 OA
BRANCH  11  13
HETATM   13  C2  UNL     1      27.657   9.040  57.906  1.00  0.00     0.076 C 
HETATM   14  C1  UNL     1      26.139   9.054  57.890  1.00  0.00     0.013 C 
ENDBRANCH  11  13
ENDBRANCH  10  11
ENDBRANCH   7  10
ENDBRANCH   1   3
BRANCH   1  15
HETATM   15  C9  UNL     1      31.119  15.949  54.931  1.00  0.00     0.117 A 
HETATM   16  C10 UNL     1      31.559  16.354  56.176  1.00  0.00     0.076 A 
HETATM   17  C11 UNL     1      32.090  17.641  56.093  1.00  0.00     0.037 A 
HETATM   18  N3  UNL     1      31.949  17.975  54.792  1.00  0.00    -0.302 N 
HETATM   19  N4  UNL     1      31.381  16.986  54.115  1.00  0.00    -0.286 N 
ATOM     20  H3  UNL     1      32.239  18.865  54.387  1.00  0.00     0.186 HD
ATOM     21  H4  UNL     1      31.172  17.008  53.117  1.00  0.00     0.188 HD
BRANCH  17  22
HETATM   22  C12 UNL     1      32.695  18.448  57.189  1.00  0.00    -0.007 C 
HETATM   23  C13 UNL     1      32.715  17.574  58.441  1.00  0.00     0.021 C 
HETATM   24  C14 UNL     1      34.113  18.838  56.821  1.00  0.00     0.021 C 
HETATM   25  C15 UNL     1      31.851  19.655  57.512  1.00  0.00     0.021 C 
ENDBRANCH  17  22
ENDBRANCH   1  15
TORSDOF 6
ENDMDL
MODEL 5
REMARK VINA RESULT: -6.044467533      1.433      1.705
REMARK  6 active torsions:
REMARK  status: ('A' for Active; 'I' for Inactive)
REMARK    1  A    between atoms: C2_2  and  C3_3 
REMARK    2  A    between atoms: C3_3  and  C4_5 
REMARK    3  A    between atoms: C4_5  and  N1_6 
REMARK    4  A    between atoms: C8_10  and  N2_11 
REMARK    5  A    between atoms: N2_11  and  C9_13 
REMARK    6  A    between atoms: C11_15  and  C12_16 
ROOT
HETATM    1  N2  UNL     1      29.791  15.088  55.444  1.00  0.00    -0.371 N 
ATOM      2  H2  UNL     1      29.168  15.482  56.150  1.00  0.00     0.161 HD
ENDROOT
BRANCH   1   3
HETATM    3  C8  UNL     1      29.362  13.894  54.762  1.00  0.00     0.084 C 
HETATM    4  C7  UNL     1      30.077  12.662  55.267  1.00  0.00     0.027 C 
HETATM    5  C6  UNL     1      30.065  11.644  54.129  1.00  0.00     0.032 C 
HETATM    6  C5  UNL     1      28.874  10.722  54.252  1.00  0.00     0.273 C 
HETATM    7  N1  UNL     1      27.908  11.310  55.195  1.00  0.00     0.095 N 
HETATM    8  C17 UNL     1      27.343  12.438  54.518  1.00  0.00     0.275 C 
HETATM    9  C16 UNL     1      27.894  13.699  55.094  1.00  0.00     0.055 C 
BRANCH   7  10
HETATM   10  C4  UNL     1      26.940  10.345  55.565  1.00  0.00     0.350 C 
BRANCH  10  11
HETATM   11  C3  UNL     1      26.795  10.160  57.017  1.00  0.00     0.154 C 
HETATM   12  O1  UNL     1      26.194   9.272  57.586  1.00  0.00    -0.296 OA
BRANCH  11  13
HETATM   13  C2  UNL     1      27.451  11.162  57.946  1.00  0.00     0.076 C 
HETATM   14  C1  UNL     1      26.383  12.198  58.252  1.00  0.00     0.013 C 
ENDBRANCH  11  13
ENDBRANCH  10  11
ENDBRANCH   7  10
ENDBRANCH   1   3
BRANCH   1  15
HETATM   15  C9  UNL     1      31.027  15.754  55.197  1.00  0.00     0.117 A 
HETATM   16  C10 UNL     1      32.028  15.924  56.134  1.00  0.00     0.076 A 
HETATM   17  C11 UNL     1      33.098  16.611  55.562  1.00  0.00     0.037 A 
HETATM   18  N3  UNL     1      32.705  16.838  54.290  1.00  0.00    -0.302 N 
HETATM   19  N4  UNL     1      31.494  16.337  54.079  1.00  0.00    -0.286 N 
ATOM     20  H3  UNL     1      33.261  17.327  53.588  1.00  0.00     0.186 HD
ATOM     21  H4  UNL     1      30.989  16.388  53.194  1.00  0.00     0.188 HD
BRANCH  17  22
HETATM   22  C12 UNL     1      34.389  16.983  56.205  1.00  0.00    -0.007 C 
HETATM   23  C13 UNL     1      34.187  16.892  57.717  1.00  0.00     0.021 C 
HETATM   24  C14 UNL     1      35.476  16.018  55.779  1.00  0.00     0.021 C 
HETATM   25  C15 UNL     1      34.761  18.412  55.899  1.00  0.00     0.021 C 
ENDBRANCH  17  22
ENDBRANCH   1  15
TORSDOF 6
ENDMDL
