MODEL 1
REMARK VINA RESULT: -6.918482409      0.000      0.000
REMARK  11 active torsions:
REMARK  status: ('A' for Active; 'I' for Inactive)
REMARK    1  A    between atoms: C2_2  and  O1_3 
REMARK    2  A    between atoms: O1_3  and  C3_4 
REMARK    3  A    between atoms: C5_7  and  O3_8 
REMARK    4  A    between atoms: O3_8  and  C6_9 
REMARK    5  A    between atoms: C20_23  and  C21_24 
REMARK    6  A    between atoms: C21_24  and  C23_26 
REMARK    7  A    between atoms: C23_26  and  C24_27 
REMARK    8  A    between atoms: C24_27  and  C25_28 
REMARK    9  A    between atoms: C25_28  and  C26_29 
REMARK   10  A    between atoms: C33_36  and  O4_37 
REMARK   11  A    between atoms: C34_39  and  O5_40 
ROOT
HETATM    1  C6  UNL     1      19.660  -1.762  14.309  1.00  0.00     0.122 C 
HETATM    2  C7  UNL     1      20.377  -1.532  13.032  1.00  0.00     0.033 C 
HETATM    3  C8  UNL     1      19.580  -0.890  11.948  1.00  0.00     0.012 C 
HETATM    4  C9  UNL     1      19.009   0.422  12.516  1.00  0.00    -0.036 C 
HETATM    5  C10 UNL     1      20.190   1.142  13.116  1.00  0.00     0.016 C 
HETATM    6  C11 UNL     1      17.998  -0.022  13.548  1.00  0.00    -0.004 C 
HETATM    7  C12 UNL     1      17.153   1.070  14.105  1.00  0.00     0.006 C 
HETATM    8  C13 UNL     1      17.034   2.275  13.200  1.00  0.00     0.006 C 
HETATM    9  C14 UNL     1      17.032   1.740  11.776  1.00  0.00    -0.005 C 
HETATM   10  C15 UNL     1      18.371   1.161  11.388  1.00  0.00    -0.002 C 
HETATM   11  C16 UNL     1      19.209   2.251  10.801  1.00  0.00     0.006 C 
HETATM   12  C17 UNL     1      18.469   2.711   9.517  1.00  0.00     0.010 C 
HETATM   13  C18 UNL     1      17.342   3.534   9.990  1.00  0.00    -0.036 C 
HETATM   14  C19 UNL     1      17.822   4.750  10.788  1.00  0.00     0.016 C 
HETATM   15  C20 UNL     1      16.366   4.065   8.983  1.00  0.00    -0.002 C 
HETATM   16  C29 UNL     1      15.380   2.952   8.718  1.00  0.00     0.006 C 
HETATM   17  C30 UNL     1      15.693   1.865   9.757  1.00  0.00     0.006 C 
HETATM   18  C31 UNL     1      16.430   2.667  10.821  1.00  0.00    -0.002 C 
HETATM   19  C32 UNL     1      18.620  -0.773  14.666  1.00  0.00     0.037 C 
ENDROOT
BRANCH   1  20
HETATM   20  O3  UNL     1      20.616  -1.750  15.353  1.00  0.00    -0.376 OA
BRANCH  20  21
HETATM   21  C5  UNL     1      20.119  -2.225  16.539  1.00  0.00     0.177 C 
HETATM   22  C4  UNL     1      20.912  -3.463  16.923  1.00  0.00     0.205 C 
HETATM   23  O2  UNL     1      21.400  -3.388  18.227  1.00  0.00    -0.356 OA
HETATM   24  C3  UNL     1      20.408  -3.086  19.153  1.00  0.00     0.290 C 
HETATM   25  C34 UNL     1      20.039  -1.634  18.980  1.00  0.00     0.204 C 
HETATM   26  C33 UNL     1      20.447  -1.176  17.605  1.00  0.00     0.182 C 
BRANCH  24  27
HETATM   27  O1  UNL     1      19.314  -3.922  19.079  1.00  0.00    -0.359 OA
BRANCH  27  28
HETATM   28  C2  UNL     1      19.381  -4.885  20.111  1.00  0.00     0.166 C 
HETATM   29  C1  UNL     1      18.533  -4.493  21.279  1.00  0.00     0.033 C 
ENDBRANCH  27  28
ENDBRANCH  24  27
BRANCH  25  30
HETATM   30  O5  UNL     1      18.672  -1.512  19.209  1.00  0.00    -0.388 OA
ATOM     31  H5  UNL     1      18.276  -1.158  18.421  1.00  0.00     0.210 HD
ENDBRANCH  25  30
BRANCH  26  32
HETATM   32  O4  UNL     1      21.842  -1.022  17.599  1.00  0.00    -0.390 OA
ATOM     33  H4  UNL     1      22.093  -0.796  18.487  1.00  0.00     0.210 HD
ENDBRANCH  26  32
ENDBRANCH  20  21
ENDBRANCH   1  20
BRANCH  15  34
HETATM   34  C21 UNL     1      16.894   4.763   7.804  1.00  0.00    -0.014 C 
HETATM   35  C22 UNL     1      16.862   4.020   6.497  1.00  0.00     0.010 C 
BRANCH  34  36
HETATM   36  C23 UNL     1      16.452   6.169   7.560  1.00  0.00     0.005 C 
BRANCH  36  37
HETATM   37  C24 UNL     1      15.577   6.813   8.554  1.00  0.00     0.001 C 
BRANCH  37  38
HETATM   38  C25 UNL     1      14.198   7.026   7.929  1.00  0.00     0.004 C 
BRANCH  38  39
HETATM   39  C26 UNL     1      13.302   5.823   8.056  1.00  0.00    -0.023 C 
HETATM   40  C27 UNL     1      12.895   5.417   6.657  1.00  0.00     0.009 C 
HETATM   41  C28 UNL     1      12.001   6.235   8.765  1.00  0.00     0.009 C 
ENDBRANCH  38  39
ENDBRANCH  37  38
ENDBRANCH  36  37
ENDBRANCH  34  36
ENDBRANCH  15  34
TORSDOF 11
ENDMDL
MODEL 2
REMARK VINA RESULT: -6.682411499      3.395      6.251
REMARK  11 active torsions:
REMARK  status: ('A' for Active; 'I' for Inactive)
REMARK    1  A    between atoms: C2_2  and  O1_3 
REMARK    2  A    between atoms: O1_3  and  C3_4 
REMARK    3  A    between atoms: C5_7  and  O3_8 
REMARK    4  A    between atoms: O3_8  and  C6_9 
REMARK    5  A    between atoms: C20_23  and  C21_24 
REMARK    6  A    between atoms: C21_24  and  C23_26 
REMARK    7  A    between atoms: C23_26  and  C24_27 
REMARK    8  A    between atoms: C24_27  and  C25_28 
REMARK    9  A    between atoms: C25_28  and  C26_29 
REMARK   10  A    between atoms: C33_36  and  O4_37 
REMARK   11  A    between atoms: C34_39  and  O5_40 
ROOT
HETATM    1  C6  UNL     1      22.009  -2.059  20.157  1.00  0.00     0.122 C 
HETATM    2  C7  UNL     1      22.043  -0.625  19.784  1.00  0.00     0.033 C 
HETATM    3  C8  UNL     1      22.009  -0.335  18.322  1.00  0.00     0.012 C 
HETATM    4  C9  UNL     1      20.765  -1.036  17.746  1.00  0.00    -0.036 C 
HETATM    5  C10 UNL     1      19.622  -0.607  18.630  1.00  0.00     0.016 C 
HETATM    6  C11 UNL     1      21.080  -2.510  17.855  1.00  0.00    -0.004 C 
HETATM    7  C12 UNL     1      20.108  -3.408  17.172  1.00  0.00     0.006 C 
HETATM    8  C13 UNL     1      19.335  -2.741  16.057  1.00  0.00     0.006 C 
HETATM    9  C14 UNL     1      20.292  -1.752  15.410  1.00  0.00    -0.005 C 
HETATM   10  C15 UNL     1      20.619  -0.598  16.327  1.00  0.00    -0.002 C 
HETATM   11  C16 UNL     1      19.612   0.485  16.108  1.00  0.00     0.006 C 
HETATM   12  C17 UNL     1      19.796   0.945  14.638  1.00  0.00     0.010 C 
HETATM   13  C18 UNL     1      19.166  -0.105  13.819  1.00  0.00    -0.036 C 
HETATM   14  C19 UNL     1      17.677  -0.262  14.141  1.00  0.00     0.016 C 
HETATM   15  C20 UNL     1      19.252  -0.003  12.326  1.00  0.00    -0.002 C 
HETATM   16  C29 UNL     1      20.596  -0.571  11.936  1.00  0.00     0.006 C 
HETATM   17  C30 UNL     1      21.169  -1.194  13.218  1.00  0.00     0.006 C 
HETATM   18  C31 UNL     1      19.907  -1.399  14.045  1.00  0.00    -0.002 C 
HETATM   19  C32 UNL     1      21.245  -2.953  19.261  1.00  0.00     0.037 C 
ENDROOT
BRANCH   1  20
HETATM   20  O3  UNL     1      21.421  -2.160  21.441  1.00  0.00    -0.376 OA
BRANCH  20  21
HETATM   21  C5  UNL     1      22.180  -2.887  22.322  1.00  0.00     0.177 C 
HETATM   22  C4  UNL     1      23.119  -1.931  23.038  1.00  0.00     0.205 C 
HETATM   23  O2  UNL     1      23.050  -2.071  24.423  1.00  0.00    -0.356 OA
HETATM   24  C3  UNL     1      23.215  -3.387  24.838  1.00  0.00     0.290 C 
HETATM   25  C34 UNL     1      21.961  -4.146  24.485  1.00  0.00     0.204 C 
HETATM   26  C33 UNL     1      21.224  -3.412  23.396  1.00  0.00     0.182 C 
BRANCH  24  27
HETATM   27  O1  UNL     1      24.353  -3.983  24.335  1.00  0.00    -0.359 OA
BRANCH  27  28
HETATM   28  C2  UNL     1      25.286  -4.181  25.378  1.00  0.00     0.166 C 
HETATM   29  C1  UNL     1      26.490  -4.926  24.897  1.00  0.00     0.033 C 
ENDBRANCH  27  28
ENDBRANCH  24  27
BRANCH  25  30
HETATM   30  O5  UNL     1      22.332  -5.434  24.115  1.00  0.00    -0.388 OA
ATOM     31  H5  UNL     1      21.565  -5.989  24.184  1.00  0.00     0.210 HD
ENDBRANCH  25  30
BRANCH  26  32
HETATM   32  O4  UNL     1      20.613  -2.287  23.973  1.00  0.00    -0.390 OA
ATOM     33  H4  UNL     1      19.733  -2.551  24.214  1.00  0.00     0.210 HD
ENDBRANCH  26  32
ENDBRANCH  20  21
ENDBRANCH   1  20
BRANCH  15  34
HETATM   34  C21 UNL     1      18.873   1.267  11.694  1.00  0.00    -0.014 C 
HETATM   35  C22 UNL     1      19.907   1.938  10.832  1.00  0.00     0.010 C 
BRANCH  34  36
HETATM   36  C23 UNL     1      17.555   1.342  10.995  1.00  0.00     0.005 C 
BRANCH  36  37
HETATM   37  C24 UNL     1      16.709   2.527  11.215  1.00  0.00     0.001 C 
BRANCH  37  38
HETATM   38  C25 UNL     1      16.376   3.152   9.859  1.00  0.00     0.004 C 
BRANCH  38  39
HETATM   39  C26 UNL     1      17.226   4.353   9.540  1.00  0.00    -0.023 C 
HETATM   40  C27 UNL     1      17.698   4.930  10.856  1.00  0.00     0.009 C 
HETATM   41  C28 UNL     1      16.345   5.440   8.901  1.00  0.00     0.009 C 
ENDBRANCH  38  39
ENDBRANCH  37  38
ENDBRANCH  36  37
ENDBRANCH  34  36
ENDBRANCH  15  34
TORSDOF 11
ENDMDL
MODEL 3
REMARK VINA RESULT: -6.677467242      2.796      4.882
REMARK  11 active torsions:
REMARK  status: ('A' for Active; 'I' for Inactive)
REMARK    1  A    between atoms: C2_2  and  O1_3 
REMARK    2  A    between atoms: O1_3  and  C3_4 
REMARK    3  A    between atoms: C5_7  and  O3_8 
REMARK    4  A    between atoms: O3_8  and  C6_9 
REMARK    5  A    between atoms: C20_23  and  C21_24 
REMARK    6  A    between atoms: C21_24  and  C23_26 
REMARK    7  A    between atoms: C23_26  and  C24_27 
REMARK    8  A    between atoms: C24_27  and  C25_28 
REMARK    9  A    between atoms: C25_28  and  C26_29 
REMARK   10  A    between atoms: C33_36  and  O4_37 
REMARK   11  A    between atoms: C34_39  and  O5_40 
ROOT
HETATM    1  C6  UNL     1      20.740  -1.005  19.593  1.00  0.00     0.122 C 
HETATM    2  C7  UNL     1      20.406  -2.073  18.620  1.00  0.00     0.033 C 
HETATM    3  C8  UNL     1      19.477  -1.682  17.522  1.00  0.00     0.012 C 
HETATM    4  C9  UNL     1      20.087  -0.454  16.822  1.00  0.00    -0.036 C 
HETATM    5  C10 UNL     1      21.509  -0.843  16.507  1.00  0.00     0.016 C 
HETATM    6  C11 UNL     1      19.986   0.652  17.846  1.00  0.00    -0.004 C 
HETATM    7  C12 UNL     1      20.330   2.009  17.336  1.00  0.00     0.006 C 
HETATM    8  C13 UNL     1      20.170   2.160  15.841  1.00  0.00     0.006 C 
HETATM    9  C14 UNL     1      18.976   1.301  15.451  1.00  0.00    -0.005 C 
HETATM   10  C15 UNL     1      19.264  -0.172  15.610  1.00  0.00    -0.002 C 
HETATM   11  C16 UNL     1      19.842  -0.685  14.330  1.00  0.00     0.006 C 
HETATM   12  C17 UNL     1      18.732  -0.502  13.261  1.00  0.00     0.010 C 
HETATM   13  C18 UNL     1      18.734   0.936  12.938  1.00  0.00    -0.036 C 
HETATM   14  C19 UNL     1      20.085   1.392  12.381  1.00  0.00     0.016 C 
HETATM   15  C20 UNL     1      17.701   1.462  11.987  1.00  0.00    -0.002 C 
HETATM   16  C29 UNL     1      16.450   1.694  12.802  1.00  0.00     0.006 C 
HETATM   17  C30 UNL     1      16.868   1.495  14.266  1.00  0.00     0.006 C 
HETATM   18  C31 UNL     1      18.374   1.706  14.183  1.00  0.00    -0.002 C 
HETATM   19  C32 UNL     1      20.786   0.375  19.064  1.00  0.00     0.037 C 
ENDROOT
BRANCH   1  20
HETATM   20  O3  UNL     1      22.020  -1.287  20.126  1.00  0.00    -0.376 OA
BRANCH  20  21
HETATM   21  C5  UNL     1      21.984  -2.186  21.161  1.00  0.00     0.177 C 
HETATM   22  C4  UNL     1      22.831  -3.387  20.775  1.00  0.00     0.205 C 
HETATM   23  O2  UNL     1      23.766  -3.704  21.759  1.00  0.00    -0.356 OA
HETATM   24  C3  UNL     1      23.194  -3.842  23.018  1.00  0.00     0.290 C 
HETATM   25  C34 UNL     1      22.823  -2.466  23.512  1.00  0.00     0.204 C 
HETATM   26  C33 UNL     1      22.707  -1.529  22.339  1.00  0.00     0.182 C 
BRANCH  24  27
HETATM   27  O1  UNL     1      22.128  -4.717  23.045  1.00  0.00    -0.359 OA
BRANCH  27  28
HETATM   28  C2  UNL     1      22.576  -5.999  23.436  1.00  0.00     0.166 C 
HETATM   29  C1  UNL     1      23.328  -5.943  24.727  1.00  0.00     0.033 C 
ENDBRANCH  27  28
ENDBRANCH  24  27
BRANCH  25  30
HETATM   30  O5  UNL     1      21.640  -2.577  24.236  1.00  0.00    -0.388 OA
ATOM     31  H5  UNL     1      20.999  -2.004  23.834  1.00  0.00     0.210 HD
ENDBRANCH  25  30
BRANCH  26  32
HETATM   32  O4  UNL     1      24.006  -1.232  21.896  1.00  0.00    -0.390 OA
ATOM     33  H4  UNL     1      24.443  -0.793  22.616  1.00  0.00     0.210 HD
ENDBRANCH  26  32
ENDBRANCH  20  21
ENDBRANCH   1  20
BRANCH  15  34
HETATM   34  C21 UNL     1      17.524   0.773  10.703  1.00  0.00    -0.014 C 
HETATM   35  C22 UNL     1      16.113   0.480  10.272  1.00  0.00     0.010 C 
BRANCH  34  36
HETATM   36  C23 UNL     1      18.285   1.277   9.521  1.00  0.00     0.005 C 
BRANCH  36  37
HETATM   37  C24 UNL     1      18.730   2.681   9.519  1.00  0.00     0.001 C 
BRANCH  37  38
HETATM   38  C25 UNL     1      17.713   3.518   8.740  1.00  0.00     0.004 C 
BRANCH  38  39
HETATM   39  C26 UNL     1      16.827   4.346   9.632  1.00  0.00    -0.023 C 
HETATM   40  C27 UNL     1      16.442   5.585   8.855  1.00  0.00     0.009 C 
HETATM   41  C28 UNL     1      17.646   4.847  10.833  1.00  0.00     0.009 C 
ENDBRANCH  38  39
ENDBRANCH  37  38
ENDBRANCH  36  37
ENDBRANCH  34  36
ENDBRANCH  15  34
TORSDOF 11
ENDMDL
MODEL 4
REMARK VINA RESULT: -6.634735871      1.224      1.640
REMARK  11 active torsions:
REMARK  status: ('A' for Active; 'I' for Inactive)
REMARK    1  A    between atoms: C2_2  and  O1_3 
REMARK    2  A    between atoms: O1_3  and  C3_4 
REMARK    3  A    between atoms: C5_7  and  O3_8 
REMARK    4  A    between atoms: O3_8  and  C6_9 
REMARK    5  A    between atoms: C20_23  and  C21_24 
REMARK    6  A    between atoms: C21_24  and  C23_26 
REMARK    7  A    between atoms: C23_26  and  C24_27 
REMARK    8  A    between atoms: C24_27  and  C25_28 
REMARK    9  A    between atoms: C25_28  and  C26_29 
REMARK   10  A    between atoms: C33_36  and  O4_37 
REMARK   11  A    between atoms: C34_39  and  O5_40 
ROOT
HETATM    1  C6  UNL     1      19.523  -0.916  15.797  1.00  0.00     0.122 C 
HETATM    2  C7  UNL     1      20.255  -1.098  14.521  1.00  0.00     0.033 C 
HETATM    3  C8  UNL     1      19.509  -0.723  13.286  1.00  0.00     0.012 C 
HETATM    4  C9  UNL     1      19.037   0.732  13.461  1.00  0.00    -0.036 C 
HETATM    5  C10 UNL     1      20.268   1.503  13.865  1.00  0.00     0.016 C 
HETATM    6  C11 UNL     1      17.996   0.661  14.553  1.00  0.00    -0.004 C 
HETATM    7  C12 UNL     1      17.233   1.922  14.772  1.00  0.00     0.006 C 
HETATM    8  C13 UNL     1      17.204   2.837  13.569  1.00  0.00     0.006 C 
HETATM    9  C14 UNL     1      17.163   1.933  12.347  1.00  0.00    -0.005 C 
HETATM   10  C15 UNL     1      18.456   1.175  12.160  1.00  0.00    -0.002 C 
HETATM   11  C16 UNL     1      19.373   2.000  11.315  1.00  0.00     0.006 C 
HETATM   12  C17 UNL     1      18.670   2.141   9.939  1.00  0.00     0.010 C 
HETATM   13  C18 UNL     1      17.607   3.140  10.144  1.00  0.00    -0.036 C 
HETATM   14  C19 UNL     1      18.175   4.491  10.589  1.00  0.00     0.016 C 
HETATM   15  C20 UNL     1      16.674   3.442   9.011  1.00  0.00    -0.002 C 
HETATM   16  C29 UNL     1      15.608   2.372   9.040  1.00  0.00     0.006 C 
HETATM   17  C30 UNL     1      15.839   1.594  10.343  1.00  0.00     0.006 C 
HETATM   18  C31 UNL     1      16.633   2.602  11.162  1.00  0.00    -0.002 C 
HETATM   19  C32 UNL     1      18.559   0.204  15.847  1.00  0.00     0.037 C 
ENDROOT
BRANCH   1  20
HETATM   20  O3  UNL     1      20.476  -0.686  16.817  1.00  0.00    -0.376 OA
BRANCH  20  21
HETATM   21  C5  UNL     1      20.767  -1.813  17.542  1.00  0.00     0.177 C 
HETATM   22  C4  UNL     1      21.716  -1.424  18.664  1.00  0.00     0.205 C 
HETATM   23  O2  UNL     1      21.265  -1.867  19.906  1.00  0.00    -0.356 OA
HETATM   24  C3  UNL     1      20.963  -3.223  19.915  1.00  0.00     0.290 C 
HETATM   25  C34 UNL     1      19.683  -3.419  19.142  1.00  0.00     0.204 C 
HETATM   26  C33 UNL     1      19.468  -2.241  18.228  1.00  0.00     0.182 C 
BRANCH  24  27
HETATM   27  O1  UNL     1      21.990  -4.017  19.447  1.00  0.00    -0.359 OA
BRANCH  27  28
HETATM   28  C2  UNL     1      22.783  -4.456  20.530  1.00  0.00     0.166 C 
HETATM   29  C1  UNL     1      21.938  -4.866  21.694  1.00  0.00     0.033 C 
ENDBRANCH  27  28
ENDBRANCH  24  27
BRANCH  25  30
HETATM   30  O5  UNL     1      19.778  -4.626  18.458  1.00  0.00    -0.388 OA
ATOM     31  H5  UNL     1      20.699  -4.804  18.311  1.00  0.00     0.210 HD
ENDBRANCH  25  30
BRANCH  26  32
HETATM   32  O4  UNL     1      19.054  -1.156  19.016  1.00  0.00    -0.390 OA
ATOM     33  H4  UNL     1      18.184  -1.367  19.332  1.00  0.00     0.210 HD
ENDBRANCH  26  32
ENDBRANCH  20  21
ENDBRANCH   1  20
BRANCH  15  34
HETATM   34  C21 UNL     1      17.253   3.750   7.697  1.00  0.00    -0.014 C 
HETATM   35  C22 UNL     1      16.999   2.765   6.589  1.00  0.00     0.010 C 
BRANCH  34  36
HETATM   36  C23 UNL     1      17.074   5.130   7.153  1.00  0.00     0.005 C 
BRANCH  36  37
HETATM   37  C24 UNL     1      16.326   6.110   7.957  1.00  0.00     0.001 C 
BRANCH  37  38
HETATM   38  C25 UNL     1      14.920   6.255   7.372  1.00  0.00     0.004 C 
BRANCH  38  39
HETATM   39  C26 UNL     1      13.862   5.594   8.214  1.00  0.00    -0.023 C 
HETATM   40  C27 UNL     1      13.115   4.630   7.319  1.00  0.00     0.009 C 
HETATM   41  C28 UNL     1      12.828   6.647   8.645  1.00  0.00     0.009 C 
ENDBRANCH  38  39
ENDBRANCH  37  38
ENDBRANCH  36  37
ENDBRANCH  34  36
ENDBRANCH  15  34
TORSDOF 11
ENDMDL
MODEL 5
REMARK VINA RESULT: -6.629838349      1.568      2.122
REMARK  11 active torsions:
REMARK  status: ('A' for Active; 'I' for Inactive)
REMARK    1  A    between atoms: C2_2  and  O1_3 
REMARK    2  A    between atoms: O1_3  and  C3_4 
REMARK    3  A    between atoms: C5_7  and  O3_8 
REMARK    4  A    between atoms: O3_8  and  C6_9 
REMARK    5  A    between atoms: C20_23  and  C21_24 
REMARK    6  A    between atoms: C21_24  and  C23_26 
REMARK    7  A    between atoms: C23_26  and  C24_27 
REMARK    8  A    between atoms: C24_27  and  C25_28 
REMARK    9  A    between atoms: C25_28  and  C26_29 
REMARK   10  A    between atoms: C33_36  and  O4_37 
REMARK   11  A    between atoms: C34_39  and  O5_40 
ROOT
HETATM    1  C6  UNL     1      19.395  -0.022  16.873  1.00  0.00     0.122 C 
HETATM    2  C7  UNL     1      20.045  -0.620  15.681  1.00  0.00     0.033 C 
HETATM    3  C8  UNL     1      19.288  -0.501  14.403  1.00  0.00     0.012 C 
HETATM    4  C9  UNL     1      18.985   0.993  14.188  1.00  0.00    -0.036 C 
HETATM    5  C10 UNL     1      20.309   1.694  14.351  1.00  0.00     0.016 C 
HETATM    6  C11 UNL     1      17.993   1.336  15.274  1.00  0.00    -0.004 C 
HETATM    7  C12 UNL     1      17.382   2.689  15.158  1.00  0.00     0.006 C 
HETATM    8  C13 UNL     1      17.398   3.250  13.754  1.00  0.00     0.006 C 
HETATM    9  C14 UNL     1      17.204   2.066  12.821  1.00  0.00    -0.005 C 
HETATM   10  C15 UNL     1      18.397   1.140  12.824  1.00  0.00    -0.002 C 
HETATM   11  C16 UNL     1      19.358   1.599  11.776  1.00  0.00     0.006 C 
HETATM   12  C17 UNL     1      18.613   1.451  10.423  1.00  0.00     0.010 C 
HETATM   13  C18 UNL     1      17.675   2.586  10.368  1.00  0.00    -0.036 C 
HETATM   14  C19 UNL     1      18.405   3.931  10.425  1.00  0.00     0.016 C 
HETATM   15  C20 UNL     1      16.729   2.684   9.209  1.00  0.00    -0.002 C 
HETATM   16  C29 UNL     1      15.555   1.791   9.540  1.00  0.00     0.006 C 
HETATM   17  C30 UNL     1      15.760   1.364  11.001  1.00  0.00     0.006 C 
HETATM   18  C31 UNL     1      16.695   2.454  11.507  1.00  0.00    -0.002 C 
HETATM   19  C32 UNL     1      18.561   1.175  16.635  1.00  0.00     0.037 C 
ENDROOT
BRANCH   1  20
HETATM   20  O3  UNL     1      20.414   0.357  17.779  1.00  0.00    -0.376 OA
BRANCH  20  21
HETATM   21  C5  UNL     1      20.549  -0.516  18.828  1.00  0.00     0.177 C 
HETATM   22  C4  UNL     1      20.256  -1.917  18.319  1.00  0.00     0.205 C 
HETATM   23  O2  UNL     1      21.270  -2.816  18.650  1.00  0.00    -0.356 OA
HETATM   24  C3  UNL     1      21.580  -2.799  20.005  1.00  0.00     0.290 C 
HETATM   25  C34 UNL     1      22.326  -1.520  20.293  1.00  0.00     0.204 C 
HETATM   26  C33 UNL     1      22.031  -0.516  19.211  1.00  0.00     0.182 C 
BRANCH  24  27
HETATM   27  O1  UNL     1      20.481  -2.965  20.822  1.00  0.00    -0.359 OA
BRANCH  27  28
HETATM   28  C2  UNL     1      20.239  -4.344  21.017  1.00  0.00     0.166 C 
HETATM   29  C1  UNL     1      18.774  -4.636  21.079  1.00  0.00     0.033 C 
ENDBRANCH  27  28
ENDBRANCH  24  27
BRANCH  25  30
HETATM   30  O5  UNL     1      21.947  -1.082  21.558  1.00  0.00    -0.388 OA
ATOM     31  H5  UNL     1      22.233  -0.181  21.651  1.00  0.00     0.210 HD
ENDBRANCH  25  30
BRANCH  26  32
HETATM   32  O4  UNL     1      22.742  -0.899  18.063  1.00  0.00    -0.390 OA
ATOM     33  H4  UNL     1      22.844  -1.842  18.110  1.00  0.00     0.210 HD
ENDBRANCH  26  32
ENDBRANCH  20  21
ENDBRANCH   1  20
BRANCH  15  34
HETATM   34  C21 UNL     1      17.277   2.563   7.853  1.00  0.00    -0.014 C 
HETATM   35  C22 UNL     1      16.602   1.591   6.925  1.00  0.00     0.010 C 
BRANCH  34  36
HETATM   36  C23 UNL     1      17.566   3.817   7.094  1.00  0.00     0.005 C 
BRANCH  36  37
HETATM   37  C24 UNL     1      16.452   4.734   6.803  1.00  0.00     0.001 C 
BRANCH  37  38
HETATM   38  C25 UNL     1      16.512   5.907   7.783  1.00  0.00     0.004 C 
BRANCH  38  39
HETATM   39  C26 UNL     1      15.268   6.037   8.621  1.00  0.00    -0.023 C 
HETATM   40  C27 UNL     1      14.215   5.145   8.002  1.00  0.00     0.009 C 
HETATM   41  C28 UNL     1      14.723   7.470   8.498  1.00  0.00     0.009 C 
ENDBRANCH  38  39
ENDBRANCH  37  38
ENDBRANCH  36  37
ENDBRANCH  34  36
ENDBRANCH  15  34
TORSDOF 11
ENDMDL
