MODEL 1
REMARK VINA RESULT: -6.649096035      0.000      0.000
REMARK  13 active torsions:
REMARK  status: ('A' for Active; 'I' for Inactive)
REMARK    1  A    between atoms: C2_2  and  N2_6 
REMARK    2  A    between atoms: N2_6  and  C3_8 
REMARK    3  A    between atoms: C3_8  and  C4_9 
REMARK    4  A    between atoms: C4_9  and  C5_10 
REMARK    5  A    between atoms: C5_10  and  C6_11 
REMARK    6  A    between atoms: C6_11  and  C8_13 
REMARK    7  A    between atoms: C6_11  and  C13_18 
REMARK    8  A    between atoms: C9_14  and  C10_15 
REMARK    9  A    between atoms: C17_24  and  C19_26 
REMARK   10  A    between atoms: C19_26  and  C20_27 
REMARK   11  A    between atoms: C20_27  and  C21_28 
REMARK   12  A    between atoms: C31_38  and  O3_39 
REMARK   13  A    between atoms: O3_39  and  C32_40 
ROOT
HETATM    1  C13 UNL     1      18.435   0.633  12.820  1.00  0.00     0.177 C 
HETATM    2  O1  UNL     1      17.093   0.497  12.541  1.00  0.00    -0.346 OA
HETATM    3  C14 UNL     1      16.856   0.433  11.198  1.00  0.00     0.158 C 
HETATM    4  C15 UNL     1      15.340   0.289  10.971  1.00  0.00     0.078 C 
HETATM    5  C16 UNL     1      17.433  -0.903  10.706  1.00  0.00     0.078 C 
HETATM    6  O2  UNL     1      17.391   1.433  10.452  1.00  0.00    -0.343 OA
HETATM    7  C17 UNL     1      18.006   2.467  11.208  1.00  0.00     0.090 C 
HETATM    8  C18 UNL     1      16.975   3.225  11.936  1.00  0.00     0.049 C 
HETATM    9  C31 UNL     1      19.044   1.745  12.063  1.00  0.00     0.196 C 
ENDROOT
BRANCH   1  10
HETATM   10  C6  UNL     1      18.599   0.590  14.327  1.00  0.00     0.049 C 
HETATM   11  C7  UNL     1      17.279   1.017  14.994  1.00  0.00     0.032 C 
BRANCH  10  12
HETATM   12  C5  UNL     1      19.670   1.439  14.837  1.00  0.00     0.026 C 
BRANCH  12  13
HETATM   13  C4  UNL     1      19.435   2.477  15.847  1.00  0.00     0.021 C 
BRANCH  13  14
HETATM   14  C3  UNL     1      20.396   2.712  16.944  1.00  0.00     0.121 C 
BRANCH  14  15
HETATM   15  N2  UNL     1      19.905   2.259  18.245  1.00  0.00    -0.380 N 
ATOM     16  H2  UNL     1      19.168   2.760  18.740  1.00  0.00     0.160 HD
BRANCH  15  17
HETATM   17  C2  UNL     1      20.501   1.092  18.785  1.00  0.00     0.066 C 
HETATM   18  C1  UNL     1      19.936  -0.262  18.460  1.00  0.00     0.088 C 
HETATM   19  N1  UNL     1      21.529   1.153  19.561  1.00  0.00    -0.389 N 
ATOM     20  H12 UNL     1      21.958   0.313  19.950  1.00  0.00     0.157 HD
ATOM     21  H11 UNL     1      21.913   2.072  19.782  1.00  0.00     0.157 HD
ENDBRANCH  15  17
ENDBRANCH  14  15
ENDBRANCH  13  14
ENDBRANCH  12  13
ENDBRANCH  10  12
BRANCH  10  22
HETATM   22  C8  UNL     1      18.774  -0.820  14.680  1.00  0.00    -0.094 C 
HETATM   23  C9  UNL     1      18.938  -2.015  14.928  1.00  0.00    -0.102 C 
BRANCH  23  24
HETATM   24  C10 UNL     1      19.116  -3.445  15.217  1.00  0.00     0.057 C 
HETATM   25  C11 UNL     1      17.799  -4.172  15.032  1.00  0.00     0.023 C 
HETATM   26  C12 UNL     1      19.640  -3.549  16.609  1.00  0.00     0.023 C 
ENDBRANCH  23  24
ENDBRANCH  10  22
ENDBRANCH   1  10
BRANCH   9  27
HETATM   27  O3  UNL     1      20.120   1.311  11.257  1.00  0.00    -0.310 OA
BRANCH  27  28
HETATM   28  C32 UNL     1      21.435   1.222  11.504  1.00  0.00     0.255 C 
HETATM   29  C33 UNL     1      21.985  -0.106  11.939  1.00  0.00     0.126 C 
HETATM   30  O4  UNL     1      22.144   2.222  11.367  1.00  0.00    -0.266 OA
ENDBRANCH  27  28
ENDBRANCH   9  27
BRANCH   7  31
HETATM   31  C19 UNL     1      18.589   3.373  10.161  1.00  0.00     0.041 C 
BRANCH  31  32
HETATM   32  C20 UNL     1      18.230   3.098   8.755  1.00  0.00     0.012 C 
BRANCH  32  33
HETATM   33  C21 UNL     1      17.187   4.058   8.227  1.00  0.00    -0.039 C 
HETATM   34  C22 UNL     1      17.052   5.305   9.034  1.00  0.00     0.014 C 
HETATM   35  C23 UNL     1      16.022   6.191   8.408  1.00  0.00    -0.013 C 
HETATM   36  C24 UNL     1      16.455   6.635   7.032  1.00  0.00     0.009 C 
HETATM   37  C28 UNL     1      14.680   5.494   8.375  1.00  0.00     0.009 C 
HETATM   38  C25 UNL     1      16.615   5.402   6.185  1.00  0.00    -0.013 C 
HETATM   39  C26 UNL     1      15.254   4.743   6.063  1.00  0.00     0.009 C 
HETATM   40  C30 UNL     1      17.595   4.455   6.800  1.00  0.00     0.014 C 
HETATM   41  C27 UNL     1      14.844   4.302   7.428  1.00  0.00    -0.013 C 
HETATM   42  C29 UNL     1      15.842   3.380   8.084  1.00  0.00     0.014 C 
ENDBRANCH  32  33
ENDBRANCH  31  32
ENDBRANCH   7  31
TORSDOF 13
ENDMDL
MODEL 2
REMARK VINA RESULT: -6.522256239      2.081      3.988
REMARK  13 active torsions:
REMARK  status: ('A' for Active; 'I' for Inactive)
REMARK    1  A    between atoms: C2_2  and  N2_6 
REMARK    2  A    between atoms: N2_6  and  C3_8 
REMARK    3  A    between atoms: C3_8  and  C4_9 
REMARK    4  A    between atoms: C4_9  and  C5_10 
REMARK    5  A    between atoms: C5_10  and  C6_11 
REMARK    6  A    between atoms: C6_11  and  C8_13 
REMARK    7  A    between atoms: C6_11  and  C13_18 
REMARK    8  A    between atoms: C9_14  and  C10_15 
REMARK    9  A    between atoms: C17_24  and  C19_26 
REMARK   10  A    between atoms: C19_26  and  C20_27 
REMARK   11  A    between atoms: C20_27  and  C21_28 
REMARK   12  A    between atoms: C31_38  and  O3_39 
REMARK   13  A    between atoms: O3_39  and  C32_40 
ROOT
HETATM    1  C13 UNL     1      18.256  -2.237  13.720  1.00  0.00     0.177 C 
HETATM    2  O1  UNL     1      17.067  -2.499  14.366  1.00  0.00    -0.346 OA
HETATM    3  C14 UNL     1      16.101  -2.926  13.502  1.00  0.00     0.158 C 
HETATM    4  C15 UNL     1      14.809  -3.189  14.297  1.00  0.00     0.078 C 
HETATM    5  C16 UNL     1      16.525  -4.320  13.012  1.00  0.00     0.078 C 
HETATM    6  O2  UNL     1      15.882  -2.138  12.418  1.00  0.00    -0.343 OA
HETATM    7  C17 UNL     1      16.606  -0.916  12.424  1.00  0.00     0.090 C 
HETATM    8  C18 UNL     1      16.081  -0.036  13.480  1.00  0.00     0.049 C 
HETATM    9  C31 UNL     1      18.066  -1.341  12.561  1.00  0.00     0.196 C 
ENDROOT
BRANCH   1  10
HETATM   10  C6  UNL     1      19.283  -1.872  14.774  1.00  0.00     0.049 C 
HETATM   11  C7  UNL     1      20.696  -2.093  14.205  1.00  0.00     0.032 C 
BRANCH  10  12
HETATM   12  C5  UNL     1      19.161  -2.630  16.015  1.00  0.00     0.026 C 
BRANCH  12  13
HETATM   13  C4  UNL     1      20.131  -2.506  17.109  1.00  0.00     0.021 C 
BRANCH  13  14
HETATM   14  C3  UNL     1      19.788  -1.808  18.364  1.00  0.00     0.121 C 
BRANCH  14  15
HETATM   15  N2  UNL     1      20.255  -0.423  18.398  1.00  0.00    -0.380 N 
ATOM     16  H2  UNL     1      19.800   0.306  17.847  1.00  0.00     0.160 HD
BRANCH  15  17
HETATM   17  C2  UNL     1      21.367  -0.140  19.229  1.00  0.00     0.066 C 
HETATM   18  C1  UNL     1      22.140  -1.263  19.861  1.00  0.00     0.088 C 
HETATM   19  N1  UNL     1      21.746   1.070  19.466  1.00  0.00    -0.389 N 
ATOM     20  H12 UNL     1      22.546   1.274  20.064  1.00  0.00     0.157 HD
ATOM     21  H11 UNL     1      21.221   1.832  19.037  1.00  0.00     0.157 HD
ENDBRANCH  15  17
ENDBRANCH  14  15
ENDBRANCH  13  14
ENDBRANCH  12  13
ENDBRANCH  10  12
BRANCH  10  22
HETATM   22  C8  UNL     1      19.167  -0.428  14.977  1.00  0.00    -0.094 C 
HETATM   23  C9  UNL     1      19.122   0.791  15.149  1.00  0.00    -0.102 C 
BRANCH  23  24
HETATM   24  C10 UNL     1      19.071   2.243  15.373  1.00  0.00     0.057 C 
HETATM   25  C11 UNL     1      19.962   2.612  16.542  1.00  0.00     0.023 C 
HETATM   26  C12 UNL     1      17.642   2.600  15.603  1.00  0.00     0.023 C 
ENDBRANCH  23  24
ENDBRANCH  10  22
ENDBRANCH   1  10
BRANCH   9  27
HETATM   27  O3  UNL     1      18.517  -1.928  11.359  1.00  0.00    -0.310 OA
BRANCH  27  28
HETATM   28  C32 UNL     1      19.651  -1.765  10.662  1.00  0.00     0.255 C 
HETATM   29  C33 UNL     1      20.494  -0.556  10.955  1.00  0.00     0.126 C 
HETATM   30  O4  UNL     1      19.964  -2.603   9.813  1.00  0.00    -0.266 OA
ENDBRANCH  27  28
ENDBRANCH   9  27
BRANCH   7  31
HETATM   31  C19 UNL     1      16.266  -0.296  11.098  1.00  0.00     0.041 C 
BRANCH  31  32
HETATM   32  C20 UNL     1      15.606   1.026  11.120  1.00  0.00     0.012 C 
BRANCH  32  33
HETATM   33  C21 UNL     1      16.487   2.119  10.558  1.00  0.00    -0.039 C 
HETATM   34  C22 UNL     1      16.964   3.095  11.581  1.00  0.00     0.014 C 
HETATM   35  C23 UNL     1      17.847   4.109  10.925  1.00  0.00    -0.013 C 
HETATM   36  C24 UNL     1      19.089   3.461  10.361  1.00  0.00     0.009 C 
HETATM   37  C28 UNL     1      17.080   4.865   9.863  1.00  0.00     0.009 C 
HETATM   38  C25 UNL     1      18.651   2.457   9.330  1.00  0.00    -0.013 C 
HETATM   39  C26 UNL     1      17.963   3.213   8.209  1.00  0.00     0.009 C 
HETATM   40  C30 UNL     1      17.718   1.453   9.925  1.00  0.00     0.014 C 
HETATM   41  C27 UNL     1      16.734   3.841   8.778  1.00  0.00    -0.013 C 
HETATM   42  C29 UNL     1      15.799   2.847   9.424  1.00  0.00     0.014 C 
ENDBRANCH  32  33
ENDBRANCH  31  32
ENDBRANCH   7  31
TORSDOF 13
ENDMDL
MODEL 3
REMARK VINA RESULT: -6.364607343      3.425      6.742
REMARK  13 active torsions:
REMARK  status: ('A' for Active; 'I' for Inactive)
REMARK    1  A    between atoms: C2_2  and  N2_6 
REMARK    2  A    between atoms: N2_6  and  C3_8 
REMARK    3  A    between atoms: C3_8  and  C4_9 
REMARK    4  A    between atoms: C4_9  and  C5_10 
REMARK    5  A    between atoms: C5_10  and  C6_11 
REMARK    6  A    between atoms: C6_11  and  C8_13 
REMARK    7  A    between atoms: C6_11  and  C13_18 
REMARK    8  A    between atoms: C9_14  and  C10_15 
REMARK    9  A    between atoms: C17_24  and  C19_26 
REMARK   10  A    between atoms: C19_26  and  C20_27 
REMARK   11  A    between atoms: C20_27  and  C21_28 
REMARK   12  A    between atoms: C31_38  and  O3_39 
REMARK   13  A    between atoms: O3_39  and  C32_40 
ROOT
HETATM    1  C13 UNL     1      18.674  -0.194  12.739  1.00  0.00     0.177 C 
HETATM    2  O1  UNL     1      18.618  -1.007  11.627  1.00  0.00    -0.346 OA
HETATM    3  C14 UNL     1      17.387  -0.978  11.038  1.00  0.00     0.158 C 
HETATM    4  C15 UNL     1      17.405  -1.912   9.814  1.00  0.00     0.078 C 
HETATM    5  C16 UNL     1      17.213   0.424  10.433  1.00  0.00     0.078 C 
HETATM    6  O2  UNL     1      16.331  -1.228  11.855  1.00  0.00    -0.343 OA
HETATM    7  C17 UNL     1      16.687  -1.612  13.175  1.00  0.00     0.090 C 
HETATM    8  C18 UNL     1      17.303  -2.948  13.151  1.00  0.00     0.049 C 
HETATM    9  C31 UNL     1      17.567  -0.471  13.677  1.00  0.00     0.196 C 
ENDROOT
BRANCH   1  10
HETATM   10  C6  UNL     1      20.100  -0.216  13.254  1.00  0.00     0.049 C 
HETATM   11  C7  UNL     1      20.661  -1.645  13.137  1.00  0.00     0.032 C 
BRANCH  10  12
HETATM   12  C5  UNL     1      20.244   0.223  14.637  1.00  0.00     0.026 C 
BRANCH  12  13
HETATM   13  C4  UNL     1      20.494  -0.714  15.737  1.00  0.00     0.021 C 
BRANCH  13  14
HETATM   14  C3  UNL     1      19.803  -0.579  17.035  1.00  0.00     0.121 C 
BRANCH  14  15
HETATM   15  N2  UNL     1      19.294   0.770  17.278  1.00  0.00    -0.380 N 
ATOM     16  H2  UNL     1      18.509   1.147  16.747  1.00  0.00     0.160 HD
BRANCH  15  17
HETATM   17  C2  UNL     1      19.942   1.530  18.283  1.00  0.00     0.066 C 
HETATM   18  C1  UNL     1      21.270   1.084  18.825  1.00  0.00     0.088 C 
HETATM   19  N1  UNL     1      19.421   2.610  18.758  1.00  0.00    -0.389 N 
ATOM     20  H12 UNL     1      19.888   3.157  19.481  1.00  0.00     0.157 HD
ATOM     21  H11 UNL     1      18.519   2.913  18.390  1.00  0.00     0.157 HD
ENDBRANCH  15  17
ENDBRANCH  14  15
ENDBRANCH  13  14
ENDBRANCH  12  13
ENDBRANCH  10  12
BRANCH  10  22
HETATM   22  C8  UNL     1      20.887   0.587  12.318  1.00  0.00    -0.094 C 
HETATM   23  C9  UNL     1      21.542   1.226  11.493  1.00  0.00    -0.102 C 
BRANCH  23  24
HETATM   24  C10 UNL     1      22.340   1.978  10.514  1.00  0.00     0.057 C 
HETATM   25  C11 UNL     1      22.779   1.056   9.395  1.00  0.00     0.023 C 
HETATM   26  C12 UNL     1      23.489   2.575  11.252  1.00  0.00     0.023 C 
ENDBRANCH  23  24
ENDBRANCH  10  22
ENDBRANCH   1  10
BRANCH   9  27
HETATM   27  O3  UNL     1      16.782   0.678  13.922  1.00  0.00    -0.310 OA
BRANCH  27  28
HETATM   28  C32 UNL     1      17.123   1.938  14.226  1.00  0.00     0.255 C 
HETATM   29  C33 UNL     1      17.095   2.963  13.128  1.00  0.00     0.126 C 
HETATM   30  O4  UNL     1      17.445   2.215  15.384  1.00  0.00    -0.266 OA
ENDBRANCH  27  28
ENDBRANCH   9  27
BRANCH   7  31
HETATM   31  C19 UNL     1      15.364  -1.728  13.879  1.00  0.00     0.041 C 
BRANCH  31  32
HETATM   32  C20 UNL     1      14.722  -3.058  13.894  1.00  0.00     0.012 C 
BRANCH  32  33
HETATM   33  C21 UNL     1      13.599  -3.167  12.887  1.00  0.00    -0.039 C 
HETATM   34  C22 UNL     1      14.039  -3.637  11.541  1.00  0.00     0.014 C 
HETATM   35  C23 UNL     1      12.851  -3.739  10.638  1.00  0.00    -0.013 C 
HETATM   36  C24 UNL     1      11.877  -4.778  11.140  1.00  0.00     0.009 C 
HETATM   37  C28 UNL     1      12.193  -2.386  10.481  1.00  0.00     0.009 C 
HETATM   38  C25 UNL     1      11.415  -4.348  12.506  1.00  0.00    -0.013 C 
HETATM   39  C26 UNL     1      10.669  -3.036  12.351  1.00  0.00     0.009 C 
HETATM   40  C30 UNL     1      12.576  -4.175  13.432  1.00  0.00     0.014 C 
HETATM   41  C27 UNL     1      11.644  -2.018  11.863  1.00  0.00    -0.013 C 
HETATM   42  C29 UNL     1      12.846  -1.861  12.762  1.00  0.00     0.014 C 
ENDBRANCH  32  33
ENDBRANCH  31  32
ENDBRANCH   7  31
TORSDOF 13
ENDMDL
MODEL 4
REMARK VINA RESULT: -6.313224500      8.268     14.817
REMARK  13 active torsions:
REMARK  status: ('A' for Active; 'I' for Inactive)
REMARK    1  A    between atoms: C2_2  and  N2_6 
REMARK    2  A    between atoms: N2_6  and  C3_8 
REMARK    3  A    between atoms: C3_8  and  C4_9 
REMARK    4  A    between atoms: C4_9  and  C5_10 
REMARK    5  A    between atoms: C5_10  and  C6_11 
REMARK    6  A    between atoms: C6_11  and  C8_13 
REMARK    7  A    between atoms: C6_11  and  C13_18 
REMARK    8  A    between atoms: C9_14  and  C10_15 
REMARK    9  A    between atoms: C17_24  and  C19_26 
REMARK   10  A    between atoms: C19_26  and  C20_27 
REMARK   11  A    between atoms: C20_27  and  C21_28 
REMARK   12  A    between atoms: C31_38  and  O3_39 
REMARK   13  A    between atoms: O3_39  and  C32_40 
ROOT
HETATM    1  C13 UNL     1      21.707  -4.233  20.950  1.00  0.00     0.177 C 
HETATM    2  O1  UNL     1      23.082  -4.287  20.874  1.00  0.00    -0.346 OA
HETATM    3  C14 UNL     1      23.650  -4.519  22.094  1.00  0.00     0.158 C 
HETATM    4  C15 UNL     1      25.179  -4.558  21.926  1.00  0.00     0.078 C 
HETATM    5  C16 UNL     1      23.283  -5.958  22.491  1.00  0.00     0.078 C 
HETATM    6  O2  UNL     1      23.267  -3.686  23.096  1.00  0.00    -0.343 OA
HETATM    7  C17 UNL     1      22.431  -2.614  22.682  1.00  0.00     0.090 C 
HETATM    8  C18 UNL     1      23.207  -1.673  21.860  1.00  0.00     0.049 C 
HETATM    9  C31 UNL     1      21.250  -3.297  21.997  1.00  0.00     0.196 C 
ENDROOT
BRANCH   1  10
HETATM   10  C6  UNL     1      21.174  -4.077  19.539  1.00  0.00     0.049 C 
HETATM   11  C7  UNL     1      19.644  -4.245  19.551  1.00  0.00     0.032 C 
BRANCH  10  12
HETATM   12  C5  UNL     1      21.735  -5.022  18.580  1.00  0.00     0.026 C 
BRANCH  12  13
HETATM   13  C4  UNL     1      20.906  -5.997  17.862  1.00  0.00     0.021 C 
BRANCH  13  14
HETATM   14  C3  UNL     1      20.607  -5.841  16.424  1.00  0.00     0.121 C 
BRANCH  14  15
HETATM   15  N2  UNL     1      19.199  -5.552  16.157  1.00  0.00    -0.380 N 
ATOM     16  H2  UNL     1      18.490  -6.286  16.183  1.00  0.00     0.160 HD
BRANCH  15  17
HETATM   17  C2  UNL     1      18.863  -4.208  15.860  1.00  0.00     0.066 C 
HETATM   18  C1  UNL     1      19.948  -3.190  15.648  1.00  0.00     0.088 C 
HETATM   19  N1  UNL     1      17.637  -3.821  15.763  1.00  0.00    -0.389 N 
ATOM     20  H12 UNL     1      17.396  -2.853  15.549  1.00  0.00     0.157 HD
ATOM     21  H11 UNL     1      16.901  -4.512  15.907  1.00  0.00     0.157 HD
ENDBRANCH  15  17
ENDBRANCH  14  15
ENDBRANCH  13  14
ENDBRANCH  12  13
ENDBRANCH  10  12
BRANCH  10  22
HETATM   22  C8  UNL     1      21.408  -2.682  19.164  1.00  0.00    -0.094 C 
HETATM   23  C9  UNL     1      21.566  -1.511  18.813  1.00  0.00    -0.102 C 
BRANCH  23  24
HETATM   24  C10 UNL     1      21.765  -0.121  18.379  1.00  0.00     0.057 C 
HETATM   25  C11 UNL     1      21.339   0.826  19.483  1.00  0.00     0.023 C 
HETATM   26  C12 UNL     1      20.979   0.064  17.126  1.00  0.00     0.023 C 
ENDBRANCH  23  24
ENDBRANCH  10  22
ENDBRANCH   1  10
BRANCH   9  27
HETATM   27  O3  UNL     1      20.433  -3.935  22.957  1.00  0.00    -0.310 OA
BRANCH  27  28
HETATM   28  C32 UNL     1      19.141  -4.288  22.929  1.00  0.00     0.255 C 
HETATM   29  C33 UNL     1      18.807  -5.753  22.931  1.00  0.00     0.126 C 
HETATM   30  O4  UNL     1      18.275  -3.410  22.902  1.00  0.00    -0.266 OA
ENDBRANCH  27  28
ENDBRANCH   9  27
BRANCH   7  31
HETATM   31  C19 UNL     1      22.082  -1.921  23.969  1.00  0.00     0.041 C 
BRANCH  31  32
HETATM   32  C20 UNL     1      23.106  -1.919  25.034  1.00  0.00     0.012 C 
BRANCH  32  33
HETATM   33  C21 UNL     1      22.600  -2.530  26.322  1.00  0.00    -0.039 C 
HETATM   34  C22 UNL     1      21.206  -3.053  26.234  1.00  0.00     0.014 C 
HETATM   35  C23 UNL     1      20.820  -3.660  27.546  1.00  0.00    -0.013 C 
HETATM   36  C24 UNL     1      21.689  -4.852  27.867  1.00  0.00     0.009 C 
HETATM   37  C28 UNL     1      20.872  -2.618  28.641  1.00  0.00     0.009 C 
HETATM   38  C25 UNL     1      23.112  -4.369  27.954  1.00  0.00    -0.013 C 
HETATM   39  C26 UNL     1      23.200  -3.393  29.112  1.00  0.00     0.009 C 
HETATM   40  C30 UNL     1      23.526  -3.701  26.682  1.00  0.00     0.014 C 
HETATM   41  C27 UNL     1      22.344  -2.217  28.777  1.00  0.00    -0.013 C 
HETATM   42  C29 UNL     1      22.719  -1.556  27.473  1.00  0.00     0.014 C 
ENDBRANCH  32  33
ENDBRANCH  31  32
ENDBRANCH   7  31
TORSDOF 13
ENDMDL
MODEL 5
REMARK VINA RESULT: -6.312797516      3.521      6.105
REMARK  13 active torsions:
REMARK  status: ('A' for Active; 'I' for Inactive)
REMARK    1  A    between atoms: C2_2  and  N2_6 
REMARK    2  A    between atoms: N2_6  and  C3_8 
REMARK    3  A    between atoms: C3_8  and  C4_9 
REMARK    4  A    between atoms: C4_9  and  C5_10 
REMARK    5  A    between atoms: C5_10  and  C6_11 
REMARK    6  A    between atoms: C6_11  and  C8_13 
REMARK    7  A    between atoms: C6_11  and  C13_18 
REMARK    8  A    between atoms: C9_14  and  C10_15 
REMARK    9  A    between atoms: C17_24  and  C19_26 
REMARK   10  A    between atoms: C19_26  and  C20_27 
REMARK   11  A    between atoms: C20_27  and  C21_28 
REMARK   12  A    between atoms: C31_38  and  O3_39 
REMARK   13  A    between atoms: O3_39  and  C32_40 
ROOT
HETATM    1  C13 UNL     1      18.166  -0.724  13.864  1.00  0.00     0.177 C 
HETATM    2  O1  UNL     1      18.412   0.473  13.228  1.00  0.00    -0.346 OA
HETATM    3  C14 UNL     1      17.258   1.088  12.835  1.00  0.00     0.158 C 
HETATM    4  C15 UNL     1      17.619   2.408  12.130  1.00  0.00     0.078 C 
HETATM    5  C16 UNL     1      16.534   1.535  14.114  1.00  0.00     0.078 C 
HETATM    6  O2  UNL     1      16.403   0.332  12.099  1.00  0.00    -0.343 OA
HETATM    7  C17 UNL     1      16.909  -0.946  11.739  1.00  0.00     0.090 C 
HETATM    8  C18 UNL     1      18.001  -0.788  10.766  1.00  0.00     0.049 C 
HETATM    9  C31 UNL     1      17.277  -1.596  13.070  1.00  0.00     0.196 C 
ENDROOT
BRANCH   1  10
HETATM   10  C6  UNL     1      19.495  -1.271  14.348  1.00  0.00     0.049 C 
HETATM   11  C7  UNL     1      20.609  -0.826  13.384  1.00  0.00     0.032 C 
BRANCH  10  12
HETATM   12  C5  UNL     1      19.538  -2.724  14.463  1.00  0.00     0.026 C 
BRANCH  12  13
HETATM   13  C4  UNL     1      20.342  -3.408  15.483  1.00  0.00     0.021 C 
BRANCH  13  14
HETATM   14  C3  UNL     1      19.708  -4.179  16.571  1.00  0.00     0.121 C 
BRANCH  14  15
HETATM   15  N2  UNL     1      18.696  -3.418  17.301  1.00  0.00    -0.380 N 
ATOM     16  H2  UNL     1      17.847  -3.084  16.844  1.00  0.00     0.160 HD
BRANCH  15  17
HETATM   17  C2  UNL     1      18.947  -3.164  18.673  1.00  0.00     0.066 C 
HETATM   18  C1  UNL     1      20.360  -3.065  19.173  1.00  0.00     0.088 C 
HETATM   19  N1  UNL     1      17.988  -3.013  19.521  1.00  0.00    -0.389 N 
ATOM     20  H12 UNL     1      18.169  -2.830  20.508  1.00  0.00     0.157 HD
ATOM     21  H11 UNL     1      17.029  -3.080  19.181  1.00  0.00     0.157 HD
ENDBRANCH  15  17
ENDBRANCH  14  15
ENDBRANCH  13  14
ENDBRANCH  12  13
ENDBRANCH  10  12
BRANCH  10  22
HETATM   22  C8  UNL     1      19.782  -0.592  15.612  1.00  0.00    -0.094 C 
HETATM   23  C9  UNL     1      19.972  -0.009  16.681  1.00  0.00    -0.102 C 
BRANCH  23  24
HETATM   24  C10 UNL     1      20.200   0.703  17.947  1.00  0.00     0.057 C 
HETATM   25  C11 UNL     1      20.089   2.197  17.720  1.00  0.00     0.023 C 
HETATM   26  C12 UNL     1      21.545   0.294  18.443  1.00  0.00     0.023 C 
ENDBRANCH  23  24
ENDBRANCH  10  22
ENDBRANCH   1  10
BRANCH   9  27
HETATM   27  O3  UNL     1      16.108  -1.948  13.780  1.00  0.00    -0.310 OA
BRANCH  27  28
HETATM   28  C32 UNL     1      15.717  -3.106  14.329  1.00  0.00     0.255 C 
HETATM   29  C33 UNL     1      14.459  -3.745  13.813  1.00  0.00     0.126 C 
HETATM   30  O4  UNL     1      16.394  -3.606  15.231  1.00  0.00    -0.266 OA
ENDBRANCH  27  28
ENDBRANCH   9  27
BRANCH   7  31
HETATM   31  C19 UNL     1      15.754  -1.597  11.032  1.00  0.00     0.041 C 
BRANCH  31  32
HETATM   32  C20 UNL     1      14.782  -0.707  10.365  1.00  0.00     0.012 C 
BRANCH  32  33
HETATM   33  C21 UNL     1      13.351  -1.045  10.720  1.00  0.00    -0.039 C 
HETATM   34  C22 UNL     1      13.032  -0.871  12.167  1.00  0.00     0.014 C 
HETATM   35  C23 UNL     1      11.592  -1.200  12.400  1.00  0.00    -0.013 C 
HETATM   36  C24 UNL     1      10.691  -0.240  11.660  1.00  0.00     0.009 C 
HETATM   37  C28 UNL     1      11.313  -2.636  12.018  1.00  0.00     0.009 C 
HETATM   38  C25 UNL     1      10.990  -0.375  10.192  1.00  0.00    -0.013 C 
HETATM   39  C26 UNL     1      10.624  -1.786   9.772  1.00  0.00     0.009 C 
HETATM   40  C30 UNL     1      12.434  -0.112   9.915  1.00  0.00     0.014 C 
HETATM   41  C27 UNL     1      11.527  -2.722  10.504  1.00  0.00    -0.013 C 
HETATM   42  C29 UNL     1      12.992  -2.444  10.272  1.00  0.00     0.014 C 
ENDBRANCH  32  33
ENDBRANCH  31  32
ENDBRANCH   7  31
TORSDOF 13
ENDMDL
