MODEL 1
REMARK VINA RESULT: -8.008075535      0.000      0.000
REMARK  12 active torsions:
REMARK  status: ('A' for Active; 'I' for Inactive)
REMARK    1  A    between atoms: C2_2  and  C3_3 
REMARK    2  A    between atoms: C3_3  and  C5_5 
REMARK    3  A    between atoms: C5_5  and  O1_6 
REMARK    4  A    between atoms: C5_5  and  C6_8 
REMARK    5  A    between atoms: C6_8  and  O2_9 
REMARK    6  A    between atoms: C6_8  and  C7_11 
REMARK    7  A    between atoms: C7_11  and  C8_12 
REMARK    8  A    between atoms: C7_11  and  N1_15 
REMARK    9  A    between atoms: C8_12  and  O3_13 
REMARK       I    between atoms: N1_15  and  C9_17 
REMARK   10  A    between atoms: C9_17  and  C10_19 
REMARK   11  A    between atoms: C10_19  and  N2_21 
REMARK   12  A    between atoms: N3_25  and  C15_26 
ROOT
HETATM    1  C10 UNL     1     -38.706  56.196   4.237  1.00  0.00     0.177 C 
HETATM    2  C11 UNL     1     -38.375  57.215   3.180  1.00  0.00     0.042 C 
ENDROOT
BRANCH   1   3
HETATM    3  C9  UNL     1     -38.930  54.902   3.526  1.00  0.00     0.244 C 
HETATM    4  N1  UNL     1     -38.268  54.569   2.330  1.00  0.00    -0.328 N 
ATOM      5  H1  UNL     1     -37.613  55.252   1.951  1.00  0.00     0.168 HD
HETATM    6  O4  UNL     1     -39.744  54.097   4.034  1.00  0.00    -0.271 OA
BRANCH   4   7
HETATM    7  C7  UNL     1     -38.440  53.350   1.602  1.00  0.00     0.044 C 
BRANCH   7   8
HETATM    8  C6  UNL     1     -37.371  52.980   0.649  1.00  0.00     0.195 C 
BRANCH   8   9
HETATM    9  C5  UNL     1     -36.152  52.325   1.153  1.00  0.00     0.156 C 
BRANCH   9  10
HETATM   10  C3  UNL     1     -35.088  52.237   0.045  1.00  0.00     0.013 C 
HETATM   11  C4  UNL     1     -35.346  53.288  -1.003  1.00  0.00     0.012 C 
BRANCH  10  12
HETATM   12  C2  UNL     1     -33.716  52.437   0.655  1.00  0.00     0.002 C 
HETATM   13  C1  UNL     1     -32.860  53.211  -0.334  1.00  0.00     0.005 C 
ENDBRANCH  10  12
ENDBRANCH   9  10
BRANCH   9  14
HETATM   14  O1  UNL     1     -35.526  52.827   2.246  1.00  0.00    -0.392 OA
ATOM     15  H1  UNL     1     -35.578  52.156   2.916  1.00  0.00     0.210 HD
ENDBRANCH   9  14
ENDBRANCH   8   9
BRANCH   8  16
HETATM   16  O2  UNL     1     -37.942  52.087  -0.318  1.00  0.00    -0.387 OA
ATOM     17  H2  UNL     1     -38.247  51.327   0.164  1.00  0.00     0.210 HD
ENDBRANCH   8  16
ENDBRANCH   7   8
BRANCH   7  18
HETATM   18  C8  UNL     1     -39.831  53.115   1.078  1.00  0.00     0.219 C 
BRANCH  18  19
HETATM   19  O3  UNL     1     -40.526  52.094   1.655  1.00  0.00    -0.395 OA
ATOM     20  H3  UNL     1     -40.220  51.216   1.460  1.00  0.00     0.209 HD
ENDBRANCH  18  19
ENDBRANCH   7  18
ENDBRANCH   4   7
ENDBRANCH   1   3
BRANCH   1  21
HETATM   21  N2  UNL     1     -37.743  56.063   5.263  1.00  0.00    -0.321 N 
HETATM   22  C12 UNL     1     -36.336  56.242   4.950  1.00  0.00     0.130 C 
HETATM   23  C13 UNL     1     -35.706  57.160   6.002  1.00  0.00     0.040 C 
HETATM   24  C14 UNL     1     -35.788  56.591   7.377  1.00  0.00     0.129 C 
HETATM   25  N3  UNL     1     -36.975  55.833   7.621  1.00  0.00    -0.329 N 
HETATM   26  C23 UNL     1     -38.003  55.769   6.638  1.00  0.00     0.321 C 
HETATM   27  O7  UNL     1     -39.154  55.453   6.961  1.00  0.00    -0.247 OA
BRANCH  25  28
HETATM   28  C15 UNL     1     -37.103  55.130   8.896  1.00  0.00     0.089 C 
HETATM   29  C16 UNL     1     -37.471  56.042  10.027  1.00  0.00     0.028 C 
HETATM   30  C17 UNL     1     -38.409  55.284  10.956  1.00  0.00     0.034 C 
HETATM   31  C18 UNL     1     -37.568  54.255  11.678  1.00  0.00     0.133 C 
HETATM   32  C19 UNL     1     -37.204  53.097  10.809  1.00  0.00     0.047 C 
HETATM   33  O6  UNL     1     -36.341  54.769  12.142  1.00  0.00    -0.316 OA
HETATM   34  C20 UNL     1     -35.842  53.470  10.301  1.00  0.00     0.090 C 
HETATM   35  C21 UNL     1     -35.823  54.384   9.128  1.00  0.00     0.040 C 
HETATM   36  C22 UNL     1     -35.276  54.173  11.490  1.00  0.00     0.263 C 
HETATM   37  O5  UNL     1     -34.056  54.184  11.787  1.00  0.00    -0.265 OA
ENDBRANCH  25  28
ENDBRANCH   1  21
TORSDOF 12
ENDMDL
MODEL 2
REMARK VINA RESULT: -7.823551900      3.913      7.603
REMARK  12 active torsions:
REMARK  status: ('A' for Active; 'I' for Inactive)
REMARK    1  A    between atoms: C2_2  and  C3_3 
REMARK    2  A    between atoms: C3_3  and  C5_5 
REMARK    3  A    between atoms: C5_5  and  O1_6 
REMARK    4  A    between atoms: C5_5  and  C6_8 
REMARK    5  A    between atoms: C6_8  and  O2_9 
REMARK    6  A    between atoms: C6_8  and  C7_11 
REMARK    7  A    between atoms: C7_11  and  C8_12 
REMARK    8  A    between atoms: C7_11  and  N1_15 
REMARK    9  A    between atoms: C8_12  and  O3_13 
REMARK       I    between atoms: N1_15  and  C9_17 
REMARK   10  A    between atoms: C9_17  and  C10_19 
REMARK   11  A    between atoms: C10_19  and  N2_21 
REMARK   12  A    between atoms: N3_25  and  C15_26 
ROOT
HETATM    1  C10 UNL     1     -38.197  56.496   4.332  1.00  0.00     0.177 C 
HETATM    2  C11 UNL     1     -37.519  56.222   5.647  1.00  0.00     0.042 C 
ENDROOT
BRANCH   1   3
HETATM    3  C9  UNL     1     -38.528  55.168   3.738  1.00  0.00     0.244 C 
HETATM    4  N1  UNL     1     -38.145  54.802   2.434  1.00  0.00    -0.328 N 
ATOM      5  H1  UNL     1     -37.619  55.487   1.892  1.00  0.00     0.168 HD
HETATM    6  O4  UNL     1     -39.175  54.362   4.446  1.00  0.00    -0.271 OA
BRANCH   4   7
HETATM    7  C7  UNL     1     -38.432  53.550   1.808  1.00  0.00     0.044 C 
BRANCH   7   8
HETATM    8  C6  UNL     1     -37.477  53.075   0.783  1.00  0.00     0.195 C 
BRANCH   8   9
HETATM    9  C5  UNL     1     -36.243  52.395   1.209  1.00  0.00     0.156 C 
BRANCH   9  10
HETATM   10  C3  UNL     1     -35.247  52.300   0.040  1.00  0.00     0.013 C 
HETATM   11  C4  UNL     1     -35.425  53.474  -0.887  1.00  0.00     0.012 C 
BRANCH  10  12
HETATM   12  C2  UNL     1     -33.834  52.281   0.589  1.00  0.00     0.002 C 
HETATM   13  C1  UNL     1     -32.937  53.046  -0.370  1.00  0.00     0.005 C 
ENDBRANCH  10  12
ENDBRANCH   9  10
BRANCH   9  14
HETATM   14  O1  UNL     1     -35.545  52.875   2.268  1.00  0.00    -0.392 OA
ATOM     15  H1  UNL     1     -36.135  52.846   3.013  1.00  0.00     0.210 HD
ENDBRANCH   9  14
ENDBRANCH   8   9
BRANCH   8  16
HETATM   16  O2  UNL     1     -38.175  52.155  -0.068  1.00  0.00    -0.387 OA
ATOM     17  H2  UNL     1     -38.700  52.682  -0.660  1.00  0.00     0.210 HD
ENDBRANCH   8  16
ENDBRANCH   7   8
BRANCH   7  18
HETATM   18  C8  UNL     1     -39.876  53.342   1.437  1.00  0.00     0.219 C 
BRANCH  18  19
HETATM   19  O3  UNL     1     -40.421  52.144   1.791  1.00  0.00    -0.395 OA
ATOM     20  H3  UNL     1     -40.484  51.970   2.722  1.00  0.00     0.209 HD
ENDBRANCH  18  19
ENDBRANCH   7  18
ENDBRANCH   4   7
ENDBRANCH   1   3
BRANCH   1  21
HETATM   21  N2  UNL     1     -39.337  57.328   4.408  1.00  0.00    -0.321 N 
HETATM   22  C12 UNL     1     -40.048  57.451   5.669  1.00  0.00     0.130 C 
HETATM   23  C13 UNL     1     -40.320  58.933   5.943  1.00  0.00     0.040 C 
HETATM   24  C14 UNL     1     -41.167  59.562   4.890  1.00  0.00     0.129 C 
HETATM   25  N3  UNL     1     -40.936  59.047   3.577  1.00  0.00    -0.329 N 
HETATM   26  C23 UNL     1     -39.892  58.107   3.346  1.00  0.00     0.321 C 
HETATM   27  O7  UNL     1     -39.442  57.945   2.206  1.00  0.00    -0.247 OA
BRANCH  25  28
HETATM   28  C15 UNL     1     -41.795  59.506   2.488  1.00  0.00     0.089 C 
HETATM   29  C16 UNL     1     -42.415  60.843   2.761  1.00  0.00     0.028 C 
HETATM   30  C17 UNL     1     -42.478  61.610   1.448  1.00  0.00     0.034 C 
HETATM   31  C18 UNL     1     -43.559  60.957   0.615  1.00  0.00     0.133 C 
HETATM   32  C19 UNL     1     -43.128  59.649   0.037  1.00  0.00     0.047 C 
HETATM   33  O6  UNL     1     -44.727  60.670   1.348  1.00  0.00    -0.316 OA
HETATM   34  C20 UNL     1     -43.654  58.653   1.026  1.00  0.00     0.090 C 
HETATM   35  C21 UNL     1     -42.803  58.427   2.225  1.00  0.00     0.040 C 
HETATM   36  C22 UNL     1     -44.933  59.305   1.438  1.00  0.00     0.263 C 
HETATM   37  O5  UNL     1     -45.962  58.678   1.789  1.00  0.00    -0.265 OA
ENDBRANCH  25  28
ENDBRANCH   1  21
TORSDOF 12
ENDMDL
MODEL 3
REMARK VINA RESULT: -7.492309289      4.232      8.012
REMARK  12 active torsions:
REMARK  status: ('A' for Active; 'I' for Inactive)
REMARK    1  A    between atoms: C2_2  and  C3_3 
REMARK    2  A    between atoms: C3_3  and  C5_5 
REMARK    3  A    between atoms: C5_5  and  O1_6 
REMARK    4  A    between atoms: C5_5  and  C6_8 
REMARK    5  A    between atoms: C6_8  and  O2_9 
REMARK    6  A    between atoms: C6_8  and  C7_11 
REMARK    7  A    between atoms: C7_11  and  C8_12 
REMARK    8  A    between atoms: C7_11  and  N1_15 
REMARK    9  A    between atoms: C8_12  and  O3_13 
REMARK       I    between atoms: N1_15  and  C9_17 
REMARK   10  A    between atoms: C9_17  and  C10_19 
REMARK   11  A    between atoms: C10_19  and  N2_21 
REMARK   12  A    between atoms: N3_25  and  C15_26 
ROOT
HETATM    1  C10 UNL     1     -37.806  57.892   4.230  1.00  0.00     0.177 C 
HETATM    2  C11 UNL     1     -37.052  58.217   5.491  1.00  0.00     0.042 C 
ENDROOT
BRANCH   1   3
HETATM    3  C9  UNL     1     -37.686  56.418   4.029  1.00  0.00     0.244 C 
HETATM    4  N1  UNL     1     -38.598  55.681   3.251  1.00  0.00    -0.328 N 
ATOM      5  H1  UNL     1     -39.364  56.195   2.815  1.00  0.00     0.168 HD
HETATM    6  O4  UNL     1     -36.727  55.834   4.584  1.00  0.00    -0.271 OA
BRANCH   4   7
HETATM    7  C7  UNL     1     -38.540  54.271   3.021  1.00  0.00     0.044 C 
BRANCH   7   8
HETATM    8  C6  UNL     1     -38.316  53.825   1.629  1.00  0.00     0.195 C 
BRANCH   8   9
HETATM    9  C5  UNL     1     -37.363  52.735   1.366  1.00  0.00     0.156 C 
BRANCH   9  10
HETATM   10  C3  UNL     1     -36.374  53.136   0.258  1.00  0.00     0.013 C 
HETATM   11  C4  UNL     1     -35.064  52.416   0.449  1.00  0.00     0.012 C 
BRANCH  10  12
HETATM   12  C2  UNL     1     -36.968  52.785  -1.092  1.00  0.00     0.002 C 
HETATM   13  C1  UNL     1     -35.977  53.187  -2.171  1.00  0.00     0.005 C 
ENDBRANCH  10  12
ENDBRANCH   9  10
BRANCH   9  14
HETATM   14  O1  UNL     1     -36.617  52.238   2.383  1.00  0.00    -0.392 OA
ATOM     15  H1  UNL     1     -37.230  51.880   3.015  1.00  0.00     0.210 HD
ENDBRANCH   9  14
ENDBRANCH   8   9
BRANCH   8  16
HETATM   16  O2  UNL     1     -39.580  53.396   1.102  1.00  0.00    -0.387 OA
ATOM     17  H2  UNL     1     -39.560  53.581   0.170  1.00  0.00     0.210 HD
ENDBRANCH   8  16
ENDBRANCH   7   8
BRANCH   7  18
HETATM   18  C8  UNL     1     -39.573  53.465   3.761  1.00  0.00     0.219 C 
BRANCH  18  19
HETATM   19  O3  UNL     1     -39.400  52.113   3.752  1.00  0.00    -0.395 OA
ATOM     20  H3  UNL     1     -39.159  51.716   4.580  1.00  0.00     0.209 HD
ENDBRANCH  18  19
ENDBRANCH   7  18
ENDBRANCH   4   7
ENDBRANCH   1   3
BRANCH   1  21
HETATM   21  N2  UNL     1     -39.156  58.308   4.216  1.00  0.00    -0.321 N 
HETATM   22  C12 UNL     1     -39.978  58.109   5.397  1.00  0.00     0.130 C 
HETATM   23  C13 UNL     1     -40.740  59.404   5.696  1.00  0.00     0.040 C 
HETATM   24  C14 UNL     1     -41.648  59.800   4.584  1.00  0.00     0.129 C 
HETATM   25  N3  UNL     1     -41.148  59.479   3.284  1.00  0.00    -0.329 N 
HETATM   26  C23 UNL     1     -39.839  58.941   3.130  1.00  0.00     0.321 C 
HETATM   27  O7  UNL     1     -39.261  59.011   2.039  1.00  0.00    -0.247 OA
BRANCH  25  28
HETATM   28  C15 UNL     1     -42.009  59.715   2.128  1.00  0.00     0.089 C 
HETATM   29  C16 UNL     1     -42.895  60.911   2.298  1.00  0.00     0.028 C 
HETATM   30  C17 UNL     1     -43.024  61.597   0.945  1.00  0.00     0.034 C 
HETATM   31  C18 UNL     1     -43.901  60.710   0.090  1.00  0.00     0.133 C 
HETATM   32  C19 UNL     1     -43.187  59.491  -0.395  1.00  0.00     0.047 C 
HETATM   33  O6  UNL     1     -45.034  60.226   0.772  1.00  0.00    -0.316 OA
HETATM   34  C20 UNL     1     -43.569  58.451   0.614  1.00  0.00     0.090 C 
HETATM   35  C21 UNL     1     -42.768  58.446   1.867  1.00  0.00     0.040 C 
HETATM   36  C22 UNL     1     -44.974  58.852   0.922  1.00  0.00     0.263 C 
HETATM   37  O5  UNL     1     -45.881  58.047   1.249  1.00  0.00    -0.265 OA
ENDBRANCH  25  28
ENDBRANCH   1  21
TORSDOF 12
ENDMDL
MODEL 4
REMARK VINA RESULT: -7.281591004      3.958      6.808
REMARK  12 active torsions:
REMARK  status: ('A' for Active; 'I' for Inactive)
REMARK    1  A    between atoms: C2_2  and  C3_3 
REMARK    2  A    between atoms: C3_3  and  C5_5 
REMARK    3  A    between atoms: C5_5  and  O1_6 
REMARK    4  A    between atoms: C5_5  and  C6_8 
REMARK    5  A    between atoms: C6_8  and  O2_9 
REMARK    6  A    between atoms: C6_8  and  C7_11 
REMARK    7  A    between atoms: C7_11  and  C8_12 
REMARK    8  A    between atoms: C7_11  and  N1_15 
REMARK    9  A    between atoms: C8_12  and  O3_13 
REMARK       I    between atoms: N1_15  and  C9_17 
REMARK   10  A    between atoms: C9_17  and  C10_19 
REMARK   11  A    between atoms: C10_19  and  N2_21 
REMARK   12  A    between atoms: N3_25  and  C15_26 
ROOT
HETATM    1  C10 UNL     1     -38.119  56.055   4.586  1.00  0.00     0.177 C 
HETATM    2  C11 UNL     1     -38.603  55.820   5.991  1.00  0.00     0.042 C 
ENDROOT
BRANCH   1   3
HETATM    3  C9  UNL     1     -38.565  54.882   3.778  1.00  0.00     0.244 C 
HETATM    4  N1  UNL     1     -37.902  54.471   2.607  1.00  0.00    -0.328 N 
ATOM      5  H1  UNL     1     -37.086  55.009   2.317  1.00  0.00     0.168 HD
HETATM    6  O4  UNL     1     -39.572  54.253   4.178  1.00  0.00    -0.271 OA
BRANCH   4   7
HETATM    7  C7  UNL     1     -38.279  53.360   1.790  1.00  0.00     0.044 C 
BRANCH   7   8
HETATM    8  C6  UNL     1     -37.333  52.954   0.728  1.00  0.00     0.195 C 
BRANCH   8   9
HETATM    9  C5  UNL     1     -36.069  52.298   1.100  1.00  0.00     0.156 C 
BRANCH   9  10
HETATM   10  C3  UNL     1     -35.104  52.263  -0.097  1.00  0.00     0.013 C 
HETATM   11  C4  UNL     1     -35.307  53.482  -0.959  1.00  0.00     0.012 C 
BRANCH  10  12
HETATM   12  C2  UNL     1     -33.678  52.217   0.413  1.00  0.00     0.002 C 
HETATM   13  C1  UNL     1     -32.846  53.194  -0.401  1.00  0.00     0.005 C 
ENDBRANCH  10  12
ENDBRANCH   9  10
BRANCH   9  14
HETATM   14  O1  UNL     1     -35.356  52.768   2.153  1.00  0.00    -0.392 OA
ATOM     15  H1  UNL     1     -35.524  52.176   2.877  1.00  0.00     0.210 HD
ENDBRANCH   9  14
ENDBRANCH   8   9
BRANCH   8  16
HETATM   16  O2  UNL     1     -38.022  52.045  -0.143  1.00  0.00    -0.387 OA
ATOM     17  H2  UNL     1     -38.927  52.336  -0.174  1.00  0.00     0.210 HD
ENDBRANCH   8  16
ENDBRANCH   7   8
BRANCH   7  18
HETATM   18  C8  UNL     1     -39.720  53.351   1.358  1.00  0.00     0.219 C 
BRANCH  18  19
HETATM   19  O3  UNL     1     -40.453  52.264   1.732  1.00  0.00    -0.395 OA
ATOM     20  H3  UNL     1     -40.420  51.515   1.150  1.00  0.00     0.209 HD
ENDBRANCH  18  19
ENDBRANCH   7  18
ENDBRANCH   4   7
ENDBRANCH   1   3
BRANCH   1  21
HETATM   21  N2  UNL     1     -38.537  57.273   4.005  1.00  0.00    -0.321 N 
HETATM   22  C12 UNL     1     -39.614  57.267   3.030  1.00  0.00     0.130 C 
HETATM   23  C13 UNL     1     -40.610  58.376   3.382  1.00  0.00     0.040 C 
HETATM   24  C14 UNL     1     -39.989  59.731   3.350  1.00  0.00     0.129 C 
HETATM   25  N3  UNL     1     -38.624  59.752   3.773  1.00  0.00    -0.329 N 
HETATM   26  C23 UNL     1     -38.010  58.573   4.283  1.00  0.00     0.321 C 
HETATM   27  O7  UNL     1     -36.994  58.653   4.983  1.00  0.00    -0.247 OA
BRANCH  25  28
HETATM   28  C15 UNL     1     -37.881  61.006   3.668  1.00  0.00     0.089 C 
HETATM   29  C16 UNL     1     -37.800  61.744   4.970  1.00  0.00     0.028 C 
HETATM   30  C17 UNL     1     -36.432  62.405   5.052  1.00  0.00     0.034 C 
HETATM   31  C18 UNL     1     -36.446  63.556   4.070  1.00  0.00     0.133 C 
HETATM   32  C19 UNL     1     -36.340  63.102   2.651  1.00  0.00     0.047 C 
HETATM   33  O6  UNL     1     -37.628  64.319   4.127  1.00  0.00    -0.316 OA
HETATM   34  C20 UNL     1     -37.771  63.049   2.206  1.00  0.00     0.090 C 
HETATM   35  C21 UNL     1     -38.511  61.810   2.569  1.00  0.00     0.040 C 
HETATM   36  C22 UNL     1     -38.347  64.208   2.950  1.00  0.00     0.263 C 
HETATM   37  O5  UNL     1     -39.302  64.909   2.533  1.00  0.00    -0.265 OA
ENDBRANCH  25  28
ENDBRANCH   1  21
TORSDOF 12
ENDMDL
MODEL 5
REMARK VINA RESULT: -7.088706986      4.931      9.182
REMARK  12 active torsions:
REMARK  status: ('A' for Active; 'I' for Inactive)
REMARK    1  A    between atoms: C2_2  and  C3_3 
REMARK    2  A    between atoms: C3_3  and  C5_5 
REMARK    3  A    between atoms: C5_5  and  O1_6 
REMARK    4  A    between atoms: C5_5  and  C6_8 
REMARK    5  A    between atoms: C6_8  and  O2_9 
REMARK    6  A    between atoms: C6_8  and  C7_11 
REMARK    7  A    between atoms: C7_11  and  C8_12 
REMARK    8  A    between atoms: C7_11  and  N1_15 
REMARK    9  A    between atoms: C8_12  and  O3_13 
REMARK       I    between atoms: N1_15  and  C9_17 
REMARK   10  A    between atoms: C9_17  and  C10_19 
REMARK   11  A    between atoms: C10_19  and  N2_21 
REMARK   12  A    between atoms: N3_25  and  C15_26 
ROOT
HETATM    1  C10 UNL     1     -37.828  60.488   3.775  1.00  0.00     0.177 C 
HETATM    2  C11 UNL     1     -37.071  61.559   4.511  1.00  0.00     0.042 C 
ENDROOT
BRANCH   1   3
HETATM    3  C9  UNL     1     -37.561  59.206   4.491  1.00  0.00     0.244 C 
HETATM    4  N1  UNL     1     -38.550  58.226   4.689  1.00  0.00    -0.328 N 
ATOM      5  H1  UNL     1     -39.481  58.419   4.320  1.00  0.00     0.168 HD
HETATM    6  O4  UNL     1     -36.400  59.017   4.924  1.00  0.00    -0.271 OA
BRANCH   4   7
HETATM    7  C7  UNL     1     -38.359  56.982   5.367  1.00  0.00     0.044 C 
BRANCH   7   8
HETATM    8  C6  UNL     1     -37.917  55.832   4.549  1.00  0.00     0.195 C 
BRANCH   8   9
HETATM    9  C5  UNL     1     -38.481  55.646   3.202  1.00  0.00     0.156 C 
BRANCH   9  10
HETATM   10  C3  UNL     1     -38.565  54.151   2.852  1.00  0.00     0.013 C 
HETATM   11  C4  UNL     1     -39.537  53.459   3.772  1.00  0.00     0.012 C 
BRANCH  10  12
HETATM   12  C2  UNL     1     -39.015  54.000   1.412  1.00  0.00     0.002 C 
HETATM   13  C1  UNL     1     -40.013  52.857   1.339  1.00  0.00     0.005 C 
ENDBRANCH  10  12
ENDBRANCH   9  10
BRANCH   9  14
HETATM   14  O1  UNL     1     -39.692  56.178   2.905  1.00  0.00    -0.392 OA
ATOM     15  H1  UNL     1     -39.537  56.851   2.253  1.00  0.00     0.210 HD
ENDBRANCH   9  14
ENDBRANCH   8   9
BRANCH   8  16
HETATM   16  O2  UNL     1     -36.495  55.937   4.384  1.00  0.00    -0.387 OA
ATOM     17  H2  UNL     1     -36.203  56.605   4.993  1.00  0.00     0.210 HD
ENDBRANCH   8  16
ENDBRANCH   7   8
BRANCH   7  18
HETATM   18  C8  UNL     1     -39.420  56.640   6.377  1.00  0.00     0.219 C 
BRANCH  18  19
HETATM   19  O3  UNL     1     -40.688  56.508   5.895  1.00  0.00    -0.395 OA
ATOM     20  H3  UNL     1     -41.255  57.263   5.995  1.00  0.00     0.209 HD
ENDBRANCH  18  19
ENDBRANCH   7  18
ENDBRANCH   4   7
ENDBRANCH   1   3
BRANCH   1  21
HETATM   21  N2  UNL     1     -39.215  60.723   3.635  1.00  0.00    -0.321 N 
HETATM   22  C12 UNL     1     -40.004  61.059   4.808  1.00  0.00     0.130 C 
HETATM   23  C13 UNL     1     -40.895  62.261   4.480  1.00  0.00     0.040 C 
HETATM   24  C14 UNL     1     -41.847  61.978   3.368  1.00  0.00     0.129 C 
HETATM   25  N3  UNL     1     -41.323  61.106   2.365  1.00  0.00    -0.329 N 
HETATM   26  C23 UNL     1     -39.966  60.679   2.419  1.00  0.00     0.321 C 
HETATM   27  O7  UNL     1     -39.406  60.254   1.402  1.00  0.00    -0.247 OA
BRANCH  25  28
HETATM   28  C15 UNL     1     -42.211  60.666   1.291  1.00  0.00     0.089 C 
HETATM   29  C16 UNL     1     -43.455  61.495   1.191  1.00  0.00     0.028 C 
HETATM   30  C17 UNL     1     -43.811  61.634  -0.283  1.00  0.00     0.034 C 
HETATM   31  C18 UNL     1     -44.328  60.286  -0.734  1.00  0.00     0.133 C 
HETATM   32  C19 UNL     1     -43.237  59.281  -0.907  1.00  0.00     0.047 C 
HETATM   33  O6  UNL     1     -45.226  59.702   0.181  1.00  0.00    -0.316 OA
HETATM   34  C20 UNL     1     -43.239  58.550   0.403  1.00  0.00     0.090 C 
HETATM   35  C21 UNL     1     -42.487  59.207   1.505  1.00  0.00     0.040 C 
HETATM   36  C22 UNL     1     -44.696  58.546   0.727  1.00  0.00     0.263 C 
HETATM   37  O5  UNL     1     -45.271  57.638   1.376  1.00  0.00    -0.265 OA
ENDBRANCH  25  28
ENDBRANCH   1  21
TORSDOF 12
ENDMDL
