MODEL 1
REMARK VINA RESULT: -5.703516785      0.000      0.000
REMARK  0 active torsions:
REMARK  status: ('A' for Active; 'I' for Inactive)
ROOT
HETATM    1  C1  UNL     1      16.392   3.275  13.016  1.00  0.00     0.143 C 
HETATM    2  N1  UNL     1      15.897   2.948  14.285  1.00  0.00    -0.415 N 
HETATM    3  C2  UNL     1      16.828   2.844  15.346  1.00  0.00     0.137 C 
HETATM    4  C3  UNL     1      16.310   1.716  16.234  1.00  0.00     0.133 C 
HETATM    5  C4  UNL     1      16.447   0.481  15.458  1.00  0.00     0.067 C 
HETATM    6  N2  UNL     1      16.535  -0.496  14.846  1.00  0.00    -0.197 NA
HETATM    7  C5  UNL     1      14.915   1.957  16.660  1.00  0.00     0.072 A 
HETATM    8  C6  UNL     1      14.734   2.004  18.133  1.00  0.00     0.071 C 
HETATM    9  N3  UNL     1      14.598   2.059  19.280  1.00  0.00    -0.196 NA
HETATM   10  C7  UNL     1      13.762   1.414  15.886  1.00  0.00     0.034 A 
HETATM   11  C8  UNL     1      14.090   2.859  15.891  1.00  0.00     0.029 A 
HETATM   12  C9  UNL     1      14.639   3.471  14.661  1.00  0.00     0.122 C 
ENDROOT
TORSDOF 0
ENDMDL
MODEL 2
REMARK VINA RESULT: -5.646532848      1.662      4.023
REMARK  0 active torsions:
REMARK  status: ('A' for Active; 'I' for Inactive)
ROOT
HETATM    1  C1  UNL     1      13.939   2.952  17.078  1.00  0.00     0.143 C 
HETATM    2  N1  UNL     1      14.626   2.986  15.858  1.00  0.00    -0.415 N 
HETATM    3  C2  UNL     1      14.368   1.948  14.931  1.00  0.00     0.137 C 
HETATM    4  C3  UNL     1      15.701   1.679  14.238  1.00  0.00     0.133 C 
HETATM    5  C4  UNL     1      16.586   1.100  15.252  1.00  0.00     0.067 C 
HETATM    6  N2  UNL     1      17.296   0.659  16.051  1.00  0.00    -0.197 NA
HETATM    7  C5  UNL     1      16.263   2.911  13.644  1.00  0.00     0.072 A 
HETATM    8  C6  UNL     1      16.496   2.821  12.181  1.00  0.00     0.071 C 
HETATM    9  N3  UNL     1      16.659   2.756  11.038  1.00  0.00    -0.196 NA
HETATM   10  C7  UNL     1      17.220   3.770  14.398  1.00  0.00     0.034 A 
HETATM   11  C8  UNL     1      15.823   4.194  14.138  1.00  0.00     0.029 A 
HETATM   12  C9  UNL     1      14.871   4.247  15.270  1.00  0.00     0.122 C 
ENDROOT
TORSDOF 0
ENDMDL
MODEL 3
REMARK VINA RESULT: -5.373300836      1.790      3.104
REMARK  0 active torsions:
REMARK  status: ('A' for Active; 'I' for Inactive)
ROOT
HETATM    1  C1  UNL     1      17.559   1.491  11.588  1.00  0.00     0.143 C 
HETATM    2  N1  UNL     1      16.781   1.358  12.746  1.00  0.00    -0.415 N 
HETATM    3  C2  UNL     1      15.586   2.111  12.824  1.00  0.00     0.137 C 
HETATM    4  C3  UNL     1      15.449   2.509  14.291  1.00  0.00     0.133 C 
HETATM    5  C4  UNL     1      16.536   3.452  14.568  1.00  0.00     0.067 C 
HETATM    6  N2  UNL     1      17.401   4.183  14.800  1.00  0.00    -0.197 NA
HETATM    7  C5  UNL     1      15.493   1.329  15.180  1.00  0.00     0.072 A 
HETATM    8  C6  UNL     1      14.285   1.170  16.030  1.00  0.00     0.071 C 
HETATM    9  N3  UNL     1      13.336   1.037  16.677  1.00  0.00    -0.196 NA
HETATM   10  C7  UNL     1      16.772   0.858  15.784  1.00  0.00     0.034 A 
HETATM   11  C8  UNL     1      16.094   0.107  14.700  1.00  0.00     0.029 A 
HETATM   12  C9  UNL     1      16.710   0.085  13.355  1.00  0.00     0.122 C 
ENDROOT
TORSDOF 0
ENDMDL
MODEL 4
REMARK VINA RESULT: -5.273886948      1.587      1.712
REMARK  0 active torsions:
REMARK  status: ('A' for Active; 'I' for Inactive)
ROOT
HETATM    1  C1  UNL     1      16.441   5.446  13.514  1.00  0.00     0.143 C 
HETATM    2  N1  UNL     1      16.089   4.409  14.389  1.00  0.00    -0.415 N 
HETATM    3  C2  UNL     1      17.131   3.606  14.909  1.00  0.00     0.137 C 
HETATM    4  C3  UNL     1      16.551   2.199  15.010  1.00  0.00     0.133 C 
HETATM    5  C4  UNL     1      16.338   1.738  13.635  1.00  0.00     0.067 C 
HETATM    6  N2  UNL     1      16.150   1.374  12.554  1.00  0.00    -0.197 NA
HETATM    7  C5  UNL     1      15.304   2.180  15.804  1.00  0.00     0.072 A 
HETATM    8  C6  UNL     1      15.357   1.285  16.987  1.00  0.00     0.071 C 
HETATM    9  N3  UNL     1      15.407   0.602  17.919  1.00  0.00    -0.196 NA
HETATM   10  C7  UNL     1      13.968   2.314  15.156  1.00  0.00     0.034 A 
HETATM   11  C8  UNL     1      14.557   3.405  15.969  1.00  0.00     0.029 A 
HETATM   12  C9  UNL     1      15.021   4.633  15.286  1.00  0.00     0.122 C 
ENDROOT
TORSDOF 0
ENDMDL
MODEL 5
REMARK VINA RESULT: -5.194454480      3.134      5.484
REMARK  0 active torsions:
REMARK  status: ('A' for Active; 'I' for Inactive)
ROOT
HETATM    1  C1  UNL     1      15.374   4.080  14.283  1.00  0.00     0.143 C 
HETATM    2  N1  UNL     1      16.089   3.189  13.472  1.00  0.00    -0.415 N 
HETATM    3  C2  UNL     1      17.427   3.522  13.152  1.00  0.00     0.137 C 
HETATM    4  C3  UNL     1      17.640   3.026  11.725  1.00  0.00     0.133 C 
HETATM    5  C4  UNL     1      16.801   3.865  10.864  1.00  0.00     0.067 C 
HETATM    6  N2  UNL     1      16.129   4.511  10.181  1.00  0.00    -0.197 NA
HETATM    7  C5  UNL     1      17.314   1.590  11.594  1.00  0.00     0.072 A 
HETATM    8  C6  UNL     1      18.444   0.759  11.106  1.00  0.00     0.071 C 
HETATM    9  N3  UNL     1      19.330   0.109  10.745  1.00  0.00    -0.196 NA
HETATM   10  C7  UNL     1      15.955   1.136  11.182  1.00  0.00     0.034 A 
HETATM   11  C8  UNL     1      16.449   0.973  12.570  1.00  0.00     0.029 A 
HETATM   12  C9  UNL     1      15.856   1.806  13.641  1.00  0.00     0.122 C 
ENDROOT
TORSDOF 0
ENDMDL
