MODEL 1
REMARK VINA RESULT: -5.650745650      0.000      0.000
REMARK  2 active torsions:
REMARK  status: ('A' for Active; 'I' for Inactive)
REMARK    1  A    between atoms: C2_2  and  O1_3 
REMARK    2  A    between atoms: C2_2  and  C3_5 
ROOT
HETATM    1  C3  UNL     1      14.903   2.350  14.707  1.00  0.00     0.071 C 
HETATM    2  C4  UNL     1      14.597   3.829  14.658  1.00  0.00     0.243 C 
HETATM    3  N1  UNL     1      15.082   4.460  13.457  1.00  0.00    -0.074 N 
ATOM      4  H11 UNL     1      14.661   5.381  13.338  1.00  0.00     0.277 HD
ATOM      5  H12 UNL     1      14.709   3.995  12.629  1.00  0.00     0.277 HD
HETATM    6  C5  UNL     1      16.513   4.544  13.392  1.00  0.00     0.232 C 
HETATM    7  C6  UNL     1      17.209   4.422  14.697  1.00  0.00     0.028 C 
HETATM    8  C7  UNL     1      17.189   3.075  15.334  1.00  0.00     0.006 C 
HETATM    9  C8  UNL     1      16.357   2.057  14.632  1.00  0.00    -0.007 C 
HETATM   10  C9  UNL     1      16.692   0.703  15.181  1.00  0.00     0.011 C 
ENDROOT
BRANCH   1  11
HETATM   11  C2  UNL     1      14.194   1.771  15.866  1.00  0.00     0.040 C 
HETATM   12  C1  UNL     1      14.080   2.376  17.031  1.00  0.00     0.046 C 
BRANCH  11  13
HETATM   13  O1  UNL     1      13.611   0.523  15.729  1.00  0.00    -0.365 OA
ATOM     14  H1  UNL     1      13.706   0.081  14.893  1.00  0.00     0.217 HD
ENDBRANCH  11  13
ENDBRANCH   1  11
TORSDOF 2
ENDMDL
MODEL 2
REMARK VINA RESULT: -5.595342357      1.639      2.749
REMARK  2 active torsions:
REMARK  status: ('A' for Active; 'I' for Inactive)
REMARK    1  A    between atoms: C2_2  and  O1_3 
REMARK    2  A    between atoms: C2_2  and  C3_5 
ROOT
HETATM    1  C3  UNL     1      16.479   2.556  15.450  1.00  0.00     0.071 C 
HETATM    2  C4  UNL     1      17.044   3.378  14.315  1.00  0.00     0.243 C 
HETATM    3  N1  UNL     1      17.160   4.777  14.641  1.00  0.00    -0.074 N 
ATOM      4  H11 UNL     1      17.756   5.257  13.967  1.00  0.00     0.277 HD
ATOM      5  H12 UNL     1      17.720   4.905  15.484  1.00  0.00     0.277 HD
HETATM    6  C5  UNL     1      15.895   5.442  14.765  1.00  0.00     0.232 C 
HETATM    7  C6  UNL     1      14.757   4.756  14.104  1.00  0.00     0.028 C 
HETATM    8  C7  UNL     1      14.295   3.485  14.731  1.00  0.00     0.006 C 
HETATM    9  C8  UNL     1      15.127   3.005  15.872  1.00  0.00    -0.007 C 
HETATM   10  C9  UNL     1      14.373   1.932  16.597  1.00  0.00     0.011 C 
ENDROOT
BRANCH   1  11
HETATM   11  C2  UNL     1      16.593   1.130  15.087  1.00  0.00     0.040 C 
HETATM   12  C1  UNL     1      16.112   0.617  13.973  1.00  0.00     0.046 C 
BRANCH  11  13
HETATM   13  O1  UNL     1      17.242   0.274  15.960  1.00  0.00    -0.365 OA
ATOM     14  H1  UNL     1      17.860   0.655  16.573  1.00  0.00     0.217 HD
ENDBRANCH  11  13
ENDBRANCH   1  11
TORSDOF 2
ENDMDL
MODEL 3
REMARK VINA RESULT: -5.296935451      1.465      2.415
REMARK  2 active torsions:
REMARK  status: ('A' for Active; 'I' for Inactive)
REMARK    1  A    between atoms: C2_2  and  O1_3 
REMARK    2  A    between atoms: C2_2  and  C3_5 
ROOT
HETATM    1  C3  UNL     1      15.692   2.165  16.059  1.00  0.00     0.071 C 
HETATM    2  C4  UNL     1      16.469   1.872  14.797  1.00  0.00     0.243 C 
HETATM    3  N1  UNL     1      17.470   2.868  14.512  1.00  0.00    -0.074 N 
ATOM      4  H11 UNL     1      18.127   2.530  13.809  1.00  0.00     0.277 HD
ATOM      5  H12 UNL     1      18.106   2.976  15.302  1.00  0.00     0.277 HD
HETATM    6  C5  UNL     1      16.921   4.136  14.125  1.00  0.00     0.232 C 
HETATM    7  C6  UNL     1      15.520   4.091  13.636  1.00  0.00     0.028 C 
HETATM    8  C7  UNL     1      14.472   3.804  14.655  1.00  0.00     0.006 C 
HETATM    9  C8  UNL     1      14.987   3.471  16.014  1.00  0.00    -0.007 C 
HETATM   10  C9  UNL     1      13.849   3.536  16.987  1.00  0.00     0.011 C 
ENDROOT
BRANCH   1  11
HETATM   11  C2  UNL     1      14.846   0.994  16.362  1.00  0.00     0.040 C 
HETATM   12  C1  UNL     1      14.863   0.357  17.516  1.00  0.00     0.046 C 
BRANCH  11  13
HETATM   13  O1  UNL     1      13.980   0.531  15.386  1.00  0.00    -0.365 OA
ATOM     14  H1  UNL     1      13.119   0.239  15.663  1.00  0.00     0.217 HD
ENDBRANCH  11  13
ENDBRANCH   1  11
TORSDOF 2
ENDMDL
MODEL 4
REMARK VINA RESULT: -5.090780921      2.123      3.420
REMARK  2 active torsions:
REMARK  status: ('A' for Active; 'I' for Inactive)
REMARK    1  A    between atoms: C2_2  and  O1_3 
REMARK    2  A    between atoms: C2_2  and  C3_5 
ROOT
HETATM    1  C3  UNL     1      14.859   2.984  14.444  1.00  0.00     0.071 C 
HETATM    2  C4  UNL     1      15.955   2.366  13.608  1.00  0.00     0.243 C 
HETATM    3  N1  UNL     1      15.777   0.950  13.411  1.00  0.00    -0.074 N 
ATOM      4  H11 UNL     1      16.379   0.611  12.661  1.00  0.00     0.277 HD
ATOM      5  H12 UNL     1      14.865   0.755  12.998  1.00  0.00     0.277 HD
HETATM    6  C5  UNL     1      15.970   0.177  14.605  1.00  0.00     0.232 C 
HETATM    7  C6  UNL     1      16.748   0.854  15.672  1.00  0.00     0.028 C 
HETATM    8  C7  UNL     1      16.076   1.990  16.362  1.00  0.00     0.006 C 
HETATM    9  C8  UNL     1      14.752   2.379  15.797  1.00  0.00    -0.007 C 
HETATM   10  C9  UNL     1      14.062   3.285  16.771  1.00  0.00     0.011 C 
ENDROOT
BRANCH   1  11
HETATM   11  C2  UNL     1      15.027   4.451  14.413  1.00  0.00     0.040 C 
HETATM   12  C1  UNL     1      16.142   5.067  14.746  1.00  0.00     0.046 C 
BRANCH  11  13
HETATM   13  O1  UNL     1      13.957   5.231  14.010  1.00  0.00    -0.365 OA
ATOM     14  H1  UNL     1      13.182   4.785  13.688  1.00  0.00     0.217 HD
ENDBRANCH  11  13
ENDBRANCH   1  11
TORSDOF 2
ENDMDL
MODEL 5
REMARK VINA RESULT: -5.089457223      1.618      2.721
REMARK  2 active torsions:
REMARK  status: ('A' for Active; 'I' for Inactive)
REMARK    1  A    between atoms: C2_2  and  O1_3 
REMARK    2  A    between atoms: C2_2  and  C3_5 
ROOT
HETATM    1  C3  UNL     1      16.407   2.462  14.601  1.00  0.00     0.071 C 
HETATM    2  C4  UNL     1      17.025   3.394  13.587  1.00  0.00     0.243 C 
HETATM    3  N1  UNL     1      17.575   4.584  14.184  1.00  0.00    -0.074 N 
ATOM      4  H11 UNL     1      18.187   5.068  13.527  1.00  0.00     0.277 HD
ATOM      5  H12 UNL     1      18.256   4.345  14.905  1.00  0.00     0.277 HD
HETATM    6  C5  UNL     1      16.579   5.478  14.702  1.00  0.00     0.232 C 
HETATM    7  C6  UNL     1      15.216   5.288  14.147  1.00  0.00     0.028 C 
HETATM    8  C7  UNL     1      14.501   4.047  14.558  1.00  0.00     0.006 C 
HETATM    9  C8  UNL     1      15.307   3.094  15.374  1.00  0.00    -0.007 C 
HETATM   10  C9  UNL     1      14.383   2.082  15.981  1.00  0.00     0.011 C 
ENDROOT
BRANCH   1  11
HETATM   11  C2  UNL     1      16.061   1.199  13.918  1.00  0.00     0.040 C 
HETATM   12  C1  UNL     1      16.457   0.012  14.329  1.00  0.00     0.046 C 
BRANCH  11  13
HETATM   13  O1  UNL     1      15.274   1.256  12.780  1.00  0.00    -0.365 OA
ATOM     14  H1  UNL     1      15.644   0.921  11.971  1.00  0.00     0.217 HD
ENDBRANCH  11  13
ENDBRANCH   1  11
TORSDOF 2
ENDMDL
