MODEL 1
REMARK VINA RESULT: -8.991435059      0.000      0.000
REMARK  13 active torsions:
REMARK  status: ('A' for Active; 'I' for Inactive)
REMARK    1  A    between atoms: O1_2  and  C2_3 
REMARK    2  A    between atoms: C2_3  and  C3_5 
REMARK    3  A    between atoms: C3_5  and  C4_6 
REMARK    4  A    between atoms: C3_5  and  O4_9 
REMARK    5  A    between atoms: C4_6  and  O3_7 
REMARK    6  A    between atoms: O4_9  and  C5_10 
REMARK    7  A    between atoms: C5_10  and  C6_12 
REMARK    8  A    between atoms: C8_14  and  C9_15 
REMARK    9  A    between atoms: C9_15  and  C10_16 
REMARK   10  A    between atoms: C13_19  and  C14_20 
REMARK   11  A    between atoms: C15_21  and  C16_22 
REMARK   12  A    between atoms: C18_24  and  O6_25 
REMARK   13  A    between atoms: C19_27  and  O7_28 
ROOT
HETATM    1  C10 UNL     1      25.404  45.355  -2.912  1.00  0.00     0.001 A 
HETATM    2  C11 UNL     1      25.008  44.693  -4.143  1.00  0.00    -0.006 A 
HETATM    3  C12 UNL     1      24.526  43.284  -4.261  1.00  0.00     0.011 C 
HETATM    4  C13 UNL     1      24.037  45.679  -3.469  1.00  0.00     0.016 A 
ENDROOT
BRANCH   4   5
HETATM    5  C14 UNL     1      23.821  46.997  -4.087  1.00  0.00    -0.025 C 
HETATM    6  C15 UNL     1      24.062  48.117  -3.441  1.00  0.00    -0.023 C 
BRANCH   6   7
HETATM    7  C16 UNL     1      23.844  49.462  -4.063  1.00  0.00     0.044 C 
HETATM    8  C17 UNL     1      24.697  49.661  -5.284  1.00  0.00     0.046 C 
HETATM    9  C18 UNL     1      24.089  50.754  -6.149  1.00  0.00     0.148 C 
HETATM   10  C19 UNL     1      24.984  51.946  -6.102  1.00  0.00     0.157 C 
HETATM   11  C20 UNL     1      24.554  53.012  -5.148  1.00  0.00     0.007 C 
HETATM   12  C21 UNL     1      25.581  54.147  -5.263  1.00  0.00     0.020 C 
HETATM   13  C22 UNL     1      23.224  53.585  -5.539  1.00  0.00     0.020 C 
HETATM   14  C23 UNL     1      24.546  52.587  -3.711  1.00  0.00     0.133 C 
HETATM   15  C24 UNL     1      25.842  52.038  -3.237  1.00  0.00     0.036 C 
HETATM   16  O8  UNL     1      23.537  51.707  -3.386  1.00  0.00    -0.374 OA
HETATM   17  C25 UNL     1      25.501  50.696  -2.639  1.00  0.00     0.041 C 
HETATM   18  C26 UNL     1      24.075  50.513  -3.006  1.00  0.00     0.065 C 
HETATM   19  C27 UNL     1      23.323  50.049  -1.753  1.00  0.00     0.047 C 
BRANCH   9  20
HETATM   20  O6  UNL     1      24.108  50.257  -7.473  1.00  0.00    -0.393 OA
ATOM     21  H6  UNL     1      24.776  50.754  -7.929  1.00  0.00     0.210 HD
ENDBRANCH   9  20
BRANCH  10  22
HETATM   22  O7  UNL     1      24.993  52.538  -7.387  1.00  0.00    -0.392 OA
ATOM     23  H7  UNL     1      24.880  51.848  -8.030  1.00  0.00     0.210 HD
ENDBRANCH  10  22
ENDBRANCH   6   7
ENDBRANCH   4   5
BRANCH   1  24
HETATM   24  C9  UNL     1      25.490  44.700  -1.557  1.00  0.00     0.033 C 
BRANCH  24  25
HETATM   25  C8  UNL     1      24.424  43.743  -1.275  1.00  0.00    -0.013 C 
HETATM   26  C6  UNL     1      23.462  43.796  -0.396  1.00  0.00     0.009 C 
HETATM   27  C7  UNL     1      22.515  42.603  -0.377  1.00  0.00     0.054 C 
BRANCH  26  28
HETATM   28  C5  UNL     1      23.187  44.847   0.556  1.00  0.00     0.289 C 
HETATM   29  O5  UNL     1      22.778  45.971   0.105  1.00  0.00    -0.260 OA
BRANCH  28  30
HETATM   30  O4  UNL     1      23.314  44.786   1.918  1.00  0.00    -0.300 OA
BRANCH  30  31
HETATM   31  C3  UNL     1      24.364  44.047   2.497  1.00  0.00     0.255 C 
BRANCH  31  32
HETATM   32  C2  UNL     1      24.024  43.617   3.885  1.00  0.00     0.290 C 
HETATM   33  O2  UNL     1      23.525  44.444   4.689  1.00  0.00    -0.262 OA
BRANCH  32  34
HETATM   34  O1  UNL     1      24.233  42.325   4.344  1.00  0.00    -0.324 OA
HETATM   35  C1  UNL     1      23.431  41.256   3.869  1.00  0.00     0.213 C 
ENDBRANCH  32  34
ENDBRANCH  31  32
BRANCH  31  36
HETATM   36  C4  UNL     1      25.613  44.886   2.459  1.00  0.00     0.207 C 
BRANCH  36  37
HETATM   37  O3  UNL     1      26.285  44.686   3.662  1.00  0.00    -0.398 OA
ATOM     38  H3  UNL     1      26.804  43.896   3.568  1.00  0.00     0.209 HD
ENDBRANCH  36  37
ENDBRANCH  31  36
ENDBRANCH  30  31
ENDBRANCH  28  30
ENDBRANCH  26  28
ENDBRANCH  24  25
ENDBRANCH   1  24
TORSDOF 13
ENDMDL
MODEL 2
REMARK VINA RESULT: -8.900784441      1.189      1.803
REMARK  13 active torsions:
REMARK  status: ('A' for Active; 'I' for Inactive)
REMARK    1  A    between atoms: O1_2  and  C2_3 
REMARK    2  A    between atoms: C2_3  and  C3_5 
REMARK    3  A    between atoms: C3_5  and  C4_6 
REMARK    4  A    between atoms: C3_5  and  O4_9 
REMARK    5  A    between atoms: C4_6  and  O3_7 
REMARK    6  A    between atoms: O4_9  and  C5_10 
REMARK    7  A    between atoms: C5_10  and  C6_12 
REMARK    8  A    between atoms: C8_14  and  C9_15 
REMARK    9  A    between atoms: C9_15  and  C10_16 
REMARK   10  A    between atoms: C13_19  and  C14_20 
REMARK   11  A    between atoms: C15_21  and  C16_22 
REMARK   12  A    between atoms: C18_24  and  O6_25 
REMARK   13  A    between atoms: C19_27  and  O7_28 
ROOT
HETATM    1  C10 UNL     1      25.473  45.147  -2.780  1.00  0.00     0.001 A 
HETATM    2  C11 UNL     1      24.854  44.378  -3.846  1.00  0.00    -0.006 A 
HETATM    3  C12 UNL     1      24.333  42.983  -3.728  1.00  0.00     0.011 C 
HETATM    4  C13 UNL     1      24.035  45.463  -3.123  1.00  0.00     0.016 A 
ENDROOT
BRANCH   4   5
HETATM    5  C14 UNL     1      23.738  46.719  -3.830  1.00  0.00    -0.025 C 
HETATM    6  C15 UNL     1      23.981  47.894  -3.294  1.00  0.00    -0.023 C 
BRANCH   6   7
HETATM    7  C16 UNL     1      23.681  49.176  -4.007  1.00  0.00     0.044 C 
HETATM    8  C17 UNL     1      24.346  49.239  -5.353  1.00  0.00     0.046 C 
HETATM    9  C18 UNL     1      23.623  50.254  -6.225  1.00  0.00     0.148 C 
HETATM   10  C19 UNL     1      24.521  51.427  -6.427  1.00  0.00     0.157 C 
HETATM   11  C20 UNL     1      24.241  52.590  -5.531  1.00  0.00     0.007 C 
HETATM   12  C21 UNL     1      25.245  53.688  -5.906  1.00  0.00     0.020 C 
HETATM   13  C22 UNL     1      22.870  53.147  -5.779  1.00  0.00     0.020 C 
HETATM   14  C23 UNL     1      24.442  52.306  -4.073  1.00  0.00     0.133 C 
HETATM   15  C24 UNL     1      25.790  51.782  -3.741  1.00  0.00     0.036 C 
HETATM   16  O8  UNL     1      23.487  51.482  -3.519  1.00  0.00    -0.374 OA
HETATM   17  C25 UNL     1      25.535  50.511  -2.970  1.00  0.00     0.041 C 
HETATM   18  C26 UNL     1      24.069  50.321  -3.105  1.00  0.00     0.065 C 
HETATM   19  C27 UNL     1      23.507  49.995  -1.716  1.00  0.00     0.047 C 
BRANCH   9  20
HETATM   20  O6  UNL     1      23.445  49.630  -7.482  1.00  0.00    -0.393 OA
ATOM     21  H6  UNL     1      24.025  50.083  -8.083  1.00  0.00     0.210 HD
ENDBRANCH   9  20
BRANCH  10  22
HETATM   22  O7  UNL     1      24.344  51.892  -7.752  1.00  0.00    -0.392 OA
ATOM     23  H7  UNL     1      24.405  52.839  -7.743  1.00  0.00     0.210 HD
ENDBRANCH  10  22
ENDBRANCH   6   7
ENDBRANCH   4   5
BRANCH   1  24
HETATM   24  C9  UNL     1      25.784  44.630  -1.399  1.00  0.00     0.033 C 
BRANCH  24  25
HETATM   25  C8  UNL     1      25.294  45.469  -0.310  1.00  0.00    -0.013 C 
HETATM   26  C6  UNL     1      24.293  45.281   0.507  1.00  0.00     0.009 C 
HETATM   27  C7  UNL     1      24.064  46.379   1.537  1.00  0.00     0.054 C 
BRANCH  26  28
HETATM   28  C5  UNL     1      23.383  44.161   0.550  1.00  0.00     0.289 C 
HETATM   29  O5  UNL     1      22.430  44.131  -0.302  1.00  0.00    -0.260 OA
BRANCH  28  30
HETATM   30  O4  UNL     1      23.413  43.100   1.414  1.00  0.00    -0.300 OA
BRANCH  30  31
HETATM   31  C3  UNL     1      23.077  43.282   2.769  1.00  0.00     0.255 C 
BRANCH  31  32
HETATM   32  C2  UNL     1      23.480  42.105   3.593  1.00  0.00     0.290 C 
HETATM   33  O2  UNL     1      24.311  42.251   4.524  1.00  0.00    -0.262 OA
BRANCH  32  34
HETATM   34  O1  UNL     1      22.975  40.830   3.380  1.00  0.00    -0.324 OA
HETATM   35  C1  UNL     1      23.010  39.863   4.417  1.00  0.00     0.213 C 
ENDBRANCH  32  34
ENDBRANCH  31  32
BRANCH  31  36
HETATM   36  C4  UNL     1      21.598  43.549   2.859  1.00  0.00     0.207 C 
BRANCH  36  37
HETATM   37  O3  UNL     1      20.953  42.577   2.098  1.00  0.00    -0.398 OA
ATOM     38  H3  UNL     1      20.030  42.799   2.079  1.00  0.00     0.209 HD
ENDBRANCH  36  37
ENDBRANCH  31  36
ENDBRANCH  30  31
ENDBRANCH  28  30
ENDBRANCH  26  28
ENDBRANCH  24  25
ENDBRANCH   1  24
TORSDOF 13
ENDMDL
MODEL 3
REMARK VINA RESULT: -8.840807222      3.968      5.681
REMARK  13 active torsions:
REMARK  status: ('A' for Active; 'I' for Inactive)
REMARK    1  A    between atoms: O1_2  and  C2_3 
REMARK    2  A    between atoms: C2_3  and  C3_5 
REMARK    3  A    between atoms: C3_5  and  C4_6 
REMARK    4  A    between atoms: C3_5  and  O4_9 
REMARK    5  A    between atoms: C4_6  and  O3_7 
REMARK    6  A    between atoms: O4_9  and  C5_10 
REMARK    7  A    between atoms: C5_10  and  C6_12 
REMARK    8  A    between atoms: C8_14  and  C9_15 
REMARK    9  A    between atoms: C9_15  and  C10_16 
REMARK   10  A    between atoms: C13_19  and  C14_20 
REMARK   11  A    between atoms: C15_21  and  C16_22 
REMARK   12  A    between atoms: C18_24  and  O6_25 
REMARK   13  A    between atoms: C19_27  and  O7_28 
ROOT
HETATM    1  C10 UNL     1      23.648  43.292  -0.708  1.00  0.00     0.001 A 
HETATM    2  C11 UNL     1      24.420  43.268  -1.938  1.00  0.00    -0.006 A 
HETATM    3  C12 UNL     1      23.924  42.815  -3.272  1.00  0.00     0.011 C 
HETATM    4  C13 UNL     1      23.850  44.605  -1.430  1.00  0.00     0.016 A 
ENDROOT
BRANCH   4   5
HETATM    5  C14 UNL     1      24.771  45.595  -0.849  1.00  0.00    -0.025 C 
HETATM    6  C15 UNL     1      24.547  46.888  -0.934  1.00  0.00    -0.023 C 
BRANCH   6   7
HETATM    7  C16 UNL     1      25.481  47.901  -0.346  1.00  0.00     0.044 C 
HETATM    8  C17 UNL     1      26.513  47.265   0.543  1.00  0.00     0.046 C 
HETATM    9  C18 UNL     1      27.703  48.201   0.681  1.00  0.00     0.148 C 
HETATM   10  C19 UNL     1      27.735  48.721   2.078  1.00  0.00     0.157 C 
HETATM   11  C20 UNL     1      27.148  50.085   2.250  1.00  0.00     0.007 C 
HETATM   12  C21 UNL     1      27.295  50.444   3.735  1.00  0.00     0.020 C 
HETATM   13  C22 UNL     1      27.922  51.109   1.474  1.00  0.00     0.020 C 
HETATM   14  C23 UNL     1      25.687  50.172   1.931  1.00  0.00     0.133 C 
HETATM   15  C24 UNL     1      24.847  49.209   2.688  1.00  0.00     0.036 C 
HETATM   16  O8  UNL     1      25.392  50.071   0.589  1.00  0.00    -0.374 OA
HETATM   17  C25 UNL     1      24.052  48.476   1.636  1.00  0.00     0.041 C 
HETATM   18  C26 UNL     1      24.657  48.946   0.364  1.00  0.00     0.065 C 
HETATM   19  C27 UNL     1      23.515  49.326  -0.587  1.00  0.00     0.047 C 
BRANCH   9  20
HETATM   20  O6  UNL     1      28.852  47.397   0.497  1.00  0.00    -0.393 OA
ATOM     21  H6  UNL     1      28.755  46.663   1.093  1.00  0.00     0.210 HD
ENDBRANCH   9  20
BRANCH  10  22
HETATM   22  O7  UNL     1      29.089  48.814   2.480  1.00  0.00    -0.392 OA
ATOM     23  H7  UNL     1      29.494  47.965   2.349  1.00  0.00     0.210 HD
ENDBRANCH  10  22
ENDBRANCH   6   7
ENDBRANCH   4   5
BRANCH   1  24
HETATM   24  C9  UNL     1      22.243  42.770  -0.549  1.00  0.00     0.033 C 
BRANCH  24  25
HETATM   25  C8  UNL     1      22.099  41.698   0.430  1.00  0.00    -0.013 C 
HETATM   26  C6  UNL     1      22.204  41.732   1.730  1.00  0.00     0.009 C 
HETATM   27  C7  UNL     1      21.989  40.405   2.447  1.00  0.00     0.054 C 
BRANCH  26  28
HETATM   28  C5  UNL     1      22.499  42.871   2.567  1.00  0.00     0.289 C 
HETATM   29  O5  UNL     1      23.715  43.060   2.913  1.00  0.00    -0.260 OA
BRANCH  28  30
HETATM   30  O4  UNL     1      21.615  43.799   3.049  1.00  0.00    -0.300 OA
BRANCH  30  31
HETATM   31  C3  UNL     1      21.931  45.170   2.995  1.00  0.00     0.255 C 
BRANCH  31  32
HETATM   32  C2  UNL     1      21.164  45.944   4.015  1.00  0.00     0.290 C 
HETATM   33  O2  UNL     1      19.984  45.615   4.289  1.00  0.00    -0.262 OA
BRANCH  32  34
HETATM   34  O1  UNL     1      21.699  47.032   4.690  1.00  0.00    -0.324 OA
HETATM   35  C1  UNL     1      20.910  48.185   4.932  1.00  0.00     0.213 C 
ENDBRANCH  32  34
ENDBRANCH  31  32
BRANCH  31  36
HETATM   36  C4  UNL     1      21.664  45.664   1.598  1.00  0.00     0.207 C 
BRANCH  36  37
HETATM   37  O3  UNL     1      20.938  46.847   1.707  1.00  0.00    -0.398 OA
ATOM     38  H3  UNL     1      20.452  46.956   0.898  1.00  0.00     0.209 HD
ENDBRANCH  36  37
ENDBRANCH  31  36
ENDBRANCH  30  31
ENDBRANCH  28  30
ENDBRANCH  26  28
ENDBRANCH  24  25
ENDBRANCH   1  24
TORSDOF 13
ENDMDL
MODEL 4
REMARK VINA RESULT: -8.767263499      1.392      1.962
REMARK  13 active torsions:
REMARK  status: ('A' for Active; 'I' for Inactive)
REMARK    1  A    between atoms: O1_2  and  C2_3 
REMARK    2  A    between atoms: C2_3  and  C3_5 
REMARK    3  A    between atoms: C3_5  and  C4_6 
REMARK    4  A    between atoms: C3_5  and  O4_9 
REMARK    5  A    between atoms: C4_6  and  O3_7 
REMARK    6  A    between atoms: O4_9  and  C5_10 
REMARK    7  A    between atoms: C5_10  and  C6_12 
REMARK    8  A    between atoms: C8_14  and  C9_15 
REMARK    9  A    between atoms: C9_15  and  C10_16 
REMARK   10  A    between atoms: C13_19  and  C14_20 
REMARK   11  A    between atoms: C15_21  and  C16_22 
REMARK   12  A    between atoms: C18_24  and  O6_25 
REMARK   13  A    between atoms: C19_27  and  O7_28 
ROOT
HETATM    1  C10 UNL     1      25.434  45.307  -2.945  1.00  0.00     0.001 A 
HETATM    2  C11 UNL     1      25.028  44.663  -4.183  1.00  0.00    -0.006 A 
HETATM    3  C12 UNL     1      24.525  43.263  -4.315  1.00  0.00     0.011 C 
HETATM    4  C13 UNL     1      24.071  45.657  -3.499  1.00  0.00     0.016 A 
ENDROOT
BRANCH   4   5
HETATM    5  C14 UNL     1      23.876  46.985  -4.103  1.00  0.00    -0.025 C 
HETATM    6  C15 UNL     1      24.066  48.094  -3.424  1.00  0.00    -0.023 C 
BRANCH   6   7
HETATM    7  C16 UNL     1      23.868  49.448  -4.032  1.00  0.00     0.044 C 
HETATM    8  C17 UNL     1      24.706  49.639  -5.265  1.00  0.00     0.046 C 
HETATM    9  C18 UNL     1      24.109  50.751  -6.113  1.00  0.00     0.148 C 
HETATM   10  C19 UNL     1      25.030  51.923  -6.071  1.00  0.00     0.157 C 
HETATM   11  C20 UNL     1      24.639  52.991  -5.102  1.00  0.00     0.007 C 
HETATM   12  C21 UNL     1      25.688  54.104  -5.225  1.00  0.00     0.020 C 
HETATM   13  C22 UNL     1      23.315  53.595  -5.467  1.00  0.00     0.020 C 
HETATM   14  C23 UNL     1      24.644  52.554  -3.668  1.00  0.00     0.133 C 
HETATM   15  C24 UNL     1      25.935  51.974  -3.219  1.00  0.00     0.036 C 
HETATM   16  O8  UNL     1      23.621  51.694  -3.334  1.00  0.00    -0.374 OA
HETATM   17  C25 UNL     1      25.574  50.635  -2.626  1.00  0.00     0.041 C 
HETATM   18  C26 UNL     1      24.138  50.486  -2.972  1.00  0.00     0.065 C 
HETATM   19  C27 UNL     1      23.396  50.028  -1.710  1.00  0.00     0.047 C 
BRANCH   9  20
HETATM   20  O6  UNL     1      24.095  50.264  -7.441  1.00  0.00    -0.393 OA
ATOM     21  H6  UNL     1      24.820  50.691  -7.882  1.00  0.00     0.210 HD
ENDBRANCH   9  20
BRANCH  10  22
HETATM   22  O7  UNL     1      25.031  52.525  -7.352  1.00  0.00    -0.392 OA
ATOM     23  H7  UNL     1      25.598  53.286  -7.318  1.00  0.00     0.210 HD
ENDBRANCH  10  22
ENDBRANCH   6   7
ENDBRANCH   4   5
BRANCH   1  24
HETATM   24  C9  UNL     1      25.510  44.637  -1.598  1.00  0.00     0.033 C 
BRANCH  24  25
HETATM   25  C8  UNL     1      24.429  43.695  -1.325  1.00  0.00    -0.013 C 
HETATM   26  C6  UNL     1      23.444  43.774  -0.473  1.00  0.00     0.009 C 
HETATM   27  C7  UNL     1      22.487  42.589  -0.455  1.00  0.00     0.054 C 
BRANCH  26  28
HETATM   28  C5  UNL     1      23.153  44.847   0.449  1.00  0.00     0.289 C 
HETATM   29  O5  UNL     1      22.810  45.978  -0.038  1.00  0.00    -0.260 OA
BRANCH  28  30
HETATM   30  O4  UNL     1      23.199  44.801   1.816  1.00  0.00    -0.300 OA
BRANCH  30  31
HETATM   31  C3  UNL     1      22.023  44.983   2.569  1.00  0.00     0.255 C 
BRANCH  31  32
HETATM   32  C2  UNL     1      22.273  45.833   3.770  1.00  0.00     0.290 C 
HETATM   33  O2  UNL     1      23.092  46.782   3.702  1.00  0.00    -0.262 OA
BRANCH  32  34
HETATM   34  O1  UNL     1      21.633  45.626   4.983  1.00  0.00    -0.324 OA
HETATM   35  C1  UNL     1      20.531  46.436   5.361  1.00  0.00     0.213 C 
ENDBRANCH  32  34
ENDBRANCH  31  32
BRANCH  31  36
HETATM   36  C4  UNL     1      21.485  43.627   2.943  1.00  0.00     0.207 C 
BRANCH  36  37
HETATM   37  O3  UNL     1      20.118  43.770   3.167  1.00  0.00    -0.398 OA
ATOM     38  H3  UNL     1      19.755  42.898   3.265  1.00  0.00     0.209 HD
ENDBRANCH  36  37
ENDBRANCH  31  36
ENDBRANCH  30  31
ENDBRANCH  28  30
ENDBRANCH  26  28
ENDBRANCH  24  25
ENDBRANCH   1  24
TORSDOF 13
ENDMDL
MODEL 5
REMARK VINA RESULT: -8.743783406      1.536      2.378
REMARK  13 active torsions:
REMARK  status: ('A' for Active; 'I' for Inactive)
REMARK    1  A    between atoms: O1_2  and  C2_3 
REMARK    2  A    between atoms: C2_3  and  C3_5 
REMARK    3  A    between atoms: C3_5  and  C4_6 
REMARK    4  A    between atoms: C3_5  and  O4_9 
REMARK    5  A    between atoms: C4_6  and  O3_7 
REMARK    6  A    between atoms: O4_9  and  C5_10 
REMARK    7  A    between atoms: C5_10  and  C6_12 
REMARK    8  A    between atoms: C8_14  and  C9_15 
REMARK    9  A    between atoms: C9_15  and  C10_16 
REMARK   10  A    between atoms: C13_19  and  C14_20 
REMARK   11  A    between atoms: C15_21  and  C16_22 
REMARK   12  A    between atoms: C18_24  and  O6_25 
REMARK   13  A    between atoms: C19_27  and  O7_28 
ROOT
HETATM    1  C10 UNL     1      25.381  45.135  -2.650  1.00  0.00     0.001 A 
HETATM    2  C11 UNL     1      24.860  44.369  -3.770  1.00  0.00    -0.006 A 
HETATM    3  C12 UNL     1      24.369  42.959  -3.710  1.00  0.00     0.011 C 
HETATM    4  C13 UNL     1      23.963  45.420  -3.090  1.00  0.00     0.016 A 
ENDROOT
BRANCH   4   5
HETATM    5  C14 UNL     1      23.684  46.679  -3.797  1.00  0.00    -0.025 C 
HETATM    6  C15 UNL     1      23.963  47.851  -3.270  1.00  0.00    -0.023 C 
BRANCH   6   7
HETATM    7  C16 UNL     1      23.681  49.137  -3.984  1.00  0.00     0.044 C 
HETATM    8  C17 UNL     1      24.355  49.195  -5.326  1.00  0.00     0.046 C 
HETATM    9  C18 UNL     1      23.648  50.218  -6.200  1.00  0.00     0.148 C 
HETATM   10  C19 UNL     1      24.560  51.382  -6.396  1.00  0.00     0.157 C 
HETATM   11  C20 UNL     1      24.287  52.546  -5.499  1.00  0.00     0.007 C 
HETATM   12  C21 UNL     1      25.305  53.634  -5.867  1.00  0.00     0.020 C 
HETATM   13  C22 UNL     1      22.924  53.119  -5.755  1.00  0.00     0.020 C 
HETATM   14  C23 UNL     1      24.476  52.259  -4.041  1.00  0.00     0.133 C 
HETATM   15  C24 UNL     1      25.817  51.720  -3.701  1.00  0.00     0.036 C 
HETATM   16  O8  UNL     1      23.509  51.444  -3.494  1.00  0.00    -0.374 OA
HETATM   17  C25 UNL     1      25.543  50.451  -2.933  1.00  0.00     0.041 C 
HETATM   18  C26 UNL     1      24.076  50.276  -3.078  1.00  0.00     0.065 C 
HETATM   19  C27 UNL     1      23.502  49.955  -1.693  1.00  0.00     0.047 C 
BRANCH   9  20
HETATM   20  O6  UNL     1      23.471  49.598  -7.459  1.00  0.00    -0.393 OA
ATOM     21  H6  UNL     1      22.537  49.623  -7.633  1.00  0.00     0.210 HD
ENDBRANCH   9  20
BRANCH  10  22
HETATM   22  O7  UNL     1      24.396  51.850  -7.721  1.00  0.00    -0.392 OA
ATOM     23  H7  UNL     1      25.006  52.565  -7.858  1.00  0.00     0.210 HD
ENDBRANCH  10  22
ENDBRANCH   6   7
ENDBRANCH   4   5
BRANCH   1  24
HETATM   24  C9  UNL     1      25.606  44.602  -1.258  1.00  0.00     0.033 C 
BRANCH  24  25
HETATM   25  C8  UNL     1      25.790  45.627  -0.236  1.00  0.00    -0.013 C 
HETATM   26  C6  UNL     1      24.923  46.164   0.577  1.00  0.00     0.009 C 
HETATM   27  C7  UNL     1      25.471  47.222   1.527  1.00  0.00     0.054 C 
BRANCH  26  28
HETATM   28  C5  UNL     1      23.512  45.877   0.685  1.00  0.00     0.289 C 
HETATM   29  O5  UNL     1      22.692  46.692   0.140  1.00  0.00    -0.260 OA
BRANCH  28  30
HETATM   30  O4  UNL     1      22.927  44.811   1.315  1.00  0.00    -0.300 OA
BRANCH  30  31
HETATM   31  C3  UNL     1      21.965  45.026   2.321  1.00  0.00     0.255 C 
BRANCH  31  32
HETATM   32  C2  UNL     1      22.592  45.549   3.569  1.00  0.00     0.290 C 
HETATM   33  O2  UNL     1      23.144  44.754   4.370  1.00  0.00    -0.262 OA
BRANCH  32  34
HETATM   34  O1  UNL     1      22.600  46.897   3.899  1.00  0.00    -0.324 OA
HETATM   35  C1  UNL     1      21.520  47.734   3.518  1.00  0.00     0.213 C 
ENDBRANCH  32  34
ENDBRANCH  31  32
BRANCH  31  36
HETATM   36  C4  UNL     1      21.232  43.733   2.559  1.00  0.00     0.207 C 
BRANCH  36  37
HETATM   37  O3  UNL     1      20.271  43.975   3.537  1.00  0.00    -0.398 OA
ATOM     38  H3  UNL     1      20.710  44.392   4.269  1.00  0.00     0.209 HD
ENDBRANCH  36  37
ENDBRANCH  31  36
ENDBRANCH  30  31
ENDBRANCH  28  30
ENDBRANCH  26  28
ENDBRANCH  24  25
ENDBRANCH   1  24
TORSDOF 13
ENDMDL
