MODEL 1
REMARK VINA RESULT: -7.635500679      0.000      0.000
REMARK  11 active torsions:
REMARK  status: ('A' for Active; 'I' for Inactive)
REMARK    1  A    between atoms: O1_2  and  C2_3 
REMARK    2  A    between atoms: C4_5  and  C5_6 
REMARK    3  A    between atoms: C6_8  and  C7_9 
REMARK    4  A    between atoms: C7_9  and  C8_10 
REMARK    5  A    between atoms: C8_10  and  O3_11 
REMARK    6  A    between atoms: C8_10  and  C9_13 
REMARK    7  A    between atoms: C9_13  and  N1_14 
REMARK    8  A    between atoms: N1_14  and  C10_17 
REMARK    9  A    between atoms: C21_29  and  O5_30 
REMARK   10  A    between atoms: C24_34  and  O6_35 
REMARK   11  A    between atoms: C26_37  and  O7_38 
ROOT
HETATM    1  C5  UNL     1      23.897  48.772   0.431  1.00  0.00     0.176 C 
HETATM    2  O2  UNL     1      23.243  47.541   0.815  1.00  0.00    -0.345 OA
HETATM    3  C6  UNL     1      23.037  47.363   2.167  1.00  0.00     0.048 C 
HETATM    4  C14 UNL     1      23.842  48.001   2.998  1.00  0.00     0.038 C 
HETATM    5  C15 UNL     1      24.950  48.894   2.594  1.00  0.00     0.162 C 
HETATM    6  O4  UNL     1      26.091  48.412   3.212  1.00  0.00    -0.370 OA
HETATM    7  C16 UNL     1      26.600  47.405   2.415  1.00  0.00     0.059 C 
HETATM    8  C17 UNL     1      28.109  47.450   2.546  1.00  0.00     0.046 C 
HETATM    9  C18 UNL     1      26.157  46.073   2.977  1.00  0.00     0.046 C 
HETATM   10  C19 UNL     1      26.113  47.628   1.013  1.00  0.00     0.039 C 
HETATM   11  C20 UNL     1      27.104  48.430   0.198  1.00  0.00     0.041 C 
HETATM   12  C21 UNL     1      26.312  49.669   0.610  1.00  0.00     0.133 C 
HETATM   13  C22 UNL     1      25.208  48.819   1.100  1.00  0.00     0.052 C 
ENDROOT
BRANCH   1  14
HETATM   14  C4  UNL     1      23.848  48.934  -1.028  1.00  0.00    -0.022 A 
HETATM   15  C3  UNL     1      23.404  50.097  -1.621  1.00  0.00     0.049 A 
HETATM   16  C2  UNL     1      23.335  50.288  -2.972  1.00  0.00     0.104 A 
HETATM   17  C26 UNL     1      23.736  49.249  -3.786  1.00  0.00     0.135 A 
HETATM   18  C24 UNL     1      24.188  48.063  -3.246  1.00  0.00     0.104 A 
HETATM   19  C23 UNL     1      24.240  47.919  -1.875  1.00  0.00     0.049 A 
BRANCH  16  20
HETATM   20  O1  UNL     1      22.874  51.496  -3.531  1.00  0.00    -0.353 OA
HETATM   21  C1  UNL     1      21.526  51.847  -3.553  1.00  0.00     0.210 C 
ENDBRANCH  16  20
BRANCH  17  22
HETATM   22  O7  UNL     1      23.687  49.386  -5.175  1.00  0.00    -0.351 OA
HETATM   23  C27 UNL     1      22.494  48.961  -5.805  1.00  0.00     0.210 C 
ENDBRANCH  17  22
BRANCH  18  24
HETATM   24  O6  UNL     1      24.582  47.042  -4.101  1.00  0.00    -0.353 OA
HETATM   25  C25 UNL     1      23.953  45.774  -3.966  1.00  0.00     0.210 C 
ENDBRANCH  18  24
ENDBRANCH   1  14
BRANCH   3  26
HETATM   26  C7  UNL     1      21.934  46.472   2.688  1.00  0.00     0.097 C 
BRANCH  26  27
HETATM   27  C8  UNL     1      22.063  45.088   2.069  1.00  0.00     0.149 C 
BRANCH  27  28
HETATM   28  O3  UNL     1      21.260  45.103   0.926  1.00  0.00    -0.394 OA
ATOM     29  H3  UNL     1      21.620  45.778   0.363  1.00  0.00     0.210 HD
ENDBRANCH  27  28
BRANCH  27  30
HETATM   30  C9  UNL     1      21.533  44.031   3.002  1.00  0.00     0.265 C 
BRANCH  30  31
HETATM   31  N1  UNL     1      20.983  42.935   2.245  1.00  0.00    -0.065 N 
ATOM     32  H12 UNL     1      20.122  42.587   2.669  1.00  0.00     0.278 HD
ATOM     33  H11 UNL     1      20.606  43.253   1.352  1.00  0.00     0.278 HD
BRANCH  31  34
HETATM   34  C10 UNL     1      21.940  41.874   2.061  1.00  0.00     0.115 C 
HETATM   35  C11 UNL     1      21.431  40.530   2.510  1.00  0.00     0.045 C 
HETATM   36  C12 UNL     1      23.234  42.151   2.804  1.00  0.00     0.045 C 
HETATM   37  C13 UNL     1      22.297  41.753   0.597  1.00  0.00     0.045 C 
ENDBRANCH  31  34
ENDBRANCH  30  31
ENDBRANCH  27  30
ENDBRANCH  26  27
ENDBRANCH   3  26
BRANCH  12  38
HETATM   38  O5  UNL     1      26.135  50.549  -0.410  1.00  0.00    -0.395 OA
ATOM     39  H5  UNL     1      26.611  51.362  -0.284  1.00  0.00     0.210 HD
ENDBRANCH  12  38
TORSDOF 11
ENDMDL
MODEL 2
REMARK VINA RESULT: -7.630556538      0.051      2.221
REMARK  11 active torsions:
REMARK  status: ('A' for Active; 'I' for Inactive)
REMARK    1  A    between atoms: O1_2  and  C2_3 
REMARK    2  A    between atoms: C4_5  and  C5_6 
REMARK    3  A    between atoms: C6_8  and  C7_9 
REMARK    4  A    between atoms: C7_9  and  C8_10 
REMARK    5  A    between atoms: C8_10  and  O3_11 
REMARK    6  A    between atoms: C8_10  and  C9_13 
REMARK    7  A    between atoms: C9_13  and  N1_14 
REMARK    8  A    between atoms: N1_14  and  C10_17 
REMARK    9  A    between atoms: C21_29  and  O5_30 
REMARK   10  A    between atoms: C24_34  and  O6_35 
REMARK   11  A    between atoms: C26_37  and  O7_38 
ROOT
HETATM    1  C5  UNL     1      23.885  48.792   0.438  1.00  0.00     0.176 C 
HETATM    2  O2  UNL     1      23.226  47.567   0.831  1.00  0.00    -0.345 OA
HETATM    3  C6  UNL     1      23.029  47.393   2.185  1.00  0.00     0.048 C 
HETATM    4  C14 UNL     1      23.845  48.029   3.008  1.00  0.00     0.038 C 
HETATM    5  C15 UNL     1      24.955  48.913   2.592  1.00  0.00     0.162 C 
HETATM    6  O4  UNL     1      26.099  48.425   3.202  1.00  0.00    -0.370 OA
HETATM    7  C16 UNL     1      26.595  47.413   2.404  1.00  0.00     0.059 C 
HETATM    8  C17 UNL     1      28.105  47.449   2.522  1.00  0.00     0.046 C 
HETATM    9  C18 UNL     1      26.148  46.085   2.973  1.00  0.00     0.046 C 
HETATM   10  C19 UNL     1      26.098  47.636   1.005  1.00  0.00     0.039 C 
HETATM   11  C20 UNL     1      27.087  48.429   0.180  1.00  0.00     0.041 C 
HETATM   12  C21 UNL     1      26.306  49.673   0.595  1.00  0.00     0.133 C 
HETATM   13  C22 UNL     1      25.201  48.833   1.096  1.00  0.00     0.052 C 
ENDROOT
BRANCH   1  14
HETATM   14  C4  UNL     1      23.825  48.950  -1.021  1.00  0.00    -0.022 A 
HETATM   15  C3  UNL     1      24.216  47.947  -1.882  1.00  0.00     0.049 A 
HETATM   16  C2  UNL     1      24.184  48.053  -3.244  1.00  0.00     0.104 A 
HETATM   17  C26 UNL     1      23.733  49.239  -3.783  1.00  0.00     0.135 A 
HETATM   18  C24 UNL     1      23.329  50.277  -2.968  1.00  0.00     0.104 A 
HETATM   19  C23 UNL     1      23.380  50.121  -1.598  1.00  0.00     0.049 A 
BRANCH  16  20
HETATM   20  O1  UNL     1      24.594  46.998  -4.083  1.00  0.00    -0.353 OA
HETATM   21  C1  UNL     1      24.071  45.710  -3.981  1.00  0.00     0.210 C 
ENDBRANCH  16  20
BRANCH  17  22
HETATM   22  O7  UNL     1      23.678  49.406  -5.168  1.00  0.00    -0.351 OA
HETATM   23  C27 UNL     1      22.513  48.923  -5.811  1.00  0.00     0.210 C 
ENDBRANCH  17  22
BRANCH  18  24
HETATM   24  O6  UNL     1      22.881  51.454  -3.550  1.00  0.00    -0.353 OA
HETATM   25  C25 UNL     1      21.489  51.740  -3.499  1.00  0.00     0.210 C 
ENDBRANCH  18  24
ENDBRANCH   1  14
BRANCH   3  26
HETATM   26  C7  UNL     1      21.925  46.511   2.717  1.00  0.00     0.097 C 
BRANCH  26  27
HETATM   27  C8  UNL     1      22.038  45.126   2.098  1.00  0.00     0.149 C 
BRANCH  27  28
HETATM   28  O3  UNL     1      21.256  45.158   0.940  1.00  0.00    -0.394 OA
ATOM     29  H3  UNL     1      20.529  44.568   1.100  1.00  0.00     0.210 HD
ENDBRANCH  27  28
BRANCH  27  30
HETATM   30  C9  UNL     1      21.469  44.078   3.019  1.00  0.00     0.265 C 
BRANCH  30  31
HETATM   31  N1  UNL     1      20.963  42.968   2.252  1.00  0.00    -0.065 N 
ATOM     32  H12 UNL     1      20.121  42.578   2.677  1.00  0.00     0.278 HD
ATOM     33  H11 UNL     1      20.566  43.280   1.366  1.00  0.00     0.278 HD
BRANCH  31  34
HETATM   34  C10 UNL     1      21.964  41.953   2.049  1.00  0.00     0.115 C 
HETATM   35  C11 UNL     1      23.235  42.211   2.814  1.00  0.00     0.045 C 
HETATM   36  C12 UNL     1      22.328  41.808   0.583  1.00  0.00     0.045 C 
HETATM   37  C13 UNL     1      21.435  40.611   2.499  1.00  0.00     0.045 C 
ENDBRANCH  31  34
ENDBRANCH  30  31
ENDBRANCH  27  30
ENDBRANCH  26  27
ENDBRANCH   3  26
BRANCH  12  38
HETATM   38  O5  UNL     1      26.127  50.552  -0.426  1.00  0.00    -0.395 OA
ATOM     39  H5  UNL     1      25.211  50.721  -0.614  1.00  0.00     0.210 HD
ENDBRANCH  12  38
TORSDOF 11
ENDMDL
MODEL 3
REMARK VINA RESULT: -7.488978626      1.143      1.339
REMARK  11 active torsions:
REMARK  status: ('A' for Active; 'I' for Inactive)
REMARK    1  A    between atoms: O1_2  and  C2_3 
REMARK    2  A    between atoms: C4_5  and  C5_6 
REMARK    3  A    between atoms: C6_8  and  C7_9 
REMARK    4  A    between atoms: C7_9  and  C8_10 
REMARK    5  A    between atoms: C8_10  and  O3_11 
REMARK    6  A    between atoms: C8_10  and  C9_13 
REMARK    7  A    between atoms: C9_13  and  N1_14 
REMARK    8  A    between atoms: N1_14  and  C10_17 
REMARK    9  A    between atoms: C21_29  and  O5_30 
REMARK   10  A    between atoms: C24_34  and  O6_35 
REMARK   11  A    between atoms: C26_37  and  O7_38 
ROOT
HETATM    1  C5  UNL     1      23.745  47.687   0.004  1.00  0.00     0.176 C 
HETATM    2  O2  UNL     1      23.256  46.342   0.208  1.00  0.00    -0.345 OA
HETATM    3  C6  UNL     1      22.867  46.029   1.493  1.00  0.00     0.048 C 
HETATM    4  C14 UNL     1      23.407  46.720   2.481  1.00  0.00     0.038 C 
HETATM    5  C15 UNL     1      24.399  47.805   2.319  1.00  0.00     0.162 C 
HETATM    6  O4  UNL     1      25.490  47.463   3.099  1.00  0.00    -0.370 OA
HETATM    7  C16 UNL     1      26.284  46.615   2.353  1.00  0.00     0.059 C 
HETATM    8  C17 UNL     1      27.722  46.888   2.743  1.00  0.00     0.046 C 
HETATM    9  C18 UNL     1      25.988  45.190   2.763  1.00  0.00     0.046 C 
HETATM   10  C19 UNL     1      25.999  46.867   0.901  1.00  0.00     0.039 C 
HETATM   11  C20 UNL     1      26.959  47.876   0.310  1.00  0.00     0.041 C 
HETATM   12  C21 UNL     1      25.912  48.937   0.641  1.00  0.00     0.133 C 
HETATM   13  C22 UNL     1      24.904  47.889   0.889  1.00  0.00     0.052 C 
ENDROOT
BRANCH   1  14
HETATM   14  C4  UNL     1      23.906  47.952  -1.432  1.00  0.00    -0.022 A 
HETATM   15  C3  UNL     1      23.635  49.186  -1.983  1.00  0.00     0.049 A 
HETATM   16  C2  UNL     1      23.764  49.475  -3.312  1.00  0.00     0.104 A 
HETATM   17  C26 UNL     1      24.191  48.464  -4.148  1.00  0.00     0.135 A 
HETATM   18  C24 UNL     1      24.476  47.209  -3.650  1.00  0.00     0.104 A 
HETATM   19  C23 UNL     1      24.330  46.967  -2.299  1.00  0.00     0.049 A 
BRANCH  16  20
HETATM   20  O1  UNL     1      23.476  50.754  -3.829  1.00  0.00    -0.353 OA
HETATM   21  C1  UNL     1      22.180  51.262  -3.894  1.00  0.00     0.210 C 
ENDBRANCH  16  20
BRANCH  17  22
HETATM   22  O7  UNL     1      24.341  48.700  -5.516  1.00  0.00    -0.351 OA
HETATM   23  C27 UNL     1      23.177  48.555  -6.307  1.00  0.00     0.210 C 
ENDBRANCH  17  22
BRANCH  18  24
HETATM   24  O6  UNL     1      24.903  46.220  -4.524  1.00  0.00    -0.353 OA
HETATM   25  C25 UNL     1      25.122  44.914  -4.005  1.00  0.00     0.210 C 
ENDBRANCH  18  24
ENDBRANCH   1  14
BRANCH   3  26
HETATM   26  C7  UNL     1      21.861  44.937   1.771  1.00  0.00     0.097 C 
BRANCH  26  27
HETATM   27  C8  UNL     1      22.583  43.606   1.921  1.00  0.00     0.149 C 
BRANCH  27  28
HETATM   28  O3  UNL     1      23.496  43.543   0.866  1.00  0.00    -0.394 OA
ATOM     29  H3  UNL     1      24.003  42.751   1.006  1.00  0.00     0.210 HD
ENDBRANCH  27  28
BRANCH  27  30
HETATM   30  C9  UNL     1      21.622  42.454   1.781  1.00  0.00     0.265 C 
BRANCH  30  31
HETATM   31  N1  UNL     1      21.326  41.897   3.076  1.00  0.00    -0.065 N 
ATOM     32  H12 UNL     1      21.631  42.517   3.825  1.00  0.00     0.278 HD
ATOM     33  H11 UNL     1      20.322  41.902   3.261  1.00  0.00     0.278 HD
BRANCH  31  34
HETATM   34  C10 UNL     1      21.879  40.576   3.232  1.00  0.00     0.115 C 
HETATM   35  C11 UNL     1      21.028  39.674   4.087  1.00  0.00     0.045 C 
HETATM   36  C12 UNL     1      23.268  40.617   3.842  1.00  0.00     0.045 C 
HETATM   37  C13 UNL     1      22.017  39.913   1.880  1.00  0.00     0.045 C 
ENDBRANCH  31  34
ENDBRANCH  30  31
ENDBRANCH  27  30
ENDBRANCH  26  27
ENDBRANCH   3  26
BRANCH  12  38
HETATM   38  O5  UNL     1      25.757  49.856  -0.350  1.00  0.00    -0.395 OA
ATOM     39  H5  UNL     1      25.662  50.742  -0.021  1.00  0.00     0.210 HD
ENDBRANCH  12  38
TORSDOF 11
ENDMDL
MODEL 4
REMARK VINA RESULT: -7.463415304      2.266      6.012
REMARK  11 active torsions:
REMARK  status: ('A' for Active; 'I' for Inactive)
REMARK    1  A    between atoms: O1_2  and  C2_3 
REMARK    2  A    between atoms: C4_5  and  C5_6 
REMARK    3  A    between atoms: C6_8  and  C7_9 
REMARK    4  A    between atoms: C7_9  and  C8_10 
REMARK    5  A    between atoms: C8_10  and  O3_11 
REMARK    6  A    between atoms: C8_10  and  C9_13 
REMARK    7  A    between atoms: C9_13  and  N1_14 
REMARK    8  A    between atoms: N1_14  and  C10_17 
REMARK    9  A    between atoms: C21_29  and  O5_30 
REMARK   10  A    between atoms: C24_34  and  O6_35 
REMARK   11  A    between atoms: C26_37  and  O7_38 
ROOT
HETATM    1  C5  UNL     1      24.007  46.700   0.820  1.00  0.00     0.176 C 
HETATM    2  O2  UNL     1      23.500  47.341  -0.373  1.00  0.00    -0.345 OA
HETATM    3  C6  UNL     1      24.363  47.384  -1.449  1.00  0.00     0.048 C 
HETATM    4  C14 UNL     1      25.659  47.329  -1.196  1.00  0.00     0.038 C 
HETATM    5  C15 UNL     1      26.261  47.225   0.151  1.00  0.00     0.162 C 
HETATM    6  O4  UNL     1      27.150  48.280   0.269  1.00  0.00    -0.370 OA
HETATM    7  C16 UNL     1      26.429  49.388   0.667  1.00  0.00     0.059 C 
HETATM    8  C17 UNL     1      27.333  50.214   1.559  1.00  0.00     0.046 C 
HETATM    9  C18 UNL     1      26.131  50.234  -0.549  1.00  0.00     0.046 C 
HETATM   10  C19 UNL     1      25.183  48.911   1.355  1.00  0.00     0.039 C 
HETATM   11  C20 UNL     1      25.375  48.810   2.852  1.00  0.00     0.041 C 
HETATM   12  C21 UNL     1      25.740  47.345   2.621  1.00  0.00     0.133 C 
HETATM   13  C22 UNL     1      25.222  47.417   1.241  1.00  0.00     0.052 C 
ENDROOT
BRANCH   1  14
HETATM   14  C4  UNL     1      22.923  46.523   1.795  1.00  0.00    -0.022 A 
HETATM   15  C3  UNL     1      22.331  47.593   2.432  1.00  0.00     0.049 A 
HETATM   16  C2  UNL     1      21.326  47.475   3.350  1.00  0.00     0.104 A 
HETATM   17  C26 UNL     1      20.883  46.204   3.654  1.00  0.00     0.135 A 
HETATM   18  C24 UNL     1      21.440  45.098   3.046  1.00  0.00     0.104 A 
HETATM   19  C23 UNL     1      22.453  45.269   2.125  1.00  0.00     0.049 A 
BRANCH  16  20
HETATM   20  O1  UNL     1      20.751  48.599   3.975  1.00  0.00    -0.353 OA
HETATM   21  C1  UNL     1      21.257  49.143   5.154  1.00  0.00     0.210 C 
ENDBRANCH  16  20
BRANCH  17  22
HETATM   22  O7  UNL     1      19.858  46.021   4.585  1.00  0.00    -0.351 OA
HETATM   23  C27 UNL     1      20.245  46.009   5.946  1.00  0.00     0.210 C 
ENDBRANCH  17  22
BRANCH  18  24
HETATM   24  O6  UNL     1      20.965  43.837   3.379  1.00  0.00    -0.353 OA
HETATM   25  C25 UNL     1      21.574  42.708   2.766  1.00  0.00     0.210 C 
ENDBRANCH  18  24
ENDBRANCH   1  14
BRANCH   3  26
HETATM   26  C7  UNL     1      23.854  47.491  -2.866  1.00  0.00     0.097 C 
BRANCH  26  27
HETATM   27  C8  UNL     1      24.529  46.437  -3.731  1.00  0.00     0.149 C 
BRANCH  27  28
HETATM   28  O3  UNL     1      24.514  46.941  -5.034  1.00  0.00    -0.394 OA
ATOM     29  H3  UNL     1      25.391  46.809  -5.375  1.00  0.00     0.210 HD
ENDBRANCH  27  28
BRANCH  27  30
HETATM   30  C9  UNL     1      23.747  45.149  -3.717  1.00  0.00     0.265 C 
BRANCH  30  31
HETATM   31  N1  UNL     1      23.274  44.873  -2.385  1.00  0.00    -0.065 N 
ATOM     32  H12 UNL     1      23.510  45.630  -1.743  1.00  0.00     0.278 HD
ATOM     33  H11 UNL     1      22.256  44.930  -2.333  1.00  0.00     0.278 HD
BRANCH  31  34
HETATM   34  C10 UNL     1      23.752  43.605  -1.896  1.00  0.00     0.115 C 
HETATM   35  C11 UNL     1      22.744  42.878  -1.046  1.00  0.00     0.045 C 
HETATM   36  C12 UNL     1      25.021  43.760  -1.079  1.00  0.00     0.045 C 
HETATM   37  C13 UNL     1      24.092  42.701  -3.059  1.00  0.00     0.045 C 
ENDBRANCH  31  34
ENDBRANCH  30  31
ENDBRANCH  27  30
ENDBRANCH  26  27
ENDBRANCH   3  26
BRANCH  12  38
HETATM   38  O5  UNL     1      25.195  46.510   3.546  1.00  0.00    -0.395 OA
ATOM     39  H5  UNL     1      24.250  46.437   3.467  1.00  0.00     0.210 HD
ENDBRANCH  12  38
TORSDOF 11
ENDMDL
MODEL 5
REMARK VINA RESULT: -7.459218721      1.149      2.609
REMARK  11 active torsions:
REMARK  status: ('A' for Active; 'I' for Inactive)
REMARK    1  A    between atoms: O1_2  and  C2_3 
REMARK    2  A    between atoms: C4_5  and  C5_6 
REMARK    3  A    between atoms: C6_8  and  C7_9 
REMARK    4  A    between atoms: C7_9  and  C8_10 
REMARK    5  A    between atoms: C8_10  and  O3_11 
REMARK    6  A    between atoms: C8_10  and  C9_13 
REMARK    7  A    between atoms: C9_13  and  N1_14 
REMARK    8  A    between atoms: N1_14  and  C10_17 
REMARK    9  A    between atoms: C21_29  and  O5_30 
REMARK   10  A    between atoms: C24_34  and  O6_35 
REMARK   11  A    between atoms: C26_37  and  O7_38 
ROOT
HETATM    1  C5  UNL     1      23.745  47.650   0.131  1.00  0.00     0.176 C 
HETATM    2  O2  UNL     1      23.244  46.307   0.314  1.00  0.00    -0.345 OA
HETATM    3  C6  UNL     1      22.868  45.971   1.598  1.00  0.00     0.048 C 
HETATM    4  C14 UNL     1      23.429  46.636   2.592  1.00  0.00     0.038 C 
HETATM    5  C15 UNL     1      24.431  47.714   2.439  1.00  0.00     0.162 C 
HETATM    6  O4  UNL     1      25.529  47.344   3.197  1.00  0.00    -0.370 OA
HETATM    7  C16 UNL     1      26.303  46.502   2.423  1.00  0.00     0.059 C 
HETATM    8  C17 UNL     1      27.749  46.752   2.800  1.00  0.00     0.046 C 
HETATM    9  C18 UNL     1      25.997  45.072   2.808  1.00  0.00     0.046 C 
HETATM   10  C19 UNL     1      26.002  46.787   0.981  1.00  0.00     0.039 C 
HETATM   11  C20 UNL     1      26.964  47.798   0.398  1.00  0.00     0.041 C 
HETATM   12  C21 UNL     1      25.934  48.864   0.764  1.00  0.00     0.133 C 
HETATM   13  C22 UNL     1      24.917  47.821   1.005  1.00  0.00     0.052 C 
ENDROOT
BRANCH   1  14
HETATM   14  C4  UNL     1      23.890  47.943  -1.301  1.00  0.00    -0.022 A 
HETATM   15  C3  UNL     1      24.299  46.986  -2.206  1.00  0.00     0.049 A 
HETATM   16  C2  UNL     1      24.454  47.216  -3.543  1.00  0.00     0.104 A 
HETATM   17  C26 UNL     1      24.184  48.485  -4.010  1.00  0.00     0.135 A 
HETATM   18  C24 UNL     1      23.772  49.481  -3.149  1.00  0.00     0.104 A 
HETATM   19  C23 UNL     1      23.630  49.199  -1.806  1.00  0.00     0.049 A 
BRANCH  16  20
HETATM   20  O1  UNL     1      24.874  46.204  -4.430  1.00  0.00    -0.353 OA
HETATM   21  C1  UNL     1      25.088  44.889  -4.021  1.00  0.00     0.210 C 
ENDBRANCH  16  20
BRANCH  17  22
HETATM   22  O7  UNL     1      24.325  48.779  -5.368  1.00  0.00    -0.351 OA
HETATM   23  C27 UNL     1      23.204  48.506  -6.187  1.00  0.00     0.210 C 
ENDBRANCH  17  22
BRANCH  18  24
HETATM   24  O6  UNL     1      23.510  50.745  -3.659  1.00  0.00    -0.353 OA
HETATM   25  C25 UNL     1      22.152  51.150  -3.784  1.00  0.00     0.210 C 
ENDBRANCH  18  24
ENDBRANCH   1  14
BRANCH   3  26
HETATM   26  C7  UNL     1      21.855  44.885   1.867  1.00  0.00     0.097 C 
BRANCH  26  27
HETATM   27  C8  UNL     1      22.563  43.543   1.978  1.00  0.00     0.149 C 
BRANCH  27  28
HETATM   28  O3  UNL     1      23.474  43.500   0.919  1.00  0.00    -0.394 OA
ATOM     29  H3  UNL     1      24.309  43.773   1.282  1.00  0.00     0.210 HD
ENDBRANCH  27  28
BRANCH  27  30
HETATM   30  C9  UNL     1      21.591  42.405   1.808  1.00  0.00     0.265 C 
BRANCH  30  31
HETATM   31  N1  UNL     1      21.305  41.804   3.086  1.00  0.00    -0.065 N 
ATOM     32  H12 UNL     1      21.633  42.390   3.853  1.00  0.00     0.278 HD
ATOM     33  H11 UNL     1      20.305  41.820   3.288  1.00  0.00     0.278 HD
BRANCH  31  34
HETATM   34  C10 UNL     1      21.836  40.469   3.183  1.00  0.00     0.115 C 
HETATM   35  C11 UNL     1      21.990  39.792   1.846  1.00  0.00     0.045 C 
HETATM   36  C12 UNL     1      20.967  39.580   4.054  1.00  0.00     0.045 C 
HETATM   37  C13 UNL     1      23.203  40.505   3.827  1.00  0.00     0.045 C 
ENDBRANCH  31  34
ENDBRANCH  30  31
ENDBRANCH  27  30
ENDBRANCH  26  27
ENDBRANCH   3  26
BRANCH  12  38
HETATM   38  O5  UNL     1      25.776  49.804  -0.205  1.00  0.00    -0.395 OA
ATOM     39  H5  UNL     1      24.962  50.288  -0.123  1.00  0.00     0.210 HD
ENDBRANCH  12  38
TORSDOF 11
ENDMDL
