MODEL 1
REMARK VINA RESULT: -4.616747670      0.000      0.000
REMARK  1 active torsions:
REMARK  status: ('A' for Active; 'I' for Inactive)
REMARK       I    between atoms: C2_2  and  N1_4 
REMARK    1  A    between atoms: N1_4  and  C3_6 
ROOT
HETATM    1  C3  UNL     1      15.536   2.551  14.636  1.00  0.00     0.114 C 
HETATM    2  C4  UNL     1      16.755   3.343  15.017  1.00  0.00     0.055 C 
HETATM    3  C5  UNL     1      14.548   3.525  13.996  1.00  0.00     0.055 C 
HETATM    4  C6  UNL     1      15.950   1.537  13.676  1.00  0.00     0.090 C 
HETATM    5  N2  UNL     1      16.289   0.729  12.897  1.00  0.00    -0.195 NA
ENDROOT
BRANCH   1   6
HETATM    6  N1  UNL     1      14.873   1.946  15.747  1.00  0.00    -0.340 N 
HETATM    7  C2  UNL     1      15.504   1.017  16.627  1.00  0.00     0.214 C 
HETATM    8  C1  UNL     1      14.738   0.434  17.758  1.00  0.00     0.117 C 
HETATM    9  O1  UNL     1      16.689   0.665  16.488  1.00  0.00    -0.274 OA
ATOM     10  H1  UNL     1      13.897   2.189  15.919  1.00  0.00     0.164 HD
ENDBRANCH   1   6
TORSDOF 1
ENDMDL
MODEL 2
REMARK VINA RESULT: -4.567262441      1.896      3.373
REMARK  1 active torsions:
REMARK  status: ('A' for Active; 'I' for Inactive)
REMARK       I    between atoms: C2_2  and  N1_4 
REMARK    1  A    between atoms: N1_4  and  C3_6 
ROOT
HETATM    1  C3  UNL     1      14.979   1.841  15.076  1.00  0.00     0.114 C 
HETATM    2  C4  UNL     1      13.652   1.192  15.352  1.00  0.00     0.055 C 
HETATM    3  C5  UNL     1      14.814   3.336  15.349  1.00  0.00     0.055 C 
HETATM    4  C6  UNL     1      15.954   1.259  15.990  1.00  0.00     0.090 C 
HETATM    5  N2  UNL     1      16.731   0.793  16.733  1.00  0.00    -0.195 NA
ENDROOT
BRANCH   1   6
HETATM    6  N1  UNL     1      15.418   1.705  13.724  1.00  0.00    -0.340 N 
HETATM    7  C2  UNL     1      15.862   0.470  13.165  1.00  0.00     0.214 C 
HETATM    8  C1  UNL     1      16.303   0.419  11.747  1.00  0.00     0.117 C 
HETATM    9  O1  UNL     1      15.899  -0.586  13.821  1.00  0.00    -0.274 OA
ATOM     10  H1  UNL     1      15.414   2.533  13.128  1.00  0.00     0.164 HD
ENDBRANCH   1   6
TORSDOF 1
ENDMDL
MODEL 3
REMARK VINA RESULT: -4.409761083      2.688      3.760
REMARK  1 active torsions:
REMARK  status: ('A' for Active; 'I' for Inactive)
REMARK       I    between atoms: C2_2  and  N1_4 
REMARK    1  A    between atoms: N1_4  and  C3_6 
ROOT
HETATM    1  C3  UNL     1      16.825   1.445  11.596  1.00  0.00     0.114 C 
HETATM    2  C4  UNL     1      16.137   0.278  10.946  1.00  0.00     0.055 C 
HETATM    3  C5  UNL     1      18.317   1.117  11.644  1.00  0.00     0.055 C 
HETATM    4  C6  UNL     1      16.585   2.618  10.767  1.00  0.00     0.090 C 
HETATM    5  N2  UNL     1      16.395   3.556  10.091  1.00  0.00    -0.195 NA
ENDROOT
BRANCH   1   6
HETATM    6  N1  UNL     1      16.404   1.687  12.939  1.00  0.00    -0.340 N 
HETATM    7  C2  UNL     1      15.938   0.659  13.812  1.00  0.00     0.214 C 
HETATM    8  C1  UNL     1      15.517   1.000  15.195  1.00  0.00     0.117 C 
HETATM    9  O1  UNL     1      15.865  -0.532  13.462  1.00  0.00    -0.274 OA
ATOM     10  H1  UNL     1      16.437   2.643  13.292  1.00  0.00     0.164 HD
ENDBRANCH   1   6
TORSDOF 1
ENDMDL
MODEL 4
REMARK VINA RESULT: -4.337866245      1.590      3.246
REMARK  1 active torsions:
REMARK  status: ('A' for Active; 'I' for Inactive)
REMARK       I    between atoms: C2_2  and  N1_4 
REMARK    1  A    between atoms: N1_4  and  C3_6 
ROOT
HETATM    1  C3  UNL     1      15.202   2.325  14.554  1.00  0.00     0.114 C 
HETATM    2  C4  UNL     1      14.481   3.626  14.338  1.00  0.00     0.055 C 
HETATM    3  C5  UNL     1      16.525   2.654  15.246  1.00  0.00     0.055 C 
HETATM    4  C6  UNL     1      14.369   1.495  15.412  1.00  0.00     0.090 C 
HETATM    5  N2  UNL     1      13.697   0.835  16.110  1.00  0.00    -0.195 NA
ENDROOT
BRANCH   1   6
HETATM    6  N1  UNL     1      15.520   1.634  13.345  1.00  0.00    -0.340 N 
HETATM    7  C2  UNL     1      15.974   0.282  13.311  1.00  0.00     0.214 C 
HETATM    8  C1  UNL     1      16.283  -0.360  12.008  1.00  0.00     0.117 C 
HETATM    9  O1  UNL     1      16.129  -0.397  14.342  1.00  0.00    -0.274 OA
ATOM     10  H1  UNL     1      15.416   2.132  12.461  1.00  0.00     0.164 HD
ENDBRANCH   1   6
TORSDOF 1
ENDMDL
MODEL 5
REMARK VINA RESULT: -4.280482891      3.616      4.821
REMARK  1 active torsions:
REMARK  status: ('A' for Active; 'I' for Inactive)
REMARK       I    between atoms: C2_2  and  N1_4 
REMARK    1  A    between atoms: N1_4  and  C3_6 
ROOT
HETATM    1  C3  UNL     1      17.347  -0.771  11.185  1.00  0.00     0.114 C 
HETATM    2  C4  UNL     1      18.523   0.130  10.936  1.00  0.00     0.055 C 
HETATM    3  C5  UNL     1      16.374  -0.573  10.023  1.00  0.00     0.055 C 
HETATM    4  C6  UNL     1      17.839  -2.142  11.212  1.00  0.00     0.090 C 
HETATM    5  N2  UNL     1      18.240  -3.243  11.224  1.00  0.00    -0.195 NA
ENDROOT
BRANCH   1   6
HETATM    6  N1  UNL     1      16.635  -0.472  12.386  1.00  0.00    -0.340 N 
HETATM    7  C2  UNL     1      16.273   0.853  12.773  1.00  0.00     0.214 C 
HETATM    8  C1  UNL     1      15.533   1.075  14.042  1.00  0.00     0.117 C 
HETATM    9  O1  UNL     1      16.554   1.850  12.085  1.00  0.00    -0.274 OA
ATOM     10  H1  UNL     1      16.373  -1.244  12.999  1.00  0.00     0.164 HD
ENDBRANCH   1   6
TORSDOF 1
ENDMDL
