MODEL 1
REMARK VINA RESULT: -5.983676753      0.000      0.000
REMARK  4 active torsions:
REMARK  status: ('A' for Active; 'I' for Inactive)
REMARK    1  A    between atoms: N1_1  and  N2_4 
REMARK    2  A    between atoms: C2_12  and  C3_13 
REMARK    3  A    between atoms: C4_14  and  S1_15 
REMARK    4  A    between atoms: S1_15  and  N5_16 
ROOT
HETATM    1  N2  UNL     1      -3.024   6.702  21.586  1.00  0.00    -0.137 N 
ATOM      2  H2  UNL     1      -4.028   6.788  21.429  1.00  0.00     0.205 HD
HETATM    3  C1  UNL     1      -2.541   6.971  22.753  1.00  0.00     0.721 C 
HETATM    4  N3  UNL     1      -1.139   6.847  22.966  1.00  0.00    -0.070 N 
ATOM      5  H3  UNL     1      -0.607   6.533  22.154  1.00  0.00     0.215 HD
HETATM    6  O1  UNL     1      -0.381   7.087  24.105  1.00  0.00    -0.141 OA
HETATM    7  N4  UNL     1      -0.752   7.863  25.180  1.00  0.00    -0.236 N 
ATOM      8  H4  UNL     1       0.037   8.164  25.752  1.00  0.00     0.197 HD
HETATM    9  C2  UNL     1      -1.879   8.284  25.610  1.00  0.00     0.125 C 
HETATM   10  C5  UNL     1      -3.191   8.029  25.016  1.00  0.00     0.288 C 
HETATM   11  O4  UNL     1      -4.163   8.427  25.689  1.00  0.00    -0.265 OA
HETATM   12  N6  UNL     1      -3.465   7.377  23.757  1.00  0.00    -0.151 N 
ATOM     13  H6  UNL     1      -4.448   7.183  23.561  1.00  0.00     0.188 HD
ENDROOT
BRANCH   9  14
HETATM   14  C3  UNL     1      -1.866   9.106  26.817  1.00  0.00     0.050 C 
HETATM   15  C4  UNL     1      -1.785  10.422  26.708  1.00  0.00     0.133 C 
BRANCH  15  16
HETATM   16  S1  UNL     1      -1.771  11.380  28.177  1.00  0.00     0.246 S 
HETATM   17  O2  UNL     1      -2.869  12.429  28.135  1.00  0.00    -0.202 OA
HETATM   18  O3  UNL     1      -0.442  12.079  28.329  1.00  0.00    -0.202 OA
BRANCH  16  19
HETATM   19  N5  UNL     1      -2.087  10.379  29.548  1.00  0.00    -0.325 N 
ATOM     20  H52 UNL     1      -1.429   9.694  29.919  1.00  0.00     0.169 HD
ATOM     21  H51 UNL     1      -3.015  10.575  29.922  1.00  0.00     0.169 HD
ENDBRANCH  16  19
ENDBRANCH  15  16
ENDBRANCH   9  14
BRANCH   1  22
HETATM   22  N1  UNL     1      -2.210   6.300  20.547  1.00  0.00    -0.331 N 
ATOM     23  H12 UNL     1      -1.203   6.432  20.642  1.00  0.00     0.177 HD
ATOM     24  H11 UNL     1      -2.597   5.880  19.701  1.00  0.00     0.177 HD
ENDBRANCH   1  22
TORSDOF 4
ENDMDL
MODEL 2
REMARK VINA RESULT: -5.705062813      4.538      6.434
REMARK  4 active torsions:
REMARK  status: ('A' for Active; 'I' for Inactive)
REMARK    1  A    between atoms: N1_1  and  N2_4 
REMARK    2  A    between atoms: C2_12  and  C3_13 
REMARK    3  A    between atoms: C4_14  and  S1_15 
REMARK    4  A    between atoms: S1_15  and  N5_16 
ROOT
HETATM    1  N2  UNL     1      -3.022   9.961  27.460  1.00  0.00    -0.137 N 
ATOM      2  H2  UNL     1      -3.238   9.564  28.374  1.00  0.00     0.205 HD
HETATM    3  C1  UNL     1      -2.216  10.966  27.381  1.00  0.00     0.721 C 
HETATM    4  N3  UNL     1      -1.917  11.515  26.102  1.00  0.00    -0.070 N 
ATOM      5  H3  UNL     1      -2.372  11.046  25.317  1.00  0.00     0.215 HD
HETATM    6  O1  UNL     1      -1.106  12.586  25.753  1.00  0.00    -0.141 OA
HETATM    7  N4  UNL     1      -0.703  13.605  26.586  1.00  0.00    -0.236 N 
ATOM      8  H4  UNL     1      -0.386  14.435  26.085  1.00  0.00     0.197 HD
HETATM    9  C2  UNL     1      -0.644  13.728  27.857  1.00  0.00     0.125 C 
HETATM   10  C5  UNL     1      -1.026  12.725  28.849  1.00  0.00     0.288 C 
HETATM   11  O4  UNL     1      -0.750  13.016  30.031  1.00  0.00    -0.265 OA
HETATM   12  N6  UNL     1      -1.676  11.458  28.603  1.00  0.00    -0.151 N 
ATOM     13  H6  UNL     1      -1.758  10.836  29.407  1.00  0.00     0.188 HD
ENDROOT
BRANCH   9  14
HETATM   14  C3  UNL     1      -0.146  14.996  28.381  1.00  0.00     0.050 C 
HETATM   15  C4  UNL     1       1.092  15.374  28.106  1.00  0.00     0.133 C 
BRANCH  15  16
HETATM   16  S1  UNL     1       1.659  16.903  28.751  1.00  0.00     0.246 S 
HETATM   17  O2  UNL     1       0.522  17.645  29.433  1.00  0.00    -0.202 OA
HETATM   18  O3  UNL     1       2.201  17.768  27.638  1.00  0.00    -0.202 OA
BRANCH  16  19
HETATM   19  N5  UNL     1       2.873  16.633  29.950  1.00  0.00    -0.325 N 
ATOM     20  H52 UNL     1       2.811  15.919  30.675  1.00  0.00     0.169 HD
ATOM     21  H51 UNL     1       3.645  17.287  29.823  1.00  0.00     0.169 HD
ENDBRANCH  16  19
ENDBRANCH  15  16
ENDBRANCH   9  14
BRANCH   1  22
HETATM   22  N1  UNL     1      -3.599   9.412  26.332  1.00  0.00    -0.331 N 
ATOM     23  H12 UNL     1      -3.076   9.444  25.457  1.00  0.00     0.177 HD
ATOM     24  H11 UNL     1      -4.524   8.983  26.364  1.00  0.00     0.177 HD
ENDBRANCH   1  22
TORSDOF 4
ENDMDL
MODEL 3
REMARK VINA RESULT: -5.702652476      4.379      5.657
REMARK  4 active torsions:
REMARK  status: ('A' for Active; 'I' for Inactive)
REMARK    1  A    between atoms: N1_1  and  N2_4 
REMARK    2  A    between atoms: C2_12  and  C3_13 
REMARK    3  A    between atoms: C4_14  and  S1_15 
REMARK    4  A    between atoms: S1_15  and  N5_16 
ROOT
HETATM    1  N2  UNL     1      -4.817   9.659  27.612  1.00  0.00    -0.137 N 
ATOM      2  H2  UNL     1      -5.119   9.292  28.514  1.00  0.00     0.205 HD
HETATM    3  C1  UNL     1      -3.730  10.352  27.543  1.00  0.00     0.721 C 
HETATM    4  N3  UNL     1      -3.313  10.861  26.280  1.00  0.00    -0.070 N 
ATOM      5  H3  UNL     1      -3.923  10.620  25.498  1.00  0.00     0.215 HD
HETATM    6  O1  UNL     1      -2.209  11.633  25.945  1.00  0.00    -0.141 OA
HETATM    7  N4  UNL     1      -1.466  12.407  26.808  1.00  0.00    -0.236 N 
ATOM      8  H4  UNL     1      -0.913  13.122  26.336  1.00  0.00     0.197 HD
HETATM    9  C2  UNL     1      -1.326  12.415  28.079  1.00  0.00     0.125 C 
HETATM   10  C5  UNL     1      -1.980  11.524  29.035  1.00  0.00     0.288 C 
HETATM   11  O4  UNL     1      -1.583  11.628  30.214  1.00  0.00    -0.265 OA
HETATM   12  N6  UNL     1      -3.016  10.557  28.757  1.00  0.00    -0.151 N 
ATOM     13  H6  UNL     1      -3.269   9.941  29.531  1.00  0.00     0.188 HD
ENDROOT
BRANCH   9  14
HETATM   14  C3  UNL     1      -0.423  13.415  28.642  1.00  0.00     0.050 C 
HETATM   15  C4  UNL     1       0.150  14.300  27.842  1.00  0.00     0.133 C 
BRANCH  15  16
HETATM   16  S1  UNL     1       1.229  15.487  28.550  1.00  0.00     0.246 S 
HETATM   17  O2  UNL     1       1.262  16.746  27.700  1.00  0.00    -0.202 OA
HETATM   18  O3  UNL     1       2.629  14.929  28.639  1.00  0.00    -0.202 OA
BRANCH  16  19
HETATM   19  N5  UNL     1       0.664  15.953  30.114  1.00  0.00    -0.325 N 
ATOM     20  H52 UNL     1       0.083  16.771  30.291  1.00  0.00     0.169 HD
ATOM     21  H51 UNL     1       0.996  15.295  30.819  1.00  0.00     0.169 HD
ENDBRANCH  16  19
ENDBRANCH  15  16
ENDBRANCH   9  14
BRANCH   1  22
HETATM   22  N1  UNL     1      -5.580   9.406  26.490  1.00  0.00    -0.331 N 
ATOM     23  H12 UNL     1      -6.520   9.799  26.445  1.00  0.00     0.177 HD
ATOM     24  H11 UNL     1      -5.220   8.841  25.720  1.00  0.00     0.177 HD
ENDBRANCH   1  22
TORSDOF 4
ENDMDL
MODEL 4
REMARK VINA RESULT: -5.660466599      4.395      6.289
REMARK  4 active torsions:
REMARK  status: ('A' for Active; 'I' for Inactive)
REMARK    1  A    between atoms: N1_1  and  N2_4 
REMARK    2  A    between atoms: C2_12  and  C3_13 
REMARK    3  A    between atoms: C4_14  and  S1_15 
REMARK    4  A    between atoms: S1_15  and  N5_16 
ROOT
HETATM    1  N2  UNL     1      -3.390   9.818  27.591  1.00  0.00    -0.137 N 
ATOM      2  H2  UNL     1      -3.568   9.367  28.488  1.00  0.00     0.205 HD
HETATM    3  C1  UNL     1      -2.517  10.767  27.522  1.00  0.00     0.721 C 
HETATM    4  N3  UNL     1      -2.273  11.393  26.266  1.00  0.00    -0.070 N 
ATOM      5  H3  UNL     1      -2.819  11.021  25.488  1.00  0.00     0.215 HD
HETATM    6  O1  UNL     1      -1.411  12.429  25.934  1.00  0.00    -0.141 OA
HETATM    7  N4  UNL     1      -0.870  13.348  26.804  1.00  0.00    -0.236 N 
ATOM      8  H4  UNL     1      -0.529  14.190  26.342  1.00  0.00     0.197 HD
HETATM    9  C2  UNL     1      -0.708  13.365  28.072  1.00  0.00     0.125 C 
HETATM   10  C5  UNL     1      -1.091  12.316  29.015  1.00  0.00     0.288 C 
HETATM   11  O4  UNL     1      -0.707  12.493  30.190  1.00  0.00    -0.265 OA
HETATM   12  N6  UNL     1      -1.852  11.122  28.729  1.00  0.00    -0.151 N 
ATOM     13  H6  UNL     1      -1.922  10.446  29.490  1.00  0.00     0.188 HD
ENDROOT
BRANCH   9  14
HETATM   14  C3  UNL     1      -0.077  14.550  28.646  1.00  0.00     0.050 C 
HETATM   15  C4  UNL     1       0.988  15.071  28.059  1.00  0.00     0.133 C 
BRANCH  15  16
HETATM   16  S1  UNL     1       1.722  16.494  28.774  1.00  0.00     0.246 S 
HETATM   17  O2  UNL     1       2.100  17.494  27.694  1.00  0.00    -0.202 OA
HETATM   18  O3  UNL     1       2.968  16.110  29.535  1.00  0.00    -0.202 OA
BRANCH  16  19
HETATM   19  N5  UNL     1       0.598  17.286  29.819  1.00  0.00    -0.325 N 
ATOM     20  H52 UNL     1       0.178  16.852  30.641  1.00  0.00     0.169 HD
ATOM     21  H51 UNL     1       0.422  18.236  29.493  1.00  0.00     0.169 HD
ENDBRANCH  16  19
ENDBRANCH  15  16
ENDBRANCH   9  14
BRANCH   1  22
HETATM   22  N1  UNL     1      -4.089   9.402  26.475  1.00  0.00    -0.331 N 
ATOM     23  H12 UNL     1      -4.112  10.017  25.662  1.00  0.00     0.177 HD
ATOM     24  H11 UNL     1      -4.572   8.504  26.456  1.00  0.00     0.177 HD
ENDBRANCH   1  22
TORSDOF 4
ENDMDL
MODEL 5
REMARK VINA RESULT: -5.626440519      1.220      1.384
REMARK  4 active torsions:
REMARK  status: ('A' for Active; 'I' for Inactive)
REMARK    1  A    between atoms: N1_1  and  N2_4 
REMARK    2  A    between atoms: C2_12  and  C3_13 
REMARK    3  A    between atoms: C4_14  and  S1_15 
REMARK    4  A    between atoms: S1_15  and  N5_16 
ROOT
HETATM    1  N2  UNL     1      -3.331   6.860  22.310  1.00  0.00    -0.137 N 
ATOM      2  H2  UNL     1      -4.341   6.872  22.169  1.00  0.00     0.205 HD
HETATM    3  C1  UNL     1      -2.846   7.230  23.448  1.00  0.00     0.721 C 
HETATM    4  N3  UNL     1      -1.436   7.211  23.639  1.00  0.00    -0.070 N 
ATOM      5  H3  UNL     1      -0.898   6.883  22.836  1.00  0.00     0.215 HD
HETATM    6  O1  UNL     1      -0.676   7.567  24.745  1.00  0.00    -0.141 OA
HETATM    7  N4  UNL     1      -1.079   8.381  25.780  1.00  0.00    -0.236 N 
ATOM      8  H4  UNL     1      -0.301   8.767  26.316  1.00  0.00     0.197 HD
HETATM    9  C2  UNL     1      -2.224   8.754  26.208  1.00  0.00     0.125 C 
HETATM   10  C5  UNL     1      -3.525   8.379  25.658  1.00  0.00     0.288 C 
HETATM   11  O4  UNL     1      -4.511   8.753  26.326  1.00  0.00    -0.265 OA
HETATM   12  N6  UNL     1      -3.778   7.636  24.445  1.00  0.00    -0.151 N 
ATOM     13  H6  UNL     1      -4.749   7.367  24.282  1.00  0.00     0.188 HD
ENDROOT
BRANCH   9  14
HETATM   14  C3  UNL     1      -2.245   9.646  27.363  1.00  0.00     0.050 C 
HETATM   15  C4  UNL     1      -1.703  10.849  27.267  1.00  0.00     0.133 C 
BRANCH  15  16
HETATM   16  S1  UNL     1      -1.743  11.897  28.673  1.00  0.00     0.246 S 
HETATM   17  O2  UNL     1      -1.913  11.076  29.940  1.00  0.00    -0.202 OA
HETATM   18  O3  UNL     1      -2.897  12.865  28.567  1.00  0.00    -0.202 OA
BRANCH  16  19
HETATM   19  N5  UNL     1      -0.250  12.751  28.826  1.00  0.00    -0.325 N 
ATOM     20  H52 UNL     1       0.660  12.358  28.587  1.00  0.00     0.169 HD
ATOM     21  H51 UNL     1      -0.417  13.691  29.184  1.00  0.00     0.169 HD
ENDBRANCH  16  19
ENDBRANCH  15  16
ENDBRANCH   9  14
BRANCH   1  22
HETATM   22  N1  UNL     1      -2.509   6.450  21.279  1.00  0.00    -0.331 N 
ATOM     23  H12 UNL     1      -2.833   6.580  20.321  1.00  0.00     0.177 HD
ATOM     24  H11 UNL     1      -1.599   6.027  21.462  1.00  0.00     0.177 HD
ENDBRANCH   1  22
TORSDOF 4
ENDMDL
