MODEL 1
REMARK VINA RESULT: -5.776966799      0.000      0.000
REMARK  4 active torsions:
REMARK  status: ('A' for Active; 'I' for Inactive)
REMARK    1  A    between atoms: C1_2  and  N1_3 
REMARK    2  A    between atoms: N1_3  and  N2_5 
REMARK    3  A    between atoms: C4_13  and  C5_14 
REMARK       I    between atoms: C5_14  and  N5_16 
REMARK    4  A    between atoms: N5_16  and  C6_18 
ROOT
HETATM    1  N2  UNL     1       0.163  14.556  27.622  1.00  0.00    -0.130 N 
ATOM      2  H2  UNL     1      -0.331  14.740  26.749  1.00  0.00     0.205 HD
HETATM    3  C2  UNL     1      -0.330  13.690  28.470  1.00  0.00     0.699 A 
HETATM    4  N3  UNL     1       0.281  13.410  29.637  1.00  0.00    -0.186 N 
ATOM      5  H3  UNL     1       1.152  13.888  29.866  1.00  0.00     0.185 HD
HETATM    6  C3  UNL     1      -0.226  12.518  30.512  1.00  0.00     0.200 A 
HETATM    7  N4  UNL     1      -1.377  11.918  30.160  1.00  0.00    -0.333 N 
ATOM      8  H4  UNL     1      -1.792  11.237  30.796  1.00  0.00     0.168 HD
HETATM    9  C4  UNL     1      -2.008  12.188  28.986  1.00  0.00     0.191 A 
HETATM   10  N10 UNL     1      -1.479  13.081  28.135  1.00  0.00    -0.170 N 
ATOM     11  H10 UNL     1      -1.941  13.294  27.251  1.00  0.00     0.186 HD
ENDROOT
BRANCH   9  12
HETATM   12  C5  UNL     1      -3.250  11.517  28.643  1.00  0.00     0.304 C 
HETATM   13  O2  UNL     1      -4.323  12.120  28.803  1.00  0.00    -0.263 OA
HETATM   14  N5  UNL     1      -3.193  10.207  28.143  1.00  0.00    -0.150 N 
ATOM     15  H5  UNL     1      -3.583   9.470  28.730  1.00  0.00     0.188 HD
BRANCH  14  16
HETATM   16  C6  UNL     1      -2.701   9.856  27.028  1.00  0.00     0.716 A 
HETATM   17  N6  UNL     1      -1.948   8.769  26.803  1.00  0.00    -0.115 N 
HETATM   18  N7  UNL     1      -1.608   8.714  25.527  1.00  0.00    -0.213 N 
ATOM     19  H6  UNL     1      -1.678   8.087  27.511  1.00  0.00     0.207 HD
HETATM   20  N8  UNL     1      -2.152   9.771  24.957  1.00  0.00    -0.213 N 
ATOM     21  H7  UNL     1      -1.040   7.999  25.074  1.00  0.00     0.210 HD
HETATM   22  N9  UNL     1      -2.820  10.480  25.850  1.00  0.00    -0.115 N 
ATOM     23  H8  UNL     1      -2.067  10.007  23.968  1.00  0.00     0.210 HD
ATOM     24  H9  UNL     1      -3.333  11.343  25.673  1.00  0.00     0.207 HD
ENDBRANCH  14  16
ENDBRANCH   9  12
BRANCH   1  25
HETATM   25  N1  UNL     1       1.346  15.228  27.895  1.00  0.00    -0.263 N 
ATOM     26  H1  UNL     1       2.226  14.714  27.896  1.00  0.00     0.190 HD
BRANCH  25  27
HETATM   27  C1  UNL     1       1.350  16.610  28.169  1.00  0.00     0.369 C 
HETATM   28  O1  UNL     1       2.266  17.369  27.743  1.00  0.00    -0.282 OA
ENDBRANCH  25  27
ENDBRANCH   1  25
TORSDOF 4
ENDMDL
MODEL 2
REMARK VINA RESULT: -5.702128405      3.013      7.620
REMARK  4 active torsions:
REMARK  status: ('A' for Active; 'I' for Inactive)
REMARK    1  A    between atoms: C1_2  and  N1_3 
REMARK    2  A    between atoms: N1_3  and  N2_5 
REMARK    3  A    between atoms: C4_13  and  C5_14 
REMARK       I    between atoms: C5_14  and  N5_16 
REMARK    4  A    between atoms: N5_16  and  C6_18 
ROOT
HETATM    1  N2  UNL     1      -0.554  13.311  27.754  1.00  0.00    -0.130 N 
ATOM      2  H2  UNL     1       0.196  12.956  27.161  1.00  0.00     0.205 HD
HETATM    3  C2  UNL     1      -0.409  14.466  28.353  1.00  0.00     0.699 A 
HETATM    4  N3  UNL     1      -1.368  14.980  29.147  1.00  0.00    -0.186 N 
ATOM      5  H3  UNL     1      -2.231  14.454  29.285  1.00  0.00     0.185 HD
HETATM    6  C3  UNL     1      -1.220  16.170  29.765  1.00  0.00     0.200 A 
HETATM    7  N4  UNL     1      -0.063  16.820  29.548  1.00  0.00    -0.333 N 
ATOM      8  H4  UNL     1       0.085  17.724  29.998  1.00  0.00     0.168 HD
HETATM    9  C4  UNL     1       0.916  16.317  28.750  1.00  0.00     0.191 A 
HETATM   10  N10 UNL     1       0.740  15.129  28.148  1.00  0.00    -0.170 N 
ATOM     11  H10 UNL     1       1.465  14.739  27.547  1.00  0.00     0.186 HD
ENDROOT
BRANCH   9  12
HETATM   12  C5  UNL     1       2.151  17.051  28.541  1.00  0.00     0.304 C 
HETATM   13  O2  UNL     1       2.190  17.926  27.661  1.00  0.00    -0.263 OA
HETATM   14  N5  UNL     1       3.261  16.745  29.343  1.00  0.00    -0.150 N 
ATOM     15  H5  UNL     1       4.065  16.321  28.879  1.00  0.00     0.188 HD
BRANCH  14  16
HETATM   16  C6  UNL     1       3.358  16.947  30.591  1.00  0.00     0.716 A 
HETATM   17  N6  UNL     1       3.166  16.037  31.558  1.00  0.00    -0.115 N 
HETATM   18  N7  UNL     1       3.349  16.595  32.742  1.00  0.00    -0.213 N 
ATOM     19  H6  UNL     1       2.917  15.061  31.401  1.00  0.00     0.207 HD
HETATM   20  N8  UNL     1       3.654  17.855  32.511  1.00  0.00    -0.213 N 
ATOM     21  H7  UNL     1       3.269  16.140  33.651  1.00  0.00     0.210 HD
HETATM   22  N9  UNL     1       3.665  18.093  31.211  1.00  0.00    -0.115 N 
ATOM     23  H8  UNL     1       3.853  18.548  33.233  1.00  0.00     0.210 HD
ATOM     24  H9  UNL     1       3.870  18.986  30.763  1.00  0.00     0.207 HD
ENDBRANCH  14  16
ENDBRANCH   9  12
BRANCH   1  25
HETATM   25  N1  UNL     1      -1.711  12.563  27.915  1.00  0.00    -0.263 N 
ATOM     26  H1  UNL     1      -2.377  12.819  28.644  1.00  0.00     0.190 HD
BRANCH  25  27
HETATM   27  C1  UNL     1      -1.982  11.456  27.087  1.00  0.00     0.369 C 
HETATM   28  O1  UNL     1      -2.355  11.600  25.887  1.00  0.00    -0.282 OA
ENDBRANCH  25  27
ENDBRANCH   1  25
TORSDOF 4
ENDMDL
MODEL 3
REMARK VINA RESULT: -5.606399361      4.646      7.462
REMARK  4 active torsions:
REMARK  status: ('A' for Active; 'I' for Inactive)
REMARK    1  A    between atoms: C1_2  and  N1_3 
REMARK    2  A    between atoms: N1_3  and  N2_5 
REMARK    3  A    between atoms: C4_13  and  C5_14 
REMARK       I    between atoms: C5_14  and  N5_16 
REMARK    4  A    between atoms: N5_16  and  C6_18 
ROOT
HETATM    1  N2  UNL     1      -3.544   7.050  22.826  1.00  0.00    -0.130 N 
ATOM      2  H2  UNL     1      -4.468   7.467  22.932  1.00  0.00     0.205 HD
HETATM    3  C2  UNL     1      -2.583   7.396  23.644  1.00  0.00     0.699 A 
HETATM    4  N3  UNL     1      -1.344   6.877  23.547  1.00  0.00    -0.186 N 
ATOM      5  H3  UNL     1      -1.151   6.193  22.815  1.00  0.00     0.185 HD
HETATM    6  C3  UNL     1      -0.353   7.233  24.389  1.00  0.00     0.200 A 
HETATM    7  N4  UNL     1      -0.664   8.137  25.335  1.00  0.00    -0.333 N 
ATOM      8  H4  UNL     1       0.060   8.432  25.991  1.00  0.00     0.168 HD
HETATM    9  C4  UNL     1      -1.909   8.673  25.448  1.00  0.00     0.191 A 
HETATM   10  N10 UNL     1      -2.875   8.298  24.595  1.00  0.00    -0.170 N 
ATOM     11  H10 UNL     1      -3.813   8.692  24.667  1.00  0.00     0.186 HD
ENDROOT
BRANCH   9  12
HETATM   12  C5  UNL     1      -2.204   9.647  26.484  1.00  0.00     0.304 C 
HETATM   13  O2  UNL     1      -1.492  10.659  26.579  1.00  0.00    -0.263 OA
HETATM   14  N5  UNL     1      -3.285   9.407  27.346  1.00  0.00    -0.150 N 
ATOM     15  H5  UNL     1      -3.065   9.229  28.326  1.00  0.00     0.188 HD
BRANCH  14  16
HETATM   16  C6  UNL     1      -4.510   9.393  27.019  1.00  0.00     0.716 A 
HETATM   17  N6  UNL     1      -5.291   8.306  26.923  1.00  0.00    -0.115 N 
HETATM   18  N7  UNL     1      -6.510   8.660  26.557  1.00  0.00    -0.213 N 
ATOM     19  H6  UNL     1      -4.988   7.350  27.104  1.00  0.00     0.207 HD
HETATM   20  N8  UNL     1      -6.488   9.971  26.425  1.00  0.00    -0.213 N 
ATOM     21  H7  UNL     1      -7.308   8.043  26.408  1.00  0.00     0.210 HD
HETATM   22  N9  UNL     1      -5.283  10.438  26.700  1.00  0.00    -0.115 N 
ATOM     23  H8  UNL     1      -7.287  10.542  26.150  1.00  0.00     0.210 HD
ATOM     24  H9  UNL     1      -4.995  11.416  26.674  1.00  0.00     0.207 HD
ENDBRANCH  14  16
ENDBRANCH   9  12
BRANCH   1  25
HETATM   25  N1  UNL     1      -3.322   6.124  21.816  1.00  0.00    -0.263 N 
ATOM     26  H1  UNL     1      -3.518   5.138  21.988  1.00  0.00     0.190 HD
BRANCH  25  27
HETATM   27  C1  UNL     1      -2.832   6.525  20.558  1.00  0.00     0.369 C 
HETATM   28  O1  UNL     1      -1.612   6.804  20.378  1.00  0.00    -0.282 OA
ENDBRANCH  25  27
ENDBRANCH   1  25
TORSDOF 4
ENDMDL
MODEL 4
REMARK VINA RESULT: -5.500222652      3.183      7.865
REMARK  4 active torsions:
REMARK  status: ('A' for Active; 'I' for Inactive)
REMARK    1  A    between atoms: C1_2  and  N1_3 
REMARK    2  A    between atoms: N1_3  and  N2_5 
REMARK    3  A    between atoms: C4_13  and  C5_14 
REMARK       I    between atoms: C5_14  and  N5_16 
REMARK    4  A    between atoms: N5_16  and  C6_18 
ROOT
HETATM    1  N2  UNL     1      -0.663  13.596  27.445  1.00  0.00    -0.130 N 
ATOM      2  H2  UNL     1      -0.511  13.845  26.468  1.00  0.00     0.205 HD
HETATM    3  C2  UNL     1      -0.051  14.271  28.384  1.00  0.00     0.699 A 
HETATM    4  N3  UNL     1      -0.217  13.983  29.690  1.00  0.00    -0.186 N 
ATOM      5  H3  UNL     1      -0.838  13.218  29.953  1.00  0.00     0.185 HD
HETATM    6  C3  UNL     1       0.414  14.677  30.659  1.00  0.00     0.200 A 
HETATM    7  N4  UNL     1       1.220  15.675  30.255  1.00  0.00    -0.333 N 
ATOM      8  H4  UNL     1       1.715  16.224  30.960  1.00  0.00     0.168 HD
HETATM    9  C4  UNL     1       1.400  15.980  28.943  1.00  0.00     0.191 A 
HETATM   10  N10 UNL     1       0.758  15.271  28.001  1.00  0.00    -0.170 N 
ATOM     11  H10 UNL     1       0.883  15.487  27.012  1.00  0.00     0.186 HD
ENDROOT
BRANCH   9  12
HETATM   12  C5  UNL     1       2.279  17.066  28.549  1.00  0.00     0.304 C 
HETATM   13  O2  UNL     1       2.011  17.718  27.527  1.00  0.00    -0.263 OA
HETATM   14  N5  UNL     1       3.406  17.341  29.339  1.00  0.00    -0.150 N 
ATOM     15  H5  UNL     1       4.320  17.166  28.920  1.00  0.00     0.188 HD
BRANCH  14  16
HETATM   16  C6  UNL     1       3.393  17.789  30.526  1.00  0.00     0.716 A 
HETATM   17  N6  UNL     1       2.657  18.815  30.976  1.00  0.00    -0.115 N 
HETATM   18  N7  UNL     1       2.894  19.008  32.262  1.00  0.00    -0.213 N 
ATOM     19  H6  UNL     1       2.011  19.365  30.411  1.00  0.00     0.207 HD
HETATM   20  N8  UNL     1       3.781  18.098  32.612  1.00  0.00    -0.213 N 
ATOM     21  H7  UNL     1       2.475  19.717  32.863  1.00  0.00     0.210 HD
HETATM   22  N9  UNL     1       4.100  17.346  31.573  1.00  0.00    -0.115 N 
ATOM     23  H8  UNL     1       4.166  17.991  33.550  1.00  0.00     0.210 HD
ATOM     24  H9  UNL     1       4.762  16.572  31.570  1.00  0.00     0.207 HD
ENDBRANCH  14  16
ENDBRANCH   9  12
BRANCH   1  25
HETATM   25  N1  UNL     1      -1.516  12.547  27.759  1.00  0.00    -0.263 N 
ATOM     26  H1  UNL     1      -1.912  12.486  28.697  1.00  0.00     0.190 HD
BRANCH  25  27
HETATM   27  C1  UNL     1      -1.844  11.566  26.803  1.00  0.00     0.369 C 
HETATM   28  O1  UNL     1      -1.535  11.697  25.584  1.00  0.00    -0.282 OA
ENDBRANCH  25  27
ENDBRANCH   1  25
TORSDOF 4
ENDMDL
MODEL 5
REMARK VINA RESULT: -5.486976910      1.387      2.164
REMARK  4 active torsions:
REMARK  status: ('A' for Active; 'I' for Inactive)
REMARK    1  A    between atoms: C1_2  and  N1_3 
REMARK    2  A    between atoms: N1_3  and  N2_5 
REMARK    3  A    between atoms: C4_13  and  C5_14 
REMARK       I    between atoms: C5_14  and  N5_16 
REMARK    4  A    between atoms: N5_16  and  C6_18 
ROOT
HETATM    1  N2  UNL     1       1.867  14.864  29.323  1.00  0.00    -0.130 N 
ATOM      2  H2  UNL     1       2.142  14.600  30.269  1.00  0.00     0.205 HD
HETATM    3  C2  UNL     1       0.818  14.304  28.777  1.00  0.00     0.699 A 
HETATM    4  N3  UNL     1       0.412  14.617  27.531  1.00  0.00    -0.186 N 
ATOM      5  H3  UNL     1       0.937  15.312  27.000  1.00  0.00     0.185 HD
HETATM    6  C3  UNL     1      -0.668  14.040  26.967  1.00  0.00     0.200 A 
HETATM    7  N4  UNL     1      -1.323  13.132  27.712  1.00  0.00    -0.333 N 
ATOM      8  H4  UNL     1      -2.145  12.673  27.319  1.00  0.00     0.168 HD
HETATM    9  C4  UNL     1      -0.928  12.802  28.971  1.00  0.00     0.191 A 
HETATM   10  N10 UNL     1       0.152  13.394  29.506  1.00  0.00    -0.170 N 
ATOM     11  H10 UNL     1       0.461  13.157  30.448  1.00  0.00     0.186 HD
ENDROOT
BRANCH   9  12
HETATM   12  C5  UNL     1      -1.663  11.816  29.743  1.00  0.00     0.304 C 
HETATM   13  O2  UNL     1      -2.044  12.110  30.887  1.00  0.00    -0.263 OA
HETATM   14  N5  UNL     1      -1.916  10.562  29.167  1.00  0.00    -0.150 N 
ATOM     15  H5  UNL     1      -1.451   9.757  29.588  1.00  0.00     0.188 HD
BRANCH  14  16
HETATM   16  C6  UNL     1      -2.669  10.336  28.172  1.00  0.00     0.716 A 
HETATM   17  N6  UNL     1      -2.326   9.682  27.052  1.00  0.00    -0.115 N 
HETATM   18  N7  UNL     1      -3.358   9.633  26.227  1.00  0.00    -0.213 N 
ATOM     19  H6  UNL     1      -1.407   9.283  26.866  1.00  0.00     0.207 HD
HETATM   20  N8  UNL     1      -4.344  10.259  26.836  1.00  0.00    -0.213 N 
ATOM     21  H7  UNL     1      -3.384   9.198  25.306  1.00  0.00     0.210 HD
HETATM   22  N9  UNL     1      -3.950  10.696  28.019  1.00  0.00    -0.115 N 
ATOM     23  H8  UNL     1      -5.279  10.388  26.449  1.00  0.00     0.210 HD
ATOM     24  H9  UNL     1      -4.516  11.211  28.692  1.00  0.00     0.207 HD
ENDBRANCH  14  16
ENDBRANCH   9  12
BRANCH   1  25
HETATM   25  N1  UNL     1       2.609  15.813  28.635  1.00  0.00    -0.263 N 
ATOM     26  H1  UNL     1       3.409  15.517  28.077  1.00  0.00     0.190 HD
BRANCH  25  27
HETATM   27  C1  UNL     1       2.274  17.181  28.696  1.00  0.00     0.369 C 
HETATM   28  O1  UNL     1       2.217  17.898  27.656  1.00  0.00    -0.282 OA
ENDBRANCH  25  27
ENDBRANCH   1  25
TORSDOF 4
ENDMDL
