MODEL 1
REMARK VINA RESULT: -4.798273781      0.000      0.000
REMARK  6 active torsions:
REMARK  status: ('A' for Active; 'I' for Inactive)
REMARK    1  A    between atoms: C2_2  and  O1_3 
REMARK    2  A    between atoms: C2_2  and  C3_5 
REMARK    3  A    between atoms: C2_2  and  N1_8 
REMARK    4  A    between atoms: C3_5  and  O2_6 
REMARK    5  A    between atoms: N1_8  and  N2_9 
REMARK    6  A    between atoms: N1_8  and  C4_12 
ROOT
HETATM    1  C4  UNL     1       1.427  13.811  29.766  1.00  0.00     0.163 C 
HETATM    2  N3  UNL     1       1.226  12.586  29.909  1.00  0.00    -0.314 N 
ATOM      3  H3  UNL     1       1.997  11.978  30.187  1.00  0.00     0.166 HD
HETATM    4  C5  UNL     1      -0.046  12.037  29.693  1.00  0.00     0.316 C 
HETATM    5  C6  UNL     1      -1.136  13.063  29.939  1.00  0.00     0.175 C 
HETATM    6  S1  UNL     1      -0.182  14.511  29.297  1.00  0.00    -0.086 SA
HETATM    7  N4  UNL     1      -0.323  10.936  30.586  1.00  0.00    -0.021 N 
ATOM      8  H41 UNL     1      -0.463  11.187  31.564  1.00  0.00     0.283 HD
ATOM      9  H42 UNL     1       0.459  10.309  30.768  1.00  0.00     0.283 HD
HETATM   10  C7  UNL     1      -1.483  10.327  29.914  1.00  0.00     0.264 C 
HETATM   11  C8  UNL     1      -1.062  10.462  28.465  1.00  0.00     0.200 C 
HETATM   12  O3  UNL     1      -0.189  11.521  28.394  1.00  0.00    -0.336 OA
ENDROOT
BRANCH   1  13
HETATM   13  N1  UNL     1       2.578  14.629  29.912  1.00  0.00    -0.240 N 
BRANCH  13  14
HETATM   14  C2  UNL     1       3.499  14.537  31.003  1.00  0.00     0.171 C 
HETATM   15  C1  UNL     1       4.365  15.804  30.942  1.00  0.00     0.075 C 
BRANCH  14  16
HETATM   16  O1  UNL     1       4.304  13.401  30.943  1.00  0.00    -0.367 OA
ATOM     17  H1  UNL     1       4.512  13.100  31.820  1.00  0.00     0.212 HD
ENDBRANCH  14  16
BRANCH  14  18
HETATM   18  C3  UNL     1       2.766  14.604  32.319  1.00  0.00     0.226 C 
BRANCH  18  19
HETATM   19  O2  UNL     1       3.563  14.275  33.395  1.00  0.00    -0.396 OA
ATOM     20  H2  UNL     1       3.243  14.631  34.216  1.00  0.00     0.209 HD
ENDBRANCH  18  19
ENDBRANCH  14  18
ENDBRANCH  13  14
BRANCH  13  21
HETATM   21  N2  UNL     1       2.822  15.584  28.922  1.00  0.00    -0.338 N 
ATOM     22  H22 UNL     1       3.187  15.254  28.028  1.00  0.00     0.177 HD
ATOM     23  H21 UNL     1       2.624  16.562  29.136  1.00  0.00     0.177 HD
ENDBRANCH  13  21
ENDBRANCH   1  13
TORSDOF 6
ENDMDL
MODEL 2
REMARK VINA RESULT: -4.798187054      1.469      1.752
REMARK  6 active torsions:
REMARK  status: ('A' for Active; 'I' for Inactive)
REMARK    1  A    between atoms: C2_2  and  O1_3 
REMARK    2  A    between atoms: C2_2  and  C3_5 
REMARK    3  A    between atoms: C2_2  and  N1_8 
REMARK    4  A    between atoms: C3_5  and  O2_6 
REMARK    5  A    between atoms: N1_8  and  N2_9 
REMARK    6  A    between atoms: N1_8  and  C4_12 
ROOT
HETATM    1  C4  UNL     1       0.452  13.829  30.157  1.00  0.00     0.163 C 
HETATM    2  N3  UNL     1       0.476  12.580  30.106  1.00  0.00    -0.314 N 
ATOM      3  H3  UNL     1       1.329  12.082  30.363  1.00  0.00     0.166 HD
HETATM    4  C5  UNL     1      -0.655  11.856  29.701  1.00  0.00     0.316 C 
HETATM    5  C6  UNL     1      -1.931  12.623  29.992  1.00  0.00     0.175 C 
HETATM    6  S1  UNL     1      -1.227  14.299  29.650  1.00  0.00    -0.086 SA
HETATM    7  N4  UNL     1      -0.775  10.598  30.401  1.00  0.00    -0.021 N 
ATOM      8  H41 UNL     1      -1.020  10.665  31.389  1.00  0.00     0.283 HD
ATOM      9  H42 UNL     1       0.098  10.098  30.562  1.00  0.00     0.283 HD
HETATM   10  C7  UNL     1      -1.756   9.907  29.548  1.00  0.00     0.264 C 
HETATM   11  C8  UNL     1      -1.279  10.337  28.177  1.00  0.00     0.200 C 
HETATM   12  O3  UNL     1      -0.618  11.532  28.335  1.00  0.00    -0.336 OA
ENDROOT
BRANCH   1  13
HETATM   13  N1  UNL     1       1.419  14.803  30.520  1.00  0.00    -0.240 N 
BRANCH  13  14
HETATM   14  C2  UNL     1       2.513  15.202  29.690  1.00  0.00     0.171 C 
HETATM   15  C1  UNL     1       2.208  16.638  29.237  1.00  0.00     0.075 C 
BRANCH  14  16
HETATM   16  O1  UNL     1       2.688  14.375  28.582  1.00  0.00    -0.367 OA
ATOM     17  H1  UNL     1       2.482  14.849  27.784  1.00  0.00     0.212 HD
ENDBRANCH  14  16
BRANCH  14  18
HETATM   18  C3  UNL     1       3.784  15.288  30.497  1.00  0.00     0.226 C 
BRANCH  18  19
HETATM   19  O2  UNL     1       4.191  14.068  30.992  1.00  0.00    -0.396 OA
ATOM     20  H2  UNL     1       4.430  14.101  31.910  1.00  0.00     0.209 HD
ENDBRANCH  18  19
ENDBRANCH  14  18
ENDBRANCH  13  14
BRANCH  13  21
HETATM   21  N2  UNL     1       1.286  15.409  31.772  1.00  0.00    -0.338 N 
ATOM     22  H22 UNL     1       1.963  15.155  32.492  1.00  0.00     0.177 HD
ATOM     23  H21 UNL     1       0.523  16.072  31.908  1.00  0.00     0.177 HD
ENDBRANCH  13  21
ENDBRANCH   1  13
TORSDOF 6
ENDMDL
MODEL 3
REMARK VINA RESULT: -4.777319341      3.750      6.648
REMARK  6 active torsions:
REMARK  status: ('A' for Active; 'I' for Inactive)
REMARK    1  A    between atoms: C2_2  and  O1_3 
REMARK    2  A    between atoms: C2_2  and  C3_5 
REMARK    3  A    between atoms: C2_2  and  N1_8 
REMARK    4  A    between atoms: C3_5  and  O2_6 
REMARK    5  A    between atoms: N1_8  and  N2_9 
REMARK    6  A    between atoms: N1_8  and  C4_12 
ROOT
HETATM    1  C4  UNL     1       0.913  16.944  29.803  1.00  0.00     0.163 C 
HETATM    2  N3  UNL     1       1.680  17.832  29.372  1.00  0.00    -0.314 N 
ATOM      3  H3  UNL     1       2.179  17.684  28.494  1.00  0.00     0.166 HD
HETATM    4  C5  UNL     1       1.862  19.029  30.080  1.00  0.00     0.316 C 
HETATM    5  C6  UNL     1       0.644  19.361  30.921  1.00  0.00     0.175 C 
HETATM    6  S1  UNL     1       0.226  17.610  31.347  1.00  0.00    -0.086 SA
HETATM    7  N4  UNL     1       2.059  20.157  29.200  1.00  0.00    -0.021 N 
ATOM      8  H41 UNL     1       1.239  20.452  28.670  1.00  0.00     0.283 HD
ATOM      9  H42 UNL     1       2.634  19.979  28.377  1.00  0.00     0.283 HD
HETATM   10  C7  UNL     1       2.594  21.150  30.146  1.00  0.00     0.264 C 
HETATM   11  C8  UNL     1       3.493  20.268  30.989  1.00  0.00     0.200 C 
HETATM   12  O3  UNL     1       2.994  18.990  30.910  1.00  0.00    -0.336 OA
ENDROOT
BRANCH   1  13
HETATM   13  N1  UNL     1       0.540  15.664  29.316  1.00  0.00    -0.240 N 
BRANCH  13  14
HETATM   14  C2  UNL     1       1.331  14.883  28.416  1.00  0.00     0.171 C 
HETATM   15  C1  UNL     1       1.979  13.777  29.263  1.00  0.00     0.075 C 
BRANCH  14  16
HETATM   16  O1  UNL     1       2.312  15.626  27.764  1.00  0.00    -0.367 OA
ATOM     17  H1  UNL     1       1.933  16.412  27.388  1.00  0.00     0.212 HD
ENDBRANCH  14  16
BRANCH  14  18
HETATM   18  C3  UNL     1       0.449  14.172  27.420  1.00  0.00     0.226 C 
BRANCH  18  19
HETATM   19  O2  UNL     1       0.287  12.833  27.705  1.00  0.00    -0.396 OA
ATOM     20  H2  UNL     1      -0.467  12.659  28.256  1.00  0.00     0.209 HD
ENDBRANCH  18  19
ENDBRANCH  14  18
ENDBRANCH  13  14
BRANCH  13  21
HETATM   21  N2  UNL     1      -0.681  15.140  29.748  1.00  0.00    -0.338 N 
ATOM     22  H22 UNL     1      -1.529  15.639  29.480  1.00  0.00     0.177 HD
ATOM     23  H21 UNL     1      -0.668  14.287  30.307  1.00  0.00     0.177 HD
ENDBRANCH  13  21
ENDBRANCH   1  13
TORSDOF 6
ENDMDL
MODEL 4
REMARK VINA RESULT: -4.679570572      2.054      2.360
REMARK  6 active torsions:
REMARK  status: ('A' for Active; 'I' for Inactive)
REMARK    1  A    between atoms: C2_2  and  O1_3 
REMARK    2  A    between atoms: C2_2  and  C3_5 
REMARK    3  A    between atoms: C2_2  and  N1_8 
REMARK    4  A    between atoms: C3_5  and  O2_6 
REMARK    5  A    between atoms: N1_8  and  N2_9 
REMARK    6  A    between atoms: N1_8  and  C4_12 
ROOT
HETATM    1  C4  UNL     1       0.078  13.594  29.730  1.00  0.00     0.163 C 
HETATM    2  N3  UNL     1      -0.527  12.812  28.966  1.00  0.00    -0.314 N 
ATOM      3  H3  UNL     1      -0.598  13.032  27.972  1.00  0.00     0.166 HD
HETATM    4  C5  UNL     1      -1.108  11.634  29.458  1.00  0.00     0.316 C 
HETATM    5  C6  UNL     1      -0.391  11.146  30.703  1.00  0.00     0.175 C 
HETATM    6  S1  UNL     1      -0.011  12.828  31.373  1.00  0.00    -0.086 SA
HETATM    7  N4  UNL     1      -1.036  10.551  28.505  1.00  0.00    -0.021 N 
ATOM      8  H41 UNL     1      -0.105  10.169  28.341  1.00  0.00     0.283 HD
ATOM      9  H42 UNL     1      -1.196  10.809  27.532  1.00  0.00     0.283 HD
HETATM   10  C7  UNL     1      -2.015   9.615  29.083  1.00  0.00     0.264 C 
HETATM   11  C8  UNL     1      -3.086  10.584  29.536  1.00  0.00     0.200 C 
HETATM   12  O3  UNL     1      -2.472  11.796  29.751  1.00  0.00    -0.336 OA
ENDROOT
BRANCH   1  13
HETATM   13  N1  UNL     1       0.748  14.828  29.521  1.00  0.00    -0.240 N 
BRANCH  13  14
HETATM   14  C2  UNL     1       2.122  14.945  29.141  1.00  0.00     0.171 C 
HETATM   15  C1  UNL     1       2.258  16.300  28.431  1.00  0.00     0.075 C 
BRANCH  14  16
HETATM   16  O1  UNL     1       2.546  13.917  28.301  1.00  0.00    -0.367 OA
ATOM     17  H1  UNL     1       2.371  13.073  28.701  1.00  0.00     0.212 HD
ENDBRANCH  14  16
BRANCH  14  18
HETATM   18  C3  UNL     1       3.002  15.033  30.363  1.00  0.00     0.226 C 
BRANCH  18  19
HETATM   19  O2  UNL     1       3.679  13.862  30.624  1.00  0.00    -0.396 OA
ATOM     20  H2  UNL     1       4.266  13.608  29.921  1.00  0.00     0.209 HD
ENDBRANCH  18  19
ENDBRANCH  14  18
ENDBRANCH  13  14
BRANCH  13  21
HETATM   21  N2  UNL     1       0.011  16.002  29.700  1.00  0.00    -0.338 N 
ATOM     22  H22 UNL     1       0.065  16.457  30.611  1.00  0.00     0.177 HD
ATOM     23  H21 UNL     1      -0.543  16.347  28.916  1.00  0.00     0.177 HD
ENDBRANCH  13  21
ENDBRANCH   1  13
TORSDOF 6
ENDMDL
MODEL 5
REMARK VINA RESULT: -4.624808005      4.351      6.887
REMARK  6 active torsions:
REMARK  status: ('A' for Active; 'I' for Inactive)
REMARK    1  A    between atoms: C2_2  and  O1_3 
REMARK    2  A    between atoms: C2_2  and  C3_5 
REMARK    3  A    between atoms: C2_2  and  N1_8 
REMARK    4  A    between atoms: C3_5  and  O2_6 
REMARK    5  A    between atoms: N1_8  and  N2_9 
REMARK    6  A    between atoms: N1_8  and  C4_12 
ROOT
HETATM    1  C4  UNL     1       1.542  17.503  30.614  1.00  0.00     0.163 C 
HETATM    2  N3  UNL     1       1.735  18.410  29.777  1.00  0.00    -0.314 N 
ATOM      3  H3  UNL     1       1.859  18.170  28.793  1.00  0.00     0.166 HD
HETATM    4  C5  UNL     1       1.784  19.755  30.173  1.00  0.00     0.316 C 
HETATM    5  C6  UNL     1       0.970  19.985  31.433  1.00  0.00     0.175 C 
HETATM    6  S1  UNL     1       1.357  18.351  32.209  1.00  0.00    -0.086 SA
HETATM    7  N4  UNL     1       1.230  20.638  29.173  1.00  0.00    -0.021 N 
ATOM      8  H41 UNL     1       0.219  20.583  29.047  1.00  0.00     0.283 HD
ATOM      9  H42 UNL     1       1.450  20.401  28.206  1.00  0.00     0.283 HD
HETATM   10  C7  UNL     1       1.743  21.935  29.642  1.00  0.00     0.264 C 
HETATM   11  C8  UNL     1       3.138  21.537  30.077  1.00  0.00     0.200 C 
HETATM   12  O3  UNL     1       3.098  20.199  30.390  1.00  0.00    -0.336 OA
ENDROOT
BRANCH   1  13
HETATM   13  N1  UNL     1       1.446  16.091  30.509  1.00  0.00    -0.240 N 
BRANCH  13  14
HETATM   14  C2  UNL     1       2.362  15.273  29.775  1.00  0.00     0.171 C 
HETATM   15  C1  UNL     1       2.291  13.875  30.408  1.00  0.00     0.075 C 
BRANCH  14  16
HETATM   16  O1  UNL     1       3.670  15.750  29.810  1.00  0.00    -0.367 OA
ATOM     17  H1  UNL     1       3.673  16.685  29.978  1.00  0.00     0.212 HD
ENDBRANCH  14  16
BRANCH  14  18
HETATM   18  C3  UNL     1       1.893  15.102  28.352  1.00  0.00     0.226 C 
BRANCH  18  19
HETATM   19  O2  UNL     1       2.037  16.247  27.598  1.00  0.00    -0.396 OA
ATOM     20  H2  UNL     1       2.093  16.073  26.666  1.00  0.00     0.209 HD
ENDBRANCH  18  19
ENDBRANCH  14  18
ENDBRANCH  13  14
BRANCH  13  21
HETATM   21  N2  UNL     1       0.385  15.465  31.168  1.00  0.00    -0.338 N 
ATOM     22  H22 UNL     1       0.128  14.526  30.862  1.00  0.00     0.177 HD
ATOM     23  H21 UNL     1      -0.081  15.972  31.921  1.00  0.00     0.177 HD
ENDBRANCH  13  21
ENDBRANCH   1  13
TORSDOF 6
ENDMDL
