MODEL 1
REMARK VINA RESULT: -6.605191976      0.000      0.000
REMARK  8 active torsions:
REMARK  status: ('A' for Active; 'I' for Inactive)
REMARK    1  A    between atoms: C2_2  and  C3_3 
REMARK    2  A    between atoms: C3_3  and  C4_4 
REMARK    3  A    between atoms: C4_4  and  N1_6 
REMARK    4  A    between atoms: N1_6  and  C6_8 
REMARK    5  A    between atoms: C9_15  and  N4_16 
REMARK    6  A    between atoms: N4_16  and  C10_18 
REMARK    7  A    between atoms: C15_26  and  O1_27 
REMARK    8  A    between atoms: O1_27  and  C16_28 
ROOT
HETATM    1  C6  UNL     1      80.406   5.157  31.487  1.00  0.00     0.132 A 
HETATM    2  N2  UNL     1      79.113   5.487  31.495  1.00  0.00    -0.337 N 
ATOM      3  H2  UNL     1      78.573   5.400  32.356  1.00  0.00     0.168 HD
HETATM    4  C7  UNL     1      78.518   5.935  30.376  1.00  0.00     0.182 A 
HETATM    5  N3  UNL     1      79.164   6.077  29.211  1.00  0.00    -0.349 N 
ATOM      6  H3  UNL     1      78.672   6.421  28.386  1.00  0.00     0.167 HD
HETATM    7  C8  UNL     1      80.466   5.760  29.143  1.00  0.00     0.090 A 
HETATM    8  C9  UNL     1      81.191   5.884  27.966  1.00  0.00     0.062 A 
HETATM    9  C14 UNL     1      82.550   5.520  28.022  1.00  0.00     0.087 A 
HETATM   10  C15 UNL     1      83.169   5.065  29.146  1.00  0.00     0.144 A 
HETATM   11  N6  UNL     1      82.399   4.970  30.255  1.00  0.00    -0.332 N 
ATOM     12  H6  UNL     1      82.834   4.632  31.114  1.00  0.00     0.168 HD
HETATM   13  C18 UNL     1      81.097   5.295  30.293  1.00  0.00     0.107 A 
ENDROOT
BRANCH   8  14
HETATM   14  N4  UNL     1      80.705   6.294  26.890  1.00  0.00    -0.382 N 
ATOM     15  H4  UNL     1      80.814   7.302  26.781  1.00  0.00     0.160 HD
BRANCH  14  16
HETATM   16  C10 UNL     1      80.050   5.718  25.800  1.00  0.00     0.109 C 
HETATM   17  C11 UNL     1      79.919   4.185  25.952  1.00  0.00     0.054 C 
HETATM   18  C12 UNL     1      78.621   3.957  25.207  1.00  0.00     0.234 C 
HETATM   19  N5  UNL     1      77.783   4.965  25.879  1.00  0.00    -0.073 N 
HETATM   20  C13 UNL     1      78.590   6.162  25.669  1.00  0.00     0.257 C 
ATOM     21  H52 UNL     1      76.816   5.022  25.558  1.00  0.00     0.277 HD
ATOM     22  H51 UNL     1      77.538   4.762  26.848  1.00  0.00     0.277 HD
ENDBRANCH  14  16
ENDBRANCH   8  14
BRANCH  10  23
HETATM   23  O1  UNL     1      84.496   4.704  29.225  1.00  0.00    -0.336 OA
BRANCH  23  24
HETATM   24  C16 UNL     1      85.459   5.408  29.930  1.00  0.00     0.173 C 
HETATM   25  C17 UNL     1      86.055   6.565  29.195  1.00  0.00     0.034 C 
ENDBRANCH  23  24
ENDBRANCH  10  23
BRANCH   1  26
HETATM   26  N1  UNL     1      81.051   4.725  32.500  1.00  0.00    -0.370 N 
ATOM     27  H1  UNL     1      81.711   3.966  32.327  1.00  0.00     0.161 HD
BRANCH  26  28
HETATM   28  C4  UNL     1      80.954   5.181  33.841  1.00  0.00     0.079 C 
HETATM   29  C5  UNL     1      81.447   6.631  33.862  1.00  0.00     0.032 C 
BRANCH  28  30
HETATM   30  C3  UNL     1      81.829   4.429  34.817  1.00  0.00     0.024 C 
BRANCH  30  31
HETATM   31  C2  UNL     1      83.073   4.007  34.021  1.00  0.00    -0.003 C 
HETATM   32  C1  UNL     1      84.196   3.632  34.964  1.00  0.00     0.005 C 
ENDBRANCH  30  31
ENDBRANCH  28  30
ENDBRANCH  26  28
ENDBRANCH   1  26
TORSDOF 8
ENDMDL
MODEL 2
REMARK VINA RESULT: -6.570176331      1.593      6.949
REMARK  8 active torsions:
REMARK  status: ('A' for Active; 'I' for Inactive)
REMARK    1  A    between atoms: C2_2  and  C3_3 
REMARK    2  A    between atoms: C3_3  and  C4_4 
REMARK    3  A    between atoms: C4_4  and  N1_6 
REMARK    4  A    between atoms: N1_6  and  C6_8 
REMARK    5  A    between atoms: C9_15  and  N4_16 
REMARK    6  A    between atoms: N4_16  and  C10_18 
REMARK    7  A    between atoms: C15_26  and  O1_27 
REMARK    8  A    between atoms: O1_27  and  C16_28 
ROOT
HETATM    1  C6  UNL     1      79.412   5.924  28.635  1.00  0.00     0.132 A 
HETATM    2  N2  UNL     1      78.369   5.896  29.466  1.00  0.00    -0.337 N 
ATOM      3  H2  UNL     1      77.437   6.119  29.118  1.00  0.00     0.168 HD
HETATM    4  C7  UNL     1      78.538   5.574  30.760  1.00  0.00     0.182 A 
HETATM    5  N3  UNL     1      79.731   5.267  31.287  1.00  0.00    -0.349 N 
ATOM      6  H3  UNL     1      79.813   5.029  32.276  1.00  0.00     0.167 HD
HETATM    7  C8  UNL     1      80.816   5.279  30.499  1.00  0.00     0.090 A 
HETATM    8  C9  UNL     1      82.080   4.971  30.984  1.00  0.00     0.062 A 
HETATM    9  C14 UNL     1      83.139   5.018  30.058  1.00  0.00     0.087 A 
HETATM   10  C15 UNL     1      82.986   5.341  28.744  1.00  0.00     0.144 A 
HETATM   11  N6  UNL     1      81.726   5.630  28.343  1.00  0.00    -0.332 N 
ATOM     12  H6  UNL     1      81.578   5.876  27.364  1.00  0.00     0.168 HD
HETATM   13  C18 UNL     1      80.658   5.610  29.156  1.00  0.00     0.107 A 
ENDROOT
BRANCH   8  14
HETATM   14  N4  UNL     1      82.311   4.663  32.173  1.00  0.00    -0.382 N 
ATOM     15  H4  UNL     1      82.285   3.653  32.317  1.00  0.00     0.160 HD
BRANCH  14  16
HETATM   16  C10 UNL     1      82.597   5.352  33.353  1.00  0.00     0.109 C 
HETATM   17  C11 UNL     1      81.544   5.071  34.451  1.00  0.00     0.054 C 
HETATM   18  C12 UNL     1      82.412   5.202  35.684  1.00  0.00     0.234 C 
HETATM   19  N5  UNL     1      83.514   4.305  35.296  1.00  0.00    -0.073 N 
HETATM   20  C13 UNL     1      83.898   4.897  34.019  1.00  0.00     0.257 C 
ATOM     21  H52 UNL     1      84.264   4.203  35.980  1.00  0.00     0.277 HD
ATOM     22  H51 UNL     1      83.287   3.311  35.271  1.00  0.00     0.277 HD
ENDBRANCH  14  16
ENDBRANCH   8  14
BRANCH  10  23
HETATM   23  O1  UNL     1      84.006   5.393  27.820  1.00  0.00    -0.336 OA
BRANCH  23  24
HETATM   24  C16 UNL     1      83.910   6.005  26.581  1.00  0.00     0.173 C 
HETATM   25  C17 UNL     1      83.652   5.074  25.439  1.00  0.00     0.034 C 
ENDBRANCH  23  24
ENDBRANCH  10  23
BRANCH   1  26
HETATM   26  N1  UNL     1      79.344   6.217  27.394  1.00  0.00    -0.370 N 
ATOM     27  H1  UNL     1      79.989   6.934  27.062  1.00  0.00     0.161 HD
BRANCH  26  28
HETATM   28  C4  UNL     1      78.472   5.657  26.424  1.00  0.00     0.079 C 
HETATM   29  C5  UNL     1      78.991   4.251  26.107  1.00  0.00     0.032 C 
BRANCH  28  30
HETATM   30  C3  UNL     1      78.450   6.400  25.108  1.00  0.00     0.024 C 
BRANCH  30  31
HETATM   31  C2  UNL     1      77.481   5.621  24.206  1.00  0.00    -0.003 C 
HETATM   32  C1  UNL     1      76.744   6.570  23.287  1.00  0.00     0.005 C 
ENDBRANCH  30  31
ENDBRANCH  28  30
ENDBRANCH  26  28
ENDBRANCH   1  26
TORSDOF 8
ENDMDL
MODEL 3
REMARK VINA RESULT: -6.519147946      0.667      1.443
REMARK  8 active torsions:
REMARK  status: ('A' for Active; 'I' for Inactive)
REMARK    1  A    between atoms: C2_2  and  C3_3 
REMARK    2  A    between atoms: C3_3  and  C4_4 
REMARK    3  A    between atoms: C4_4  and  N1_6 
REMARK    4  A    between atoms: N1_6  and  C6_8 
REMARK    5  A    between atoms: C9_15  and  N4_16 
REMARK    6  A    between atoms: N4_16  and  C10_18 
REMARK    7  A    between atoms: C15_26  and  O1_27 
REMARK    8  A    between atoms: O1_27  and  C16_28 
ROOT
HETATM    1  C6  UNL     1      80.179   4.912  31.381  1.00  0.00     0.132 A 
HETATM    2  N2  UNL     1      78.880   5.217  31.381  1.00  0.00    -0.337 N 
ATOM      3  H2  UNL     1      78.324   5.064  32.222  1.00  0.00     0.168 HD
HETATM    4  C7  UNL     1      78.300   5.724  30.280  1.00  0.00     0.182 A 
HETATM    5  N3  UNL     1      78.968   5.953  29.141  1.00  0.00    -0.349 N 
ATOM      6  H3  UNL     1      78.487   6.340  28.329  1.00  0.00     0.167 HD
HETATM    7  C8  UNL     1      80.277   5.667  29.082  1.00  0.00     0.090 A 
HETATM    8  C9  UNL     1      81.025   5.880  27.932  1.00  0.00     0.062 A 
HETATM    9  C14 UNL     1      82.389   5.539  27.996  1.00  0.00     0.087 A 
HETATM   10  C15 UNL     1      82.993   5.024  29.102  1.00  0.00     0.144 A 
HETATM   11  N6  UNL     1      82.202   4.843  30.185  1.00  0.00    -0.332 N 
ATOM     12  H6  UNL     1      82.625   4.459  31.030  1.00  0.00     0.168 HD
HETATM   13  C18 UNL     1      80.893   5.140  30.214  1.00  0.00     0.107 A 
ENDROOT
BRANCH   8  14
HETATM   14  N4  UNL     1      80.553   6.349  26.874  1.00  0.00    -0.382 N 
ATOM     15  H4  UNL     1      80.644   7.364  26.833  1.00  0.00     0.160 HD
BRANCH  14  16
HETATM   16  C10 UNL     1      79.933   5.833  25.735  1.00  0.00     0.109 C 
HETATM   17  C11 UNL     1      79.926   4.287  25.736  1.00  0.00     0.054 C 
HETATM   18  C12 UNL     1      78.641   4.031  24.976  1.00  0.00     0.234 C 
HETATM   19  N5  UNL     1      77.733   4.899  25.746  1.00  0.00    -0.073 N 
HETATM   20  C13 UNL     1      78.441   6.170  25.653  1.00  0.00     0.257 C 
ATOM     21  H52 UNL     1      76.762   4.909  25.435  1.00  0.00     0.277 HD
ATOM     22  H51 UNL     1      77.516   4.583  26.691  1.00  0.00     0.277 HD
ENDBRANCH  14  16
ENDBRANCH   8  14
BRANCH  10  23
HETATM   23  O1  UNL     1      84.325   4.684  29.188  1.00  0.00    -0.336 OA
BRANCH  23  24
HETATM   24  C16 UNL     1      85.267   5.384  29.925  1.00  0.00     0.173 C 
HETATM   25  C17 UNL     1      85.983   6.458  29.171  1.00  0.00     0.034 C 
ENDBRANCH  23  24
ENDBRANCH  10  23
BRANCH   1  26
HETATM   26  N1  UNL     1      80.812   4.428  32.379  1.00  0.00    -0.370 N 
ATOM     27  H1  UNL     1      80.797   3.412  32.474  1.00  0.00     0.161 HD
BRANCH  26  28
HETATM   28  C4  UNL     1      81.532   5.143  33.370  1.00  0.00     0.079 C 
HETATM   29  C5  UNL     1      81.955   4.132  34.440  1.00  0.00     0.032 C 
BRANCH  28  30
HETATM   30  C3  UNL     1      80.718   6.195  34.089  1.00  0.00     0.024 C 
BRANCH  30  31
HETATM   31  C2  UNL     1      81.441   6.441  35.422  1.00  0.00    -0.003 C 
HETATM   32  C1  UNL     1      81.096   7.813  35.959  1.00  0.00     0.005 C 
ENDBRANCH  30  31
ENDBRANCH  28  30
ENDBRANCH  26  28
ENDBRANCH   1  26
TORSDOF 8
ENDMDL
MODEL 4
REMARK VINA RESULT: -6.502828356      1.562      6.738
REMARK  8 active torsions:
REMARK  status: ('A' for Active; 'I' for Inactive)
REMARK    1  A    between atoms: C2_2  and  C3_3 
REMARK    2  A    between atoms: C3_3  and  C4_4 
REMARK    3  A    between atoms: C4_4  and  N1_6 
REMARK    4  A    between atoms: N1_6  and  C6_8 
REMARK    5  A    between atoms: C9_15  and  N4_16 
REMARK    6  A    between atoms: N4_16  and  C10_18 
REMARK    7  A    between atoms: C15_26  and  O1_27 
REMARK    8  A    between atoms: O1_27  and  C16_28 
ROOT
HETATM    1  C6  UNL     1      79.337   6.095  28.608  1.00  0.00     0.132 A 
HETATM    2  N2  UNL     1      78.286   6.112  29.429  1.00  0.00    -0.337 N 
ATOM      3  H2  UNL     1      77.364   6.355  29.067  1.00  0.00     0.168 HD
HETATM    4  C7  UNL     1      78.433   5.810  30.731  1.00  0.00     0.182 A 
HETATM    5  N3  UNL     1      79.612   5.480  31.275  1.00  0.00    -0.349 N 
ATOM      6  H3  UNL     1      79.678   5.257  32.269  1.00  0.00     0.167 HD
HETATM    7  C8  UNL     1      80.705   5.446  30.497  1.00  0.00     0.090 A 
HETATM    8  C9  UNL     1      81.955   5.112  31.001  1.00  0.00     0.062 A 
HETATM    9  C14 UNL     1      83.023   5.112  30.085  1.00  0.00     0.087 A 
HETATM   10  C15 UNL     1      82.892   5.415  28.764  1.00  0.00     0.144 A 
HETATM   11  N6  UNL     1      81.644   5.730  28.345  1.00  0.00    -0.332 N 
ATOM     12  H6  UNL     1      81.513   5.963  27.360  1.00  0.00     0.168 HD
HETATM   13  C18 UNL     1      80.568   5.756  29.148  1.00  0.00     0.107 A 
ENDROOT
BRANCH   8  14
HETATM   14  N4  UNL     1      82.166   4.820  32.198  1.00  0.00    -0.382 N 
ATOM     15  H4  UNL     1      82.137   3.812  32.355  1.00  0.00     0.160 HD
BRANCH  14  16
HETATM   16  C10 UNL     1      82.432   5.525  33.373  1.00  0.00     0.109 C 
HETATM   17  C11 UNL     1      82.575   7.042  33.112  1.00  0.00     0.054 C 
HETATM   18  C12 UNL     1      82.062   7.584  34.429  1.00  0.00     0.234 C 
HETATM   19  N5  UNL     1      80.794   6.840  34.513  1.00  0.00    -0.073 N 
HETATM   20  C13 UNL     1      81.282   5.471  34.383  1.00  0.00     0.257 C 
ATOM     21  H52 UNL     1      80.223   7.029  35.338  1.00  0.00     0.277 HD
ATOM     22  H51 UNL     1      80.074   7.117  33.847  1.00  0.00     0.277 HD
ENDBRANCH  14  16
ENDBRANCH   8  14
BRANCH  10  23
HETATM   23  O1  UNL     1      83.921   5.420  27.849  1.00  0.00    -0.336 OA
BRANCH  23  24
HETATM   24  C16 UNL     1      83.864   6.034  26.609  1.00  0.00     0.173 C 
HETATM   25  C17 UNL     1      83.582   5.113  25.465  1.00  0.00     0.034 C 
ENDBRANCH  23  24
ENDBRANCH  10  23
BRANCH   1  26
HETATM   26  N1  UNL     1      79.289   6.366  27.361  1.00  0.00    -0.370 N 
ATOM     27  H1  UNL     1      79.905   7.111  27.036  1.00  0.00     0.161 HD
BRANCH  26  28
HETATM   28  C4  UNL     1      78.475   5.748  26.377  1.00  0.00     0.079 C 
HETATM   29  C5  UNL     1      79.043   4.346  26.134  1.00  0.00     0.032 C 
BRANCH  28  30
HETATM   30  C3  UNL     1      78.491   6.442  25.034  1.00  0.00     0.024 C 
BRANCH  30  31
HETATM   31  C2  UNL     1      77.526   5.648  24.143  1.00  0.00    -0.003 C 
HETATM   32  C1  UNL     1      76.784   6.582  23.211  1.00  0.00     0.005 C 
ENDBRANCH  30  31
ENDBRANCH  28  30
ENDBRANCH  26  28
ENDBRANCH   1  26
TORSDOF 8
ENDMDL
MODEL 5
REMARK VINA RESULT: -6.474660763      1.657      6.674
REMARK  8 active torsions:
REMARK  status: ('A' for Active; 'I' for Inactive)
REMARK    1  A    between atoms: C2_2  and  C3_3 
REMARK    2  A    between atoms: C3_3  and  C4_4 
REMARK    3  A    between atoms: C4_4  and  N1_6 
REMARK    4  A    between atoms: N1_6  and  C6_8 
REMARK    5  A    between atoms: C9_15  and  N4_16 
REMARK    6  A    between atoms: N4_16  and  C10_18 
REMARK    7  A    between atoms: C15_26  and  O1_27 
REMARK    8  A    between atoms: O1_27  and  C16_28 
ROOT
HETATM    1  C6  UNL     1      79.299   5.895  27.568  1.00  0.00     0.132 A 
HETATM    2  N2  UNL     1      78.231   6.200  28.306  1.00  0.00    -0.337 N 
ATOM      3  H2  UNL     1      77.301   6.171  27.888  1.00  0.00     0.168 HD
HETATM    4  C7  UNL     1      78.371   6.546  29.597  1.00  0.00     0.182 A 
HETATM    5  N3  UNL     1      79.560   6.604  30.213  1.00  0.00    -0.349 N 
ATOM      6  H3  UNL     1      79.620   6.871  31.195  1.00  0.00     0.167 HD
HETATM    7  C8  UNL     1      80.670   6.307  29.520  1.00  0.00     0.090 A 
HETATM    8  C9  UNL     1      81.931   6.350  30.100  1.00  0.00     0.062 A 
HETATM    9  C14 UNL     1      83.017   6.017  29.269  1.00  0.00     0.087 A 
HETATM   10  C15 UNL     1      82.893   5.664  27.960  1.00  0.00     0.144 A 
HETATM   11  N6  UNL     1      81.634   5.646  27.463  1.00  0.00    -0.332 N 
ATOM     12  H6  UNL     1      81.508   5.386  26.485  1.00  0.00     0.168 HD
HETATM   13  C18 UNL     1      80.541   5.948  28.182  1.00  0.00     0.107 A 
ENDROOT
BRANCH   8  14
HETATM   14  N4  UNL     1      82.137   6.661  31.293  1.00  0.00    -0.382 N 
ATOM     15  H4  UNL     1      82.143   7.672  31.428  1.00  0.00     0.160 HD
BRANCH  14  16
HETATM   16  C10 UNL     1      82.362   5.972  32.486  1.00  0.00     0.109 C 
HETATM   17  C11 UNL     1      81.437   6.472  33.620  1.00  0.00     0.054 C 
HETATM   18  C12 UNL     1      81.281   5.193  34.415  1.00  0.00     0.234 C 
HETATM   19  N5  UNL     1      80.893   4.282  33.323  1.00  0.00    -0.073 N 
HETATM   20  C13 UNL     1      82.006   4.485  32.403  1.00  0.00     0.257 C 
ATOM     21  H52 UNL     1      80.715   3.315  33.597  1.00  0.00     0.277 HD
ATOM     22  H51 UNL     1      79.964   4.432  32.932  1.00  0.00     0.277 HD
ENDBRANCH  14  16
ENDBRANCH   8  14
BRANCH  10  23
HETATM   23  O1  UNL     1      83.940   5.334  27.129  1.00  0.00    -0.336 OA
BRANCH  23  24
HETATM   24  C16 UNL     1      84.043   5.725  25.804  1.00  0.00     0.173 C 
HETATM   25  C17 UNL     1      83.663   4.676  24.808  1.00  0.00     0.034 C 
ENDBRANCH  23  24
ENDBRANCH  10  23
BRANCH   1  26
HETATM   26  N1  UNL     1      79.259   5.557  26.337  1.00  0.00    -0.370 N 
ATOM     27  H1  UNL     1      79.718   6.186  25.679  1.00  0.00     0.161 HD
BRANCH  26  28
HETATM   28  C4  UNL     1      78.648   4.402  25.782  1.00  0.00     0.079 C 
HETATM   29  C5  UNL     1      79.723   3.661  24.981  1.00  0.00     0.032 C 
BRANCH  28  30
HETATM   30  C3  UNL     1      77.532   4.700  24.806  1.00  0.00     0.024 C 
BRANCH  30  31
HETATM   31  C2  UNL     1      77.780   6.134  24.315  1.00  0.00    -0.003 C 
HETATM   32  C1  UNL     1      76.743   6.521  23.284  1.00  0.00     0.005 C 
ENDBRANCH  30  31
ENDBRANCH  28  30
ENDBRANCH  26  28
ENDBRANCH   1  26
TORSDOF 8
ENDMDL
