MODEL 1
REMARK VINA RESULT: -7.057348939      0.000      0.000
REMARK  7 active torsions:
REMARK  status: ('A' for Active; 'I' for Inactive)
REMARK    1  A    between atoms: O1_2  and  C2_3 
REMARK    2  A    between atoms: C4_5  and  C5_6 
REMARK    3  A    between atoms: C5_6  and  O2_7 
REMARK    4  A    between atoms: C6_10  and  C7_11 
REMARK    5  A    between atoms: C7_11  and  C8_12 
REMARK    6  A    between atoms: C8_12  and  C9_13 
REMARK       I    between atoms: C9_13  and  N1_15 
REMARK    7  A    between atoms: N1_15  and  C10_17 
ROOT
HETATM    1  C9  UNL     1      80.715   4.817  31.905  1.00  0.00     0.217 C 
HETATM    2  O4  UNL     1      79.561   5.127  32.238  1.00  0.00    -0.274 OA
HETATM    3  N1  UNL     1      81.002   4.861  30.501  1.00  0.00    -0.356 N 
ATOM      4  H1  UNL     1      81.939   4.614  30.181  1.00  0.00     0.162 HD
ENDROOT
BRANCH   1   5
HETATM    5  C8  UNL     1      81.709   4.433  32.902  1.00  0.00     0.105 C 
BRANCH   5   6
HETATM    6  C7  UNL     1      81.396   4.627  34.341  1.00  0.00     0.044 C 
BRANCH   6   7
HETATM    7  C6  UNL     1      81.891   5.850  34.928  1.00  0.00     0.151 C 
HETATM    8  C2  UNL     1      82.801   6.824  34.379  1.00  0.00     0.152 C 
HETATM    9  C3  UNL     1      82.932   7.714  35.712  1.00  0.00     0.068 C 
HETATM   10  C4  UNL     1      81.590   7.475  36.304  1.00  0.00     0.148 C 
HETATM   11  O3  UNL     1      80.853   6.720  35.401  1.00  0.00    -0.376 OA
BRANCH   8  12
HETATM   12  O1  UNL     1      82.332   7.720  33.428  1.00  0.00    -0.388 OA
HETATM   13  C1  UNL     1      83.085   7.896  32.313  1.00  0.00     0.202 C 
ENDBRANCH   8  12
BRANCH  10  14
HETATM   14  C5  UNL     1      80.878   8.748  36.699  1.00  0.00     0.196 C 
BRANCH  14  15
HETATM   15  O2  UNL     1      79.506   8.532  36.671  1.00  0.00    -0.398 OA
ATOM     16  H2  UNL     1      79.057   9.358  36.805  1.00  0.00     0.209 HD
ENDBRANCH  14  15
ENDBRANCH  10  14
ENDBRANCH   6   7
ENDBRANCH   5   6
ENDBRANCH   1   5
BRANCH   3  17
HETATM   17  C10 UNL     1      80.007   5.245  29.523  1.00  0.00     0.089 C 
HETATM   18  C11 UNL     1      80.223   4.510  28.221  1.00  0.00     0.063 C 
HETATM   19  C12 UNL     1      79.575   5.219  27.052  1.00  0.00     0.121 C 
HETATM   20  C13 UNL     1      78.930   4.130  26.209  1.00  0.00     0.046 C 
HETATM   21  C14 UNL     1      80.592   5.885  26.159  1.00  0.00     0.046 C 
HETATM   22  N2  UNL     1      78.518   6.109  27.452  1.00  0.00    -0.059 N 
HETATM   23  C15 UNL     1      78.912   7.125  28.378  1.00  0.00     0.121 C 
ATOM     24  H22 UNL     1      78.078   6.528  26.632  1.00  0.00     0.279 HD
ATOM     25  H21 UNL     1      77.729   5.578  27.822  1.00  0.00     0.279 HD
HETATM   26  C16 UNL     1      77.696   7.480  29.216  1.00  0.00     0.046 C 
HETATM   27  C17 UNL     1      79.258   8.396  27.589  1.00  0.00     0.046 C 
HETATM   28  C18 UNL     1      80.022   6.743  29.291  1.00  0.00     0.063 C 
ENDBRANCH   3  17
TORSDOF 7
ENDMDL
MODEL 2
REMARK VINA RESULT: -7.051737706      1.703      1.884
REMARK  7 active torsions:
REMARK  status: ('A' for Active; 'I' for Inactive)
REMARK    1  A    between atoms: O1_2  and  C2_3 
REMARK    2  A    between atoms: C4_5  and  C5_6 
REMARK    3  A    between atoms: C5_6  and  O2_7 
REMARK    4  A    between atoms: C6_10  and  C7_11 
REMARK    5  A    between atoms: C7_11  and  C8_12 
REMARK    6  A    between atoms: C8_12  and  C9_13 
REMARK       I    between atoms: C9_13  and  N1_15 
REMARK    7  A    between atoms: N1_15  and  C10_17 
ROOT
HETATM    1  C9  UNL     1      79.851   5.449  31.434  1.00  0.00     0.217 C 
HETATM    2  O4  UNL     1      79.029   6.377  31.395  1.00  0.00    -0.274 OA
HETATM    3  N1  UNL     1      80.245   4.898  30.170  1.00  0.00    -0.356 N 
ATOM      4  H1  UNL     1      80.918   4.133  30.153  1.00  0.00     0.162 HD
ENDROOT
BRANCH   1   5
HETATM    5  C8  UNL     1      80.376   4.959  32.704  1.00  0.00     0.105 C 
BRANCH   5   6
HETATM    6  C7  UNL     1      80.502   5.906  33.843  1.00  0.00     0.044 C 
BRANCH   6   7
HETATM    7  C6  UNL     1      81.496   5.561  34.833  1.00  0.00     0.151 C 
HETATM    8  C2  UNL     1      82.924   5.434  34.688  1.00  0.00     0.152 C 
HETATM    9  C3  UNL     1      83.202   4.871  36.169  1.00  0.00     0.068 C 
HETATM   10  C4  UNL     1      82.090   5.532  36.899  1.00  0.00     0.148 C 
HETATM   11  O3  UNL     1      81.438   6.377  36.011  1.00  0.00    -0.376 OA
BRANCH   8  12
HETATM   12  O1  UNL     1      83.698   6.586  34.622  1.00  0.00    -0.388 OA
HETATM   13  C1  UNL     1      85.041   6.442  34.752  1.00  0.00     0.202 C 
ENDBRANCH   8  12
BRANCH  10  14
HETATM   14  C5  UNL     1      82.542   6.254  38.147  1.00  0.00     0.196 C 
BRANCH  14  15
HETATM   15  O2  UNL     1      81.504   6.264  39.070  1.00  0.00    -0.398 OA
ATOM     16  H2  UNL     1      81.861   6.142  39.943  1.00  0.00     0.209 HD
ENDBRANCH  14  15
ENDBRANCH  10  14
ENDBRANCH   6   7
ENDBRANCH   5   6
ENDBRANCH   1   5
BRANCH   3  17
HETATM   17  C10 UNL     1      79.717   5.394  28.916  1.00  0.00     0.089 C 
HETATM   18  C11 UNL     1      79.708   4.305  27.870  1.00  0.00     0.063 C 
HETATM   19  C12 UNL     1      79.665   4.865  26.465  1.00  0.00     0.121 C 
HETATM   20  C13 UNL     1      78.680   3.995  25.699  1.00  0.00     0.046 C 
HETATM   21  C14 UNL     1      80.987   4.714  25.755  1.00  0.00     0.046 C 
HETATM   22  N2  UNL     1      79.154   6.208  26.412  1.00  0.00    -0.059 N 
HETATM   23  C15 UNL     1      79.876   7.153  27.206  1.00  0.00     0.121 C 
ATOM     24  H22 UNL     1      79.097   6.527  25.444  1.00  0.00     0.279 HD
ATOM     25  H21 UNL     1      78.164   6.220  26.658  1.00  0.00     0.279 HD
HETATM   26  C16 UNL     1      78.902   8.240  27.626  1.00  0.00     0.046 C 
HETATM   27  C17 UNL     1      80.915   7.847  26.313  1.00  0.00     0.046 C 
HETATM   28  C18 UNL     1      80.511   6.589  28.426  1.00  0.00     0.063 C 
ENDBRANCH   3  17
TORSDOF 7
ENDMDL
MODEL 3
REMARK VINA RESULT: -7.005994738      2.247      3.110
REMARK  7 active torsions:
REMARK  status: ('A' for Active; 'I' for Inactive)
REMARK    1  A    between atoms: O1_2  and  C2_3 
REMARK    2  A    between atoms: C4_5  and  C5_6 
REMARK    3  A    between atoms: C5_6  and  O2_7 
REMARK    4  A    between atoms: C6_10  and  C7_11 
REMARK    5  A    between atoms: C7_11  and  C8_12 
REMARK    6  A    between atoms: C8_12  and  C9_13 
REMARK       I    between atoms: C9_13  and  N1_15 
REMARK    7  A    between atoms: N1_15  and  C10_17 
ROOT
HETATM    1  C9  UNL     1      80.094   5.040  32.173  1.00  0.00     0.217 C 
HETATM    2  O4  UNL     1      79.030   5.655  32.338  1.00  0.00    -0.274 OA
HETATM    3  N1  UNL     1      80.475   4.785  30.814  1.00  0.00    -0.356 N 
ATOM      4  H1  UNL     1      81.343   4.282  30.630  1.00  0.00     0.162 HD
ENDROOT
BRANCH   1   5
HETATM    5  C8  UNL     1      80.900   4.610  33.310  1.00  0.00     0.105 C 
BRANCH   5   6
HETATM    6  C7  UNL     1      82.285   4.128  33.070  1.00  0.00     0.044 C 
BRANCH   6   7
HETATM    7  C6  UNL     1      83.283   4.609  33.997  1.00  0.00     0.151 C 
HETATM    8  C2  UNL     1      83.116   5.403  35.187  1.00  0.00     0.152 C 
HETATM    9  C3  UNL     1      84.683   5.615  35.480  1.00  0.00     0.068 C 
HETATM   10  C4  UNL     1      85.217   4.355  34.902  1.00  0.00     0.148 C 
HETATM   11  O3  UNL     1      84.138   3.576  34.506  1.00  0.00    -0.376 OA
BRANCH   8  12
HETATM   12  O1  UNL     1      82.645   4.792  36.342  1.00  0.00    -0.388 OA
HETATM   13  C1  UNL     1      82.559   5.555  37.461  1.00  0.00     0.202 C 
ENDBRANCH   8  12
BRANCH  10  14
HETATM   14  C5  UNL     1      86.143   3.614  35.839  1.00  0.00     0.196 C 
BRANCH  14  15
HETATM   15  O2  UNL     1      85.620   3.655  37.125  1.00  0.00    -0.398 OA
ATOM     16  H2  UNL     1      85.678   4.543  37.458  1.00  0.00     0.209 HD
ENDBRANCH  14  15
ENDBRANCH  10  14
ENDBRANCH   6   7
ENDBRANCH   5   6
ENDBRANCH   1   5
BRANCH   3  17
HETATM   17  C10 UNL     1      79.666   5.218  29.694  1.00  0.00     0.089 C 
HETATM   18  C11 UNL     1      80.006   4.429  28.451  1.00  0.00     0.063 C 
HETATM   19  C12 UNL     1      79.594   5.153  27.188  1.00  0.00     0.121 C 
HETATM   20  C13 UNL     1      78.988   4.094  26.279  1.00  0.00     0.046 C 
HETATM   21  C14 UNL     1      80.781   5.707  26.440  1.00  0.00     0.046 C 
HETATM   22  N2  UNL     1      78.569   6.136  27.413  1.00  0.00    -0.059 N 
HETATM   23  C15 UNL     1      78.909   7.145  28.368  1.00  0.00     0.121 C 
ATOM     24  H22 UNL     1      78.288   6.564  26.530  1.00  0.00     0.279 HD
ATOM     25  H21 UNL     1      77.693   5.682  27.673  1.00  0.00     0.279 HD
HETATM   26  C16 UNL     1      77.620   7.621  29.013  1.00  0.00     0.046 C 
HETATM   27  C17 UNL     1      79.471   8.359  27.616  1.00  0.00     0.046 C 
HETATM   28  C18 UNL     1      79.840   6.702  29.440  1.00  0.00     0.063 C 
ENDBRANCH   3  17
TORSDOF 7
ENDMDL
MODEL 4
REMARK VINA RESULT: -6.996183616      1.194      1.416
REMARK  7 active torsions:
REMARK  status: ('A' for Active; 'I' for Inactive)
REMARK    1  A    between atoms: O1_2  and  C2_3 
REMARK    2  A    between atoms: C4_5  and  C5_6 
REMARK    3  A    between atoms: C5_6  and  O2_7 
REMARK    4  A    between atoms: C6_10  and  C7_11 
REMARK    5  A    between atoms: C7_11  and  C8_12 
REMARK    6  A    between atoms: C8_12  and  C9_13 
REMARK       I    between atoms: C9_13  and  N1_15 
REMARK    7  A    between atoms: N1_15  and  C10_17 
ROOT
HETATM    1  C9  UNL     1      80.766   4.844  31.910  1.00  0.00     0.217 C 
HETATM    2  O4  UNL     1      79.585   5.043  32.234  1.00  0.00    -0.274 OA
HETATM    3  N1  UNL     1      81.069   4.966  30.514  1.00  0.00    -0.356 N 
ATOM      4  H1  UNL     1      82.028   4.810  30.202  1.00  0.00     0.162 HD
ENDROOT
BRANCH   1   5
HETATM    5  C8  UNL     1      81.774   4.506  32.909  1.00  0.00     0.105 C 
BRANCH   5   6
HETATM    6  C7  UNL     1      81.405   4.553  34.348  1.00  0.00     0.044 C 
BRANCH   6   7
HETATM    7  C6  UNL     1      82.210   5.427  35.170  1.00  0.00     0.151 C 
HETATM    8  C2  UNL     1      82.664   6.769  34.904  1.00  0.00     0.152 C 
HETATM    9  C3  UNL     1      83.601   6.898  36.205  1.00  0.00     0.068 C 
HETATM   10  C4  UNL     1      82.861   6.007  37.135  1.00  0.00     0.148 C 
HETATM   11  O3  UNL     1      81.697   5.596  36.499  1.00  0.00    -0.376 OA
BRANCH   8  12
HETATM   12  O1  UNL     1      81.766   7.820  35.038  1.00  0.00    -0.388 OA
HETATM   13  C1  UNL     1      82.284   9.063  35.211  1.00  0.00     0.202 C 
ENDBRANCH   8  12
BRANCH  10  14
HETATM   14  C5  UNL     1      82.584   6.644  38.477  1.00  0.00     0.196 C 
BRANCH  14  15
HETATM   15  O2  UNL     1      81.389   6.146  38.981  1.00  0.00    -0.398 OA
ATOM     16  H2  UNL     1      80.664   6.619  38.590  1.00  0.00     0.209 HD
ENDBRANCH  14  15
ENDBRANCH  10  14
ENDBRANCH   6   7
ENDBRANCH   5   6
ENDBRANCH   1   5
BRANCH   3  17
HETATM   17  C10 UNL     1      80.059   5.302  29.533  1.00  0.00     0.089 C 
HETATM   18  C11 UNL     1      80.293   4.551  28.244  1.00  0.00     0.063 C 
HETATM   19  C12 UNL     1      79.619   5.219  27.065  1.00  0.00     0.121 C 
HETATM   20  C13 UNL     1      79.004   4.096  26.245  1.00  0.00     0.046 C 
HETATM   21  C14 UNL     1      80.612   5.898  26.156  1.00  0.00     0.046 C 
HETATM   22  N2  UNL     1      78.537   6.084  27.453  1.00  0.00    -0.059 N 
HETATM   23  C15 UNL     1      78.905   7.128  28.360  1.00  0.00     0.121 C 
ATOM     24  H22 UNL     1      78.082   6.475  26.628  1.00  0.00     0.279 HD
ATOM     25  H21 UNL     1      77.766   5.537  27.836  1.00  0.00     0.279 HD
HETATM   26  C16 UNL     1      77.682   7.461  29.196  1.00  0.00     0.046 C 
HETATM   27  C17 UNL     1      79.210   8.394  27.547  1.00  0.00     0.046 C 
HETATM   28  C18 UNL     1      80.029   6.796  29.274  1.00  0.00     0.063 C 
ENDBRANCH   3  17
TORSDOF 7
ENDMDL
MODEL 5
REMARK VINA RESULT: -6.994843323      2.917      7.948
REMARK  7 active torsions:
REMARK  status: ('A' for Active; 'I' for Inactive)
REMARK    1  A    between atoms: O1_2  and  C2_3 
REMARK    2  A    between atoms: C4_5  and  C5_6 
REMARK    3  A    between atoms: C5_6  and  O2_7 
REMARK    4  A    between atoms: C6_10  and  C7_11 
REMARK    5  A    between atoms: C7_11  and  C8_12 
REMARK    6  A    between atoms: C8_12  and  C9_13 
REMARK       I    between atoms: C9_13  and  N1_15 
REMARK    7  A    between atoms: N1_15  and  C10_17 
ROOT
HETATM    1  C9  UNL     1      79.986   6.246  30.851  1.00  0.00     0.217 C 
HETATM    2  O4  UNL     1      80.833   7.074  30.483  1.00  0.00    -0.274 OA
HETATM    3  N1  UNL     1      80.172   5.687  32.159  1.00  0.00    -0.356 N 
ATOM      4  H1  UNL     1      79.499   5.002  32.503  1.00  0.00     0.162 HD
ENDROOT
BRANCH   1   5
HETATM    5  C8  UNL     1      78.870   5.876  29.987  1.00  0.00     0.105 C 
BRANCH   5   6
HETATM    6  C7  UNL     1      78.302   6.896  29.068  1.00  0.00     0.044 C 
BRANCH   6   7
HETATM    7  C6  UNL     1      78.632   6.731  27.672  1.00  0.00     0.151 C 
HETATM    8  C2  UNL     1      79.887   6.950  26.997  1.00  0.00     0.152 C 
HETATM    9  C3  UNL     1      79.330   6.713  25.507  1.00  0.00     0.068 C 
HETATM   10  C4  UNL     1      78.238   5.748  25.800  1.00  0.00     0.148 C 
HETATM   11  O3  UNL     1      78.294   5.437  27.152  1.00  0.00    -0.376 OA
BRANCH   8  12
HETATM   12  O1  UNL     1      80.894   6.003  27.128  1.00  0.00    -0.388 OA
HETATM   13  C1  UNL     1      82.169   6.458  27.212  1.00  0.00     0.202 C 
ENDBRANCH   8  12
BRANCH  10  14
HETATM   14  C5  UNL     1      78.282   4.515  24.928  1.00  0.00     0.196 C 
BRANCH  14  15
HETATM   15  O2  UNL     1      76.994   4.020  24.770  1.00  0.00    -0.398 OA
ATOM     16  H2  UNL     1      77.028   3.215  24.267  1.00  0.00     0.209 HD
ENDBRANCH  14  15
ENDBRANCH  10  14
ENDBRANCH   6   7
ENDBRANCH   5   6
ENDBRANCH   1   5
BRANCH   3  17
HETATM   17  C10 UNL     1      81.283   6.064  33.006  1.00  0.00     0.089 C 
HETATM   18  C11 UNL     1      82.513   5.257  32.667  1.00  0.00     0.063 C 
HETATM   19  C12 UNL     1      83.508   5.229  33.807  1.00  0.00     0.121 C 
HETATM   20  C13 UNL     1      84.878   5.407  33.169  1.00  0.00     0.046 C 
HETATM   21  C14 UNL     1      83.544   3.888  34.495  1.00  0.00     0.046 C 
HETATM   22  N2  UNL     1      83.339   6.323  34.726  1.00  0.00    -0.059 N 
HETATM   23  C15 UNL     1      82.040   6.407  35.320  1.00  0.00     0.121 C 
ATOM     24  H22 UNL     1      84.058   6.292  35.449  1.00  0.00     0.279 HD
ATOM     25  H21 UNL     1      83.581   7.205  34.275  1.00  0.00     0.279 HD
HETATM   26  C16 UNL     1      81.775   7.867  35.639  1.00  0.00     0.046 C 
HETATM   27  C17 UNL     1      82.075   5.684  36.674  1.00  0.00     0.046 C 
HETATM   28  C18 UNL     1      80.930   5.898  34.471  1.00  0.00     0.063 C 
ENDBRANCH   3  17
TORSDOF 7
ENDMDL
