MODEL 1
REMARK VINA RESULT: -7.429441934      0.000      0.000
REMARK  13 active torsions:
REMARK  status: ('A' for Active; 'I' for Inactive)
REMARK    1  A    between atoms: C2_2  and  C3_3 
REMARK    2  A    between atoms: C3_3  and  N1_4 
REMARK    3  A    between atoms: N1_4  and  C4_5 
REMARK    4  A    between atoms: C4_5  and  C5_6 
REMARK       I    between atoms: C5_6  and  N2_8 
REMARK    5  A    between atoms: N3_11  and  C8_12 
REMARK    6  A    between atoms: C8_12  and  N4_14 
REMARK    7  A    between atoms: C9_16  and  O2_17 
REMARK    8  A    between atoms: C9_16  and  N5_19 
REMARK    9  A    between atoms: N5_19  and  C10_21 
REMARK   10  A    between atoms: C10_21  and  C11_22 
REMARK   11  A    between atoms: C11_22  and  C12_23 
REMARK   12  A    between atoms: C12_23  and  N6_24 
REMARK   13  A    between atoms: N6_24  and  C13_26 
ROOT
HETATM    1  C8  UNL     1      14.445  67.917  18.420  1.00  0.00     0.177 C 
HETATM    2  S1  UNL     1      15.311  69.236  18.072  1.00  0.00    -0.041 SA
ENDROOT
BRANCH   1   3
HETATM    3  N3  UNL     1      14.824  66.955  19.341  1.00  0.00    -0.350 N 
HETATM    4  C7  UNL     1      15.163  65.600  18.786  1.00  0.00     0.145 C 
HETATM    5  C6  UNL     1      16.641  65.454  19.076  1.00  0.00     0.146 C 
HETATM    6  N2  UNL     1      16.932  65.585  20.489  1.00  0.00    -0.344 N 
HETATM    7  C5  UNL     1      17.686  64.630  21.214  1.00  0.00     0.267 C 
HETATM    8  C18 UNL     1      16.414  66.759  21.173  1.00  0.00     0.151 C 
HETATM    9  O1  UNL     1      18.102  63.640  20.577  1.00  0.00    -0.267 OA
HETATM   10  C16 UNL     1      14.962  67.011  20.761  1.00  0.00     0.100 C 
HETATM   11  C17 UNL     1      14.517  68.275  21.419  1.00  0.00     0.034 C 
BRANCH   7  12
HETATM   12  C4  UNL     1      17.939  64.824  22.616  1.00  0.00     0.288 C 
BRANCH  12  13
HETATM   13  N1  UNL     1      17.237  64.001  23.563  1.00  0.00     0.041 N 
HETATM   14  C19 UNL     1      17.205  64.770  24.800  1.00  0.00     0.275 C 
HETATM   15  C20 UNL     1      18.161  64.119  25.766  1.00  0.00     0.153 C 
HETATM   16  N9  UNL     1      18.856  63.108  25.012  1.00  0.00    -0.335 N 
HETATM   17  C21 UNL     1      18.089  62.886  23.839  1.00  0.00     0.419 C 
ATOM     18  H9  UNL     1      19.726  62.644  25.270  1.00  0.00     0.164 HD
HETATM   19  O3  UNL     1      18.135  61.860  23.121  1.00  0.00    -0.239 OA
BRANCH  13  20
HETATM   20  C3  UNL     1      15.987  63.528  23.103  1.00  0.00     0.255 C 
BRANCH  20  21
HETATM   21  C2  UNL     1      14.800  63.776  23.953  1.00  0.00     0.024 C 
HETATM   22  C1  UNL     1      13.889  64.880  23.499  1.00  0.00     0.007 C 
ENDBRANCH  20  21
ENDBRANCH  13  20
ENDBRANCH  12  13
ENDBRANCH   7  12
ENDBRANCH   1   3
BRANCH   1  23
HETATM   23  N4  UNL     1      13.208  67.775  17.692  1.00  0.00    -0.299 N 
HETATM   24  C9  UNL     1      12.105  68.276  18.084  1.00  0.00     0.219 C 
ATOM     25  H4  UNL     1      13.217  67.247  16.820  1.00  0.00     0.171 HD
BRANCH  24  26
HETATM   26  O2  UNL     1      10.967  68.068  17.289  1.00  0.00    -0.332 OA
ATOM     27  H2  UNL     1      11.097  67.862  16.370  1.00  0.00     0.220 HD
ENDBRANCH  24  26
BRANCH  24  28
HETATM   28  N5  UNL     1      11.916  69.033  19.264  1.00  0.00    -0.356 N 
ATOM     29  H5  UNL     1      12.700  69.591  19.602  1.00  0.00     0.163 HD
BRANCH  28  30
HETATM   30  C10 UNL     1      10.699  69.069  20.014  1.00  0.00     0.125 C 
BRANCH  30  31
HETATM   31  C11 UNL     1      10.561  67.952  21.013  1.00  0.00     0.040 C 
BRANCH  31  32
HETATM   32  C12 UNL     1      10.132  68.501  22.368  1.00  0.00     0.139 C 
BRANCH  32  33
HETATM   33  N6  UNL     1       9.482  67.495  23.165  1.00  0.00    -0.226 N 
ATOM     34  H6  UNL     1       8.606  67.095  22.826  1.00  0.00     0.177 HD
BRANCH  33  35
HETATM   35  C13 UNL     1       9.960  67.075  24.296  1.00  0.00     0.677 A 
HETATM   36  N7  UNL     1       9.170  66.691  25.318  1.00  0.00    -0.201 N 
HETATM   37  C14 UNL     1       9.977  66.314  26.338  1.00  0.00     0.123 A 
ATOM     38  H7  UNL     1       8.150  66.685  25.322  1.00  0.00     0.183 HD
HETATM   39  C15 UNL     1      11.288  66.467  25.942  1.00  0.00     0.123 A 
HETATM   40  N8  UNL     1      11.231  66.941  24.669  1.00  0.00    -0.201 N 
ATOM     41  H8  UNL     1      12.040  67.162  24.087  1.00  0.00     0.183 HD
ENDBRANCH  33  35
ENDBRANCH  32  33
ENDBRANCH  31  32
ENDBRANCH  30  31
ENDBRANCH  28  30
ENDBRANCH  24  28
ENDBRANCH   1  23
TORSDOF 13
ENDMDL
MODEL 2
REMARK VINA RESULT: -7.428767273      1.002      1.960
REMARK  13 active torsions:
REMARK  status: ('A' for Active; 'I' for Inactive)
REMARK    1  A    between atoms: C2_2  and  C3_3 
REMARK    2  A    between atoms: C3_3  and  N1_4 
REMARK    3  A    between atoms: N1_4  and  C4_5 
REMARK    4  A    between atoms: C4_5  and  C5_6 
REMARK       I    between atoms: C5_6  and  N2_8 
REMARK    5  A    between atoms: N3_11  and  C8_12 
REMARK    6  A    between atoms: C8_12  and  N4_14 
REMARK    7  A    between atoms: C9_16  and  O2_17 
REMARK    8  A    between atoms: C9_16  and  N5_19 
REMARK    9  A    between atoms: N5_19  and  C10_21 
REMARK   10  A    between atoms: C10_21  and  C11_22 
REMARK   11  A    between atoms: C11_22  and  C12_23 
REMARK   12  A    between atoms: C12_23  and  N6_24 
REMARK   13  A    between atoms: N6_24  and  C13_26 
ROOT
HETATM    1  C8  UNL     1      14.409  67.650  18.531  1.00  0.00     0.177 C 
HETATM    2  S1  UNL     1      15.292  68.958  18.184  1.00  0.00    -0.041 SA
ENDROOT
BRANCH   1   3
HETATM    3  N3  UNL     1      14.786  66.671  19.435  1.00  0.00    -0.350 N 
HETATM    4  C7  UNL     1      15.269  65.374  18.848  1.00  0.00     0.145 C 
HETATM    5  C6  UNL     1      16.726  65.320  19.252  1.00  0.00     0.146 C 
HETATM    6  N2  UNL     1      16.894  65.398  20.689  1.00  0.00    -0.344 N 
HETATM    7  C5  UNL     1      17.658  64.462  21.429  1.00  0.00     0.267 C 
HETATM    8  C18 UNL     1      16.236  66.495  21.381  1.00  0.00     0.151 C 
HETATM    9  O1  UNL     1      18.197  63.540  20.783  1.00  0.00    -0.267 OA
HETATM   10  C16 UNL     1      14.807  66.663  20.863  1.00  0.00     0.100 C 
HETATM   11  C17 UNL     1      14.217  67.857  21.540  1.00  0.00     0.034 C 
BRANCH   7  12
HETATM   12  C4  UNL     1      17.785  64.601  22.855  1.00  0.00     0.288 C 
BRANCH  12  13
HETATM   13  N1  UNL     1      17.296  63.543  23.696  1.00  0.00     0.041 N 
HETATM   14  C19 UNL     1      15.965  63.229  23.193  1.00  0.00     0.275 C 
HETATM   15  C20 UNL     1      14.966  63.751  24.194  1.00  0.00     0.153 C 
HETATM   16  N9  UNL     1      15.728  64.509  25.152  1.00  0.00    -0.335 N 
HETATM   17  C21 UNL     1      17.082  64.119  24.987  1.00  0.00     0.419 C 
ATOM     18  H9  UNL     1      15.365  65.192  25.818  1.00  0.00     0.164 HD
HETATM   19  O3  UNL     1      17.988  64.253  25.841  1.00  0.00    -0.239 OA
BRANCH  13  20
HETATM   20  C3  UNL     1      18.178  62.445  23.817  1.00  0.00     0.255 C 
BRANCH  20  21
HETATM   21  C2  UNL     1      17.587  61.098  23.987  1.00  0.00     0.024 C 
HETATM   22  C1  UNL     1      18.446  59.947  23.549  1.00  0.00     0.007 C 
ENDBRANCH  20  21
ENDBRANCH  13  20
ENDBRANCH  12  13
ENDBRANCH   7  12
ENDBRANCH   1   3
BRANCH   1  23
HETATM   23  N4  UNL     1      13.158  67.538  17.822  1.00  0.00    -0.299 N 
HETATM   24  C9  UNL     1      12.131  68.236  18.103  1.00  0.00     0.219 C 
ATOM     25  H4  UNL     1      13.093  66.866  17.058  1.00  0.00     0.171 HD
BRANCH  24  26
HETATM   26  O2  UNL     1      10.969  68.035  17.340  1.00  0.00    -0.332 OA
ATOM     27  H2  UNL     1      10.146  68.356  17.689  1.00  0.00     0.220 HD
ENDBRANCH  24  26
BRANCH  24  28
HETATM   28  N5  UNL     1      12.049  69.208  19.126  1.00  0.00    -0.356 N 
ATOM     29  H5  UNL     1      12.864  69.798  19.288  1.00  0.00     0.163 HD
BRANCH  28  30
HETATM   30  C10 UNL     1      10.897  69.420  19.949  1.00  0.00     0.125 C 
BRANCH  30  31
HETATM   31  C11 UNL     1      10.552  68.251  20.832  1.00  0.00     0.040 C 
BRANCH  31  32
HETATM   32  C12 UNL     1      10.093  68.738  22.201  1.00  0.00     0.139 C 
BRANCH  32  33
HETATM   33  N6  UNL     1       9.447  67.691  22.945  1.00  0.00    -0.226 N 
ATOM     34  H6  UNL     1       8.575  67.302  22.585  1.00  0.00     0.177 HD
BRANCH  33  35
HETATM   35  C13 UNL     1       9.924  67.220  24.057  1.00  0.00     0.677 A 
HETATM   36  N7  UNL     1      11.247  67.148  24.303  1.00  0.00    -0.201 N 
HETATM   37  C14 UNL     1      11.404  66.614  25.537  1.00  0.00     0.123 A 
ATOM     38  H7  UNL     1      11.994  67.443  23.673  1.00  0.00     0.183 HD
HETATM   39  C15 UNL     1      10.158  66.350  26.065  1.00  0.00     0.123 A 
HETATM   40  N8  UNL     1       9.270  66.741  25.113  1.00  0.00    -0.201 N 
ATOM     41  H8  UNL     1       8.255  66.677  25.195  1.00  0.00     0.183 HD
ENDBRANCH  33  35
ENDBRANCH  32  33
ENDBRANCH  31  32
ENDBRANCH  30  31
ENDBRANCH  28  30
ENDBRANCH  24  28
ENDBRANCH   1  23
TORSDOF 13
ENDMDL
MODEL 3
REMARK VINA RESULT: -7.161371063      2.773      4.377
REMARK  13 active torsions:
REMARK  status: ('A' for Active; 'I' for Inactive)
REMARK    1  A    between atoms: C2_2  and  C3_3 
REMARK    2  A    between atoms: C3_3  and  N1_4 
REMARK    3  A    between atoms: N1_4  and  C4_5 
REMARK    4  A    between atoms: C4_5  and  C5_6 
REMARK       I    between atoms: C5_6  and  N2_8 
REMARK    5  A    between atoms: N3_11  and  C8_12 
REMARK    6  A    between atoms: C8_12  and  N4_14 
REMARK    7  A    between atoms: C9_16  and  O2_17 
REMARK    8  A    between atoms: C9_16  and  N5_19 
REMARK    9  A    between atoms: N5_19  and  C10_21 
REMARK   10  A    between atoms: C10_21  and  C11_22 
REMARK   11  A    between atoms: C11_22  and  C12_23 
REMARK   12  A    between atoms: C12_23  and  N6_24 
REMARK   13  A    between atoms: N6_24  and  C13_26 
ROOT
HETATM    1  C8  UNL     1      15.767  67.347  21.607  1.00  0.00     0.177 C 
HETATM    2  S1  UNL     1      14.371  68.161  21.600  1.00  0.00    -0.041 SA
ENDROOT
BRANCH   1   3
HETATM    3  N3  UNL     1      16.041  66.275  22.439  1.00  0.00    -0.350 N 
HETATM    4  C7  UNL     1      15.788  64.907  21.868  1.00  0.00     0.145 C 
HETATM    5  C6  UNL     1      17.168  64.293  21.783  1.00  0.00     0.146 C 
HETATM    6  N2  UNL     1      17.829  64.264  23.072  1.00  0.00    -0.344 N 
HETATM    7  C5  UNL     1      18.401  63.090  23.620  1.00  0.00     0.267 C 
HETATM    8  C18 UNL     1      17.894  65.510  23.819  1.00  0.00     0.151 C 
HETATM    9  O1  UNL     1      18.312  62.049  22.936  1.00  0.00    -0.267 OA
HETATM   10  C16 UNL     1      16.541  66.221  23.776  1.00  0.00     0.100 C 
HETATM   11  C17 UNL     1      16.694  67.531  24.476  1.00  0.00     0.034 C 
BRANCH   7  12
HETATM   12  C4  UNL     1      19.045  63.132  24.906  1.00  0.00     0.288 C 
BRANCH  12  13
HETATM   13  N1  UNL     1      18.317  62.669  26.056  1.00  0.00     0.041 N 
HETATM   14  C19 UNL     1      18.454  63.722  27.054  1.00  0.00     0.275 C 
HETATM   15  C20 UNL     1      19.391  63.217  28.121  1.00  0.00     0.153 C 
HETATM   16  N9  UNL     1      19.914  61.969  27.628  1.00  0.00    -0.335 N 
HETATM   17  C21 UNL     1      19.052  61.560  26.579  1.00  0.00     0.419 C 
ATOM     18  H9  UNL     1      20.741  61.478  27.967  1.00  0.00     0.164 HD
HETATM   19  O3  UNL     1      18.933  60.389  26.148  1.00  0.00    -0.239 OA
BRANCH  13  20
HETATM   20  C3  UNL     1      16.993  62.260  25.776  1.00  0.00     0.255 C 
BRANCH  20  21
HETATM   21  C2  UNL     1      15.887  63.111  26.270  1.00  0.00     0.024 C 
HETATM   22  C1  UNL     1      14.748  63.324  25.316  1.00  0.00     0.007 C 
ENDBRANCH  20  21
ENDBRANCH  13  20
ENDBRANCH  12  13
ENDBRANCH   7  12
ENDBRANCH   1   3
BRANCH   1  23
HETATM   23  N4  UNL     1      16.761  67.809  20.670  1.00  0.00    -0.299 N 
HETATM   24  C9  UNL     1      16.832  67.400  19.467  1.00  0.00     0.219 C 
ATOM     25  H4  UNL     1      17.442  68.499  20.988  1.00  0.00     0.171 HD
BRANCH  24  26
HETATM   26  O2  UNL     1      17.847  67.925  18.651  1.00  0.00    -0.332 OA
ATOM     27  H2  UNL     1      17.611  68.217  17.778  1.00  0.00     0.220 HD
ENDBRANCH  24  26
BRANCH  24  28
HETATM   28  N5  UNL     1      15.972  66.452  18.866  1.00  0.00    -0.356 N 
ATOM     29  H5  UNL     1      16.221  65.466  18.945  1.00  0.00     0.163 HD
BRANCH  28  30
HETATM   30  C10 UNL     1      14.776  66.783  18.155  1.00  0.00     0.125 C 
BRANCH  30  31
HETATM   31  C11 UNL     1      14.618  68.252  17.870  1.00  0.00     0.040 C 
BRANCH  31  32
HETATM   32  C12 UNL     1      13.306  68.514  17.141  1.00  0.00     0.139 C 
BRANCH  32  33
HETATM   33  N6  UNL     1      12.189  67.932  17.836  1.00  0.00    -0.226 N 
ATOM     34  H6  UNL     1      11.878  66.999  17.564  1.00  0.00     0.177 HD
BRANCH  33  35
HETATM   35  C13 UNL     1      11.561  68.542  18.794  1.00  0.00     0.677 A 
HETATM   36  N7  UNL     1      11.039  67.886  19.849  1.00  0.00    -0.201 N 
HETATM   37  C14 UNL     1      10.458  68.807  20.654  1.00  0.00     0.123 A 
ATOM     38  H7  UNL     1      11.076  66.880  20.012  1.00  0.00     0.183 HD
HETATM   39  C15 UNL     1      10.622  70.053  20.089  1.00  0.00     0.123 A 
HETATM   40  N8  UNL     1      11.311  69.842  18.936  1.00  0.00    -0.201 N 
ATOM     41  H8  UNL     1      11.594  70.569  18.280  1.00  0.00     0.183 HD
ENDBRANCH  33  35
ENDBRANCH  32  33
ENDBRANCH  31  32
ENDBRANCH  30  31
ENDBRANCH  28  30
ENDBRANCH  24  28
ENDBRANCH   1  23
TORSDOF 13
ENDMDL
MODEL 4
REMARK VINA RESULT: -7.027236155      6.684     10.309
REMARK  13 active torsions:
REMARK  status: ('A' for Active; 'I' for Inactive)
REMARK    1  A    between atoms: C2_2  and  C3_3 
REMARK    2  A    between atoms: C3_3  and  N1_4 
REMARK    3  A    between atoms: N1_4  and  C4_5 
REMARK    4  A    between atoms: C4_5  and  C5_6 
REMARK       I    between atoms: C5_6  and  N2_8 
REMARK    5  A    between atoms: N3_11  and  C8_12 
REMARK    6  A    between atoms: C8_12  and  N4_14 
REMARK    7  A    between atoms: C9_16  and  O2_17 
REMARK    8  A    between atoms: C9_16  and  N5_19 
REMARK    9  A    between atoms: N5_19  and  C10_21 
REMARK   10  A    between atoms: C10_21  and  C11_22 
REMARK   11  A    between atoms: C11_22  and  C12_23 
REMARK   12  A    between atoms: C12_23  and  N6_24 
REMARK   13  A    between atoms: N6_24  and  C13_26 
ROOT
HETATM    1  C8  UNL     1      18.612  65.062  27.743  1.00  0.00     0.177 C 
HETATM    2  S1  UNL     1      19.648  66.073  27.025  1.00  0.00    -0.041 SA
ENDROOT
BRANCH   1   3
HETATM    3  N3  UNL     1      17.320  65.398  28.110  1.00  0.00    -0.350 N 
HETATM    4  C7  UNL     1      16.423  65.894  27.011  1.00  0.00     0.145 C 
HETATM    5  C6  UNL     1      15.364  64.820  26.901  1.00  0.00     0.146 C 
HETATM    6  N2  UNL     1      14.671  64.610  28.156  1.00  0.00    -0.344 N 
HETATM    7  C5  UNL     1      13.260  64.628  28.272  1.00  0.00     0.267 C 
HETATM    8  C18 UNL     1      15.485  64.374  29.338  1.00  0.00     0.151 C 
HETATM    9  O1  UNL     1      12.612  64.839  27.226  1.00  0.00    -0.267 OA
HETATM   10  C16 UNL     1      16.658  65.356  29.375  1.00  0.00     0.100 C 
HETATM   11  C17 UNL     1      17.505  65.006  30.554  1.00  0.00     0.034 C 
BRANCH   7  12
HETATM   12  C4  UNL     1      12.637  64.410  29.550  1.00  0.00     0.288 C 
BRANCH  12  13
HETATM   13  N1  UNL     1      11.814  63.244  29.725  1.00  0.00     0.041 N 
HETATM   14  C19 UNL     1      10.441  63.729  29.704  1.00  0.00     0.275 C 
HETATM   15  C20 UNL     1       9.909  63.647  31.112  1.00  0.00     0.153 C 
HETATM   16  N9  UNL     1      11.033  63.295  31.939  1.00  0.00    -0.335 N 
HETATM   17  C21 UNL     1      12.032  62.794  31.064  1.00  0.00     0.419 C 
ATOM     18  H9  UNL     1      11.099  63.388  32.952  1.00  0.00     0.164 HD
HETATM   19  O3  UNL     1      12.988  62.055  31.396  1.00  0.00    -0.239 OA
BRANCH  13  20
HETATM   20  C3  UNL     1      12.105  62.191  28.827  1.00  0.00     0.255 C 
BRANCH  20  21
HETATM   21  C2  UNL     1      10.975  61.576  28.094  1.00  0.00     0.024 C 
HETATM   22  C1  UNL     1      10.277  60.447  28.795  1.00  0.00     0.007 C 
ENDBRANCH  20  21
ENDBRANCH  13  20
ENDBRANCH  12  13
ENDBRANCH   7  12
ENDBRANCH   1   3
BRANCH   1  23
HETATM   23  N4  UNL     1      19.116  63.735  28.001  1.00  0.00    -0.299 N 
HETATM   24  C9  UNL     1      19.011  62.775  27.172  1.00  0.00     0.219 C 
ATOM     25  H4  UNL     1      19.579  63.558  28.892  1.00  0.00     0.171 HD
BRANCH  24  26
HETATM   26  O2  UNL     1      19.541  61.527  27.539  1.00  0.00    -0.332 OA
ATOM     27  H2  UNL     1      19.062  60.747  27.286  1.00  0.00     0.220 HD
ENDBRANCH  24  26
BRANCH  24  28
HETATM   28  N5  UNL     1      18.402  62.847  25.898  1.00  0.00    -0.356 N 
ATOM     29  H5  UNL     1      18.803  63.488  25.214  1.00  0.00     0.163 HD
BRANCH  28  30
HETATM   30  C10 UNL     1      17.260  62.080  25.504  1.00  0.00     0.125 C 
BRANCH  30  31
HETATM   31  C11 UNL     1      17.381  61.455  24.141  1.00  0.00     0.040 C 
BRANCH  31  32
HETATM   32  C12 UNL     1      18.847  61.293  23.759  1.00  0.00     0.139 C 
BRANCH  32  33
HETATM   33  N6  UNL     1      19.203  59.909  23.597  1.00  0.00    -0.226 N 
ATOM     34  H6  UNL     1      19.226  59.518  22.655  1.00  0.00     0.177 HD
BRANCH  33  35
HETATM   35  C13 UNL     1      19.494  59.135  24.598  1.00  0.00     0.677 A 
HETATM   36  N7  UNL     1      19.105  57.846  24.653  1.00  0.00    -0.201 N 
HETATM   37  C14 UNL     1      19.568  57.330  25.816  1.00  0.00     0.123 A 
ATOM     38  H7  UNL     1      18.562  57.350  23.946  1.00  0.00     0.183 HD
HETATM   39  C15 UNL     1      20.254  58.315  26.493  1.00  0.00     0.123 A 
HETATM   40  N8  UNL     1      20.183  59.418  25.702  1.00  0.00    -0.201 N 
ATOM     41  H8  UNL     1      20.595  60.326  25.920  1.00  0.00     0.183 HD
ENDBRANCH  33  35
ENDBRANCH  32  33
ENDBRANCH  31  32
ENDBRANCH  30  31
ENDBRANCH  28  30
ENDBRANCH  24  28
ENDBRANCH   1  23
TORSDOF 13
ENDMDL
MODEL 5
REMARK VINA RESULT: -6.977604321      1.684      2.453
REMARK  13 active torsions:
REMARK  status: ('A' for Active; 'I' for Inactive)
REMARK    1  A    between atoms: C2_2  and  C3_3 
REMARK    2  A    between atoms: C3_3  and  N1_4 
REMARK    3  A    between atoms: N1_4  and  C4_5 
REMARK    4  A    between atoms: C4_5  and  C5_6 
REMARK       I    between atoms: C5_6  and  N2_8 
REMARK    5  A    between atoms: N3_11  and  C8_12 
REMARK    6  A    between atoms: C8_12  and  N4_14 
REMARK    7  A    between atoms: C9_16  and  O2_17 
REMARK    8  A    between atoms: C9_16  and  N5_19 
REMARK    9  A    between atoms: N5_19  and  C10_21 
REMARK   10  A    between atoms: C10_21  and  C11_22 
REMARK   11  A    between atoms: C11_22  and  C12_23 
REMARK   12  A    between atoms: C12_23  and  N6_24 
REMARK   13  A    between atoms: N6_24  and  C13_26 
ROOT
HETATM    1  C8  UNL     1      14.477  67.886  18.346  1.00  0.00     0.177 C 
HETATM    2  S1  UNL     1      15.355  69.186  17.961  1.00  0.00    -0.041 SA
ENDROOT
BRANCH   1   3
HETATM    3  N3  UNL     1      14.857  66.934  19.277  1.00  0.00    -0.350 N 
HETATM    4  C7  UNL     1      15.188  65.571  18.737  1.00  0.00     0.145 C 
HETATM    5  C6  UNL     1      16.667  65.423  19.021  1.00  0.00     0.146 C 
HETATM    6  N2  UNL     1      16.966  65.571  20.430  1.00  0.00    -0.344 N 
HETATM    7  C5  UNL     1      17.721  64.622  21.163  1.00  0.00     0.267 C 
HETATM    8  C18 UNL     1      16.456  66.755  21.102  1.00  0.00     0.151 C 
HETATM    9  O1  UNL     1      18.130  63.623  20.536  1.00  0.00    -0.267 OA
HETATM   10  C16 UNL     1      15.003  67.007  20.696  1.00  0.00     0.100 C 
HETATM   11  C17 UNL     1      14.567  68.282  21.340  1.00  0.00     0.034 C 
BRANCH   7  12
HETATM   12  C4  UNL     1      17.983  64.832  22.562  1.00  0.00     0.288 C 
BRANCH  12  13
HETATM   13  N1  UNL     1      17.268  64.039  23.523  1.00  0.00     0.041 N 
HETATM   14  C19 UNL     1      17.280  64.815  24.756  1.00  0.00     0.275 C 
HETATM   15  C20 UNL     1      18.228  64.137  25.712  1.00  0.00     0.153 C 
HETATM   16  N9  UNL     1      18.877  63.100  24.953  1.00  0.00    -0.335 N 
HETATM   17  C21 UNL     1      18.086  62.897  23.793  1.00  0.00     0.419 C 
ATOM     18  H9  UNL     1      19.735  62.608  25.201  1.00  0.00     0.164 HD
HETATM   19  O3  UNL     1      18.087  61.866  23.081  1.00  0.00    -0.239 OA
BRANCH  13  20
HETATM   20  C3  UNL     1      15.996  63.606  23.085  1.00  0.00     0.255 C 
BRANCH  20  21
HETATM   21  C2  UNL     1      14.835  63.864  23.967  1.00  0.00     0.024 C 
HETATM   22  C1  UNL     1      13.906  64.957  23.524  1.00  0.00     0.007 C 
ENDBRANCH  20  21
ENDBRANCH  13  20
ENDBRANCH  12  13
ENDBRANCH   7  12
ENDBRANCH   1   3
BRANCH   1  23
HETATM   23  N4  UNL     1      13.226  67.750  17.641  1.00  0.00    -0.299 N 
HETATM   24  C9  UNL     1      12.153  68.331  18.004  1.00  0.00     0.219 C 
ATOM     25  H4  UNL     1      13.199  67.158  16.811  1.00  0.00     0.171 HD
BRANCH  24  26
HETATM   26  O2  UNL     1      10.997  68.120  17.236  1.00  0.00    -0.332 OA
ATOM     27  H2  UNL     1      11.105  67.884  16.322  1.00  0.00     0.220 HD
ENDBRANCH  24  26
BRANCH  24  28
HETATM   28  N5  UNL     1      12.014  69.183  19.124  1.00  0.00    -0.356 N 
ATOM     29  H5  UNL     1      12.819  69.745  19.397  1.00  0.00     0.163 HD
BRANCH  28  30
HETATM   30  C10 UNL     1      10.819  69.308  19.901  1.00  0.00     0.125 C 
BRANCH  30  31
HETATM   31  C11 UNL     1      10.593  68.175  20.865  1.00  0.00     0.040 C 
BRANCH  31  32
HETATM   32  C12 UNL     1       9.513  68.544  21.874  1.00  0.00     0.139 C 
BRANCH  32  33
HETATM   33  N6  UNL     1       9.404  69.969  22.036  1.00  0.00    -0.226 N 
ATOM     34  H6  UNL     1      10.256  70.530  22.009  1.00  0.00     0.177 HD
BRANCH  33  35
HETATM   35  C13 UNL     1       8.269  70.572  22.217  1.00  0.00     0.677 A 
HETATM   36  N7  UNL     1       7.335  70.115  23.073  1.00  0.00    -0.201 N 
HETATM   37  C14 UNL     1       6.283  70.966  23.023  1.00  0.00     0.123 A 
ATOM     38  H7  UNL     1       7.407  69.279  23.654  1.00  0.00     0.183 HD
HETATM   39  C15 UNL     1       6.570  71.967  22.120  1.00  0.00     0.123 A 
HETATM   40  N8  UNL     1       7.812  71.684  21.644  1.00  0.00    -0.201 N 
ATOM     41  H8  UNL     1       8.316  72.238  20.952  1.00  0.00     0.183 HD
ENDBRANCH  33  35
ENDBRANCH  32  33
ENDBRANCH  31  32
ENDBRANCH  30  31
ENDBRANCH  28  30
ENDBRANCH  24  28
ENDBRANCH   1  23
TORSDOF 13
ENDMDL
