MODEL 1
REMARK VINA RESULT: -6.830037259      0.000      0.000
REMARK  11 active torsions:
REMARK  status: ('A' for Active; 'I' for Inactive)
REMARK    1  A    between atoms: O1_2  and  C2_3 
REMARK    2  A    between atoms: C2_3  and  C3_5 
REMARK    3  A    between atoms: C3_5  and  O3_6 
REMARK    4  A    between atoms: C3_5  and  C4_14 
REMARK    5  A    between atoms: O3_6  and  N1_7 
REMARK    6  A    between atoms: N1_7  and  N2_8 
REMARK    7  A    between atoms: N1_7  and  N3_11 
REMARK    8  A    between atoms: C4_14  and  O4_15 
REMARK    9  A    between atoms: C4_14  and  C5_17 
REMARK   10  A    between atoms: C5_17  and  C6_18 
REMARK   11  A    between atoms: C5_17  and  N4_21 
ROOT
HETATM    1  C5  UNL     1     -10.171  27.426   4.792  1.00  0.00     0.222 C 
ENDROOT
BRANCH   1   2
HETATM    2  C4  UNL     1     -11.155  26.327   5.135  1.00  0.00     0.192 C 
BRANCH   2   3
HETATM    3  C3  UNL     1     -12.242  26.685   6.093  1.00  0.00     0.280 C 
BRANCH   3   4
HETATM    4  C2  UNL     1     -11.671  26.857   7.487  1.00  0.00     0.292 C 
HETATM    5  O2  UNL     1     -11.543  25.879   8.265  1.00  0.00    -0.262 OA
BRANCH   4   6
HETATM    6  O1  UNL     1     -11.264  28.097   7.959  1.00  0.00    -0.324 OA
HETATM    7  C1  UNL     1      -9.995  28.352   8.500  1.00  0.00     0.213 C 
ENDBRANCH   4   6
ENDBRANCH   3   4
BRANCH   3   8
HETATM    8  O3  UNL     1     -13.061  27.723   5.770  1.00  0.00    -0.248 OA
BRANCH   8   9
HETATM    9  N1  UNL     1     -14.260  27.335   5.267  1.00  0.00    -0.015 NA
BRANCH   9  10
HETATM   10  N2  UNL     1     -14.374  27.599   3.897  1.00  0.00    -0.322 NA
ATOM     11  H22 UNL     1     -15.313  27.969   3.753  1.00  0.00     0.175 HD
ATOM     12  H21 UNL     1     -14.293  26.754   3.332  1.00  0.00     0.175 HD
ENDBRANCH   9  10
BRANCH   9  13
HETATM   13  N3  UNL     1     -14.336  25.944   5.409  1.00  0.00    -0.322 NA
ATOM     14  H32 UNL     1     -13.417  25.636   5.728  1.00  0.00     0.175 HD
ATOM     15  H31 UNL     1     -15.068  25.750   6.093  1.00  0.00     0.175 HD
ENDBRANCH   9  13
ENDBRANCH   8   9
ENDBRANCH   3   8
ENDBRANCH   2   3
BRANCH   2  16
HETATM   16  O4  UNL     1     -11.798  25.840   3.989  1.00  0.00    -0.390 OA
ATOM     17  H4  UNL     1     -11.928  26.593   3.425  1.00  0.00     0.210 HD
ENDBRANCH   2  16
ENDBRANCH   1   2
BRANCH   1  18
HETATM   18  C6  UNL     1      -8.851  26.782   4.591  1.00  0.00     0.200 C 
HETATM   19  O5  UNL     1      -7.749  27.335   4.531  1.00  0.00    -0.646 OA
HETATM   20  O6  UNL     1      -8.893  25.378   4.453  1.00  0.00    -0.646 OA
ENDBRANCH   1  18
BRANCH   1  21
HETATM   21  N4  UNL     1     -10.678  28.033   3.578  1.00  0.00    -0.334 N 
HETATM   22  C7  UNL     1     -10.697  27.414   2.384  1.00  0.00     0.093 A 
HETATM   23  C8  UNL     1     -11.245  28.270   1.454  1.00  0.00     0.037 A 
HETATM   24  C9  UNL     1     -11.571  29.443   2.088  1.00  0.00     0.066 A 
HETATM   25  C10 UNL     1     -12.153  30.567   1.510  1.00  0.00     0.272 C 
HETATM   26  C13 UNL     1     -11.202  29.253   3.403  1.00  0.00     0.120 A 
HETATM   27  O7  UNL     1     -12.146  30.537   0.263  1.00  0.00    -0.267 OA
HETATM   28  N5  UNL     1     -12.702  31.646   2.139  1.00  0.00    -0.156 N 
HETATM   29  C11 UNL     1     -12.838  31.878   3.464  1.00  0.00     0.681 C 
ATOM     30  H5  UNL     1     -13.060  32.377   1.525  1.00  0.00     0.187 HD
HETATM   31  N6  UNL     1     -13.671  32.817   3.772  1.00  0.00    -0.234 N 
HETATM   32  N7  UNL     1     -12.196  31.235   4.465  1.00  0.00    -0.154 N 
ATOM     33  H62 UNL     1     -14.155  33.303   3.017  1.00  0.00     0.174 HD
ATOM     34  H61 UNL     1     -13.774  32.993   4.771  1.00  0.00     0.174 HD
HETATM   35  C12 UNL     1     -11.344  30.198   4.417  1.00  0.00     0.287 C 
ATOM     36  H7  UNL     1     -12.389  31.593   5.400  1.00  0.00     0.187 HD
HETATM   37  O8  UNL     1     -10.603  30.070   5.384  1.00  0.00    -0.265 OA
ENDBRANCH   1  21
TORSDOF 11
ENDMDL
MODEL 2
REMARK VINA RESULT: -6.564945040      2.193      4.799
REMARK  11 active torsions:
REMARK  status: ('A' for Active; 'I' for Inactive)
REMARK    1  A    between atoms: O1_2  and  C2_3 
REMARK    2  A    between atoms: C2_3  and  C3_5 
REMARK    3  A    between atoms: C3_5  and  O3_6 
REMARK    4  A    between atoms: C3_5  and  C4_14 
REMARK    5  A    between atoms: O3_6  and  N1_7 
REMARK    6  A    between atoms: N1_7  and  N2_8 
REMARK    7  A    between atoms: N1_7  and  N3_11 
REMARK    8  A    between atoms: C4_14  and  O4_15 
REMARK    9  A    between atoms: C4_14  and  C5_17 
REMARK   10  A    between atoms: C5_17  and  C6_18 
REMARK   11  A    between atoms: C5_17  and  N4_21 
ROOT
HETATM    1  C5  UNL     1     -11.359  27.269   6.869  1.00  0.00     0.222 C 
ENDROOT
BRANCH   1   2
HETATM    2  C4  UNL     1     -10.499  26.938   5.667  1.00  0.00     0.192 C 
BRANCH   2   3
HETATM    3  C3  UNL     1     -11.206  26.814   4.358  1.00  0.00     0.280 C 
BRANCH   3   4
HETATM    4  C2  UNL     1     -10.255  26.284   3.302  1.00  0.00     0.292 C 
HETATM    5  O2  UNL     1      -9.334  25.482   3.598  1.00  0.00    -0.262 OA
BRANCH   4   6
HETATM    6  O1  UNL     1     -10.364  26.660   1.971  1.00  0.00    -0.324 OA
HETATM    7  C1  UNL     1     -11.115  27.758   1.526  1.00  0.00     0.213 C 
ENDBRANCH   4   6
ENDBRANCH   3   4
BRANCH   3   8
HETATM    8  O3  UNL     1     -12.388  26.140   4.333  1.00  0.00    -0.248 OA
BRANCH   8   9
HETATM    9  N1  UNL     1     -13.454  26.896   4.699  1.00  0.00    -0.015 NA
BRANCH   9  10
HETATM   10  N2  UNL     1     -14.127  27.436   3.597  1.00  0.00    -0.322 NA
ATOM     11  H22 UNL     1     -13.733  26.987   2.771  1.00  0.00     0.175 HD
ATOM     12  H21 UNL     1     -13.967  28.439   3.499  1.00  0.00     0.175 HD
ENDBRANCH   9  10
BRANCH   9  13
HETATM   13  N3  UNL     1     -14.364  26.045   5.339  1.00  0.00    -0.322 NA
ATOM     14  H32 UNL     1     -14.035  25.943   6.299  1.00  0.00     0.175 HD
ATOM     15  H31 UNL     1     -15.280  26.491   5.289  1.00  0.00     0.175 HD
ENDBRANCH   9  13
ENDBRANCH   8   9
ENDBRANCH   3   8
ENDBRANCH   2   3
BRANCH   2  16
HETATM   16  O4  UNL     1      -9.499  27.902   5.473  1.00  0.00    -0.390 OA
ATOM     17  H4  UNL     1      -9.132  28.070   6.332  1.00  0.00     0.210 HD
ENDBRANCH   2  16
ENDBRANCH   1   2
BRANCH   1  18
HETATM   18  C6  UNL     1     -11.501  26.023   7.660  1.00  0.00     0.200 C 
HETATM   19  O5  UNL     1     -10.596  25.307   8.098  1.00  0.00    -0.646 OA
HETATM   20  O6  UNL     1     -12.833  25.637   7.922  1.00  0.00    -0.646 OA
ENDBRANCH   1  18
BRANCH   1  21
HETATM   21  N4  UNL     1     -10.637  28.299   7.589  1.00  0.00    -0.334 N 
HETATM   22  C7  UNL     1      -9.712  28.043   8.531  1.00  0.00     0.093 A 
HETATM   23  C8  UNL     1      -9.224  29.242   9.004  1.00  0.00     0.037 A 
HETATM   24  C9  UNL     1      -9.863  30.259   8.339  1.00  0.00     0.066 A 
HETATM   25  C10 UNL     1      -9.660  31.624   8.515  1.00  0.00     0.272 C 
HETATM   26  C13 UNL     1     -10.731  29.630   7.472  1.00  0.00     0.120 A 
HETATM   27  O7  UNL     1      -8.995  31.894   9.536  1.00  0.00    -0.267 OA
HETATM   28  N5  UNL     1     -10.093  32.647   7.723  1.00  0.00    -0.156 N 
HETATM   29  C11 UNL     1     -10.799  32.589   6.572  1.00  0.00     0.681 C 
ATOM     30  H5  UNL     1      -9.850  33.584   8.043  1.00  0.00     0.187 HD
HETATM   31  N6  UNL     1     -10.795  33.676   5.873  1.00  0.00    -0.234 N 
HETATM   32  N7  UNL     1     -11.488  31.525   6.102  1.00  0.00    -0.154 N 
ATOM     33  H62 UNL     1     -10.276  34.478   6.227  1.00  0.00     0.174 HD
ATOM     34  H61 UNL     1     -11.328  33.632   5.004  1.00  0.00     0.174 HD
HETATM   35  C12 UNL     1     -11.597  30.281   6.595  1.00  0.00     0.287 C 
ATOM     36  H7  UNL     1     -12.006  31.694   5.240  1.00  0.00     0.187 HD
HETATM   37  O8  UNL     1     -12.576  29.643   6.229  1.00  0.00    -0.265 OA
ENDBRANCH   1  21
TORSDOF 11
ENDMDL
MODEL 3
REMARK VINA RESULT: -6.447779492      1.790      3.481
REMARK  11 active torsions:
REMARK  status: ('A' for Active; 'I' for Inactive)
REMARK    1  A    between atoms: O1_2  and  C2_3 
REMARK    2  A    between atoms: C2_3  and  C3_5 
REMARK    3  A    between atoms: C3_5  and  O3_6 
REMARK    4  A    between atoms: C3_5  and  C4_14 
REMARK    5  A    between atoms: O3_6  and  N1_7 
REMARK    6  A    between atoms: N1_7  and  N2_8 
REMARK    7  A    between atoms: N1_7  and  N3_11 
REMARK    8  A    between atoms: C4_14  and  O4_15 
REMARK    9  A    between atoms: C4_14  and  C5_17 
REMARK   10  A    between atoms: C5_17  and  C6_18 
REMARK   11  A    between atoms: C5_17  and  N4_21 
ROOT
HETATM    1  C5  UNL     1     -11.500  29.254   5.860  1.00  0.00     0.222 C 
ENDROOT
BRANCH   1   2
HETATM    2  C4  UNL     1     -11.240  27.781   5.623  1.00  0.00     0.192 C 
BRANCH   2   3
HETATM    3  C3  UNL     1     -11.970  27.153   4.482  1.00  0.00     0.280 C 
BRANCH   3   4
HETATM    4  C2  UNL     1     -10.983  26.691   3.426  1.00  0.00     0.292 C 
HETATM    5  O2  UNL     1     -10.475  25.543   3.467  1.00  0.00    -0.262 OA
BRANCH   4   6
HETATM    6  O1  UNL     1     -10.605  27.514   2.375  1.00  0.00    -0.324 OA
HETATM    7  C1  UNL     1     -11.472  27.924   1.351  1.00  0.00     0.213 C 
ENDBRANCH   4   6
ENDBRANCH   3   4
BRANCH   3   8
HETATM    8  O3  UNL     1     -12.875  26.176   4.763  1.00  0.00    -0.248 OA
BRANCH   8   9
HETATM    9  N1  UNL     1     -14.152  26.627   4.850  1.00  0.00    -0.015 NA
BRANCH   9  10
HETATM   10  N2  UNL     1     -14.450  27.142   6.117  1.00  0.00    -0.322 NA
ATOM     11  H22 UNL     1     -15.466  27.197   6.174  1.00  0.00     0.175 HD
ATOM     12  H21 UNL     1     -14.089  28.088   6.246  1.00  0.00     0.175 HD
ENDBRANCH   9  10
BRANCH   9  13
HETATM   13  N3  UNL     1     -14.276  27.693   3.952  1.00  0.00    -0.322 NA
ATOM     14  H32 UNL     1     -15.159  28.155   4.173  1.00  0.00     0.175 HD
ATOM     15  H31 UNL     1     -13.473  28.305   4.097  1.00  0.00     0.175 HD
ENDBRANCH   9  13
ENDBRANCH   8   9
ENDBRANCH   3   8
ENDBRANCH   2   3
BRANCH   2  16
HETATM   16  O4  UNL     1      -9.880  27.531   5.393  1.00  0.00    -0.390 OA
ATOM     17  H4  UNL     1      -9.577  27.034   6.142  1.00  0.00     0.210 HD
ENDBRANCH   2  16
ENDBRANCH   1   2
BRANCH   1  18
HETATM   18  C6  UNL     1     -10.905  29.596   7.174  1.00  0.00     0.200 C 
HETATM   19  O5  UNL     1     -10.473  28.815   8.026  1.00  0.00    -0.646 OA
HETATM   20  O6  UNL     1     -10.844  30.978   7.454  1.00  0.00    -0.646 OA
ENDBRANCH   1  18
BRANCH   1  21
HETATM   21  N4  UNL     1     -10.846  29.942   4.764  1.00  0.00    -0.334 N 
HETATM   22  C7  UNL     1      -9.512  29.998   4.607  1.00  0.00     0.093 A 
HETATM   23  C8  UNL     1      -9.234  30.721   3.467  1.00  0.00     0.037 A 
HETATM   24  C9  UNL     1     -10.423  31.120   2.910  1.00  0.00     0.066 A 
HETATM   25  C10 UNL     1     -10.588  31.867   1.748  1.00  0.00     0.272 C 
HETATM   26  C13 UNL     1     -11.397  30.616   3.746  1.00  0.00     0.120 A 
HETATM   27  O7  UNL     1      -9.527  32.386   1.343  1.00  0.00    -0.267 OA
HETATM   28  N5  UNL     1     -11.735  32.080   1.041  1.00  0.00    -0.156 N 
HETATM   29  C11 UNL     1     -12.978  31.605   1.278  1.00  0.00     0.681 C 
ATOM     30  H5  UNL     1     -11.642  32.680   0.222  1.00  0.00     0.187 HD
HETATM   31  N6  UNL     1     -13.799  31.701   0.284  1.00  0.00    -0.234 N 
HETATM   32  N7  UNL     1     -13.425  31.055   2.429  1.00  0.00    -0.154 N 
ATOM     33  H62 UNL     1     -13.462  32.115  -0.585  1.00  0.00     0.174 HD
ATOM     34  H61 UNL     1     -14.737  31.342   0.462  1.00  0.00     0.174 HD
HETATM   35  C12 UNL     1     -12.769  30.786   3.569  1.00  0.00     0.287 C 
ATOM     36  H7  UNL     1     -14.415  30.807   2.433  1.00  0.00     0.187 HD
HETATM   37  O8  UNL     1     -13.461  30.677   4.574  1.00  0.00    -0.265 OA
ENDBRANCH   1  21
TORSDOF 11
ENDMDL
MODEL 4
REMARK VINA RESULT: -6.425968967      2.984      5.477
REMARK  11 active torsions:
REMARK  status: ('A' for Active; 'I' for Inactive)
REMARK    1  A    between atoms: O1_2  and  C2_3 
REMARK    2  A    between atoms: C2_3  and  C3_5 
REMARK    3  A    between atoms: C3_5  and  O3_6 
REMARK    4  A    between atoms: C3_5  and  C4_14 
REMARK    5  A    between atoms: O3_6  and  N1_7 
REMARK    6  A    between atoms: N1_7  and  N2_8 
REMARK    7  A    between atoms: N1_7  and  N3_11 
REMARK    8  A    between atoms: C4_14  and  O4_15 
REMARK    9  A    between atoms: C4_14  and  C5_17 
REMARK   10  A    between atoms: C5_17  and  C6_18 
REMARK   11  A    between atoms: C5_17  and  N4_21 
ROOT
HETATM    1  C5  UNL     1     -10.532  27.430   6.708  1.00  0.00     0.222 C 
ENDROOT
BRANCH   1   2
HETATM    2  C4  UNL     1      -9.490  27.121   5.654  1.00  0.00     0.192 C 
BRANCH   2   3
HETATM    3  C3  UNL     1      -9.778  25.966   4.754  1.00  0.00     0.280 C 
BRANCH   3   4
HETATM    4  C2  UNL     1     -10.747  26.386   3.665  1.00  0.00     0.292 C 
HETATM    5  O2  UNL     1     -10.398  26.414   2.458  1.00  0.00    -0.262 OA
BRANCH   4   6
HETATM    6  O1  UNL     1     -12.053  26.754   3.955  1.00  0.00    -0.324 OA
HETATM    7  C1  UNL     1     -12.669  27.913   3.459  1.00  0.00     0.213 C 
ENDBRANCH   4   6
ENDBRANCH   3   4
BRANCH   3   8
HETATM    8  O3  UNL     1      -8.722  25.285   4.231  1.00  0.00    -0.248 OA
BRANCH   8   9
HETATM    9  N1  UNL     1      -7.587  26.024   4.145  1.00  0.00    -0.015 NA
BRANCH   9  10
HETATM   10  N2  UNL     1      -6.438  25.265   4.396  1.00  0.00    -0.322 NA
ATOM     11  H22 UNL     1      -5.836  25.841   4.984  1.00  0.00     0.175 HD
ATOM     12  H21 UNL     1      -5.918  25.057   3.544  1.00  0.00     0.175 HD
ENDBRANCH   9  10
BRANCH   9  13
HETATM   13  N3  UNL     1      -7.484  26.471   2.822  1.00  0.00    -0.322 NA
ATOM     14  H32 UNL     1      -7.047  27.392   2.864  1.00  0.00     0.175 HD
ATOM     15  H31 UNL     1      -6.912  25.793   2.319  1.00  0.00     0.175 HD
ENDBRANCH   9  13
ENDBRANCH   8   9
ENDBRANCH   3   8
ENDBRANCH   2   3
BRANCH   2  16
HETATM   16  O4  UNL     1      -9.273  28.220   4.811  1.00  0.00    -0.390 OA
ATOM     17  H4  UNL     1      -8.346  28.213   4.609  1.00  0.00     0.210 HD
ENDBRANCH   2  16
ENDBRANCH   1   2
BRANCH   1  18
HETATM   18  C6  UNL     1     -10.796  26.170   7.444  1.00  0.00     0.200 C 
HETATM   19  O5  UNL     1      -9.984  25.283   7.725  1.00  0.00    -0.646 OA
HETATM   20  O6  UNL     1     -12.135  25.993   7.853  1.00  0.00    -0.646 OA
ENDBRANCH   1  18
BRANCH   1  21
HETATM   21  N4  UNL     1      -9.938  28.447   7.553  1.00  0.00    -0.334 N 
HETATM   22  C7  UNL     1      -8.941  28.207   8.422  1.00  0.00     0.093 A 
HETATM   23  C8  UNL     1      -8.614  29.388   9.054  1.00  0.00     0.037 A 
HETATM   24  C9  UNL     1      -9.429  30.377   8.563  1.00  0.00     0.066 A 
HETATM   25  C10 UNL     1      -9.424  31.718   8.932  1.00  0.00     0.272 C 
HETATM   26  C13 UNL     1     -10.235  29.750   7.636  1.00  0.00     0.120 A 
HETATM   27  O7  UNL     1      -8.758  31.941   9.964  1.00  0.00    -0.267 OA
HETATM   28  N5  UNL     1     -10.042  32.764   8.311  1.00  0.00    -0.156 N 
HETATM   29  C11 UNL     1     -10.786  32.761   7.183  1.00  0.00     0.681 C 
ATOM     30  H5  UNL     1      -9.927  33.673   8.759  1.00  0.00     0.187 HD
HETATM   31  N6  UNL     1     -10.979  33.923   6.651  1.00  0.00    -0.234 N 
HETATM   32  N7  UNL     1     -11.331  31.681   6.580  1.00  0.00    -0.154 N 
ATOM     33  H62 UNL     1     -10.568  34.738   7.106  1.00  0.00     0.174 HD
ATOM     34  H61 UNL     1     -11.540  33.921   5.800  1.00  0.00     0.174 HD
HETATM   35  C12 UNL     1     -11.229  30.378   6.887  1.00  0.00     0.287 C 
ATOM     36  H7  UNL     1     -11.910  31.887   5.766  1.00  0.00     0.187 HD
HETATM   37  O8  UNL     1     -12.119  29.654   6.457  1.00  0.00    -0.265 OA
ENDBRANCH   1  21
TORSDOF 11
ENDMDL
MODEL 5
REMARK VINA RESULT: -6.371689102      1.123      1.407
REMARK  11 active torsions:
REMARK  status: ('A' for Active; 'I' for Inactive)
REMARK    1  A    between atoms: O1_2  and  C2_3 
REMARK    2  A    between atoms: C2_3  and  C3_5 
REMARK    3  A    between atoms: C3_5  and  O3_6 
REMARK    4  A    between atoms: C3_5  and  C4_14 
REMARK    5  A    between atoms: O3_6  and  N1_7 
REMARK    6  A    between atoms: N1_7  and  N2_8 
REMARK    7  A    between atoms: N1_7  and  N3_11 
REMARK    8  A    between atoms: C4_14  and  O4_15 
REMARK    9  A    between atoms: C4_14  and  C5_17 
REMARK   10  A    between atoms: C5_17  and  C6_18 
REMARK   11  A    between atoms: C5_17  and  N4_21 
ROOT
HETATM    1  C5  UNL     1     -10.265  27.789   4.759  1.00  0.00     0.222 C 
ENDROOT
BRANCH   1   2
HETATM    2  C4  UNL     1     -11.147  26.583   5.007  1.00  0.00     0.192 C 
BRANCH   2   3
HETATM    3  C3  UNL     1     -12.251  26.761   5.995  1.00  0.00     0.280 C 
BRANCH   3   4
HETATM    4  C2  UNL     1     -11.684  26.840   7.400  1.00  0.00     0.292 C 
HETATM    5  O2  UNL     1     -11.321  27.936   7.895  1.00  0.00    -0.262 OA
BRANCH   4   6
HETATM    6  O1  UNL     1     -11.545  25.710   8.193  1.00  0.00    -0.324 OA
HETATM    7  C1  UNL     1     -10.338  25.313   8.787  1.00  0.00     0.213 C 
ENDBRANCH   4   6
ENDBRANCH   3   4
BRANCH   3   8
HETATM    8  O3  UNL     1     -13.149  27.759   5.775  1.00  0.00    -0.248 OA
BRANCH   8   9
HETATM    9  N1  UNL     1     -14.314  27.332   5.225  1.00  0.00    -0.015 NA
BRANCH   9  10
HETATM   10  N2  UNL     1     -14.405  27.644   3.864  1.00  0.00    -0.322 NA
ATOM     11  H22 UNL     1     -15.330  27.339   3.560  1.00  0.00     0.175 HD
ATOM     12  H21 UNL     1     -13.721  27.136   3.303  1.00  0.00     0.175 HD
ENDBRANCH   9  10
BRANCH   9  13
HETATM   13  N3  UNL     1     -14.324  25.935   5.312  1.00  0.00    -0.322 NA
ATOM     14  H32 UNL     1     -14.450  25.709   6.299  1.00  0.00     0.175 HD
ATOM     15  H31 UNL     1     -15.099  25.603   4.737  1.00  0.00     0.175 HD
ENDBRANCH   9  13
ENDBRANCH   8   9
ENDBRANCH   3   8
ENDBRANCH   2   3
BRANCH   2  16
HETATM   16  O4  UNL     1     -11.757  26.144   3.824  1.00  0.00    -0.390 OA
ATOM     17  H4  UNL     1     -11.050  25.872   3.252  1.00  0.00     0.210 HD
ENDBRANCH   2  16
ENDBRANCH   1   2
BRANCH   1  18
HETATM   18  C6  UNL     1      -8.889  27.414   5.165  1.00  0.00     0.200 C 
HETATM   19  O5  UNL     1      -7.911  28.159   5.273  1.00  0.00    -0.646 OA
HETATM   20  O6  UNL     1      -8.710  26.043   5.451  1.00  0.00    -0.646 OA
ENDBRANCH   1  18
BRANCH   1  21
HETATM   21  N4  UNL     1     -10.366  28.055   3.337  1.00  0.00    -0.334 N 
HETATM   22  C7  UNL     1      -9.773  27.304   2.393  1.00  0.00     0.093 A 
HETATM   23  C8  UNL     1     -10.078  27.832   1.157  1.00  0.00     0.037 A 
HETATM   24  C9  UNL     1     -10.876  28.933   1.344  1.00  0.00     0.066 A 
HETATM   25  C10 UNL     1     -11.409  29.752   0.354  1.00  0.00     0.272 C 
HETATM   26  C13 UNL     1     -11.028  29.036   2.711  1.00  0.00     0.120 A 
HETATM   27  O7  UNL     1     -10.900  29.559  -0.769  1.00  0.00    -0.267 OA
HETATM   28  N5  UNL     1     -12.383  30.698   0.480  1.00  0.00    -0.156 N 
HETATM   29  C11 UNL     1     -13.082  31.055   1.581  1.00  0.00     0.681 C 
ATOM     30  H5  UNL     1     -12.617  31.205  -0.373  1.00  0.00     0.187 HD
HETATM   31  N6  UNL     1     -14.151  31.743   1.350  1.00  0.00    -0.234 N 
HETATM   32  N7  UNL     1     -12.768  30.766   2.864  1.00  0.00    -0.154 N 
ATOM     33  H62 UNL     1     -14.388  31.962   0.383  1.00  0.00     0.174 HD
ATOM     34  H61 UNL     1     -14.679  32.013   2.181  1.00  0.00     0.174 HD
HETATM   35  C12 UNL     1     -11.765  30.025   3.360  1.00  0.00     0.287 C 
ATOM     36  H7  UNL     1     -13.390  31.173   3.562  1.00  0.00     0.187 HD
HETATM   37  O8  UNL     1     -11.461  30.247   4.526  1.00  0.00    -0.265 OA
ENDBRANCH   1  21
TORSDOF 11
ENDMDL
