MODEL 1
REMARK VINA RESULT: -7.006684848      0.000      0.000
REMARK  4 active torsions:
REMARK  status: ('A' for Active; 'I' for Inactive)
REMARK    1  A    between atoms: C2_2  and  C4_4 
REMARK    2  A    between atoms: N1_7  and  O2_8 
REMARK    3  A    between atoms: C8_12  and  S1_13 
REMARK    4  A    between atoms: S1_13  and  N2_14 
ROOT
HETATM    1  C4  UNL     1     -66.207  48.478  -0.520  1.00  0.00     0.043 A 
HETATM    2  C5  UNL     1     -65.174  49.313  -0.067  1.00  0.00     0.280 A 
HETATM    3  O1  UNL     1     -64.616  50.043  -0.898  1.00  0.00    -0.265 OA
HETATM    4  N1  UNL     1     -64.759  49.368   1.200  1.00  0.00    -0.198 N 
HETATM    5  C6  UNL     1     -65.333  48.601   2.132  1.00  0.00     0.142 A 
HETATM    6  C7  UNL     1     -66.358  47.746   1.791  1.00  0.00     0.035 A 
HETATM    7  C8  UNL     1     -67.108  46.901   2.571  1.00  0.00     0.127 A 
HETATM    8  C9  UNL     1     -68.002  46.334   1.707  1.00  0.00     0.104 A 
HETATM    9 BR1  UNL     1     -69.345  45.055   2.152  1.00  0.00    -0.029 Br
HETATM   10  N3  UNL     1     -67.795  46.823   0.447  1.00  0.00    -0.348 N 
ATOM     11  H3  UNL     1     -68.332  46.560  -0.379  1.00  0.00     0.166 HD
HETATM   12  C10 UNL     1     -66.794  47.689   0.456  1.00  0.00     0.058 A 
ENDROOT
BRANCH   7  13
HETATM   13  S1  UNL     1     -67.009  46.539   4.275  1.00  0.00     0.260 S 
HETATM   14  O3  UNL     1     -66.866  45.037   4.498  1.00  0.00    -0.201 OA
HETATM   15  O4  UNL     1     -65.798  47.144   4.913  1.00  0.00    -0.201 OA
BRANCH  13  16
HETATM   16  N2  UNL     1     -68.405  47.034   5.136  1.00  0.00    -0.324 N 
ATOM     17  H22 UNL     1     -68.507  47.967   5.535  1.00  0.00     0.169 HD
ATOM     18  H21 UNL     1     -69.107  46.297   5.203  1.00  0.00     0.169 HD
ENDBRANCH  13  16
ENDBRANCH   7  13
BRANCH   4  19
HETATM   19  O2  UNL     1     -63.732  50.231   1.575  1.00  0.00    -0.280 OA
ATOM     20  H2  UNL     1     -63.917  51.014   2.078  1.00  0.00     0.245 HD
ENDBRANCH   4  19
BRANCH   1  21
HETATM   21  C2  UNL     1     -66.593  48.507  -1.915  1.00  0.00     0.018 C 
HETATM   22  C1  UNL     1     -67.936  49.060  -2.271  1.00  0.00     0.015 C 
HETATM   23  C3  UNL     1     -66.406  47.237  -2.698  1.00  0.00     0.015 C 
ENDBRANCH   1  21
TORSDOF 4
ENDMDL
MODEL 2
REMARK VINA RESULT: -6.985595416      2.912      4.108
REMARK  4 active torsions:
REMARK  status: ('A' for Active; 'I' for Inactive)
REMARK    1  A    between atoms: C2_2  and  C4_4 
REMARK    2  A    between atoms: N1_7  and  O2_8 
REMARK    3  A    between atoms: C8_12  and  S1_13 
REMARK    4  A    between atoms: S1_13  and  N2_14 
ROOT
HETATM    1  C4  UNL     1     -68.050  46.580  -0.299  1.00  0.00     0.043 A 
HETATM    2  C5  UNL     1     -68.942  45.530  -0.026  1.00  0.00     0.280 A 
HETATM    3  O1  UNL     1     -69.590  45.064  -0.972  1.00  0.00    -0.265 OA
HETATM    4  N1  UNL     1     -69.131  45.009   1.187  1.00  0.00    -0.198 N 
HETATM    5  C6  UNL     1     -68.452  45.479   2.239  1.00  0.00     0.142 A 
HETATM    6  C7  UNL     1     -67.550  46.507   2.077  1.00  0.00     0.035 A 
HETATM    7  C8  UNL     1     -66.727  47.121   2.989  1.00  0.00     0.127 A 
HETATM    8  C9  UNL     1     -66.027  48.040   2.260  1.00  0.00     0.104 A 
HETATM    9 BR1  UNL     1     -64.702  49.238   2.931  1.00  0.00    -0.029 Br
HETATM   10  N3  UNL     1     -66.417  47.981   0.951  1.00  0.00    -0.348 N 
ATOM     11  H3  UNL     1     -66.044  48.565   0.202  1.00  0.00     0.166 HD
HETATM   12  C10 UNL     1     -67.351  47.056   0.798  1.00  0.00     0.058 A 
ENDROOT
BRANCH   7  13
HETATM   13  S1  UNL     1     -66.556  46.878   4.708  1.00  0.00     0.260 S 
HETATM   14  O3  UNL     1     -66.900  48.155   5.469  1.00  0.00    -0.201 OA
HETATM   15  O4  UNL     1     -67.506  45.846   5.232  1.00  0.00    -0.201 OA
BRANCH  13  16
HETATM   16  N2  UNL     1     -64.959  46.452   5.158  1.00  0.00    -0.324 N 
ATOM     17  H22 UNL     1     -64.150  46.628   4.561  1.00  0.00     0.169 HD
ATOM     18  H21 UNL     1     -64.914  46.010   6.076  1.00  0.00     0.169 HD
ENDBRANCH  13  16
ENDBRANCH   7  13
BRANCH   4  19
HETATM   19  O2  UNL     1     -70.029  43.962   1.378  1.00  0.00    -0.280 OA
ATOM     20  H2  UNL     1     -69.805  43.227   1.937  1.00  0.00     0.245 HD
ENDBRANCH   4  19
BRANCH   1  21
HETATM   21  C2  UNL     1     -67.905  47.062  -1.657  1.00  0.00     0.018 C 
HETATM   22  C1  UNL     1     -66.893  46.408  -2.541  1.00  0.00     0.015 C 
HETATM   23  C3  UNL     1     -67.768  48.549  -1.837  1.00  0.00     0.015 C 
ENDBRANCH   1  21
TORSDOF 4
ENDMDL
MODEL 3
REMARK VINA RESULT: -6.982931170      3.271      6.127
REMARK  4 active torsions:
REMARK  status: ('A' for Active; 'I' for Inactive)
REMARK    1  A    between atoms: C2_2  and  C4_4 
REMARK    2  A    between atoms: N1_7  and  O2_8 
REMARK    3  A    between atoms: C8_12  and  S1_13 
REMARK    4  A    between atoms: S1_13  and  N2_14 
ROOT
HETATM    1  C4  UNL     1     -68.259  45.983   2.339  1.00  0.00     0.043 A 
HETATM    2  C5  UNL     1     -69.105  45.186   1.551  1.00  0.00     0.280 A 
HETATM    3  O1  UNL     1     -69.858  44.394   2.133  1.00  0.00    -0.265 OA
HETATM    4  N1  UNL     1     -69.144  45.230   0.218  1.00  0.00    -0.198 N 
HETATM    5  C6  UNL     1     -68.350  46.070  -0.454  1.00  0.00     0.142 A 
HETATM    6  C7  UNL     1     -67.484  46.897   0.226  1.00  0.00     0.035 A 
HETATM    7  C8  UNL     1     -66.612  47.850  -0.241  1.00  0.00     0.127 A 
HETATM    8  C9  UNL     1     -66.046  48.382   0.883  1.00  0.00     0.104 A 
HETATM    9 BR1  UNL     1     -64.736  49.768   0.937  1.00  0.00    -0.029 Br
HETATM   10  N3  UNL     1     -66.561  47.768   1.991  1.00  0.00    -0.348 N 
ATOM     11  H3  UNL     1     -66.303  47.985   2.953  1.00  0.00     0.166 HD
HETATM   12  C10 UNL     1     -67.443  46.850   1.630  1.00  0.00     0.058 A 
ENDROOT
BRANCH   7  13
HETATM   13  S1  UNL     1     -66.222  48.331  -1.872  1.00  0.00     0.260 S 
HETATM   14  O3  UNL     1     -66.986  49.595  -2.257  1.00  0.00    -0.201 OA
HETATM   15  O4  UNL     1     -64.777  48.689  -2.027  1.00  0.00    -0.201 OA
BRANCH  13  16
HETATM   16  N2  UNL     1     -66.634  47.136  -3.028  1.00  0.00    -0.324 N 
ATOM     17  H22 UNL     1     -67.356  46.434  -2.866  1.00  0.00     0.169 HD
ATOM     18  H21 UNL     1     -66.080  47.209  -3.882  1.00  0.00     0.169 HD
ENDBRANCH  13  16
ENDBRANCH   7  13
BRANCH   4  19
HETATM   19  O2  UNL     1     -70.017  44.412  -0.494  1.00  0.00    -0.280 OA
ATOM     20  H2  UNL     1     -70.021  44.418  -1.444  1.00  0.00     0.245 HD
ENDBRANCH   4  19
BRANCH   1  21
HETATM   21  C2  UNL     1     -68.307  45.870   3.781  1.00  0.00     0.018 C 
HETATM   22  C1  UNL     1     -68.395  47.124   4.592  1.00  0.00     0.015 C 
HETATM   23  C3  UNL     1     -67.275  44.987   4.427  1.00  0.00     0.015 C 
ENDBRANCH   1  21
TORSDOF 4
ENDMDL
MODEL 4
REMARK VINA RESULT: -6.976210885      2.827      5.221
REMARK  4 active torsions:
REMARK  status: ('A' for Active; 'I' for Inactive)
REMARK    1  A    between atoms: C2_2  and  C4_4 
REMARK    2  A    between atoms: N1_7  and  O2_8 
REMARK    3  A    between atoms: C8_12  and  S1_13 
REMARK    4  A    between atoms: S1_13  and  N2_14 
ROOT
HETATM    1  C4  UNL     1     -65.141  48.418   3.653  1.00  0.00     0.043 A 
HETATM    2  C5  UNL     1     -63.906  49.084   3.589  1.00  0.00     0.280 A 
HETATM    3  O1  UNL     1     -63.275  49.230   4.645  1.00  0.00    -0.265 OA
HETATM    4  N1  UNL     1     -63.374  49.565   2.464  1.00  0.00    -0.198 N 
HETATM    5  C6  UNL     1     -64.018  49.428   1.300  1.00  0.00     0.142 A 
HETATM    6  C7  UNL     1     -65.237  48.789   1.254  1.00  0.00     0.035 A 
HETATM    7  C8  UNL     1     -66.053  48.505   0.186  1.00  0.00     0.127 A 
HETATM    8  C9  UNL     1     -67.106  47.823   0.727  1.00  0.00     0.104 A 
HETATM    9 BR1  UNL     1     -68.608  47.133  -0.223  1.00  0.00    -0.029 Br
HETATM   10  N3  UNL     1     -66.928  47.701   2.077  1.00  0.00    -0.348 N 
ATOM     11  H3  UNL     1     -67.574  47.231   2.712  1.00  0.00     0.166 HD
HETATM   12  C10 UNL     1     -65.796  48.282   2.440  1.00  0.00     0.058 A 
ENDROOT
BRANCH   7  13
HETATM   13  S1  UNL     1     -65.890  48.902  -1.504  1.00  0.00     0.260 S 
HETATM   14  O3  UNL     1     -67.094  49.705  -1.987  1.00  0.00    -0.201 OA
HETATM   15  O4  UNL     1     -64.707  49.780  -1.769  1.00  0.00    -0.201 OA
BRANCH  13  16
HETATM   16  N2  UNL     1     -65.794  47.512  -2.502  1.00  0.00    -0.324 N 
ATOM     17  H22 UNL     1     -66.380  46.690  -2.362  1.00  0.00     0.169 HD
ATOM     18  H21 UNL     1     -65.092  47.604  -3.237  1.00  0.00     0.169 HD
ENDBRANCH  13  16
ENDBRANCH   7  13
BRANCH   4  19
HETATM   19  O2  UNL     1     -62.139  50.207   2.481  1.00  0.00    -0.280 OA
ATOM     20  H2  UNL     1     -62.081  51.143   2.631  1.00  0.00     0.245 HD
ENDBRANCH   4  19
BRANCH   1  21
HETATM   21  C2  UNL     1     -65.621  47.917   4.923  1.00  0.00     0.018 C 
HETATM   22  C1  UNL     1     -65.972  46.468   5.031  1.00  0.00     0.015 C 
HETATM   23  C3  UNL     1     -66.720  48.699   5.589  1.00  0.00     0.015 C 
ENDBRANCH   1  21
TORSDOF 4
ENDMDL
MODEL 5
REMARK VINA RESULT: -6.920957500      3.382      6.219
REMARK  4 active torsions:
REMARK  status: ('A' for Active; 'I' for Inactive)
REMARK    1  A    between atoms: C2_2  and  C4_4 
REMARK    2  A    between atoms: N1_7  and  O2_8 
REMARK    3  A    between atoms: C8_12  and  S1_13 
REMARK    4  A    between atoms: S1_13  and  N2_14 
ROOT
HETATM    1  C4  UNL     1     -68.251  45.680   2.479  1.00  0.00     0.043 A 
HETATM    2  C5  UNL     1     -69.131  44.850   1.766  1.00  0.00     0.280 A 
HETATM    3  O1  UNL     1     -69.766  44.000   2.405  1.00  0.00    -0.265 OA
HETATM    4  N1  UNL     1     -69.323  44.922   0.448  1.00  0.00    -0.198 N 
HETATM    5  C6  UNL     1     -68.661  45.825  -0.283  1.00  0.00     0.142 A 
HETATM    6  C7  UNL     1     -67.774  46.688   0.321  1.00  0.00     0.035 A 
HETATM    7  C8  UNL     1     -67.018  47.704  -0.212  1.00  0.00     0.127 A 
HETATM    8  C9  UNL     1     -66.361  48.245   0.858  1.00  0.00     0.104 A 
HETATM    9 BR1  UNL     1     -65.139  49.707   0.807  1.00  0.00    -0.029 Br
HETATM   10  N3  UNL     1     -66.711  47.575   1.997  1.00  0.00    -0.348 N 
ATOM     11  H3  UNL     1     -66.360  47.785   2.931  1.00  0.00     0.166 HD
HETATM   12  C10 UNL     1     -67.573  46.612   1.710  1.00  0.00     0.058 A 
ENDROOT
BRANCH   7  13
HETATM   13  S1  UNL     1     -66.843  48.245  -1.861  1.00  0.00     0.260 S 
HETATM   14  O3  UNL     1     -67.602  47.324  -2.812  1.00  0.00    -0.201 OA
HETATM   15  O4  UNL     1     -67.437  49.602  -2.078  1.00  0.00    -0.201 OA
BRANCH  13  16
HETATM   16  N2  UNL     1     -65.212  48.254  -2.383  1.00  0.00    -0.324 N 
ATOM     17  H22 UNL     1     -64.909  47.826  -3.257  1.00  0.00     0.169 HD
ATOM     18  H21 UNL     1     -64.592  48.729  -1.726  1.00  0.00     0.169 HD
ENDBRANCH  13  16
ENDBRANCH   7  13
BRANCH   4  19
HETATM   19  O2  UNL     1     -70.221  44.067  -0.187  1.00  0.00    -0.280 OA
ATOM     20  H2  UNL     1     -70.714  44.359  -0.944  1.00  0.00     0.245 HD
ENDBRANCH   4  19
BRANCH   1  21
HETATM   21  C2  UNL     1     -68.130  45.532   3.914  1.00  0.00     0.018 C 
HETATM   22  C1  UNL     1     -68.717  46.590   4.792  1.00  0.00     0.015 C 
HETATM   23  C3  UNL     1     -66.761  45.210   4.449  1.00  0.00     0.015 C 
ENDBRANCH   1  21
TORSDOF 4
ENDMDL
