MODEL 1
REMARK VINA RESULT: -7.370572854      0.000      0.000
REMARK  6 active torsions:
REMARK  status: ('A' for Active; 'I' for Inactive)
REMARK    1  A    between atoms: C2_2  and  N1_3 
REMARK    2  A    between atoms: N1_3  and  C3_5 
REMARK    3  A    between atoms: N3_9  and  C5_11 
REMARK    4  A    between atoms: C5_11  and  N4_13 
REMARK    5  A    between atoms: N8_25  and  C10_26 
REMARK    6  A    between atoms: C10_26  and  C12_28 
ROOT
HETATM    1  C3  UNL     1     -62.407  49.283   4.653  1.00  0.00     0.147 A 
HETATM    2  N2  UNL     1     -62.875  48.897   5.851  1.00  0.00    -0.174 N 
ATOM      3  H2  UNL     1     -62.240  48.827   6.647  1.00  0.00     0.186 HD
HETATM    4  C4  UNL     1     -64.193  48.599   6.008  1.00  0.00     0.687 A 
HETATM    5  N3  UNL     1     -64.618  48.233   7.160  1.00  0.00    -0.165 N 
ATOM      6  H3  UNL     1     -63.943  48.179   7.922  1.00  0.00     0.186 HD
HETATM    7  N5  UNL     1     -65.021  48.695   4.953  1.00  0.00    -0.174 N 
ATOM      8  H5  UNL     1     -66.008  48.471   5.077  1.00  0.00     0.186 HD
HETATM    9  C6  UNL     1     -64.578  49.084   3.723  1.00  0.00     0.156 A 
HETATM   10  C7  UNL     1     -63.259  49.377   3.583  1.00  0.00     0.124 A 
HETATM   11  N6  UNL     1     -63.062  49.727   2.319  1.00  0.00    -0.327 N 
ATOM     12  H6  UNL     1     -62.174  50.004   1.901  1.00  0.00     0.168 HD
HETATM   13  C8  UNL     1     -64.265  49.646   1.681  1.00  0.00     0.193 A 
HETATM   14  C9  UNL     1     -64.421  49.959   0.280  1.00  0.00     0.137 C 
HETATM   15  N7  UNL     1     -64.562  50.210  -0.842  1.00  0.00    -0.188 NA
HETATM   16  N8  UNL     1     -65.213  49.247   2.550  1.00  0.00    -0.303 N 
ENDROOT
BRANCH  16  17
HETATM   17  C10 UNL     1     -66.606  49.038   2.285  1.00  0.00     0.089 C 
HETATM   18  C11 UNL     1     -66.849  47.638   1.801  1.00  0.00     0.033 C 
BRANCH  17  19
HETATM   19  C12 UNL     1     -67.485  49.398   3.462  1.00  0.00     0.021 C 
HETATM   20  C13 UNL     1     -68.218  48.207   4.008  1.00  0.00     0.007 C 
ENDBRANCH  17  19
ENDBRANCH  16  17
BRANCH   1  21
HETATM   21  N1  UNL     1     -61.181  49.556   4.520  1.00  0.00    -0.374 N 
ATOM     22  H1  UNL     1     -60.603  48.836   4.086  1.00  0.00     0.161 HD
BRANCH  21  23
HETATM   23  C2  UNL     1     -60.507  50.759   4.904  1.00  0.00     0.116 C 
HETATM   24  C1  UNL     1     -59.768  51.269   3.662  1.00  0.00     0.026 C 
ENDBRANCH  21  23
ENDBRANCH   1  21
BRANCH   5  25
HETATM   25  C5  UNL     1     -65.961  47.900   7.440  1.00  0.00     0.201 C 
HETATM   26  S1  UNL     1     -66.890  48.985   8.223  1.00  0.00    -0.039 SA
BRANCH  25  27
HETATM   27  N4  UNL     1     -66.524  46.655   7.061  1.00  0.00    -0.275 N 
HETATM   28 CL1  UNL     1     -68.045  46.144   7.719  1.00  0.00     0.013 Cl
ATOM     29  H4  UNL     1     -66.032  46.058   6.397  1.00  0.00     0.183 HD
ENDBRANCH  25  27
ENDBRANCH   5  25
TORSDOF 6
ENDMDL
MODEL 2
REMARK VINA RESULT: -7.223699453      3.417      5.985
REMARK  6 active torsions:
REMARK  status: ('A' for Active; 'I' for Inactive)
REMARK    1  A    between atoms: C2_2  and  N1_3 
REMARK    2  A    between atoms: N1_3  and  C3_5 
REMARK    3  A    between atoms: N3_9  and  C5_11 
REMARK    4  A    between atoms: C5_11  and  N4_13 
REMARK    5  A    between atoms: N8_25  and  C10_26 
REMARK    6  A    between atoms: C10_26  and  C12_28 
ROOT
HETATM    1  C3  UNL     1     -68.459  46.088   0.177  1.00  0.00     0.147 A 
HETATM    2  N2  UNL     1     -69.062  45.347   1.121  1.00  0.00    -0.174 N 
ATOM      3  H2  UNL     1     -69.715  44.611   0.850  1.00  0.00     0.186 HD
HETATM    4  C4  UNL     1     -68.803  45.573   2.437  1.00  0.00     0.687 A 
HETATM    5  N3  UNL     1     -69.388  44.853   3.321  1.00  0.00    -0.165 N 
ATOM      6  H3  UNL     1     -70.032  44.131   2.999  1.00  0.00     0.186 HD
HETATM    7  N5  UNL     1     -67.940  46.544   2.783  1.00  0.00    -0.174 N 
ATOM      8  H5  UNL     1     -67.750  46.708   3.771  1.00  0.00     0.186 HD
HETATM    9  C6  UNL     1     -67.312  47.315   1.849  1.00  0.00     0.156 A 
HETATM   10  C7  UNL     1     -67.581  47.077   0.539  1.00  0.00     0.124 A 
HETATM   11  N6  UNL     1     -66.866  47.935  -0.175  1.00  0.00    -0.327 N 
ATOM     12  H6  UNL     1     -66.850  48.007  -1.193  1.00  0.00     0.168 HD
HETATM   13  C8  UNL     1     -66.156  48.703   0.700  1.00  0.00     0.193 A 
HETATM   14  C9  UNL     1     -65.263  49.751   0.263  1.00  0.00     0.137 C 
HETATM   15  N7  UNL     1     -64.540  50.592  -0.072  1.00  0.00    -0.188 NA
HETATM   16  N8  UNL     1     -66.429  48.322   1.962  1.00  0.00    -0.303 N 
ENDROOT
BRANCH  16  17
HETATM   17  C10 UNL     1     -65.894  48.870   3.174  1.00  0.00     0.089 C 
HETATM   18  C11 UNL     1     -66.996  49.196   4.139  1.00  0.00     0.033 C 
BRANCH  17  19
HETATM   19  C12 UNL     1     -64.831  47.991   3.794  1.00  0.00     0.021 C 
HETATM   20  C13 UNL     1     -63.501  48.682   3.880  1.00  0.00     0.007 C 
ENDBRANCH  17  19
ENDBRANCH  16  17
BRANCH   1  21
HETATM   21  N1  UNL     1     -68.708  45.869  -1.043  1.00  0.00    -0.374 N 
ATOM     22  H1  UNL     1     -69.604  46.213  -1.389  1.00  0.00     0.161 HD
BRANCH  21  23
HETATM   23  C2  UNL     1     -67.879  45.197  -1.995  1.00  0.00     0.116 C 
HETATM   24  C1  UNL     1     -67.567  46.208  -3.104  1.00  0.00     0.026 C 
ENDBRANCH  21  23
ENDBRANCH   1  21
BRANCH   5  25
HETATM   25  C5  UNL     1     -69.198  44.997   4.713  1.00  0.00     0.201 C 
HETATM   26  S1  UNL     1     -68.182  43.976   5.474  1.00  0.00    -0.039 SA
BRANCH  25  27
HETATM   27  N4  UNL     1     -69.861  46.000   5.464  1.00  0.00    -0.275 N 
HETATM   28 CL1  UNL     1     -71.125  45.571   6.573  1.00  0.00     0.013 Cl
ATOM     29  H4  UNL     1     -69.594  46.977   5.353  1.00  0.00     0.183 HD
ENDBRANCH  25  27
ENDBRANCH   5  25
TORSDOF 6
ENDMDL
MODEL 3
REMARK VINA RESULT: -7.138032340      2.838      4.983
REMARK  6 active torsions:
REMARK  status: ('A' for Active; 'I' for Inactive)
REMARK    1  A    between atoms: C2_2  and  N1_3 
REMARK    2  A    between atoms: N1_3  and  C3_5 
REMARK    3  A    between atoms: N3_9  and  C5_11 
REMARK    4  A    between atoms: C5_11  and  N4_13 
REMARK    5  A    between atoms: N8_25  and  C10_26 
REMARK    6  A    between atoms: C10_26  and  C12_28 
ROOT
HETATM    1  C3  UNL     1     -62.032  49.698   4.035  1.00  0.00     0.147 A 
HETATM    2  N2  UNL     1     -62.392  49.906   2.758  1.00  0.00    -0.174 N 
ATOM      3  H2  UNL     1     -61.770  50.416   2.131  1.00  0.00     0.186 HD
HETATM    4  C4  UNL     1     -63.583  49.438   2.298  1.00  0.00     0.687 A 
HETATM    5  N3  UNL     1     -63.906  49.647   1.077  1.00  0.00    -0.165 N 
ATOM      6  H3  UNL     1     -63.250  50.162   0.490  1.00  0.00     0.186 HD
HETATM    7  N5  UNL     1     -64.395  48.766   3.133  1.00  0.00    -0.174 N 
ATOM      8  H5  UNL     1     -65.287  48.417   2.782  1.00  0.00     0.186 HD
HETATM    9  C6  UNL     1     -64.060  48.538   4.436  1.00  0.00     0.156 A 
HETATM   10  C7  UNL     1     -62.866  49.012   4.880  1.00  0.00     0.124 A 
HETATM   11  N6  UNL     1     -62.756  48.676   6.158  1.00  0.00    -0.327 N 
ATOM     12  H6  UNL     1     -61.970  48.889   6.772  1.00  0.00     0.168 HD
HETATM   13  C8  UNL     1     -63.887  47.993   6.499  1.00  0.00     0.193 A 
HETATM   14  C9  UNL     1     -64.106  47.473   7.829  1.00  0.00     0.137 C 
HETATM   15  N7  UNL     1     -64.294  47.047   8.889  1.00  0.00    -0.188 NA
HETATM   16  N8  UNL     1     -64.702  47.904   5.431  1.00  0.00    -0.303 N 
ENDROOT
BRANCH  16  17
HETATM   17  C10 UNL     1     -65.985  47.267   5.364  1.00  0.00     0.089 C 
HETATM   18  C11 UNL     1     -67.068  48.283   5.147  1.00  0.00     0.033 C 
BRANCH  17  19
HETATM   19  C12 UNL     1     -66.032  46.152   4.344  1.00  0.00     0.021 C 
HETATM   20  C13 UNL     1     -67.269  45.314   4.475  1.00  0.00     0.007 C 
ENDBRANCH  17  19
ENDBRANCH  16  17
BRANCH   1  21
HETATM   21  N1  UNL     1     -60.922  50.138   4.452  1.00  0.00    -0.374 N 
ATOM     22  H1  UNL     1     -60.665  49.880   5.404  1.00  0.00     0.161 HD
BRANCH  21  23
HETATM   23  C2  UNL     1     -59.986  50.956   3.743  1.00  0.00     0.116 C 
HETATM   24  C1  UNL     1     -59.764  52.212   4.592  1.00  0.00     0.026 C 
ENDBRANCH  21  23
ENDBRANCH   1  21
BRANCH   5  25
HETATM   25  C5  UNL     1     -65.114  49.209   0.490  1.00  0.00     0.201 C 
HETATM   26  S1  UNL     1     -65.112  48.779  -1.081  1.00  0.00    -0.039 SA
BRANCH  25  27
HETATM   27  N4  UNL     1     -66.324  49.131   1.225  1.00  0.00    -0.275 N 
HETATM   28 CL1  UNL     1     -67.296  47.696   1.165  1.00  0.00     0.013 Cl
ATOM     29  H4  UNL     1     -66.624  49.924   1.793  1.00  0.00     0.183 HD
ENDBRANCH  25  27
ENDBRANCH   5  25
TORSDOF 6
ENDMDL
MODEL 4
REMARK VINA RESULT: -7.080178569      2.592      3.306
REMARK  6 active torsions:
REMARK  status: ('A' for Active; 'I' for Inactive)
REMARK    1  A    between atoms: C2_2  and  N1_3 
REMARK    2  A    between atoms: N1_3  and  C3_5 
REMARK    3  A    between atoms: N3_9  and  C5_11 
REMARK    4  A    between atoms: C5_11  and  N4_13 
REMARK    5  A    between atoms: N8_25  and  C10_26 
REMARK    6  A    between atoms: C10_26  and  C12_28 
ROOT
HETATM    1  C3  UNL     1     -64.655  47.521   4.810  1.00  0.00     0.147 A 
HETATM    2  N2  UNL     1     -65.435  46.631   5.446  1.00  0.00    -0.174 N 
ATOM      3  H2  UNL     1     -65.161  46.278   6.363  1.00  0.00     0.186 HD
HETATM    4  C4  UNL     1     -66.590  46.200   4.871  1.00  0.00     0.687 A 
HETATM    5  N3  UNL     1     -67.319  45.351   5.494  1.00  0.00    -0.165 N 
ATOM      6  H3  UNL     1     -67.001  45.029   6.408  1.00  0.00     0.186 HD
HETATM    7  N5  UNL     1     -66.942  46.672   3.663  1.00  0.00    -0.174 N 
ATOM      8  H5  UNL     1     -67.809  46.346   3.237  1.00  0.00     0.186 HD
HETATM    9  C6  UNL     1     -66.173  47.576   2.990  1.00  0.00     0.156 A 
HETATM   10  C7  UNL     1     -65.022  47.997   3.578  1.00  0.00     0.124 A 
HETATM   11  N6  UNL     1     -64.448  48.862   2.753  1.00  0.00    -0.327 N 
ATOM     12  H6  UNL     1     -63.568  49.354   2.911  1.00  0.00     0.168 HD
HETATM   13  C8  UNL     1     -65.249  48.972   1.654  1.00  0.00     0.193 A 
HETATM   14  C9  UNL     1     -64.926  49.836   0.543  1.00  0.00     0.137 C 
HETATM   15  N7  UNL     1     -64.682  50.527  -0.354  1.00  0.00    -0.188 NA
HETATM   16  N8  UNL     1     -66.324  48.174   1.796  1.00  0.00    -0.303 N 
ENDROOT
BRANCH  16  17
HETATM   17  C10 UNL     1     -67.406  47.996   0.872  1.00  0.00     0.089 C 
HETATM   18  C11 UNL     1     -66.906  47.432  -0.426  1.00  0.00     0.033 C 
BRANCH  17  19
HETATM   19  C12 UNL     1     -68.541  47.181   1.451  1.00  0.00     0.021 C 
HETATM   20  C13 UNL     1     -68.988  46.090   0.523  1.00  0.00     0.007 C 
ENDBRANCH  17  19
ENDBRANCH  16  17
BRANCH   1  21
HETATM   21  N1  UNL     1     -63.584  47.914   5.354  1.00  0.00    -0.374 N 
ATOM     22  H1  UNL     1     -62.800  47.263   5.327  1.00  0.00     0.161 HD
BRANCH  21  23
HETATM   23  C2  UNL     1     -63.343  49.166   6.003  1.00  0.00     0.116 C 
HETATM   24  C1  UNL     1     -62.028  49.713   5.435  1.00  0.00     0.026 C 
ENDBRANCH  21  23
ENDBRANCH   1  21
BRANCH   5  25
HETATM   25  C5  UNL     1     -68.535  44.834   4.997  1.00  0.00     0.201 C 
HETATM   26  S1  UNL     1     -69.935  45.457   5.548  1.00  0.00    -0.039 SA
BRANCH  25  27
HETATM   27  N4  UNL     1     -68.574  43.793   4.035  1.00  0.00    -0.275 N 
HETATM   28 CL1  UNL     1     -69.936  43.632   2.972  1.00  0.00     0.013 Cl
ATOM     29  H4  UNL     1     -67.797  43.137   3.967  1.00  0.00     0.183 HD
ENDBRANCH  25  27
ENDBRANCH   5  25
TORSDOF 6
ENDMDL
MODEL 5
REMARK VINA RESULT: -7.013041515      3.385      5.666
REMARK  6 active torsions:
REMARK  status: ('A' for Active; 'I' for Inactive)
REMARK    1  A    between atoms: C2_2  and  N1_3 
REMARK    2  A    between atoms: N1_3  and  C3_5 
REMARK    3  A    between atoms: N3_9  and  C5_11 
REMARK    4  A    between atoms: C5_11  and  N4_13 
REMARK    5  A    between atoms: N8_25  and  C10_26 
REMARK    6  A    between atoms: C10_26  and  C12_28 
ROOT
HETATM    1  C3  UNL     1     -66.139  48.828  -0.074  1.00  0.00     0.147 A 
HETATM    2  N2  UNL     1     -65.231  49.363   0.758  1.00  0.00    -0.174 N 
ATOM      3  H2  UNL     1     -64.644  50.135   0.442  1.00  0.00     0.186 HD
HETATM    4  C4  UNL     1     -65.092  48.878   2.022  1.00  0.00     0.687 A 
HETATM    5  N3  UNL     1     -64.221  49.404   2.799  1.00  0.00    -0.165 N 
ATOM      6  H3  UNL     1     -63.658  50.173   2.436  1.00  0.00     0.186 HD
HETATM    7  N5  UNL     1     -65.872  47.861   2.428  1.00  0.00    -0.174 N 
ATOM      8  H5  UNL     1     -65.763  47.503   3.377  1.00  0.00     0.186 HD
HETATM    9  C6  UNL     1     -66.803  47.295   1.608  1.00  0.00     0.156 A 
HETATM   10  C7  UNL     1     -66.929  47.790   0.348  1.00  0.00     0.124 A 
HETATM   11  N6  UNL     1     -67.883  47.095  -0.257  1.00  0.00    -0.327 N 
ATOM     12  H6  UNL     1     -68.212  47.228  -1.214  1.00  0.00     0.168 HD
HETATM   13  C8  UNL     1     -68.343  46.170   0.634  1.00  0.00     0.193 A 
HETATM   14  C9  UNL     1     -69.393  45.235   0.306  1.00  0.00     0.137 C 
HETATM   15  N7  UNL     1     -70.237  44.481   0.059  1.00  0.00    -0.188 NA
HETATM   16  N8  UNL     1     -67.675  46.290   1.796  1.00  0.00    -0.303 N 
ENDROOT
BRANCH  16  17
HETATM   17  C10 UNL     1     -67.852  45.512   2.988  1.00  0.00     0.089 C 
HETATM   18  C11 UNL     1     -66.582  45.470   3.786  1.00  0.00     0.033 C 
BRANCH  17  19
HETATM   19  C12 UNL     1     -69.033  45.969   3.814  1.00  0.00     0.021 C 
HETATM   20  C13 UNL     1     -70.028  44.868   4.040  1.00  0.00     0.007 C 
ENDBRANCH  17  19
ENDBRANCH  16  17
BRANCH   1  21
HETATM   21  N1  UNL     1     -66.259  49.285  -1.246  1.00  0.00    -0.374 N 
ATOM     22  H1  UNL     1     -67.139  49.755  -1.459  1.00  0.00     0.161 HD
BRANCH  21  23
HETATM   23  C2  UNL     1     -65.304  49.222  -2.310  1.00  0.00     0.116 C 
HETATM   24  C1  UNL     1     -65.558  47.906  -3.055  1.00  0.00     0.026 C 
ENDBRANCH  21  23
ENDBRANCH   1  21
BRANCH   5  25
HETATM   25  C5  UNL     1     -63.989  48.985   4.128  1.00  0.00     0.201 C 
HETATM   26  S1  UNL     1     -65.203  49.096   5.208  1.00  0.00    -0.039 SA
BRANCH  25  27
HETATM   27  N4  UNL     1     -62.736  48.472   4.548  1.00  0.00    -0.275 N 
HETATM   28 CL1  UNL     1     -61.513  49.539   5.161  1.00  0.00     0.013 Cl
ATOM     29  H4  UNL     1     -62.553  47.470   4.491  1.00  0.00     0.183 HD
ENDBRANCH  25  27
ENDBRANCH   5  25
TORSDOF 6
ENDMDL
