MODEL 1
REMARK VINA RESULT: -5.827002591      0.000      0.000
REMARK  8 active torsions:
REMARK  status: ('A' for Active; 'I' for Inactive)
REMARK    1  A    between atoms: N1_2  and  C3_4 
REMARK    2  A    between atoms: C3_4  and  C4_5 
REMARK    3  A    between atoms: C4_5  and  N2_6 
REMARK       I    between atoms: N2_6  and  C5_8 
REMARK       I    between atoms: C5_8  and  N4_12 
REMARK    4  A    between atoms: N4_12  and  N5_14 
REMARK    5  A    between atoms: N5_14  and  C6_16 
REMARK    6  A    between atoms: C6_16  and  N6_18 
REMARK    7  A    between atoms: N6_18  and  N7_20 
REMARK       I    between atoms: N7_20  and  C7_22 
REMARK    8  A    between atoms: C7_22  and  C8_24 
ROOT
HETATM    1  N2  UNL     1      43.086  72.093  88.246  1.00  0.00    -0.221 N 
ATOM      2  H2  UNL     1      42.879  72.337  87.277  1.00  0.00     0.178 HD
HETATM    3  C5  UNL     1      42.889  73.060  89.250  1.00  0.00     0.686 C 
HETATM    4  N3  UNL     1      42.450  74.224  88.947  1.00  0.00    -0.234 N 
ATOM      5  H31 UNL     1      42.308  74.924  89.674  1.00  0.00     0.174 HD
ATOM      6  H32 UNL     1      42.248  74.440  87.971  1.00  0.00     0.174 HD
HETATM    7  N4  UNL     1      43.169  72.760  90.600  1.00  0.00    -0.131 N 
ATOM      8  H4  UNL     1      42.398  72.836  91.263  1.00  0.00     0.205 HD
ENDROOT
BRANCH   7   9
HETATM    9  N5  UNL     1      44.403  72.370  91.108  1.00  0.00    -0.261 N 
ATOM     10  H5  UNL     1      44.564  71.398  91.372  1.00  0.00     0.190 HD
BRANCH   9  11
HETATM   11  C6  UNL     1      45.437  73.330  91.257  1.00  0.00     0.205 C 
HETATM   12  S1  UNL     1      45.389  74.379  92.517  1.00  0.00    -0.038 SA
BRANCH  11  13
HETATM   13  N6  UNL     1      46.523  73.431  90.356  1.00  0.00    -0.272 N 
ATOM     14  H6  UNL     1      47.478  73.403  90.713  1.00  0.00     0.189 HD
BRANCH  13  15
HETATM   15  N7  UNL     1      46.307  73.568  89.001  1.00  0.00    -0.267 N 
HETATM   16  C7  UNL     1      45.954  74.810  88.439  1.00  0.00     0.249 C 
HETATM   17  O1  UNL     1      45.816  75.854  89.121  1.00  0.00    -0.271 OA
ATOM     18  H7  UNL     1      46.405  72.753  88.394  1.00  0.00     0.190 HD
BRANCH  16  19
HETATM   19  C8  UNL     1      45.722  74.927  86.956  1.00  0.00     0.219 C 
HETATM   20 CL1  UNL     1      45.686  73.349  86.184  1.00  0.00    -0.121 Cl
ENDBRANCH  16  19
ENDBRANCH  13  15
ENDBRANCH  11  13
ENDBRANCH   9  11
ENDBRANCH   7   9
BRANCH   1  21
HETATM   21  C4  UNL     1      43.581  70.743  88.552  1.00  0.00     0.182 C 
BRANCH  21  22
HETATM   22  C3  UNL     1      43.008  69.768  87.546  1.00  0.00     0.077 C 
BRANCH  22  23
HETATM   23  N1  UNL     1      43.982  69.041  86.833  1.00  0.00    -0.400 N 
HETATM   24  C1  UNL     1      45.263  69.605  86.661  1.00  0.00     0.148 C 
HETATM   25  C2  UNL     1      43.560  68.055  85.915  1.00  0.00     0.148 C 
ENDBRANCH  22  23
ENDBRANCH  21  22
ENDBRANCH   1  21
TORSDOF 8
ENDMDL
MODEL 2
REMARK VINA RESULT: -5.768027197      3.235      5.504
REMARK  8 active torsions:
REMARK  status: ('A' for Active; 'I' for Inactive)
REMARK    1  A    between atoms: N1_2  and  C3_4 
REMARK    2  A    between atoms: C3_4  and  C4_5 
REMARK    3  A    between atoms: C4_5  and  N2_6 
REMARK       I    between atoms: N2_6  and  C5_8 
REMARK       I    between atoms: C5_8  and  N4_12 
REMARK    4  A    between atoms: N4_12  and  N5_14 
REMARK    5  A    between atoms: N5_14  and  C6_16 
REMARK    6  A    between atoms: C6_16  and  N6_18 
REMARK    7  A    between atoms: N6_18  and  N7_20 
REMARK       I    between atoms: N7_20  and  C7_22 
REMARK    8  A    between atoms: C7_22  and  C8_24 
ROOT
HETATM    1  N2  UNL     1      43.205  72.628  90.400  1.00  0.00    -0.221 N 
ATOM      2  H2  UNL     1      42.442  72.434  91.048  1.00  0.00     0.178 HD
HETATM    3  C5  UNL     1      42.938  73.366  89.232  1.00  0.00     0.686 C 
HETATM    4  N3  UNL     1      41.754  73.791  88.994  1.00  0.00    -0.234 N 
ATOM      5  H31 UNL     1      41.559  74.325  88.148  1.00  0.00     0.174 HD
ATOM      6  H32 UNL     1      41.009  73.585  89.661  1.00  0.00     0.174 HD
HETATM    7  N4  UNL     1      43.968  73.650  88.310  1.00  0.00    -0.131 N 
ATOM      8  H4  UNL     1      44.166  74.633  88.122  1.00  0.00     0.205 HD
ENDROOT
BRANCH   7   9
HETATM    9  N5  UNL     1      44.737  72.710  87.634  1.00  0.00    -0.261 N 
ATOM     10  H5  UNL     1      44.794  71.752  87.979  1.00  0.00     0.190 HD
BRANCH   9  11
HETATM   11  C6  UNL     1      45.442  73.088  86.462  1.00  0.00     0.205 C 
HETATM   12  S1  UNL     1      46.406  74.414  86.493  1.00  0.00    -0.038 SA
BRANCH  11  13
HETATM   13  N6  UNL     1      45.348  72.370  85.247  1.00  0.00    -0.272 N 
ATOM     14  H6  UNL     1      45.536  72.846  84.365  1.00  0.00     0.189 HD
BRANCH  13  15
HETATM   15  N7  UNL     1      45.005  71.034  85.240  1.00  0.00    -0.267 N 
HETATM   16  C7  UNL     1      44.000  70.543  84.383  1.00  0.00     0.249 C 
HETATM   17  O1  UNL     1      43.364  71.273  83.586  1.00  0.00    -0.271 OA
ATOM     18  H7  UNL     1      45.487  70.390  85.867  1.00  0.00     0.190 HD
BRANCH  16  19
HETATM   19  C8  UNL     1      43.646  69.080  84.400  1.00  0.00     0.219 C 
HETATM   20 CL1  UNL     1      43.910  68.372  85.987  1.00  0.00    -0.121 Cl
ENDBRANCH  16  19
ENDBRANCH  13  15
ENDBRANCH  11  13
ENDBRANCH   9  11
ENDBRANCH   7   9
BRANCH   1  21
HETATM   21  C4  UNL     1      44.552  72.130  90.714  1.00  0.00     0.182 C 
BRANCH  21  22
HETATM   22  C3  UNL     1      44.902  72.516  92.135  1.00  0.00     0.077 C 
BRANCH  22  23
HETATM   23  N1  UNL     1      45.469  73.800  92.256  1.00  0.00    -0.400 N 
HETATM   24  C1  UNL     1      46.416  74.220  91.300  1.00  0.00     0.148 C 
HETATM   25  C2  UNL     1      45.483  74.421  93.525  1.00  0.00     0.148 C 
ENDBRANCH  22  23
ENDBRANCH  21  22
ENDBRANCH   1  21
TORSDOF 8
ENDMDL
MODEL 3
REMARK VINA RESULT: -5.708022017      6.461      8.407
REMARK  8 active torsions:
REMARK  status: ('A' for Active; 'I' for Inactive)
REMARK    1  A    between atoms: N1_2  and  C3_4 
REMARK    2  A    between atoms: C3_4  and  C4_5 
REMARK    3  A    between atoms: C4_5  and  N2_6 
REMARK       I    between atoms: N2_6  and  C5_8 
REMARK       I    between atoms: C5_8  and  N4_12 
REMARK    4  A    between atoms: N4_12  and  N5_14 
REMARK    5  A    between atoms: N5_14  and  C6_16 
REMARK    6  A    between atoms: C6_16  and  N6_18 
REMARK    7  A    between atoms: N6_18  and  N7_20 
REMARK       I    between atoms: N7_20  and  C7_22 
REMARK    8  A    between atoms: C7_22  and  C8_24 
ROOT
HETATM    1  N2  UNL     1      43.203  71.340  83.717  1.00  0.00    -0.221 N 
ATOM      2  H2  UNL     1      43.701  72.185  83.436  1.00  0.00     0.178 HD
HETATM    3  C5  UNL     1      41.825  71.237  83.448  1.00  0.00     0.686 C 
HETATM    4  N3  UNL     1      41.212  72.191  82.854  1.00  0.00    -0.234 N 
ATOM      5  H31 UNL     1      40.214  72.116  82.659  1.00  0.00     0.174 HD
ATOM      6  H32 UNL     1      41.734  73.023  82.580  1.00  0.00     0.174 HD
HETATM    7  N4  UNL     1      41.104  70.085  83.826  1.00  0.00    -0.131 N 
ATOM      8  H4  UNL     1      40.641  69.562  83.084  1.00  0.00     0.205 HD
ENDROOT
BRANCH   7   9
HETATM    9  N5  UNL     1      40.967  69.600  85.122  1.00  0.00    -0.261 N 
ATOM     10  H5  UNL     1      41.703  69.761  85.809  1.00  0.00     0.190 HD
BRANCH   9  11
HETATM   11  C6  UNL     1      39.800  68.878  85.483  1.00  0.00     0.205 C 
HETATM   12  S1  UNL     1      39.874  67.247  85.635  1.00  0.00    -0.038 SA
BRANCH  11  13
HETATM   13  N6  UNL     1      38.554  69.506  85.717  1.00  0.00    -0.272 N 
ATOM     14  H6  UNL     1      38.531  70.454  86.093  1.00  0.00     0.189 HD
BRANCH  13  15
HETATM   15  N7  UNL     1      37.370  68.854  85.444  1.00  0.00    -0.267 N 
HETATM   16  C7  UNL     1      36.126  69.475  85.670  1.00  0.00     0.249 C 
HETATM   17  O1  UNL     1      36.015  70.639  86.124  1.00  0.00    -0.271 OA
ATOM     18  H7  UNL     1      37.396  67.904  85.072  1.00  0.00     0.190 HD
BRANCH  16  19
HETATM   19  C8  UNL     1      34.850  68.736  85.365  1.00  0.00     0.219 C 
HETATM   20 CL1  UNL     1      33.791  68.676  86.766  1.00  0.00    -0.121 Cl
ENDBRANCH  16  19
ENDBRANCH  13  15
ENDBRANCH  11  13
ENDBRANCH   9  11
ENDBRANCH   7   9
BRANCH   1  21
HETATM   21  C4  UNL     1      43.947  70.265  84.391  1.00  0.00     0.182 C 
BRANCH  21  22
HETATM   22  C3  UNL     1      44.657  70.839  85.598  1.00  0.00     0.077 C 
BRANCH  22  23
HETATM   23  N1  UNL     1      44.432  70.121  86.790  1.00  0.00    -0.400 N 
HETATM   24  C1  UNL     1      44.027  68.773  86.707  1.00  0.00     0.148 C 
HETATM   25  C2  UNL     1      44.128  70.838  87.968  1.00  0.00     0.148 C 
ENDBRANCH  22  23
ENDBRANCH  21  22
ENDBRANCH   1  21
TORSDOF 8
ENDMDL
MODEL 4
REMARK VINA RESULT: -5.698266775      4.653      5.908
REMARK  8 active torsions:
REMARK  status: ('A' for Active; 'I' for Inactive)
REMARK    1  A    between atoms: N1_2  and  C3_4 
REMARK    2  A    between atoms: C3_4  and  C4_5 
REMARK    3  A    between atoms: C4_5  and  N2_6 
REMARK       I    between atoms: N2_6  and  C5_8 
REMARK       I    between atoms: C5_8  and  N4_12 
REMARK    4  A    between atoms: N4_12  and  N5_14 
REMARK    5  A    between atoms: N5_14  and  C6_16 
REMARK    6  A    between atoms: C6_16  and  N6_18 
REMARK    7  A    between atoms: N6_18  and  N7_20 
REMARK       I    between atoms: N7_20  and  C7_22 
REMARK    8  A    between atoms: C7_22  and  C8_24 
ROOT
HETATM    1  N2  UNL     1      42.387  70.466  81.925  1.00  0.00    -0.221 N 
ATOM      2  H2  UNL     1      41.907  70.627  81.040  1.00  0.00     0.178 HD
HETATM    3  C5  UNL     1      42.102  71.305  83.019  1.00  0.00     0.686 C 
HETATM    4  N3  UNL     1      41.246  72.250  82.900  1.00  0.00    -0.234 N 
ATOM      5  H31 UNL     1      41.039  72.858  83.692  1.00  0.00     0.174 HD
ATOM      6  H32 UNL     1      40.777  72.386  82.004  1.00  0.00     0.174 HD
HETATM    7  N4  UNL     1      42.750  71.116  84.258  1.00  0.00    -0.131 N 
ATOM      8  H4  UNL     1      42.160  70.923  85.067  1.00  0.00     0.205 HD
ENDROOT
BRANCH   7   9
HETATM    9  N5  UNL     1      44.122  71.170  84.474  1.00  0.00    -0.261 N 
ATOM     10  H5  UNL     1      44.763  71.241  83.684  1.00  0.00     0.190 HD
BRANCH   9  11
HETATM   11  C6  UNL     1      44.628  71.125  85.800  1.00  0.00     0.205 C 
HETATM   12  S1  UNL     1      45.152  69.699  86.416  1.00  0.00    -0.038 SA
BRANCH  11  13
HETATM   13  N6  UNL     1      44.698  72.268  86.630  1.00  0.00    -0.272 N 
ATOM     14  H6  UNL     1      45.183  73.102  86.299  1.00  0.00     0.189 HD
BRANCH  13  15
HETATM   15  N7  UNL     1      44.119  72.271  87.882  1.00  0.00    -0.267 N 
HETATM   16  C7  UNL     1      44.072  73.442  88.662  1.00  0.00     0.249 C 
HETATM   17  O1  UNL     1      44.543  74.539  88.278  1.00  0.00    -0.271 OA
ATOM     18  H7  UNL     1      43.718  71.408  88.249  1.00  0.00     0.190 HD
BRANCH  16  19
HETATM   19  C8  UNL     1      43.436  73.413  90.026  1.00  0.00     0.219 C 
HETATM   20 CL1  UNL     1      44.221  72.243  91.077  1.00  0.00    -0.121 Cl
ENDBRANCH  16  19
ENDBRANCH  13  15
ENDBRANCH  11  13
ENDBRANCH   9  11
ENDBRANCH   7   9
BRANCH   1  21
HETATM   21  C4  UNL     1      43.358  69.366  82.021  1.00  0.00     0.182 C 
BRANCH  21  22
HETATM   22  C3  UNL     1      44.657  69.796  81.375  1.00  0.00     0.077 C 
BRANCH  22  23
HETATM   23  N1  UNL     1      44.798  69.378  80.037  1.00  0.00    -0.400 N 
HETATM   24  C1  UNL     1      44.529  68.032  79.712  1.00  0.00     0.148 C 
HETATM   25  C2  UNL     1      45.645  70.114  79.179  1.00  0.00     0.148 C 
ENDBRANCH  22  23
ENDBRANCH  21  22
ENDBRANCH   1  21
TORSDOF 8
ENDMDL
MODEL 5
REMARK VINA RESULT: -5.660419981      3.553      5.741
REMARK  8 active torsions:
REMARK  status: ('A' for Active; 'I' for Inactive)
REMARK    1  A    between atoms: N1_2  and  C3_4 
REMARK    2  A    between atoms: C3_4  and  C4_5 
REMARK    3  A    between atoms: C4_5  and  N2_6 
REMARK       I    between atoms: N2_6  and  C5_8 
REMARK       I    between atoms: C5_8  and  N4_12 
REMARK    4  A    between atoms: N4_12  and  N5_14 
REMARK    5  A    between atoms: N5_14  and  C6_16 
REMARK    6  A    between atoms: C6_16  and  N6_18 
REMARK    7  A    between atoms: N6_18  and  N7_20 
REMARK       I    between atoms: N7_20  and  C7_22 
REMARK    8  A    between atoms: C7_22  and  C8_24 
ROOT
HETATM    1  N2  UNL     1      43.338  72.404  90.422  1.00  0.00    -0.221 N 
ATOM      2  H2  UNL     1      42.508  72.265  90.998  1.00  0.00     0.178 HD
HETATM    3  C5  UNL     1      43.212  73.077  89.192  1.00  0.00     0.686 C 
HETATM    4  N3  UNL     1      42.070  73.512  88.810  1.00  0.00    -0.234 N 
ATOM      5  H31 UNL     1      41.978  74.000  87.919  1.00  0.00     0.174 HD
ATOM      6  H32 UNL     1      41.256  73.363  89.407  1.00  0.00     0.174 HD
HETATM    7  N4  UNL     1      44.338  73.283  88.367  1.00  0.00    -0.131 N 
ATOM      8  H4  UNL     1      44.581  74.249  88.146  1.00  0.00     0.205 HD
ENDROOT
BRANCH   7   9
HETATM    9  N5  UNL     1      45.145  72.288  87.829  1.00  0.00    -0.261 N 
ATOM     10  H5  UNL     1      46.097  72.159  88.172  1.00  0.00     0.190 HD
BRANCH   9  11
HETATM   11  C6  UNL     1      44.639  71.451  86.800  1.00  0.00     0.205 C 
HETATM   12  S1  UNL     1      44.004  69.990  87.187  1.00  0.00    -0.038 SA
BRANCH  11  13
HETATM   13  N6  UNL     1      44.661  71.820  85.435  1.00  0.00    -0.272 N 
ATOM     14  H6  UNL     1      44.419  72.775  85.168  1.00  0.00     0.189 HD
BRANCH  13  15
HETATM   15  N7  UNL     1      45.004  70.907  84.460  1.00  0.00    -0.267 N 
HETATM   16  C7  UNL     1      44.108  70.572  83.426  1.00  0.00     0.249 C 
HETATM   17  O1  UNL     1      42.962  71.073  83.325  1.00  0.00    -0.271 OA
ATOM     18  H7  UNL     1      45.923  70.466  84.489  1.00  0.00     0.190 HD
BRANCH  16  19
HETATM   19  C8  UNL     1      44.509  69.569  82.378  1.00  0.00     0.219 C 
HETATM   20 CL1  UNL     1      45.353  70.338  81.042  1.00  0.00    -0.121 Cl
ENDBRANCH  16  19
ENDBRANCH  13  15
ENDBRANCH  11  13
ENDBRANCH   9  11
ENDBRANCH   7   9
BRANCH   1  21
HETATM   21  C4  UNL     1      44.632  71.895  90.901  1.00  0.00     0.182 C 
BRANCH  21  22
HETATM   22  C3  UNL     1      44.948  72.533  92.237  1.00  0.00     0.077 C 
BRANCH  22  23
HETATM   23  N1  UNL     1      45.458  73.842  92.141  1.00  0.00    -0.400 N 
HETATM   24  C1  UNL     1      46.494  74.104  91.221  1.00  0.00     0.148 C 
HETATM   25  C2  UNL     1      45.310  74.714  93.243  1.00  0.00     0.148 C 
ENDBRANCH  22  23
ENDBRANCH  21  22
ENDBRANCH   1  21
TORSDOF 8
ENDMDL
