MODEL 1
REMARK VINA RESULT: -8.957462661      0.000      0.000
REMARK  1 active torsions:
REMARK  status: ('A' for Active; 'I' for Inactive)
REMARK    1  A    between atoms: N4_12  and  C7_14 
ROOT
HETATM    1  C1  UNL     1      18.915 -34.560  16.753  1.00  0.00     0.089 C 
HETATM    2  C2  UNL     1      17.726 -33.749  16.355  1.00  0.00     0.095 A 
HETATM    3  N1  UNL     1      17.631 -32.465  16.746  1.00  0.00    -0.330 N 
ATOM      4  H1  UNL     1      18.373 -32.051  17.311  1.00  0.00     0.168 HD
HETATM    5  C3  UNL     1      16.560 -31.721  16.392  1.00  0.00     0.148 A 
HETATM    6  C4  UNL     1      16.181 -30.413  16.630  1.00  0.00     0.070 A 
HETATM    7  C5  UNL     1      14.962 -30.190  16.011  1.00  0.00     0.112 A 
HETATM    8  N2  UNL     1      14.632 -31.343  15.423  1.00  0.00    -0.289 N 
ATOM      9  H2  UNL     1      13.779 -31.493  14.885  1.00  0.00     0.187 HD
HETATM   10  N3  UNL     1      15.563 -32.270  15.634  1.00  0.00    -0.070 N 
HETATM   11  C6  UNL     1      15.652 -33.547  15.242  1.00  0.00     0.707 A 
HETATM   12  N4  UNL     1      14.738 -34.063  14.543  1.00  0.00    -0.190 N 
ATOM     13  H4  UNL     1      13.955 -33.455  14.308  1.00  0.00     0.184 HD
HETATM   14  N6  UNL     1      16.726 -34.253  15.611  1.00  0.00    -0.179 N 
ATOM     15  H6  UNL     1      16.791 -35.226  15.311  1.00  0.00     0.185 HD
ENDROOT
BRANCH  12  16
HETATM   16  C7  UNL     1      14.671 -35.370  14.053  1.00  0.00     0.050 A 
HETATM   17  C8  UNL     1      15.141 -35.773  12.817  1.00  0.00     0.031 A 
HETATM   18  C9  UNL     1      15.021 -37.093  12.438  1.00  0.00     0.016 A 
HETATM   19  C10 UNL     1      14.441 -38.035  13.265  1.00  0.00    -0.010 A 
HETATM   20  C11 UNL     1      14.319 -39.368  12.884  1.00  0.00     0.102 A 
HETATM   21  C15 UNL     1      13.976 -37.646  14.483  1.00  0.00    -0.021 A 
HETATM   22  N5  UNL     1      13.748 -40.264  13.714  1.00  0.00    -0.370 N 
HETATM   23  C12 UNL     1      13.638 -41.651  13.281  1.00  0.00     0.154 C 
HETATM   24  C13 UNL     1      13.299 -39.869  14.899  1.00  0.00     0.090 A 
HETATM   25  C14 UNL     1      13.394 -38.550  15.335  1.00  0.00     0.029 A 
HETATM   26  C16 UNL     1      14.090 -36.335  14.872  1.00  0.00     0.042 A 
ENDBRANCH  12  16
TORSDOF 1
ENDMDL
MODEL 2
REMARK VINA RESULT: -8.808477658      1.053      1.892
REMARK  1 active torsions:
REMARK  status: ('A' for Active; 'I' for Inactive)
REMARK    1  A    between atoms: N4_12  and  C7_14 
ROOT
HETATM    1  C1  UNL     1      18.922 -33.660  16.819  1.00  0.00     0.089 C 
HETATM    2  C2  UNL     1      17.725 -32.833  16.482  1.00  0.00     0.095 A 
HETATM    3  N1  UNL     1      17.799 -31.491  16.546  1.00  0.00    -0.330 N 
ATOM      4  H1  UNL     1      18.673 -31.044  16.824  1.00  0.00     0.168 HD
HETATM    5  C3  UNL     1      16.723 -30.733  16.243  1.00  0.00     0.148 A 
HETATM    6  C4  UNL     1      16.487 -29.371  16.214  1.00  0.00     0.070 A 
HETATM    7  C5  UNL     1      15.175 -29.161  15.823  1.00  0.00     0.112 A 
HETATM    8  N2  UNL     1      14.651 -30.373  15.626  1.00  0.00    -0.289 N 
ATOM      9  H2  UNL     1      13.691 -30.546  15.329  1.00  0.00     0.187 HD
HETATM   10  N3  UNL     1      15.548 -31.326  15.869  1.00  0.00    -0.070 N 
HETATM   11  C6  UNL     1      15.469 -32.661  15.803  1.00  0.00     0.707 A 
HETATM   12  N4  UNL     1      14.391 -33.217  15.459  1.00  0.00    -0.190 N 
ATOM     13  H4  UNL     1      13.613 -32.595  15.243  1.00  0.00     0.184 HD
HETATM   14  N6  UNL     1      16.554 -33.379  16.110  1.00  0.00    -0.179 N 
ATOM     15  H6  UNL     1      16.490 -34.396  16.059  1.00  0.00     0.185 HD
ENDROOT
BRANCH  12  16
HETATM   16  C7  UNL     1      14.136 -34.587  15.339  1.00  0.00     0.050 A 
HETATM   17  C8  UNL     1      13.513 -35.359  16.301  1.00  0.00     0.031 A 
HETATM   18  C9  UNL     1      13.314 -36.704  16.073  1.00  0.00     0.016 A 
HETATM   19  C10 UNL     1      13.722 -37.309  14.901  1.00  0.00    -0.010 A 
HETATM   20  C11 UNL     1      13.522 -38.667  14.668  1.00  0.00     0.102 A 
HETATM   21  C15 UNL     1      14.337 -36.554  13.949  1.00  0.00    -0.021 A 
HETATM   22  N5  UNL     1      13.932 -39.228  13.513  1.00  0.00    -0.370 N 
HETATM   23  C12 UNL     1      13.705 -40.652  13.306  1.00  0.00     0.154 C 
HETATM   24  C13 UNL     1      14.531 -38.479  12.596  1.00  0.00     0.090 A 
HETATM   25  C14 UNL     1      14.758 -37.116  12.771  1.00  0.00     0.029 A 
HETATM   26  C16 UNL     1      14.541 -35.215  14.164  1.00  0.00     0.042 A 
ENDBRANCH  12  16
TORSDOF 1
ENDMDL
MODEL 3
REMARK VINA RESULT: -8.640674263      1.609      2.350
REMARK  1 active torsions:
REMARK  status: ('A' for Active; 'I' for Inactive)
REMARK    1  A    between atoms: N4_12  and  C7_14 
ROOT
HETATM    1  C1  UNL     1      16.953 -33.466  19.526  1.00  0.00     0.089 C 
HETATM    2  C2  UNL     1      16.273 -32.659  18.471  1.00  0.00     0.095 A 
HETATM    3  N1  UNL     1      16.412 -31.321  18.458  1.00  0.00    -0.330 N 
ATOM      4  H1  UNL     1      16.981 -30.863  19.170  1.00  0.00     0.168 HD
HETATM    5  C3  UNL     1      15.800 -30.580  17.508  1.00  0.00     0.148 A 
HETATM    6  C4  UNL     1      15.748 -29.226  17.233  1.00  0.00     0.070 A 
HETATM    7  C5  UNL     1      14.955 -29.035  16.115  1.00  0.00     0.112 A 
HETATM    8  N2  UNL     1      14.548 -30.250  15.740  1.00  0.00    -0.289 N 
ATOM      9  H2  UNL     1      13.945 -30.436  14.939  1.00  0.00     0.187 HD
HETATM   10  N3  UNL     1      15.035 -31.188  16.550  1.00  0.00    -0.070 N 
HETATM   11  C6  UNL     1      14.894 -32.519  16.558  1.00  0.00     0.707 A 
HETATM   12  N4  UNL     1      14.191 -33.088  15.680  1.00  0.00    -0.190 N 
ATOM     13  H4  UNL     1      13.754 -32.479  14.989  1.00  0.00     0.184 HD
HETATM   14  N6  UNL     1      15.513 -33.220  17.513  1.00  0.00    -0.179 N 
ATOM     15  H6  UNL     1      15.404 -34.234  17.516  1.00  0.00     0.185 HD
ENDROOT
BRANCH  12  16
HETATM   16  C7  UNL     1      13.939 -34.457  15.541  1.00  0.00     0.050 A 
HETATM   17  C8  UNL     1      13.236 -35.224  16.450  1.00  0.00     0.031 A 
HETATM   18  C9  UNL     1      13.049 -36.569  16.208  1.00  0.00     0.016 A 
HETATM   19  C10 UNL     1      13.547 -37.177  15.073  1.00  0.00    -0.010 A 
HETATM   20  C11 UNL     1      13.358 -38.534  14.826  1.00  0.00     0.102 A 
HETATM   21  C15 UNL     1      14.240 -36.427  14.173  1.00  0.00    -0.021 A 
HETATM   22  N5  UNL     1      13.857 -39.098  13.708  1.00  0.00    -0.370 N 
HETATM   23  C12 UNL     1      13.640 -40.522  13.485  1.00  0.00     0.154 C 
HETATM   24  C13 UNL     1      14.531 -38.355  12.841  1.00  0.00     0.090 A 
HETATM   25  C14 UNL     1      14.751 -36.993  13.033  1.00  0.00     0.029 A 
HETATM   26  C16 UNL     1      14.433 -35.088  14.402  1.00  0.00     0.042 A 
ENDBRANCH  12  16
TORSDOF 1
ENDMDL
MODEL 4
REMARK VINA RESULT: -8.600946526      4.576      9.645
REMARK  1 active torsions:
REMARK  status: ('A' for Active; 'I' for Inactive)
REMARK    1  A    between atoms: N4_12  and  C7_14 
ROOT
HETATM    1  C1  UNL     1      14.073 -33.565  17.183  1.00  0.00     0.089 C 
HETATM    2  C2  UNL     1      15.520 -33.243  17.361  1.00  0.00     0.095 A 
HETATM    3  N1  UNL     1      16.456 -34.057  16.841  1.00  0.00    -0.330 N 
ATOM      4  H1  UNL     1      16.173 -34.891  16.326  1.00  0.00     0.168 HD
HETATM    5  C3  UNL     1      17.768 -33.775  16.996  1.00  0.00     0.148 A 
HETATM    6  C4  UNL     1      18.936 -34.396  16.593  1.00  0.00     0.070 A 
HETATM    7  C5  UNL     1      20.009 -33.646  17.043  1.00  0.00     0.112 A 
HETATM    8  N2  UNL     1      19.484 -32.606  17.696  1.00  0.00    -0.289 N 
ATOM      9  H2  UNL     1      20.029 -31.870  18.144  1.00  0.00     0.187 HD
HETATM   10  N3  UNL     1      18.154 -32.658  17.684  1.00  0.00    -0.070 N 
HETATM   11  C6  UNL     1      17.227 -31.844  18.204  1.00  0.00     0.707 A 
HETATM   12  N4  UNL     1      17.572 -30.812  18.840  1.00  0.00    -0.190 N 
ATOM     13  H4  UNL     1      18.575 -30.651  18.926  1.00  0.00     0.184 HD
HETATM   14  N6  UNL     1      15.938 -32.154  18.031  1.00  0.00    -0.179 N 
ATOM     15  H6  UNL     1      15.234 -31.532  18.428  1.00  0.00     0.185 HD
ENDROOT
BRANCH  12  16
HETATM   16  C7  UNL     1      16.742 -29.862  19.443  1.00  0.00     0.050 A 
HETATM   17  C8  UNL     1      16.292 -29.925  20.749  1.00  0.00     0.031 A 
HETATM   18  C9  UNL     1      15.475 -28.927  21.237  1.00  0.00     0.016 A 
HETATM   19  C10 UNL     1      15.090 -27.856  20.455  1.00  0.00    -0.010 A 
HETATM   20  C11 UNL     1      14.266 -26.848  20.947  1.00  0.00     0.102 A 
HETATM   21  C15 UNL     1      15.530 -27.788  19.168  1.00  0.00    -0.021 A 
HETATM   22  N5  UNL     1      13.908 -25.816  20.158  1.00  0.00    -0.370 N 
HETATM   23  C12 UNL     1      13.044 -24.779  20.707  1.00  0.00     0.154 C 
HETATM   24  C13 UNL     1      14.345 -25.763  18.906  1.00  0.00     0.090 A 
HETATM   25  C14 UNL     1      15.172 -26.741  18.358  1.00  0.00     0.029 A 
HETATM   26  C16 UNL     1      16.344 -28.775  18.671  1.00  0.00     0.042 A 
ENDBRANCH  12  16
TORSDOF 1
ENDMDL
MODEL 5
REMARK VINA RESULT: -8.548602038      1.423      2.214
REMARK  1 active torsions:
REMARK  status: ('A' for Active; 'I' for Inactive)
REMARK    1  A    between atoms: N4_12  and  C7_14 
ROOT
HETATM    1  C1  UNL     1      18.492 -35.903  19.144  1.00  0.00     0.089 C 
HETATM    2  C2  UNL     1      18.016 -34.888  18.158  1.00  0.00     0.095 A 
HETATM    3  N1  UNL     1      18.515 -33.639  18.190  1.00  0.00    -0.330 N 
ATOM      4  H1  UNL     1      19.216 -33.391  18.887  1.00  0.00     0.168 HD
HETATM    5  C3  UNL     1      18.091 -32.713  17.302  1.00  0.00     0.148 A 
HETATM    6  C4  UNL     1      18.401 -31.383  17.083  1.00  0.00     0.070 A 
HETATM    7  C5  UNL     1      17.645 -30.926  16.016  1.00  0.00     0.112 A 
HETATM    8  N2  UNL     1      16.907 -31.965  15.617  1.00  0.00    -0.289 N 
ATOM      9  H2  UNL     1      16.244 -31.939  14.843  1.00  0.00     0.187 HD
HETATM   10  N3  UNL     1      17.151 -33.040  16.364  1.00  0.00    -0.070 N 
HETATM   11  C6  UNL     1      16.652 -34.281  16.327  1.00  0.00     0.707 A 
HETATM   12  N4  UNL     1      15.785 -34.593  15.466  1.00  0.00    -0.190 N 
ATOM     13  H4  UNL     1      15.504 -33.853  14.823  1.00  0.00     0.184 HD
HETATM   14  N6  UNL     1      17.095 -35.172  17.221  1.00  0.00    -0.179 N 
ATOM     15  H6  UNL     1      16.712 -36.117  17.190  1.00  0.00     0.185 HD
ENDROOT
BRANCH  12  16
HETATM   16  C7  UNL     1      15.164 -35.832  15.288  1.00  0.00     0.050 A 
HETATM   17  C8  UNL     1      14.093 -36.290  16.032  1.00  0.00     0.031 A 
HETATM   18  C9  UNL     1      13.560 -37.534  15.767  1.00  0.00     0.016 A 
HETATM   19  C10 UNL     1      14.068 -38.343  14.770  1.00  0.00    -0.010 A 
HETATM   20  C11 UNL     1      13.531 -39.599  14.501  1.00  0.00     0.102 A 
HETATM   21  C15 UNL     1      15.123 -37.899  14.034  1.00  0.00    -0.021 A 
HETATM   22  N5  UNL     1      14.049 -40.365  13.521  1.00  0.00    -0.370 N 
HETATM   23  C12 UNL     1      13.461 -41.674  13.268  1.00  0.00     0.154 C 
HETATM   24  C13 UNL     1      15.078 -39.918  12.812  1.00  0.00     0.090 A 
HETATM   25  C14 UNL     1      15.657 -38.671  13.035  1.00  0.00     0.029 A 
HETATM   26  C16 UNL     1      15.662 -36.663  14.288  1.00  0.00     0.042 A 
ENDBRANCH  12  16
TORSDOF 1
ENDMDL
