MODEL 1
REMARK VINA RESULT: -8.845548371      0.000      0.000
REMARK  3 active torsions:
REMARK  status: ('A' for Active; 'I' for Inactive)
REMARK    1  A    between atoms: C10_10  and  C11_11 
REMARK    2  A    between atoms: C11_11  and  N1_12 
REMARK    3  A    between atoms: N1_12  and  C12_15 
ROOT
HETATM    1  N1  UNL     1      -0.565  21.101  -3.539  1.00  0.00    -0.065 N 
ATOM      2  H11 UNL     1      -1.094  21.973  -3.525  1.00  0.00     0.278 HD
ATOM      3  H12 UNL     1      -1.194  20.553  -4.126  1.00  0.00     0.278 HD
ENDROOT
BRANCH   1   4
HETATM    4  C11 UNL     1      -0.427  20.532  -2.215  1.00  0.00     0.237 C 
BRANCH   4   5
HETATM    5  C10 UNL     1      -1.589  19.582  -1.900  1.00  0.00     0.011 C 
HETATM    6  C9  UNL     1      -1.913  18.836  -3.171  1.00  0.00     0.007 C 
HETATM    7  C8  UNL     1      -3.243  18.145  -3.112  1.00  0.00     0.014 C 
HETATM    8  C3  UNL     1      -4.363  19.076  -2.686  1.00  0.00    -0.023 C 
HETATM    9  C2  UNL     1      -4.879  18.628  -1.365  1.00  0.00    -0.021 C 
HETATM   10  C4  UNL     1      -5.486  19.009  -3.680  1.00  0.00     0.013 C 
HETATM   11  C25 UNL     1      -3.785  20.444  -2.532  1.00  0.00     0.014 C 
HETATM   12  C1  UNL     1      -6.150  18.655  -0.978  1.00  0.00    -0.030 C 
HETATM   13  C7  UNL     1      -7.353  19.107  -1.691  1.00  0.00     0.027 C 
HETATM   14  C6  UNL     1      -7.189  20.382  -2.456  1.00  0.00     0.004 C 
HETATM   15  C5  UNL     1      -6.357  20.229  -3.696  1.00  0.00     0.001 C 
HETATM   16  C24 UNL     1      -2.746  20.404  -1.432  1.00  0.00     0.007 C 
ENDBRANCH   4   5
ENDBRANCH   1   4
BRANCH   1  17
HETATM   17  C12 UNL     1       0.696  21.263  -4.131  1.00  0.00     0.134 C 
HETATM   18  C13 UNL     1       1.161  22.666  -4.421  1.00  0.00     0.040 C 
HETATM   19  C14 UNL     1       1.248  22.280  -5.880  1.00  0.00     0.015 C 
HETATM   20  C15 UNL     1       1.018  20.820  -5.466  1.00  0.00     0.000 C 
HETATM   21  C16 UNL     1       0.166  20.128  -6.388  1.00  0.00    -0.003 C 
HETATM   22  C22 UNL     1       2.286  20.191  -5.031  1.00  0.00    -0.001 C 
HETATM   23  C17 UNL     1      -0.677  19.001  -5.931  1.00  0.00     0.006 C 
HETATM   24  C20 UNL     1       1.070  19.391  -7.397  1.00  0.00     0.010 C 
HETATM   25  C18 UNL     1       0.280  17.853  -5.745  1.00  0.00     0.005 C 
HETATM   26  C19 UNL     1       1.554  18.265  -6.485  1.00  0.00    -0.014 C 
HETATM   27  C21 UNL     1       2.504  18.778  -5.424  1.00  0.00     0.010 C 
HETATM   28  C23 UNL     1       1.818  20.388  -3.583  1.00  0.00     0.045 C 
ENDBRANCH   1  17
TORSDOF 3
ENDMDL
MODEL 2
REMARK VINA RESULT: -8.589997982      1.563      2.886
REMARK  3 active torsions:
REMARK  status: ('A' for Active; 'I' for Inactive)
REMARK    1  A    between atoms: C10_10  and  C11_11 
REMARK    2  A    between atoms: C11_11  and  N1_12 
REMARK    3  A    between atoms: N1_12  and  C12_15 
ROOT
HETATM    1  N1  UNL     1       0.571  20.896  -4.970  1.00  0.00    -0.065 N 
ATOM      2  H11 UNL     1       0.785  21.691  -5.571  1.00  0.00     0.278 HD
ATOM      3  H12 UNL     1      -0.371  20.700  -5.308  1.00  0.00     0.278 HD
ENDROOT
BRANCH   1   4
HETATM    4  C11 UNL     1       0.578  21.260  -3.568  1.00  0.00     0.237 C 
BRANCH   4   5
HETATM    5  C10 UNL     1      -0.841  21.235  -2.986  1.00  0.00     0.011 C 
HETATM    6  C9  UNL     1      -0.712  21.360  -1.488  1.00  0.00     0.007 C 
HETATM    7  C8  UNL     1      -1.974  20.994  -0.767  1.00  0.00     0.014 C 
HETATM    8  C3  UNL     1      -2.513  19.639  -1.190  1.00  0.00    -0.023 C 
HETATM    9  C2  UNL     1      -3.815  19.839  -1.880  1.00  0.00    -0.021 C 
HETATM   10  C4  UNL     1      -2.745  18.784   0.022  1.00  0.00     0.013 C 
HETATM   11  C25 UNL     1      -1.546  19.047  -2.161  1.00  0.00     0.014 C 
HETATM   12  C1  UNL     1      -4.873  19.038  -1.789  1.00  0.00    -0.030 C 
HETATM   13  C7  UNL     1      -5.064  17.796  -1.028  1.00  0.00     0.027 C 
HETATM   14  C6  UNL     1      -3.907  16.849  -1.069  1.00  0.00     0.004 C 
HETATM   15  C5  UNL     1      -2.729  17.312  -0.262  1.00  0.00     0.001 C 
HETATM   16  C24 UNL     1      -1.481  19.943  -3.379  1.00  0.00     0.007 C 
ENDBRANCH   4   5
ENDBRANCH   1   4
BRANCH   1  17
HETATM   17  C12 UNL     1       1.442  19.820  -5.195  1.00  0.00     0.134 C 
HETATM   18  C13 UNL     1       2.852  20.136  -5.623  1.00  0.00     0.040 C 
HETATM   19  C14 UNL     1       2.591  19.341  -6.882  1.00  0.00     0.015 C 
HETATM   20  C15 UNL     1       1.273  18.861  -6.259  1.00  0.00     0.000 C 
HETATM   21  C16 UNL     1       0.214  18.800  -7.223  1.00  0.00    -0.003 C 
HETATM   22  C22 UNL     1       1.508  17.710  -5.357  1.00  0.00    -0.001 C 
HETATM   23  C17 UNL     1      -1.193  18.982  -6.804  1.00  0.00     0.006 C 
HETATM   24  C20 UNL     1       0.148  17.353  -7.754  1.00  0.00     0.010 C 
HETATM   25  C18 UNL     1      -1.562  17.692  -6.117  1.00  0.00     0.005 C 
HETATM   26  C19 UNL     1      -0.481  16.691  -6.529  1.00  0.00    -0.014 C 
HETATM   27  C21 UNL     1       0.491  16.629  -5.369  1.00  0.00     0.010 C 
HETATM   28  C23 UNL     1       1.392  18.685  -4.179  1.00  0.00     0.045 C 
ENDBRANCH   1  17
TORSDOF 3
ENDMDL
MODEL 3
REMARK VINA RESULT: -8.256568961      1.424      2.829
REMARK  3 active torsions:
REMARK  status: ('A' for Active; 'I' for Inactive)
REMARK    1  A    between atoms: C10_10  and  C11_11 
REMARK    2  A    between atoms: C11_11  and  N1_12 
REMARK    3  A    between atoms: N1_12  and  C12_15 
ROOT
HETATM    1  N1  UNL     1       1.189  19.749  -4.154  1.00  0.00    -0.065 N 
ATOM      2  H11 UNL     1       0.477  19.033  -4.012  1.00  0.00     0.278 HD
ATOM      3  H12 UNL     1       1.998  19.224  -3.822  1.00  0.00     0.278 HD
ENDROOT
BRANCH   1   4
HETATM    4  C11 UNL     1       0.940  20.926  -3.347  1.00  0.00     0.237 C 
BRANCH   4   5
HETATM    5  C10 UNL     1      -0.537  21.015  -2.944  1.00  0.00     0.011 C 
HETATM    6  C9  UNL     1      -0.579  21.320  -1.466  1.00  0.00     0.007 C 
HETATM    7  C8  UNL     1      -1.933  21.083  -0.867  1.00  0.00     0.014 C 
HETATM    8  C3  UNL     1      -2.478  19.703  -1.189  1.00  0.00    -0.023 C 
HETATM    9  C2  UNL     1      -3.680  19.855  -2.052  1.00  0.00    -0.021 C 
HETATM   10  C4  UNL     1      -2.890  19.011   0.078  1.00  0.00     0.013 C 
HETATM   11  C25 UNL     1      -1.431  18.967  -1.957  1.00  0.00     0.014 C 
HETATM   12  C1  UNL     1      -4.776  19.105  -1.997  1.00  0.00    -0.030 C 
HETATM   13  C7  UNL     1      -5.111  17.972  -1.123  1.00  0.00     0.027 C 
HETATM   14  C6  UNL     1      -4.000  16.992  -0.910  1.00  0.00     0.004 C 
HETATM   15  C5  UNL     1      -2.906  17.515  -0.026  1.00  0.00     0.001 C 
HETATM   16  C24 UNL     1      -1.183  19.704  -3.256  1.00  0.00     0.007 C 
ENDBRANCH   4   5
ENDBRANCH   1   4
BRANCH   1  17
HETATM   17  C12 UNL     1       1.313  20.106  -5.504  1.00  0.00     0.134 C 
HETATM   18  C13 UNL     1       1.381  21.573  -5.839  1.00  0.00     0.040 C 
HETATM   19  C14 UNL     1       0.137  21.386  -6.677  1.00  0.00     0.015 C 
HETATM   20  C15 UNL     1       0.289  19.870  -6.493  1.00  0.00     0.000 C 
HETATM   21  C16 UNL     1      -0.976  19.222  -6.306  1.00  0.00    -0.003 C 
HETATM   22  C22 UNL     1       1.256  19.316  -7.468  1.00  0.00    -0.001 C 
HETATM   23  C17 UNL     1      -1.070  17.970  -5.524  1.00  0.00     0.006 C 
HETATM   24  C20 UNL     1      -1.447  18.710  -7.683  1.00  0.00     0.010 C 
HETATM   25  C18 UNL     1      -0.506  16.906  -6.428  1.00  0.00     0.005 C 
HETATM   26  C19 UNL     1      -0.488  17.529  -7.825  1.00  0.00    -0.014 C 
HETATM   27  C21 UNL     1       0.935  17.992  -8.055  1.00  0.00     0.010 C 
HETATM   28  C23 UNL     1       2.289  19.281  -6.335  1.00  0.00     0.045 C 
ENDBRANCH   1  17
TORSDOF 3
ENDMDL
MODEL 4
REMARK VINA RESULT: -8.221326647      1.867      3.746
REMARK  3 active torsions:
REMARK  status: ('A' for Active; 'I' for Inactive)
REMARK    1  A    between atoms: C10_10  and  C11_11 
REMARK    2  A    between atoms: C11_11  and  N1_12 
REMARK    3  A    between atoms: N1_12  and  C12_15 
ROOT
HETATM    1  N1  UNL     1      -1.104  18.958  -6.671  1.00  0.00    -0.065 N 
ATOM      2  H11 UNL     1      -1.464  19.578  -5.946  1.00  0.00     0.278 HD
ATOM      3  H12 UNL     1      -1.431  19.476  -7.488  1.00  0.00     0.278 HD
ENDROOT
BRANCH   1   4
HETATM    4  C11 UNL     1      -1.694  17.638  -6.596  1.00  0.00     0.237 C 
BRANCH   4   5
HETATM    5  C10 UNL     1      -2.662  17.534  -5.411  1.00  0.00     0.011 C 
HETATM    6  C9  UNL     1      -3.327  18.879  -5.259  1.00  0.00     0.007 C 
HETATM    7  C8  UNL     1      -4.021  19.034  -3.938  1.00  0.00     0.014 C 
HETATM    8  C3  UNL     1      -3.118  18.698  -2.765  1.00  0.00    -0.023 C 
HETATM    9  C2  UNL     1      -3.648  17.484  -2.088  1.00  0.00    -0.021 C 
HETATM   10  C4  UNL     1      -3.124  19.831  -1.779  1.00  0.00     0.013 C 
HETATM   11  C25 UNL     1      -1.762  18.388  -3.307  1.00  0.00     0.014 C 
HETATM   12  C1  UNL     1      -3.645  17.263  -0.777  1.00  0.00    -0.030 C 
HETATM   13  C7  UNL     1      -3.151  18.095   0.328  1.00  0.00     0.027 C 
HETATM   14  C6  UNL     1      -1.831  18.753   0.078  1.00  0.00     0.004 C 
HETATM   15  C5  UNL     1      -1.906  19.883  -0.907  1.00  0.00     0.001 C 
HETATM   16  C24 UNL     1      -1.871  17.168  -4.197  1.00  0.00     0.007 C 
ENDBRANCH   4   5
ENDBRANCH   1   4
BRANCH   1  17
HETATM   17  C12 UNL     1       0.295  18.866  -6.635  1.00  0.00     0.134 C 
HETATM   18  C13 UNL     1       0.906  17.493  -6.531  1.00  0.00     0.040 C 
HETATM   19  C14 UNL     1       1.552  17.935  -5.239  1.00  0.00     0.015 C 
HETATM   20  C15 UNL     1       1.103  19.369  -5.551  1.00  0.00     0.000 C 
HETATM   21  C16 UNL     1       0.661  20.062  -4.377  1.00  0.00    -0.003 C 
HETATM   22  C22 UNL     1       2.057  20.029  -6.473  1.00  0.00    -0.001 C 
HETATM   23  C17 UNL     1      -0.349  21.138  -4.476  1.00  0.00     0.006 C 
HETATM   24  C20 UNL     1       1.856  20.870  -3.832  1.00  0.00     0.010 C 
HETATM   25  C18 UNL     1       0.395  22.314  -5.053  1.00  0.00     0.005 C 
HETATM   26  C19 UNL     1       1.877  21.979  -4.882  1.00  0.00    -0.014 C 
HETATM   27  C21 UNL     1       2.345  21.463  -6.227  1.00  0.00     0.010 C 
HETATM   28  C23 UNL     1       1.057  19.761  -7.605  1.00  0.00     0.045 C 
ENDBRANCH   1  17
TORSDOF 3
ENDMDL
MODEL 5
REMARK VINA RESULT: -7.690935324      1.743      6.110
REMARK  3 active torsions:
REMARK  status: ('A' for Active; 'I' for Inactive)
REMARK    1  A    between atoms: C10_10  and  C11_11 
REMARK    2  A    between atoms: C11_11  and  N1_12 
REMARK    3  A    between atoms: N1_12  and  C12_15 
ROOT
HETATM    1  N1  UNL     1      -0.113  19.961  -1.995  1.00  0.00    -0.065 N 
ATOM      2  H11 UNL     1       0.531  19.667  -1.262  1.00  0.00     0.278 HD
ATOM      3  H12 UNL     1      -0.275  19.051  -2.428  1.00  0.00     0.278 HD
ENDROOT
BRANCH   1   4
HETATM    4  C11 UNL     1       0.503  20.895  -2.914  1.00  0.00     0.237 C 
BRANCH   4   5
HETATM    5  C10 UNL     1       0.845  20.214  -4.244  1.00  0.00     0.011 C 
HETATM    6  C9  UNL     1       0.389  21.135  -5.349  1.00  0.00     0.007 C 
HETATM    7  C8  UNL     1       0.330  20.453  -6.683  1.00  0.00     0.014 C 
HETATM    8  C3  UNL     1      -0.466  19.162  -6.641  1.00  0.00    -0.023 C 
HETATM    9  C2  UNL     1       0.456  18.025  -6.905  1.00  0.00    -0.021 C 
HETATM   10  C4  UNL     1      -1.517  19.178  -7.713  1.00  0.00     0.013 C 
HETATM   11  C25 UNL     1      -1.022  19.014  -5.264  1.00  0.00     0.014 C 
HETATM   12  C1  UNL     1       0.163  16.933  -7.604  1.00  0.00    -0.030 C 
HETATM   13  C7  UNL     1      -1.080  16.544  -8.284  1.00  0.00     0.027 C 
HETATM   14  C6  UNL     1      -2.332  16.816  -7.511  1.00  0.00     0.004 C 
HETATM   15  C5  UNL     1      -2.680  18.274  -7.436  1.00  0.00     0.001 C 
HETATM   16  C24 UNL     1       0.132  18.901  -4.291  1.00  0.00     0.007 C 
ENDBRANCH   4   5
ENDBRANCH   1   4
BRANCH   1  17
HETATM   17  C12 UNL     1      -1.293  20.507  -1.468  1.00  0.00     0.134 C 
HETATM   18  C13 UNL     1      -1.162  21.584  -0.422  1.00  0.00     0.040 C 
HETATM   19  C14 UNL     1      -1.927  20.686   0.522  1.00  0.00     0.015 C 
HETATM   20  C15 UNL     1      -2.232  19.762  -0.665  1.00  0.00     0.000 C 
HETATM   21  C16 UNL     1      -2.166  18.378  -0.299  1.00  0.00    -0.003 C 
HETATM   22  C22 UNL     1      -3.396  20.261  -1.433  1.00  0.00    -0.001 C 
HETATM   23  C17 UNL     1      -1.805  17.353  -1.302  1.00  0.00     0.006 C 
HETATM   24  C20 UNL     1      -3.598  17.917   0.046  1.00  0.00     0.010 C 
HETATM   25  C18 UNL     1      -3.031  17.206  -2.165  1.00  0.00     0.005 C 
HETATM   26  C19 UNL     1      -4.164  17.859  -1.372  1.00  0.00    -0.014 C 
HETATM   27  C21 UNL     1      -4.339  19.244  -1.959  1.00  0.00     0.010 C 
HETATM   28  C23 UNL     1      -2.403  20.809  -2.467  1.00  0.00     0.045 C 
ENDBRANCH   1  17
TORSDOF 3
ENDMDL
