MODEL 1
REMARK VINA RESULT: -6.394043971      0.000      0.000
REMARK  7 active torsions:
REMARK  status: ('A' for Active; 'I' for Inactive)
REMARK    1  A    between atoms: S1_2  and  C2_3 
REMARK    2  A    between atoms: C4_5  and  C5_6 
REMARK    3  A    between atoms: C5_6  and  C6_7 
REMARK    4  A    between atoms: C22_23  and  O1_24 
REMARK    5  A    between atoms: C23_26  and  C24_27 
REMARK    6  A    between atoms: C24_27  and  O2_28 
REMARK    7  A    between atoms: C25_30  and  O3_32 
ROOT
HETATM    1  C6  UNL     1       6.940 -17.251  20.315  1.00  0.00     0.032 C 
HETATM    2  C7  UNL     1       7.569 -17.208  21.667  1.00  0.00    -0.037 C 
HETATM    3  C8  UNL     1       7.806 -18.579  22.268  1.00  0.00     0.015 C 
HETATM    4  C9  UNL     1       6.556 -16.556  22.587  1.00  0.00     0.014 C 
HETATM    5  C10 UNL     1       7.051 -15.375  23.330  1.00  0.00     0.036 C 
HETATM    6  C11 UNL     1       7.476 -14.188  22.539  1.00  0.00    -0.069 C 
HETATM    7  C12 UNL     1       8.959 -13.846  22.613  1.00  0.00     0.035 C 
HETATM    8  C13 UNL     1       9.540 -14.097  21.236  1.00  0.00     0.010 C 
HETATM    9  C14 UNL     1       9.232 -15.469  20.752  1.00  0.00     0.002 C 
HETATM   10  C15 UNL     1       8.894 -16.510  21.675  1.00  0.00     0.015 C 
HETATM   11  C16 UNL     1       8.307 -15.291  19.488  1.00  0.00     0.020 C 
HETATM   12  C17 UNL     1       9.323 -14.899  18.482  1.00  0.00     0.024 C 
HETATM   13  C18 UNL     1       7.257 -14.368  19.889  1.00  0.00    -0.021 A 
HETATM   14  C19 UNL     1       6.901 -14.000  21.218  1.00  0.00    -0.025 A 
HETATM   15  C20 UNL     1       5.790 -13.164  21.401  1.00  0.00     0.015 A 
HETATM   16  C21 UNL     1       5.018 -12.667  20.392  1.00  0.00     0.038 A 
HETATM   17  C22 UNL     1       5.356 -13.007  19.127  1.00  0.00     0.078 A 
HETATM   18  C23 UNL     1       6.465 -13.846  18.898  1.00  0.00     0.027 A 
HETATM   19  C25 UNL     1       7.913 -16.733  19.235  1.00  0.00     0.071 C 
HETATM   20  C26 UNL     1       7.379 -17.191  17.959  1.00  0.00     0.047 C 
ENDROOT
BRANCH   1  21
HETATM   21  C5  UNL     1       6.188 -18.456  19.911  1.00  0.00     0.036 C 
BRANCH  21  22
HETATM   22  C4  UNL     1       4.744 -18.449  20.248  1.00  0.00    -0.013 C 
HETATM   23  C2  UNL     1       3.993 -19.502  20.090  1.00  0.00    -0.030 C 
HETATM   24  C3  UNL     1       4.469 -20.782  19.525  1.00  0.00     0.055 C 
BRANCH  23  25
HETATM   25  S1  UNL     1       2.245 -19.401  20.532  1.00  0.00    -0.140 SA
HETATM   26  C1  UNL     1       1.858 -20.544  21.885  1.00  0.00     0.095 C 
ENDBRANCH  23  25
ENDBRANCH  21  22
ENDBRANCH   1  21
BRANCH  19  27
HETATM   27  O3  UNL     1       9.157 -17.437  19.369  1.00  0.00    -0.389 OA
ATOM     28  H3  UNL     1       9.681 -16.997  20.028  1.00  0.00     0.210 HD
ENDBRANCH  19  27
BRANCH  18  29
HETATM   29  C24 UNL     1       6.765 -14.022  17.535  1.00  0.00     0.146 C 
BRANCH  29  30
HETATM   30  O2  UNL     1       7.060 -12.995  16.785  1.00  0.00    -0.372 OA
ATOM     31  H2  UNL     1       7.658 -12.327  17.098  1.00  0.00     0.216 HD
ENDBRANCH  29  30
ENDBRANCH  18  29
BRANCH  17  32
HETATM   32  O1  UNL     1       4.592 -12.520  18.032  1.00  0.00    -0.360 OA
ATOM     33  H1  UNL     1       4.965 -11.874  17.444  1.00  0.00     0.217 HD
ENDBRANCH  17  32
TORSDOF 7
ENDMDL
MODEL 2
REMARK VINA RESULT: -6.265121837      1.488      2.002
REMARK  7 active torsions:
REMARK  status: ('A' for Active; 'I' for Inactive)
REMARK    1  A    between atoms: S1_2  and  C2_3 
REMARK    2  A    between atoms: C4_5  and  C5_6 
REMARK    3  A    between atoms: C5_6  and  C6_7 
REMARK    4  A    between atoms: C22_23  and  O1_24 
REMARK    5  A    between atoms: C23_26  and  C24_27 
REMARK    6  A    between atoms: C24_27  and  O2_28 
REMARK    7  A    between atoms: C25_30  and  O3_32 
ROOT
HETATM    1  C6  UNL     1       7.354 -17.552  19.179  1.00  0.00     0.032 C 
HETATM    2  C7  UNL     1       8.639 -17.755  19.907  1.00  0.00    -0.037 C 
HETATM    3  C8  UNL     1       9.352 -19.039  19.532  1.00  0.00     0.015 C 
HETATM    4  C9  UNL     1       8.277 -17.930  21.369  1.00  0.00     0.014 C 
HETATM    5  C10 UNL     1       8.958 -17.003  22.300  1.00  0.00     0.036 C 
HETATM    6  C11 UNL     1       8.690 -15.547  22.146  1.00  0.00    -0.069 C 
HETATM    7  C12 UNL     1       9.883 -14.702  21.715  1.00  0.00     0.035 C 
HETATM    8  C13 UNL     1       9.582 -14.192  20.320  1.00  0.00     0.010 C 
HETATM    9  C14 UNL     1       9.226 -15.301  19.395  1.00  0.00     0.002 C 
HETATM   10  C15 UNL     1       9.622 -16.647  19.682  1.00  0.00     0.015 C 
HETATM   11  C16 UNL     1       7.725 -15.059  18.977  1.00  0.00     0.020 C 
HETATM   12  C17 UNL     1       7.908 -13.967  17.991  1.00  0.00     0.024 C 
HETATM   13  C18 UNL     1       6.998 -14.834  20.216  1.00  0.00    -0.021 A 
HETATM   14  C19 UNL     1       7.437 -15.138  21.536  1.00  0.00    -0.025 A 
HETATM   15  C20 UNL     1       6.544 -14.932  22.597  1.00  0.00     0.015 A 
HETATM   16  C21 UNL     1       5.276 -14.452  22.462  1.00  0.00     0.038 A 
HETATM   17  C22 UNL     1       4.855 -14.153  21.211  1.00  0.00     0.078 A 
HETATM   18  C23 UNL     1       5.719 -14.346  20.115  1.00  0.00     0.027 A 
HETATM   19  C25 UNL     1       7.443 -16.345  18.223  1.00  0.00     0.071 C 
HETATM   20  C26 UNL     1       6.330 -16.484  17.293  1.00  0.00     0.047 C 
ENDROOT
BRANCH   1  21
HETATM   21  C5  UNL     1       6.666 -18.722  18.597  1.00  0.00     0.036 C 
BRANCH  21  22
HETATM   22  C4  UNL     1       5.537 -19.260  19.394  1.00  0.00    -0.013 C 
HETATM   23  C2  UNL     1       4.656 -20.072  18.883  1.00  0.00    -0.030 C 
HETATM   24  C3  UNL     1       4.649 -20.504  17.469  1.00  0.00     0.055 C 
BRANCH  23  25
HETATM   25  S1  UNL     1       3.317 -20.680  19.931  1.00  0.00    -0.140 SA
HETATM   26  C1  UNL     1       2.295 -19.307  20.529  1.00  0.00     0.095 C 
ENDBRANCH  23  25
ENDBRANCH  21  22
ENDBRANCH   1  21
BRANCH  19  27
HETATM   27  O3  UNL     1       8.610 -16.500  17.402  1.00  0.00    -0.389 OA
ATOM     28  H3  UNL     1       9.021 -15.650  17.299  1.00  0.00     0.210 HD
ENDBRANCH  19  27
BRANCH  18  29
HETATM   29  C24 UNL     1       5.191 -13.888  18.895  1.00  0.00     0.146 C 
BRANCH  29  30
HETATM   30  O2  UNL     1       4.784 -12.653  18.772  1.00  0.00    -0.372 OA
ATOM     31  H2  UNL     1       3.859 -12.443  18.829  1.00  0.00     0.216 HD
ENDBRANCH  29  30
ENDBRANCH  18  29
BRANCH  17  32
HETATM   32  O1  UNL     1       3.543 -13.647  21.005  1.00  0.00    -0.360 OA
ATOM     33  H1  UNL     1       2.932 -13.602  21.730  1.00  0.00     0.217 HD
ENDBRANCH  17  32
TORSDOF 7
ENDMDL
MODEL 3
REMARK VINA RESULT: -6.166776681      3.124      6.014
REMARK  7 active torsions:
REMARK  status: ('A' for Active; 'I' for Inactive)
REMARK    1  A    between atoms: S1_2  and  C2_3 
REMARK    2  A    between atoms: C4_5  and  C5_6 
REMARK    3  A    between atoms: C5_6  and  C6_7 
REMARK    4  A    between atoms: C22_23  and  O1_24 
REMARK    5  A    between atoms: C23_26  and  C24_27 
REMARK    6  A    between atoms: C24_27  and  O2_28 
REMARK    7  A    between atoms: C25_30  and  O3_32 
ROOT
HETATM    1  C6  UNL     1       7.674 -13.961  22.688  1.00  0.00     0.032 C 
HETATM    2  C7  UNL     1       8.265 -13.347  21.464  1.00  0.00    -0.037 C 
HETATM    3  C8  UNL     1       8.673 -11.899  21.649  1.00  0.00     0.015 C 
HETATM    4  C9  UNL     1       7.154 -13.304  20.432  1.00  0.00     0.014 C 
HETATM    5  C10 UNL     1       7.471 -13.957  19.142  1.00  0.00     0.036 C 
HETATM    6  C11 UNL     1       7.747 -15.419  19.156  1.00  0.00    -0.069 C 
HETATM    7  C12 UNL     1       9.168 -15.822  18.783  1.00  0.00     0.035 C 
HETATM    8  C13 UNL     1       9.805 -16.400  20.030  1.00  0.00     0.010 C 
HETATM    9  C14 UNL     1       9.695 -15.470  21.185  1.00  0.00     0.002 C 
HETATM   10  C15 UNL     1       9.483 -14.069  20.975  1.00  0.00     0.015 C 
HETATM   11  C16 UNL     1       8.780 -16.192  22.246  1.00  0.00     0.020 C 
HETATM   12  C17 UNL     1       9.753 -17.160  22.804  1.00  0.00     0.024 C 
HETATM   13  C18 UNL     1       7.608 -16.647  21.516  1.00  0.00    -0.021 A 
HETATM   14  C19 UNL     1       7.179 -16.217  20.228  1.00  0.00    -0.025 A 
HETATM   15  C20 UNL     1       5.961 -16.709  19.734  1.00  0.00     0.015 A 
HETATM   16  C21 UNL     1       5.150 -17.580  20.399  1.00  0.00     0.038 A 
HETATM   17  C22 UNL     1       5.556 -17.998  21.620  1.00  0.00     0.078 A 
HETATM   18  C23 UNL     1       6.772 -17.529  22.154  1.00  0.00     0.027 A 
HETATM   19  C25 UNL     1       8.589 -15.070  23.248  1.00  0.00     0.071 C 
HETATM   20  C26 UNL     1       8.148 -15.304  24.617  1.00  0.00     0.047 C 
ENDROOT
BRANCH   1  21
HETATM   21  C5  UNL     1       7.101 -13.083  23.726  1.00  0.00     0.036 C 
BRANCH  21  22
HETATM   22  C4  UNL     1       5.669 -12.736  23.549  1.00  0.00    -0.013 C 
HETATM   23  C2  UNL     1       5.235 -11.513  23.667  1.00  0.00    -0.030 C 
HETATM   24  C3  UNL     1       6.088 -10.362  24.031  1.00  0.00     0.055 C 
BRANCH  23  25
HETATM   25  S1  UNL     1       3.475 -11.185  23.428  1.00  0.00    -0.140 SA
HETATM   26  C1  UNL     1       2.883  -9.956  24.621  1.00  0.00     0.095 C 
ENDBRANCH  23  25
ENDBRANCH  21  22
ENDBRANCH   1  21
BRANCH  19  27
HETATM   27  O3  UNL     1       9.914 -14.537  23.392  1.00  0.00    -0.389 OA
ATOM     28  H3  UNL     1       9.846 -13.606  23.569  1.00  0.00     0.210 HD
ENDBRANCH  19  27
BRANCH  18  29
HETATM   29  C24 UNL     1       7.120 -18.134  23.375  1.00  0.00     0.146 C 
BRANCH  29  30
HETATM   30  O2  UNL     1       6.314 -18.065  24.400  1.00  0.00    -0.372 OA
ATOM     31  H2  UNL     1       6.297 -18.761  25.046  1.00  0.00     0.216 HD
ENDBRANCH  29  30
ENDBRANCH  18  29
BRANCH  17  32
HETATM   32  O1  UNL     1       4.755 -18.909  22.361  1.00  0.00    -0.360 OA
ATOM     33  H1  UNL     1       4.784 -18.902  23.311  1.00  0.00     0.217 HD
ENDBRANCH  17  32
TORSDOF 7
ENDMDL
MODEL 4
REMARK VINA RESULT: -6.162741256      1.570      2.529
REMARK  7 active torsions:
REMARK  status: ('A' for Active; 'I' for Inactive)
REMARK    1  A    between atoms: S1_2  and  C2_3 
REMARK    2  A    between atoms: C4_5  and  C5_6 
REMARK    3  A    between atoms: C5_6  and  C6_7 
REMARK    4  A    between atoms: C22_23  and  O1_24 
REMARK    5  A    between atoms: C23_26  and  C24_27 
REMARK    6  A    between atoms: C24_27  and  O2_28 
REMARK    7  A    between atoms: C25_30  and  O3_32 
ROOT
HETATM    1  C6  UNL     1       6.869 -16.272  22.473  1.00  0.00     0.032 C 
HETATM    2  C7  UNL     1       6.494 -15.398  23.622  1.00  0.00    -0.037 C 
HETATM    3  C8  UNL     1       6.238 -16.162  24.906  1.00  0.00     0.015 C 
HETATM    4  C9  UNL     1       5.155 -14.781  23.268  1.00  0.00     0.014 C 
HETATM    5  C10 UNL     1       5.113 -13.302  23.319  1.00  0.00     0.036 C 
HETATM    6  C11 UNL     1       5.993 -12.553  22.381  1.00  0.00    -0.069 C 
HETATM    7  C12 UNL     1       7.101 -11.735  23.033  1.00  0.00     0.035 C 
HETATM    8  C13 UNL     1       8.415 -12.382  22.641  1.00  0.00     0.010 C 
HETATM    9  C14 UNL     1       8.430 -13.834  22.961  1.00  0.00     0.002 C 
HETATM   10  C15 UNL     1       7.539 -14.373  23.944  1.00  0.00     0.015 C 
HETATM   11  C16 UNL     1       8.529 -14.587  21.580  1.00  0.00     0.020 C 
HETATM   12  C17 UNL     1       9.968 -14.387  21.284  1.00  0.00     0.024 C 
HETATM   13  C18 UNL     1       7.503 -14.000  20.732  1.00  0.00    -0.021 A 
HETATM   14  C19 UNL     1       6.398 -13.204  21.148  1.00  0.00    -0.025 A 
HETATM   15  C20 UNL     1       5.461 -12.811  20.182  1.00  0.00     0.015 A 
HETATM   16  C21 UNL     1       5.529 -13.133  18.859  1.00  0.00     0.038 A 
HETATM   17  C22 UNL     1       6.580 -13.883  18.456  1.00  0.00     0.078 A 
HETATM   18  C23 UNL     1       7.546 -14.300  19.393  1.00  0.00     0.027 A 
HETATM   19  C25 UNL     1       8.326 -16.019  22.036  1.00  0.00     0.071 C 
HETATM   20  C26 UNL     1       8.709 -17.166  21.222  1.00  0.00     0.047 C 
ENDROOT
BRANCH   1  21
HETATM   21  C5  UNL     1       6.497 -17.700  22.507  1.00  0.00     0.036 C 
BRANCH  21  22
HETATM   22  C4  UNL     1       5.396 -18.095  21.595  1.00  0.00    -0.013 C 
HETATM   23  C2  UNL     1       5.357 -19.266  21.025  1.00  0.00    -0.030 C 
HETATM   24  C3  UNL     1       6.405 -20.296  21.176  1.00  0.00     0.055 C 
BRANCH  23  25
HETATM   25  S1  UNL     1       3.972 -19.659  19.934  1.00  0.00    -0.140 SA
HETATM   26  C1  UNL     1       2.392 -19.326  20.756  1.00  0.00     0.095 C 
ENDBRANCH  23  25
ENDBRANCH  21  22
ENDBRANCH   1  21
BRANCH  19  27
HETATM   27  O3  UNL     1       9.171 -16.111  23.193  1.00  0.00    -0.389 OA
ATOM     28  H3  UNL     1       8.630 -16.015  23.968  1.00  0.00     0.210 HD
ENDBRANCH  19  27
BRANCH  18  29
HETATM   29  C24 UNL     1       8.636 -14.974  18.815  1.00  0.00     0.146 C 
BRANCH  29  30
HETATM   30  O2  UNL     1       9.393 -14.375  17.935  1.00  0.00    -0.372 OA
ATOM     31  H2  UNL     1      10.176 -14.799  17.606  1.00  0.00     0.216 HD
ENDBRANCH  29  30
ENDBRANCH  18  29
BRANCH  17  32
HETATM   32  O1  UNL     1       6.709 -14.250  17.088  1.00  0.00    -0.360 OA
ATOM     33  H1  UNL     1       6.900 -13.587  16.435  1.00  0.00     0.217 HD
ENDBRANCH  17  32
TORSDOF 7
ENDMDL
MODEL 5
REMARK VINA RESULT: -6.124394788      2.508      4.866
REMARK  7 active torsions:
REMARK  status: ('A' for Active; 'I' for Inactive)
REMARK    1  A    between atoms: S1_2  and  C2_3 
REMARK    2  A    between atoms: C4_5  and  C5_6 
REMARK    3  A    between atoms: C5_6  and  C6_7 
REMARK    4  A    between atoms: C22_23  and  O1_24 
REMARK    5  A    between atoms: C23_26  and  C24_27 
REMARK    6  A    between atoms: C24_27  and  O2_28 
REMARK    7  A    between atoms: C25_30  and  O3_32 
ROOT
HETATM    1  C6  UNL     1       8.225 -14.426  22.402  1.00  0.00     0.032 C 
HETATM    2  C7  UNL     1       7.242 -13.319  22.220  1.00  0.00    -0.037 C 
HETATM    3  C8  UNL     1       7.461 -12.152  23.162  1.00  0.00     0.015 C 
HETATM    4  C9  UNL     1       5.890 -13.882  22.615  1.00  0.00     0.014 C 
HETATM    5  C10 UNL     1       4.833 -13.756  21.586  1.00  0.00     0.036 C 
HETATM    6  C11 UNL     1       5.037 -14.467  20.295  1.00  0.00    -0.069 C 
HETATM    7  C12 UNL     1       5.203 -13.574  19.072  1.00  0.00     0.035 C 
HETATM    8  C13 UNL     1       6.629 -13.748  18.588  1.00  0.00     0.010 C 
HETATM    9  C14 UNL     1       7.611 -13.515  19.679  1.00  0.00     0.002 C 
HETATM   10  C15 UNL     1       7.251 -12.749  20.835  1.00  0.00     0.015 C 
HETATM   11  C16 UNL     1       8.337 -14.893  19.920  1.00  0.00     0.020 C 
HETATM   12  C17 UNL     1       9.258 -14.903  18.759  1.00  0.00     0.024 C 
HETATM   13  C18 UNL     1       7.279 -15.884  20.042  1.00  0.00    -0.021 A 
HETATM   14  C19 UNL     1       5.897 -15.637  20.281  1.00  0.00    -0.025 A 
HETATM   15  C20 UNL     1       5.047 -16.739  20.463  1.00  0.00     0.015 A 
HETATM   16  C21 UNL     1       5.446 -18.042  20.424  1.00  0.00     0.038 A 
HETATM   17  C22 UNL     1       6.757 -18.282  20.189  1.00  0.00     0.078 A 
HETATM   18  C23 UNL     1       7.646 -17.206  20.001  1.00  0.00     0.027 A 
HETATM   19  C25 UNL     1       9.137 -14.566  21.166  1.00  0.00     0.071 C 
HETATM   20  C26 UNL     1      10.281 -15.358  21.597  1.00  0.00     0.047 C 
ENDROOT
BRANCH   1  21
HETATM   21  C5  UNL     1       8.942 -14.544  23.687  1.00  0.00     0.036 C 
BRANCH  21  22
HETATM   22  C4  UNL     1       8.203 -15.238  24.769  1.00  0.00    -0.013 C 
HETATM   23  C2  UNL     1       7.948 -16.515  24.722  1.00  0.00    -0.030 C 
HETATM   24  C3  UNL     1       8.314 -17.392  23.590  1.00  0.00     0.055 C 
BRANCH  23  25
HETATM   25  S1  UNL     1       7.046 -17.276  26.089  1.00  0.00    -0.140 SA
HETATM   26  C1  UNL     1       5.311 -16.751  26.085  1.00  0.00     0.095 C 
ENDBRANCH  23  25
ENDBRANCH  21  22
ENDBRANCH   1  21
BRANCH  19  27
HETATM   27  O3  UNL     1       9.693 -13.278  20.863  1.00  0.00    -0.389 OA
ATOM     28  H3  UNL     1       9.719 -12.766  21.662  1.00  0.00     0.210 HD
ENDBRANCH  19  27
BRANCH  18  29
HETATM   29  C24 UNL     1       8.949 -17.606  19.655  1.00  0.00     0.146 C 
BRANCH  29  30
HETATM   30  O2  UNL     1       9.152 -18.369  18.615  1.00  0.00    -0.372 OA
ATOM     31  H2  UNL     1       9.587 -18.025  17.844  1.00  0.00     0.216 HD
ENDBRANCH  29  30
ENDBRANCH  18  29
BRANCH  17  32
HETATM   32  O1  UNL     1       7.235 -19.620  20.134  1.00  0.00    -0.360 OA
ATOM     33  H1  UNL     1       8.114 -19.797  19.822  1.00  0.00     0.217 HD
ENDBRANCH  17  32
TORSDOF 7
ENDMDL
