MODEL 1
REMARK VINA RESULT: -6.166477129      0.000      0.000
REMARK  15 active torsions:
REMARK  status: ('A' for Active; 'I' for Inactive)
REMARK    1  A    between atoms: C2_2  and  O1_3 
REMARK    2  A    between atoms: O1_3  and  C3_4 
REMARK    3  A    between atoms: C3_4  and  C4_5 
REMARK    4  A    between atoms: C4_5  and  C5_6 
REMARK    5  A    between atoms: C5_6  and  N1_7 
REMARK       I    between atoms: N1_7  and  C6_9 
REMARK    6  A    between atoms: C6_9  and  C7_11 
REMARK    7  A    between atoms: C7_11  and  C8_12 
REMARK    8  A    between atoms: C10_17  and  C11_18 
REMARK    9  A    between atoms: N3_25  and  C18_26 
REMARK       I    between atoms: N3_25  and  C20_28 
REMARK       I    between atoms: C20_28  and  N4_30 
REMARK   10  A    between atoms: N4_30  and  C21_32 
REMARK   11  A    between atoms: N5_36  and  C25_37 
REMARK   12  A    between atoms: C25_37  and  C26_38 
REMARK   13  A    between atoms: C26_38  and  C27_39 
REMARK   14  A    between atoms: C27_39  and  O6_41 
REMARK   15  A    between atoms: O6_41  and  C28_42 
ROOT
HETATM    1  C8  UNL     1      18.508  24.172  13.883  1.00  0.00     0.231 C 
HETATM    2  O3  UNL     1      17.448  25.004  13.534  1.00  0.00    -0.319 OA
HETATM    3  C9  UNL     1      17.286  26.084  12.662  1.00  0.00     0.158 A 
HETATM    4  N2  UNL     1      16.006  26.235  12.281  1.00  0.00    -0.340 N 
ATOM      5  H2  UNL     1      15.289  25.597  12.627  1.00  0.00     0.167 HD
HETATM    6  C10 UNL     1      15.680  27.224  11.448  1.00  0.00     0.011 A 
HETATM    7  C13 UNL     1      16.644  28.080  10.983  1.00  0.00     0.033 A 
HETATM    8  C14 UNL     1      18.015  27.966  11.353  1.00  0.00    -0.042 A 
HETATM    9  C15 UNL     1      18.885  28.937  10.766  1.00  0.00     0.049 C 
HETATM   10  C16 UNL     1      18.294  26.975  12.178  1.00  0.00     0.066 A 
HETATM   11  C17 UNL     1      19.728  26.811  12.569  1.00  0.00     0.131 C 
HETATM   12  N3  UNL     1      20.648  27.777  12.826  1.00  0.00    -0.285 N 
HETATM   13  C20 UNL     1      20.647  28.511  14.063  1.00  0.00     0.324 C 
HETATM   14  O4  UNL     1      21.597  29.374  14.188  1.00  0.00    -0.247 OA
HETATM   15  N4  UNL     1      19.735  28.381  15.112  1.00  0.00    -0.335 N 
ATOM     16  H4  UNL     1      18.965  27.715  15.064  1.00  0.00     0.165 HD
HETATM   17  N5  UNL     1      20.047  25.466  12.180  1.00  0.00    -0.300 N 
HETATM   18  C32 UNL     1      19.688  24.308  12.969  1.00  0.00     0.255 C 
HETATM   19  O7  UNL     1      20.378  23.270  12.943  1.00  0.00    -0.270 OA
ENDROOT
BRANCH   1  20
HETATM   20  C7  UNL     1      18.016  22.729  13.738  1.00  0.00     0.145 C 
BRANCH  20  21
HETATM   21  C6  UNL     1      17.060  22.412  14.805  1.00  0.00     0.220 C 
HETATM   22  N1  UNL     1      16.697  23.413  15.740  1.00  0.00    -0.361 N 
ATOM     23  H1  UNL     1      17.114  24.338  15.648  1.00  0.00     0.162 HD
HETATM   24  O2  UNL     1      16.576  21.257  14.880  1.00  0.00    -0.274 OA
BRANCH  22  25
HETATM   25  C5  UNL     1      15.761  23.183  16.819  1.00  0.00     0.124 C 
BRANCH  25  26
HETATM   26  C4  UNL     1      16.451  23.225  18.156  1.00  0.00     0.046 C 
BRANCH  26  27
HETATM   27  C3  UNL     1      17.758  24.010  18.029  1.00  0.00     0.169 C 
BRANCH  27  28
HETATM   28  O1  UNL     1      18.128  24.396  19.325  1.00  0.00    -0.391 OA
BRANCH  28  29
HETATM   29  C2  UNL     1      17.721  25.714  19.542  1.00  0.00     0.163 C 
HETATM   30  C1  UNL     1      16.963  25.830  20.847  1.00  0.00     0.033 C 
ENDBRANCH  28  29
ENDBRANCH  27  28
ENDBRANCH  26  27
ENDBRANCH  25  26
ENDBRANCH  22  25
ENDBRANCH  20  21
ENDBRANCH   1  20
BRANCH  17  31
HETATM   31  C25 UNL     1      20.681  25.058  10.976  1.00  0.00     0.143 C 
BRANCH  31  32
HETATM   32  C26 UNL     1      19.748  25.073   9.769  1.00  0.00     0.131 C 
BRANCH  32  33
HETATM   33  C27 UNL     1      20.632  25.125   8.561  1.00  0.00     0.261 C 
HETATM   34  O5  UNL     1      20.266  25.848   7.573  1.00  0.00    -0.265 OA
BRANCH  33  35
HETATM   35  O6  UNL     1      21.812  24.441   8.449  1.00  0.00    -0.311 OA
BRANCH  35  36
HETATM   36  C28 UNL     1      21.934  23.118   8.016  1.00  0.00     0.060 C 
HETATM   37  C29 UNL     1      22.230  22.142   9.137  1.00  0.00     0.045 C 
HETATM   38  C30 UNL     1      20.732  22.619   7.248  1.00  0.00     0.045 C 
HETATM   39  C31 UNL     1      23.121  23.004   7.056  1.00  0.00     0.045 C 
ENDBRANCH  35  36
ENDBRANCH  33  35
ENDBRANCH  32  33
ENDBRANCH  31  32
ENDBRANCH  17  31
BRANCH   6  40
HETATM   40  C11 UNL     1      14.254  27.369  11.043  1.00  0.00     0.052 C 
HETATM   41  C12 UNL     1      14.234  27.996   9.671  1.00  0.00     0.011 C 
ENDBRANCH   6  40
BRANCH  12  42
HETATM   42  C18 UNL     1      21.819  28.111  12.035  1.00  0.00     0.131 C 
HETATM   43  C19 UNL     1      23.025  27.286  12.461  1.00  0.00     0.027 C 
ENDBRANCH  12  42
BRANCH  15  44
HETATM   44  C21 UNL     1      19.928  29.235  16.283  1.00  0.00     0.023 C 
HETATM   45  C22 UNL     1      18.969  28.763  17.379  1.00  0.00     0.037 C 
HETATM   46  C23 UNL     1      21.322  29.149  16.829  1.00  0.00     0.037 C 
HETATM   47  C24 UNL     1      19.620  30.653  15.851  1.00  0.00     0.037 C 
ENDBRANCH  15  44
TORSDOF 15
ENDMDL
MODEL 2
REMARK VINA RESULT: -6.057861940      1.010      1.347
REMARK  15 active torsions:
REMARK  status: ('A' for Active; 'I' for Inactive)
REMARK    1  A    between atoms: C2_2  and  O1_3 
REMARK    2  A    between atoms: O1_3  and  C3_4 
REMARK    3  A    between atoms: C3_4  and  C4_5 
REMARK    4  A    between atoms: C4_5  and  C5_6 
REMARK    5  A    between atoms: C5_6  and  N1_7 
REMARK       I    between atoms: N1_7  and  C6_9 
REMARK    6  A    between atoms: C6_9  and  C7_11 
REMARK    7  A    between atoms: C7_11  and  C8_12 
REMARK    8  A    between atoms: C10_17  and  C11_18 
REMARK    9  A    between atoms: N3_25  and  C18_26 
REMARK       I    between atoms: N3_25  and  C20_28 
REMARK       I    between atoms: C20_28  and  N4_30 
REMARK   10  A    between atoms: N4_30  and  C21_32 
REMARK   11  A    between atoms: N5_36  and  C25_37 
REMARK   12  A    between atoms: C25_37  and  C26_38 
REMARK   13  A    between atoms: C26_38  and  C27_39 
REMARK   14  A    between atoms: C27_39  and  O6_41 
REMARK   15  A    between atoms: O6_41  and  C28_42 
ROOT
HETATM    1  C8  UNL     1      18.576  24.153  13.865  1.00  0.00     0.231 C 
HETATM    2  O3  UNL     1      17.516  24.992  13.535  1.00  0.00    -0.319 OA
HETATM    3  C9  UNL     1      17.350  26.085  12.680  1.00  0.00     0.158 A 
HETATM    4  N2  UNL     1      16.068  26.245  12.311  1.00  0.00    -0.340 N 
ATOM      5  H2  UNL     1      15.352  25.604  12.652  1.00  0.00     0.167 HD
HETATM    6  C10 UNL     1      15.739  27.247  11.495  1.00  0.00     0.011 A 
HETATM    7  C13 UNL     1      16.701  28.107  11.035  1.00  0.00     0.033 A 
HETATM    8  C14 UNL     1      18.074  27.984  11.394  1.00  0.00    -0.042 A 
HETATM    9  C15 UNL     1      18.943  28.962  10.815  1.00  0.00     0.049 C 
HETATM   10  C16 UNL     1      18.357  26.981  12.203  1.00  0.00     0.066 A 
HETATM   11  C17 UNL     1      19.793  26.808  12.581  1.00  0.00     0.131 C 
HETATM   12  N3  UNL     1      20.718  27.768  12.845  1.00  0.00    -0.285 N 
HETATM   13  C20 UNL     1      20.727  28.484  14.092  1.00  0.00     0.324 C 
HETATM   14  O4  UNL     1      21.680  29.343  14.223  1.00  0.00    -0.247 OA
HETATM   15  N4  UNL     1      19.823  28.340  15.146  1.00  0.00    -0.335 N 
ATOM     16  H4  UNL     1      19.050  27.677  15.094  1.00  0.00     0.165 HD
HETATM   17  N5  UNL     1      20.106  25.467  12.170  1.00  0.00    -0.300 N 
HETATM   18  C32 UNL     1      19.749  24.299  12.945  1.00  0.00     0.255 C 
HETATM   19  O7  UNL     1      20.437  23.260  12.899  1.00  0.00    -0.270 OA
ENDROOT
BRANCH   1  20
HETATM   20  C7  UNL     1      18.079  22.713  13.703  1.00  0.00     0.145 C 
BRANCH  20  21
HETATM   21  C6  UNL     1      17.162  22.370  14.795  1.00  0.00     0.220 C 
HETATM   22  N1  UNL     1      16.729  23.379  15.690  1.00  0.00    -0.361 N 
ATOM     23  H1  UNL     1      17.070  24.330  15.551  1.00  0.00     0.162 HD
HETATM   24  O2  UNL     1      16.773  21.184  14.928  1.00  0.00    -0.274 OA
BRANCH  22  25
HETATM   25  C5  UNL     1      15.826  23.124  16.790  1.00  0.00     0.124 C 
BRANCH  25  26
HETATM   26  C4  UNL     1      16.542  23.202  18.112  1.00  0.00     0.046 C 
BRANCH  26  27
HETATM   27  C3  UNL     1      17.829  24.013  17.946  1.00  0.00     0.169 C 
BRANCH  27  28
HETATM   28  O1  UNL     1      18.179  24.484  19.220  1.00  0.00    -0.391 OA
BRANCH  28  29
HETATM   29  C2  UNL     1      17.048  24.467  20.038  1.00  0.00     0.163 C 
HETATM   30  C1  UNL     1      16.977  25.726  20.875  1.00  0.00     0.033 C 
ENDBRANCH  28  29
ENDBRANCH  27  28
ENDBRANCH  26  27
ENDBRANCH  25  26
ENDBRANCH  22  25
ENDBRANCH  20  21
ENDBRANCH   1  20
BRANCH  17  31
HETATM   31  C25 UNL     1      20.731  25.076  10.956  1.00  0.00     0.143 C 
BRANCH  31  32
HETATM   32  C26 UNL     1      19.768  25.021   9.774  1.00  0.00     0.131 C 
BRANCH  32  33
HETATM   33  C27 UNL     1      20.148  26.159   8.875  1.00  0.00     0.261 C 
HETATM   34  O5  UNL     1      19.282  26.585   8.038  1.00  0.00    -0.265 OA
BRANCH  33  35
HETATM   35  O6  UNL     1      21.371  26.772   8.896  1.00  0.00    -0.311 OA
BRANCH  35  36
HETATM   36  C28 UNL     1      22.417  26.504   8.008  1.00  0.00     0.060 C 
HETATM   37  C29 UNL     1      22.219  25.230   7.211  1.00  0.00     0.045 C 
HETATM   38  C30 UNL     1      22.698  27.635   7.045  1.00  0.00     0.045 C 
HETATM   39  C31 UNL     1      23.712  26.294   8.796  1.00  0.00     0.045 C 
ENDBRANCH  35  36
ENDBRANCH  33  35
ENDBRANCH  32  33
ENDBRANCH  31  32
ENDBRANCH  17  31
BRANCH   6  40
HETATM   40  C11 UNL     1      14.310  27.401  11.102  1.00  0.00     0.052 C 
HETATM   41  C12 UNL     1      14.282  27.880   9.671  1.00  0.00     0.011 C 
ENDBRANCH   6  40
BRANCH  12  42
HETATM   42  C18 UNL     1      21.884  28.110  12.051  1.00  0.00     0.131 C 
HETATM   43  C19 UNL     1      23.077  27.240  12.420  1.00  0.00     0.027 C 
ENDBRANCH  12  42
BRANCH  15  44
HETATM   44  C21 UNL     1      20.026  29.178  16.328  1.00  0.00     0.023 C 
HETATM   45  C22 UNL     1      18.990  28.773  17.381  1.00  0.00     0.037 C 
HETATM   46  C23 UNL     1      21.386  28.993  16.932  1.00  0.00     0.037 C 
HETATM   47  C24 UNL     1      19.837  30.614  15.890  1.00  0.00     0.037 C 
ENDBRANCH  15  44
TORSDOF 15
ENDMDL
MODEL 3
REMARK VINA RESULT: -6.002748141     14.479     20.271
REMARK  15 active torsions:
REMARK  status: ('A' for Active; 'I' for Inactive)
REMARK    1  A    between atoms: C2_2  and  O1_3 
REMARK    2  A    between atoms: O1_3  and  C3_4 
REMARK    3  A    between atoms: C3_4  and  C4_5 
REMARK    4  A    between atoms: C4_5  and  C5_6 
REMARK    5  A    between atoms: C5_6  and  N1_7 
REMARK       I    between atoms: N1_7  and  C6_9 
REMARK    6  A    between atoms: C6_9  and  C7_11 
REMARK    7  A    between atoms: C7_11  and  C8_12 
REMARK    8  A    between atoms: C10_17  and  C11_18 
REMARK    9  A    between atoms: N3_25  and  C18_26 
REMARK       I    between atoms: N3_25  and  C20_28 
REMARK       I    between atoms: C20_28  and  N4_30 
REMARK   10  A    between atoms: N4_30  and  C21_32 
REMARK   11  A    between atoms: N5_36  and  C25_37 
REMARK   12  A    between atoms: C25_37  and  C26_38 
REMARK   13  A    between atoms: C26_38  and  C27_39 
REMARK   14  A    between atoms: C27_39  and  O6_41 
REMARK   15  A    between atoms: O6_41  and  C28_42 
ROOT
HETATM    1  C8  UNL     1       5.887  17.228  20.440  1.00  0.00     0.231 C 
HETATM    2  O3  UNL     1       5.429  18.339  19.739  1.00  0.00    -0.319 OA
HETATM    3  C9  UNL     1       4.213  19.023  19.655  1.00  0.00     0.158 A 
HETATM    4  N2  UNL     1       4.378  20.298  19.265  1.00  0.00    -0.340 N 
ATOM      5  H2  UNL     1       5.313  20.658  19.072  1.00  0.00     0.167 HD
HETATM    6  C10 UNL     1       3.313  21.090  19.134  1.00  0.00     0.011 A 
HETATM    7  C13 UNL     1       2.058  20.606  19.395  1.00  0.00     0.033 A 
HETATM    8  C14 UNL     1       1.824  19.263  19.810  1.00  0.00    -0.042 A 
HETATM    9  C15 UNL     1       0.454  18.931  20.048  1.00  0.00     0.049 C 
HETATM   10  C16 UNL     1       2.904  18.515  19.928  1.00  0.00     0.066 A 
HETATM   11  C17 UNL     1       2.698  17.106  20.385  1.00  0.00     0.131 C 
HETATM   12  N3  UNL     1       1.690  16.254  20.065  1.00  0.00    -0.285 N 
HETATM   13  C20 UNL     1       1.640  15.590  18.790  1.00  0.00     0.324 C 
HETATM   14  O4  UNL     1       0.646  14.782  18.632  1.00  0.00    -0.247 OA
HETATM   15  N4  UNL     1       2.542  15.737  17.734  1.00  0.00    -0.335 N 
ATOM     16  H4  UNL     1       3.343  16.363  17.806  1.00  0.00     0.165 HD
HETATM   17  N5  UNL     1       3.514  16.996  21.563  1.00  0.00    -0.300 N 
HETATM   18  C32 UNL     1       4.944  16.784  21.518  1.00  0.00     0.255 C 
HETATM   19  O7  UNL     1       5.535  16.179  22.433  1.00  0.00    -0.270 OA
ENDROOT
BRANCH   1  20
HETATM   20  C7  UNL     1       7.182  17.641  21.145  1.00  0.00     0.145 C 
BRANCH  20  21
HETATM   21  C6  UNL     1       8.178  18.071  20.158  1.00  0.00     0.220 C 
HETATM   22  N1  UNL     1       8.358  17.320  18.971  1.00  0.00    -0.361 N 
ATOM     23  H1  UNL     1       7.786  16.488  18.831  1.00  0.00     0.162 HD
HETATM   24  O2  UNL     1       8.861  19.101  20.376  1.00  0.00    -0.274 OA
BRANCH  22  25
HETATM   25  C5  UNL     1       9.316  17.677  17.948  1.00  0.00     0.124 C 
BRANCH  25  26
HETATM   26  C4  UNL     1       8.704  17.594  16.575  1.00  0.00     0.046 C 
BRANCH  26  27
HETATM   27  C3  UNL     1       9.071  16.253  15.936  1.00  0.00     0.169 C 
BRANCH  27  28
HETATM   28  O1  UNL     1       8.365  15.263  16.635  1.00  0.00    -0.391 OA
BRANCH  28  29
HETATM   29  C2  UNL     1       7.212  14.935  15.920  1.00  0.00     0.163 C 
HETATM   30  C1  UNL     1       7.517  14.824  14.441  1.00  0.00     0.033 C 
ENDBRANCH  28  29
ENDBRANCH  27  28
ENDBRANCH  26  27
ENDBRANCH  25  26
ENDBRANCH  22  25
ENDBRANCH  20  21
ENDBRANCH   1  20
BRANCH  17  31
HETATM   31  C25 UNL     1       3.084  17.138  22.910  1.00  0.00     0.143 C 
BRANCH  31  32
HETATM   32  C26 UNL     1       3.581  18.421  23.568  1.00  0.00     0.131 C 
BRANCH  32  33
HETATM   33  C27 UNL     1       2.640  18.698  24.701  1.00  0.00     0.261 C 
HETATM   34  O5  UNL     1       2.320  17.731  25.473  1.00  0.00    -0.265 OA
BRANCH  33  35
HETATM   35  O6  UNL     1       2.101  19.929  24.961  1.00  0.00    -0.311 OA
BRANCH  35  36
HETATM   36  C28 UNL     1       1.111  20.548  24.194  1.00  0.00     0.060 C 
HETATM   37  C29 UNL     1       0.215  21.470  24.998  1.00  0.00     0.045 C 
HETATM   38  C30 UNL     1       1.654  21.316  23.011  1.00  0.00     0.045 C 
HETATM   39  C31 UNL     1       0.178  19.484  23.610  1.00  0.00     0.045 C 
ENDBRANCH  35  36
ENDBRANCH  33  35
ENDBRANCH  32  33
ENDBRANCH  31  32
ENDBRANCH  17  31
BRANCH   6  40
HETATM   40  C11 UNL     1       3.526  22.499  18.700  1.00  0.00     0.052 C 
HETATM   41  C12 UNL     1       2.435  23.334  19.322  1.00  0.00     0.011 C 
ENDBRANCH   6  40
BRANCH  12  42
HETATM   42  C18 UNL     1       0.644  15.758  20.940  1.00  0.00     0.131 C 
HETATM   43  C19 UNL     1       1.083  14.493  21.663  1.00  0.00     0.027 C 
ENDBRANCH  12  42
BRANCH  15  44
HETATM   44  C21 UNL     1       2.293  14.957  16.522  1.00  0.00     0.023 C 
HETATM   45  C22 UNL     1       3.458  15.195  15.557  1.00  0.00     0.037 C 
HETATM   46  C23 UNL     1       2.221  13.485  16.795  1.00  0.00     0.037 C 
HETATM   47  C24 UNL     1       0.985  15.447  15.941  1.00  0.00     0.037 C 
ENDBRANCH  15  44
TORSDOF 15
ENDMDL
MODEL 4
REMARK VINA RESULT: -5.878920405      1.688      2.606
REMARK  15 active torsions:
REMARK  status: ('A' for Active; 'I' for Inactive)
REMARK    1  A    between atoms: C2_2  and  O1_3 
REMARK    2  A    between atoms: O1_3  and  C3_4 
REMARK    3  A    between atoms: C3_4  and  C4_5 
REMARK    4  A    between atoms: C4_5  and  C5_6 
REMARK    5  A    between atoms: C5_6  and  N1_7 
REMARK       I    between atoms: N1_7  and  C6_9 
REMARK    6  A    between atoms: C6_9  and  C7_11 
REMARK    7  A    between atoms: C7_11  and  C8_12 
REMARK    8  A    between atoms: C10_17  and  C11_18 
REMARK    9  A    between atoms: N3_25  and  C18_26 
REMARK       I    between atoms: N3_25  and  C20_28 
REMARK       I    between atoms: C20_28  and  N4_30 
REMARK   10  A    between atoms: N4_30  and  C21_32 
REMARK   11  A    between atoms: N5_36  and  C25_37 
REMARK   12  A    between atoms: C25_37  and  C26_38 
REMARK   13  A    between atoms: C26_38  and  C27_39 
REMARK   14  A    between atoms: C27_39  and  O6_41 
REMARK   15  A    between atoms: O6_41  and  C28_42 
ROOT
HETATM    1  C8  UNL     1      18.831  24.019  13.866  1.00  0.00     0.231 C 
HETATM    2  O3  UNL     1      17.762  24.873  13.609  1.00  0.00    -0.319 OA
HETATM    3  C9  UNL     1      17.562  25.988  12.790  1.00  0.00     0.158 A 
HETATM    4  N2  UNL     1      16.265  26.164  12.488  1.00  0.00    -0.340 N 
ATOM      5  H2  UNL     1      15.562  25.519  12.848  1.00  0.00     0.167 HD
HETATM    6  C10 UNL     1      15.902  27.188  11.715  1.00  0.00     0.011 A 
HETATM    7  C13 UNL     1      16.847  28.054  11.230  1.00  0.00     0.033 A 
HETATM    8  C14 UNL     1      18.235  27.915  11.518  1.00  0.00    -0.042 A 
HETATM    9  C15 UNL     1      19.081  28.902  10.922  1.00  0.00     0.049 C 
HETATM   10  C16 UNL     1      18.550  26.890  12.287  1.00  0.00     0.066 A 
HETATM   11  C17 UNL     1      20.002  26.700  12.590  1.00  0.00     0.131 C 
HETATM   12  N3  UNL     1      20.945  27.647  12.832  1.00  0.00    -0.285 N 
HETATM   13  C20 UNL     1      21.020  28.332  14.095  1.00  0.00     0.324 C 
HETATM   14  O4  UNL     1      21.984  29.182  14.200  1.00  0.00    -0.247 OA
HETATM   15  N4  UNL     1      20.167  28.167  15.188  1.00  0.00    -0.335 N 
ATOM     16  H4  UNL     1      19.388  27.509  15.157  1.00  0.00     0.165 HD
HETATM   17  N5  UNL     1      20.285  25.368  12.131  1.00  0.00    -0.300 N 
HETATM   18  C32 UNL     1      19.959  24.183  12.893  1.00  0.00     0.255 C 
HETATM   19  O7  UNL     1      20.636  23.142  12.787  1.00  0.00    -0.270 OA
ENDROOT
BRANCH   1  20
HETATM   20  C7  UNL     1      18.317  22.587  13.691  1.00  0.00     0.145 C 
BRANCH  20  21
HETATM   21  C6  UNL     1      16.903  22.509  14.075  1.00  0.00     0.220 C 
HETATM   22  N1  UNL     1      15.900  22.757  13.107  1.00  0.00    -0.361 N 
ATOM     23  H1  UNL     1      16.188  22.988  12.156  1.00  0.00     0.162 HD
HETATM   24  O2  UNL     1      16.597  22.224  15.258  1.00  0.00    -0.274 OA
BRANCH  22  25
HETATM   25  C5  UNL     1      14.485  22.698  13.402  1.00  0.00     0.124 C 
BRANCH  25  26
HETATM   26  C4  UNL     1      13.898  21.373  12.997  1.00  0.00     0.046 C 
BRANCH  26  27
HETATM   27  C3  UNL     1      13.170  20.753  14.191  1.00  0.00     0.169 C 
BRANCH  27  28
HETATM   28  O1  UNL     1      12.931  21.790  15.104  1.00  0.00    -0.391 OA
BRANCH  28  29
HETATM   29  C2  UNL     1      12.697  21.242  16.366  1.00  0.00     0.163 C 
HETATM   30  C1  UNL     1      11.327  21.638  16.873  1.00  0.00     0.033 C 
ENDBRANCH  28  29
ENDBRANCH  27  28
ENDBRANCH  26  27
ENDBRANCH  25  26
ENDBRANCH  22  25
ENDBRANCH  20  21
ENDBRANCH   1  20
BRANCH  17  31
HETATM   31  C25 UNL     1      20.847  25.004  10.878  1.00  0.00     0.143 C 
BRANCH  31  32
HETATM   32  C26 UNL     1      19.819  24.941   9.753  1.00  0.00     0.131 C 
BRANCH  32  33
HETATM   33  C27 UNL     1      20.601  24.946   8.474  1.00  0.00     0.261 C 
HETATM   34  O5  UNL     1      20.139  25.609   7.484  1.00  0.00    -0.265 OA
BRANCH  33  35
HETATM   35  O6  UNL     1      21.784  24.281   8.301  1.00  0.00    -0.311 OA
BRANCH  35  36
HETATM   36  C28 UNL     1      21.903  22.938   7.935  1.00  0.00     0.060 C 
HETATM   37  C29 UNL     1      22.179  22.016   9.107  1.00  0.00     0.045 C 
HETATM   38  C30 UNL     1      20.705  22.408   7.179  1.00  0.00     0.045 C 
HETATM   39  C31 UNL     1      23.099  22.769   6.995  1.00  0.00     0.045 C 
ENDBRANCH  35  36
ENDBRANCH  33  35
ENDBRANCH  32  33
ENDBRANCH  31  32
ENDBRANCH  17  31
BRANCH   6  40
HETATM   40  C11 UNL     1      14.457  27.360  11.396  1.00  0.00     0.052 C 
HETATM   41  C12 UNL     1      14.359  27.789   9.953  1.00  0.00     0.011 C 
ENDBRANCH   6  40
BRANCH  12  42
HETATM   42  C18 UNL     1      22.073  28.003  11.991  1.00  0.00     0.131 C 
HETATM   43  C19 UNL     1      23.299  27.169  12.332  1.00  0.00     0.027 C 
ENDBRANCH  12  42
BRANCH  15  44
HETATM   44  C21 UNL     1      20.433  28.973  16.379  1.00  0.00     0.023 C 
HETATM   45  C22 UNL     1      21.790  28.547  16.947  1.00  0.00     0.037 C 
HETATM   46  C23 UNL     1      20.506  30.438  16.072  1.00  0.00     0.037 C 
HETATM   47  C24 UNL     1      19.312  28.697  17.358  1.00  0.00     0.037 C 
ENDBRANCH  15  44
TORSDOF 15
ENDMDL
MODEL 5
REMARK VINA RESULT: -5.864259177      2.290      5.787
REMARK  15 active torsions:
REMARK  status: ('A' for Active; 'I' for Inactive)
REMARK    1  A    between atoms: C2_2  and  O1_3 
REMARK    2  A    between atoms: O1_3  and  C3_4 
REMARK    3  A    between atoms: C3_4  and  C4_5 
REMARK    4  A    between atoms: C4_5  and  C5_6 
REMARK    5  A    between atoms: C5_6  and  N1_7 
REMARK       I    between atoms: N1_7  and  C6_9 
REMARK    6  A    between atoms: C6_9  and  C7_11 
REMARK    7  A    between atoms: C7_11  and  C8_12 
REMARK    8  A    between atoms: C10_17  and  C11_18 
REMARK    9  A    between atoms: N3_25  and  C18_26 
REMARK       I    between atoms: N3_25  and  C20_28 
REMARK       I    between atoms: C20_28  and  N4_30 
REMARK   10  A    between atoms: N4_30  and  C21_32 
REMARK   11  A    between atoms: N5_36  and  C25_37 
REMARK   12  A    between atoms: C25_37  and  C26_38 
REMARK   13  A    between atoms: C26_38  and  C27_39 
REMARK   14  A    between atoms: C27_39  and  O6_41 
REMARK   15  A    between atoms: O6_41  and  C28_42 
ROOT
HETATM    1  C8  UNL     1      19.863  23.740  14.671  1.00  0.00     0.231 C 
HETATM    2  O3  UNL     1      19.840  25.092  15.001  1.00  0.00    -0.319 OA
HETATM    3  C9  UNL     1      19.246  26.232  14.455  1.00  0.00     0.158 A 
HETATM    4  N2  UNL     1      19.077  27.200  15.372  1.00  0.00    -0.340 N 
ATOM      5  H2  UNL     1      19.370  27.049  16.337  1.00  0.00     0.167 HD
HETATM    6  C10 UNL     1      18.522  28.358  15.012  1.00  0.00     0.011 A 
HETATM    7  C13 UNL     1      18.127  28.560  13.715  1.00  0.00     0.033 A 
HETATM    8  C14 UNL     1      18.283  27.570  12.703  1.00  0.00    -0.042 A 
HETATM    9  C15 UNL     1      17.807  27.946  11.408  1.00  0.00     0.049 C 
HETATM   10  C16 UNL     1      18.835  26.440  13.101  1.00  0.00     0.066 A 
HETATM   11  C17 UNL     1      18.992  25.369  12.070  1.00  0.00     0.131 C 
HETATM   12  N3  UNL     1      19.325  25.502  10.759  1.00  0.00    -0.285 N 
HETATM   13  C20 UNL     1      20.678  25.759  10.347  1.00  0.00     0.324 C 
HETATM   14  O4  UNL     1      20.859  25.828   9.072  1.00  0.00    -0.247 OA
HETATM   15  N4  UNL     1      21.786  25.938  11.178  1.00  0.00    -0.335 N 
ATOM     16  H4  UNL     1      21.699  25.895  12.193  1.00  0.00     0.165 HD
HETATM   17  N5  UNL     1      18.287  24.245  12.620  1.00  0.00    -0.300 N 
HETATM   18  C32 UNL     1      18.853  23.373  13.627  1.00  0.00     0.255 C 
HETATM   19  O7  UNL     1      18.517  22.175  13.705  1.00  0.00    -0.270 OA
ENDROOT
BRANCH   1  20
HETATM   20  C7  UNL     1      19.481  22.960  15.932  1.00  0.00     0.145 C 
BRANCH  20  21
HETATM   21  C6  UNL     1      18.454  23.690  16.684  1.00  0.00     0.220 C 
HETATM   22  N1  UNL     1      18.843  24.670  17.631  1.00  0.00    -0.361 N 
ATOM     23  H1  UNL     1      19.838  24.845  17.769  1.00  0.00     0.162 HD
HETATM   24  O2  UNL     1      17.242  23.438  16.482  1.00  0.00    -0.274 OA
BRANCH  22  25
HETATM   25  C5  UNL     1      17.894  25.434  18.411  1.00  0.00     0.124 C 
BRANCH  25  26
HETATM   26  C4  UNL     1      18.145  25.271  19.886  1.00  0.00     0.046 C 
BRANCH  26  27
HETATM   27  C3  UNL     1      16.960  24.544  20.525  1.00  0.00     0.169 C 
BRANCH  27  28
HETATM   28  O1  UNL     1      16.372  23.763  19.519  1.00  0.00    -0.391 OA
BRANCH  28  29
HETATM   29  C2  UNL     1      15.026  23.562  19.827  1.00  0.00     0.163 C 
HETATM   30  C1  UNL     1      14.818  23.549  21.327  1.00  0.00     0.033 C 
ENDBRANCH  28  29
ENDBRANCH  27  28
ENDBRANCH  26  27
ENDBRANCH  25  26
ENDBRANCH  22  25
ENDBRANCH  20  21
ENDBRANCH   1  20
BRANCH  17  31
HETATM   31  C25 UNL     1      16.952  23.855  12.332  1.00  0.00     0.143 C 
BRANCH  31  32
HETATM   32  C26 UNL     1      15.976  24.171  13.461  1.00  0.00     0.131 C 
BRANCH  32  33
HETATM   33  C27 UNL     1      15.095  22.967  13.598  1.00  0.00     0.261 C 
HETATM   34  O5  UNL     1      14.878  22.253  12.561  1.00  0.00    -0.265 OA
BRANCH  33  35
HETATM   35  O6  UNL     1      14.506  22.582  14.772  1.00  0.00    -0.311 OA
BRANCH  35  36
HETATM   36  C28 UNL     1      14.464  21.272  15.256  1.00  0.00     0.060 C 
HETATM   37  C29 UNL     1      13.212  20.519  14.849  1.00  0.00     0.045 C 
HETATM   38  C30 UNL     1      15.668  20.445  14.870  1.00  0.00     0.045 C 
HETATM   39  C31 UNL     1      14.444  21.295  16.786  1.00  0.00     0.045 C 
ENDBRANCH  35  36
ENDBRANCH  33  35
ENDBRANCH  32  33
ENDBRANCH  31  32
ENDBRANCH  17  31
BRANCH   6  40
HETATM   40  C11 UNL     1      18.347  29.414  16.048  1.00  0.00     0.052 C 
HETATM   41  C12 UNL     1      18.908  28.877  17.342  1.00  0.00     0.011 C 
ENDBRANCH   6  40
BRANCH  12  42
HETATM   42  C18 UNL     1      18.477  25.262   9.606  1.00  0.00     0.131 C 
HETATM   43  C19 UNL     1      18.136  26.562   8.892  1.00  0.00     0.027 C 
ENDBRANCH  12  42
BRANCH  15  44
HETATM   44  C21 UNL     1      23.076  26.189  10.537  1.00  0.00     0.023 C 
HETATM   45  C22 UNL     1      24.081  26.576  11.625  1.00  0.00     0.037 C 
HETATM   46  C23 UNL     1      23.610  24.977   9.834  1.00  0.00     0.037 C 
HETATM   47  C24 UNL     1      22.868  27.318   9.550  1.00  0.00     0.037 C 
ENDBRANCH  15  44
TORSDOF 15
ENDMDL
