MODEL 1
REMARK VINA RESULT: -7.038315379      0.000      0.000
REMARK  3 active torsions:
REMARK  status: ('A' for Active; 'I' for Inactive)
REMARK    1  A    between atoms: O1_2  and  C2_3 
REMARK       I    between atoms: C2_3  and  N1_5 
REMARK    2  A    between atoms: C3_6  and  O3_7 
REMARK    3  A    between atoms: N2_12  and  O4_13 
ROOT
HETATM    1  C2  UNL     1      23.302  33.754  46.180  1.00  0.00     0.366 C 
HETATM    2  O2  UNL     1      22.477  34.646  46.501  1.00  0.00    -0.238 OA
HETATM    3  N1  UNL     1      24.492  34.112  45.483  1.00  0.00    -0.276 N 
HETATM    4  C3  UNL     1      24.871  35.456  45.085  1.00  0.00     0.251 C 
HETATM    5  C4  UNL     1      26.358  35.433  45.338  1.00  0.00     0.078 C 
HETATM    6  C5  UNL     1      26.570  35.869  46.781  1.00  0.00     0.039 C 
HETATM    7  C6  UNL     1      27.125  36.352  44.433  1.00  0.00     0.039 C 
HETATM    8  N2  UNL     1      26.734  34.061  45.245  1.00  0.00    -0.158 NA
HETATM    9  C7  UNL     1      25.569  33.268  45.019  1.00  0.00     0.112 C 
HETATM   10  C8  UNL     1      25.333  32.971  43.553  1.00  0.00     0.058 C 
HETATM   11  C9  UNL     1      25.687  31.986  45.778  1.00  0.00     0.058 C 
ENDROOT
BRANCH   1  12
HETATM   12  O1  UNL     1      23.002  32.455  46.529  1.00  0.00    -0.309 OA
HETATM   13  C1  UNL     1      21.781  31.820  46.212  1.00  0.00     0.215 C 
ENDBRANCH   1  12
BRANCH   4  14
HETATM   14  O3  UNL     1      24.216  36.429  45.838  1.00  0.00    -0.374 OA
ATOM     15  H3  UNL     1      23.977  37.185  45.314  1.00  0.00     0.212 HD
ENDBRANCH   4  14
BRANCH   8  16
HETATM   16  O4  UNL     1      27.731  33.828  44.370  1.00  0.00    -0.310 OA
ATOM     17  H4  UNL     1      28.077  32.944  44.409  1.00  0.00     0.237 HD
ENDBRANCH   8  16
TORSDOF 3
ENDMDL
MODEL 2
REMARK VINA RESULT: -6.277405754      2.629      3.524
REMARK  3 active torsions:
REMARK  status: ('A' for Active; 'I' for Inactive)
REMARK    1  A    between atoms: O1_2  and  C2_3 
REMARK       I    between atoms: C2_3  and  N1_5 
REMARK    2  A    between atoms: C3_6  and  O3_7 
REMARK    3  A    between atoms: N2_12  and  O4_13 
ROOT
HETATM    1  C2  UNL     1      26.920  32.044  48.193  1.00  0.00     0.366 C 
HETATM    2  O2  UNL     1      26.490  32.303  49.345  1.00  0.00    -0.238 OA
HETATM    3  N1  UNL     1      26.357  32.707  47.065  1.00  0.00    -0.276 N 
HETATM    4  C3  UNL     1      25.291  33.693  47.104  1.00  0.00     0.251 C 
HETATM    5  C4  UNL     1      25.746  34.664  46.042  1.00  0.00     0.078 C 
HETATM    6  C5  UNL     1      26.635  35.690  46.731  1.00  0.00     0.039 C 
HETATM    7  C6  UNL     1      24.610  35.375  45.367  1.00  0.00     0.039 C 
HETATM    8  N2  UNL     1      26.572  33.902  45.164  1.00  0.00    -0.158 NA
HETATM    9  C7  UNL     1      26.688  32.570  45.665  1.00  0.00     0.112 C 
HETATM   10  C8  UNL     1      25.693  31.616  45.039  1.00  0.00     0.058 C 
HETATM   11  C9  UNL     1      28.077  32.071  45.430  1.00  0.00     0.058 C 
ENDROOT
BRANCH   1  12
HETATM   12  O1  UNL     1      27.933  31.115  48.086  1.00  0.00    -0.309 OA
HETATM   13  C1  UNL     1      28.540  30.487  49.195  1.00  0.00     0.215 C 
ENDBRANCH   1  12
BRANCH   4  14
HETATM   14  O3  UNL     1      25.175  34.288  48.358  1.00  0.00    -0.374 OA
ATOM     15  H3  UNL     1      24.930  33.661  49.029  1.00  0.00     0.212 HD
ENDBRANCH   4  14
BRANCH   8  16
HETATM   16  O4  UNL     1      26.199  33.968  43.872  1.00  0.00    -0.310 OA
ATOM     17  H4  UNL     1      26.466  33.216  43.357  1.00  0.00     0.237 HD
ENDBRANCH   8  16
TORSDOF 3
ENDMDL
MODEL 3
REMARK VINA RESULT: -6.220440319      1.387      1.560
REMARK  3 active torsions:
REMARK  status: ('A' for Active; 'I' for Inactive)
REMARK    1  A    between atoms: O1_2  and  C2_3 
REMARK       I    between atoms: C2_3  and  N1_5 
REMARK    2  A    between atoms: C3_6  and  O3_7 
REMARK    3  A    between atoms: N2_12  and  O4_13 
ROOT
HETATM    1  C2  UNL     1      23.647  33.809  47.035  1.00  0.00     0.366 C 
HETATM    2  O2  UNL     1      22.688  34.559  46.721  1.00  0.00    -0.238 OA
HETATM    3  N1  UNL     1      24.760  33.681  46.155  1.00  0.00    -0.276 N 
HETATM    4  C3  UNL     1      24.914  34.353  44.878  1.00  0.00     0.251 C 
HETATM    5  C4  UNL     1      26.386  34.684  44.891  1.00  0.00     0.078 C 
HETATM    6  C5  UNL     1      26.529  36.046  45.553  1.00  0.00     0.039 C 
HETATM    7  C6  UNL     1      26.990  34.741  43.518  1.00  0.00     0.039 C 
HETATM    8  N2  UNL     1      26.980  33.720  45.759  1.00  0.00    -0.158 NA
HETATM    9  C7  UNL     1      25.958  32.888  46.307  1.00  0.00     0.112 C 
HETATM   10  C8  UNL     1      25.768  31.600  45.533  1.00  0.00     0.058 C 
HETATM   11  C9  UNL     1      26.286  32.573  47.730  1.00  0.00     0.058 C 
ENDROOT
BRANCH   1  12
HETATM   12  O1  UNL     1      23.563  33.140  48.238  1.00  0.00    -0.309 OA
HETATM   13  C1  UNL     1      22.348  32.699  48.806  1.00  0.00     0.215 C 
ENDBRANCH   1  12
BRANCH   4  14
HETATM   14  O3  UNL     1      24.112  35.489  44.784  1.00  0.00    -0.374 OA
ATOM     15  H3  UNL     1      24.598  36.244  44.471  1.00  0.00     0.212 HD
ENDBRANCH   4  14
BRANCH   8  16
HETATM   16  O4  UNL     1      27.998  33.039  45.200  1.00  0.00    -0.310 OA
ATOM     17  H4  UNL     1      27.720  32.304  44.666  1.00  0.00     0.237 HD
ENDBRANCH   8  16
TORSDOF 3
ENDMDL
MODEL 4
REMARK VINA RESULT: -6.164317257      1.741      2.911
REMARK  3 active torsions:
REMARK  status: ('A' for Active; 'I' for Inactive)
REMARK    1  A    between atoms: O1_2  and  C2_3 
REMARK       I    between atoms: C2_3  and  N1_5 
REMARK    2  A    between atoms: C3_6  and  O3_7 
REMARK    3  A    between atoms: N2_12  and  O4_13 
ROOT
HETATM    1  C2  UNL     1      23.691  33.636  47.448  1.00  0.00     0.366 C 
HETATM    2  O2  UNL     1      23.865  33.093  48.568  1.00  0.00    -0.238 OA
HETATM    3  N1  UNL     1      24.782  33.739  46.537  1.00  0.00    -0.276 N 
HETATM    4  C3  UNL     1      26.133  33.264  46.774  1.00  0.00     0.251 C 
HETATM    5  C4  UNL     1      26.501  32.726  45.413  1.00  0.00     0.078 C 
HETATM    6  C5  UNL     1      26.063  31.268  45.380  1.00  0.00     0.039 C 
HETATM    7  C6  UNL     1      27.973  32.801  45.127  1.00  0.00     0.039 C 
HETATM    8  N2  UNL     1      25.682  33.442  44.491  1.00  0.00    -0.158 NA
HETATM    9  C7  UNL     1      24.815  34.315  45.212  1.00  0.00     0.112 C 
HETATM   10  C8  UNL     1      25.359  35.724  45.328  1.00  0.00     0.058 C 
HETATM   11  C9  UNL     1      23.478  34.348  44.546  1.00  0.00     0.058 C 
ENDROOT
BRANCH   1  12
HETATM   12  O1  UNL     1      22.429  34.109  47.160  1.00  0.00    -0.309 OA
HETATM   13  C1  UNL     1      21.242  33.394  47.435  1.00  0.00     0.215 C 
ENDBRANCH   1  12
BRANCH   4  14
HETATM   14  O3  UNL     1      26.178  32.287  47.766  1.00  0.00    -0.374 OA
ATOM     15  H3  UNL     1      26.534  31.467  47.443  1.00  0.00     0.212 HD
ENDBRANCH   4  14
BRANCH   8  16
HETATM   16  O4  UNL     1      26.373  34.048  43.507  1.00  0.00    -0.310 OA
ATOM     17  H4  UNL     1      27.112  33.542  43.189  1.00  0.00     0.237 HD
ENDBRANCH   8  16
TORSDOF 3
ENDMDL
MODEL 5
REMARK VINA RESULT: -6.142797404      1.612      4.070
REMARK  3 active torsions:
REMARK  status: ('A' for Active; 'I' for Inactive)
REMARK    1  A    between atoms: O1_2  and  C2_3 
REMARK       I    between atoms: C2_3  and  N1_5 
REMARK    2  A    between atoms: C3_6  and  O3_7 
REMARK    3  A    between atoms: N2_12  and  O4_13 
ROOT
HETATM    1  C2  UNL     1      26.080  35.752  45.736  1.00  0.00     0.366 C 
HETATM    2  O2  UNL     1      25.337  36.753  45.898  1.00  0.00    -0.238 OA
HETATM    3  N1  UNL     1      25.544  34.442  45.905  1.00  0.00    -0.276 N 
HETATM    4  C3  UNL     1      24.173  34.125  46.260  1.00  0.00     0.251 C 
HETATM    5  C4  UNL     1      23.918  32.909  45.404  1.00  0.00     0.078 C 
HETATM    6  C5  UNL     1      23.390  33.409  44.067  1.00  0.00     0.039 C 
HETATM    7  C6  UNL     1      22.917  31.965  46.004  1.00  0.00     0.039 C 
HETATM    8  N2  UNL     1      25.204  32.337  45.171  1.00  0.00    -0.158 NA
HETATM    9  C7  UNL     1      26.201  33.162  45.772  1.00  0.00     0.112 C 
HETATM   10  C8  UNL     1      26.599  32.694  47.156  1.00  0.00     0.058 C 
HETATM   11  C9  UNL     1      27.408  33.203  44.891  1.00  0.00     0.058 C 
ENDROOT
BRANCH   1  12
HETATM   12  O1  UNL     1      27.396  35.984  45.398  1.00  0.00    -0.309 OA
HETATM   13  C1  UNL     1      27.818  37.059  44.585  1.00  0.00     0.215 C 
ENDBRANCH   1  12
BRANCH   4  14
HETATM   14  O3  UNL     1      23.302  35.174  45.971  1.00  0.00    -0.374 OA
ATOM     15  H3  UNL     1      23.747  36.013  45.952  1.00  0.00     0.212 HD
ENDBRANCH   4  14
BRANCH   8  16
HETATM   16  O4  UNL     1      25.291  31.038  45.512  1.00  0.00    -0.310 OA
ATOM     17  H4  UNL     1      26.183  30.733  45.635  1.00  0.00     0.237 HD
ENDBRANCH   8  16
TORSDOF 3
ENDMDL
