MODEL 1
REMARK VINA RESULT: -6.510835138      0.000      0.000
REMARK  3 active torsions:
REMARK  status: ('A' for Active; 'I' for Inactive)
REMARK    1  A    between atoms: C5_5  and  C6_6 
REMARK    2  A    between atoms: C10_10  and  O1_11 
REMARK    3  A    between atoms: C12_14  and  O2_15 
ROOT
HETATM    1  C1  UNL     1      10.683  18.680 -16.528  1.00  0.00     0.021 C 
HETATM    2  C2  UNL     1      10.911  19.124 -15.094  1.00  0.00    -0.005 C 
HETATM    3  C3  UNL     1      12.213  18.556 -14.551  1.00  0.00     0.021 C 
HETATM    4  C4  UNL     1       9.766  18.787 -14.212  1.00  0.00    -0.042 C 
HETATM    5  C5  UNL     1       8.838  17.892 -14.430  1.00  0.00     0.006 C 
HETATM    6  C12 UNL     1       9.878  19.661 -13.034  1.00  0.00     0.149 C 
HETATM    7  C13 UNL     1      10.651  20.857 -13.507  1.00  0.00     0.057 C 
HETATM    8  C14 UNL     1      10.980  20.615 -14.968  1.00  0.00     0.097 C 
HETATM    9 CL1  UNL     1       9.800  21.408 -16.046  1.00  0.00    -0.124 Cl
ENDROOT
BRANCH   5  10
HETATM   10  C6  UNL     1       7.786  17.676 -13.477  1.00  0.00     0.003 C 
HETATM   11  C7  UNL     1       7.457  16.487 -13.003  1.00  0.00    -0.077 C 
HETATM   12  C8  UNL     1       6.373  16.258 -12.021  1.00  0.00     0.037 C 
HETATM   13  C11 UNL     1       8.049  15.162 -13.313  1.00  0.00     0.065 C 
HETATM   14  C9  UNL     1       6.983  15.123 -11.186  1.00  0.00     0.036 C 
HETATM   15  C10 UNL     1       7.487  14.218 -12.302  1.00  0.00     0.122 C 
BRANCH  15  16
HETATM   16  O1  UNL     1       8.487  13.359 -11.858  1.00  0.00    -0.395 OA
ATOM     17  H1  UNL     1       9.329  13.566 -12.248  1.00  0.00     0.210 HD
ENDBRANCH  15  16
ENDBRANCH   5  10
BRANCH   6  18
HETATM   18  O2  UNL     1      10.556  18.986 -12.005  1.00  0.00    -0.391 OA
ATOM     19  H2  UNL     1      10.097  19.110 -11.182  1.00  0.00     0.210 HD
ENDBRANCH   6  18
TORSDOF 3
ENDMDL
MODEL 2
REMARK VINA RESULT: -6.109811608      1.272      1.542
REMARK  3 active torsions:
REMARK  status: ('A' for Active; 'I' for Inactive)
REMARK    1  A    between atoms: C5_5  and  C6_6 
REMARK    2  A    between atoms: C10_10  and  O1_11 
REMARK    3  A    between atoms: C12_14  and  O2_15 
ROOT
HETATM    1  C1  UNL     1      11.058  18.796 -16.283  1.00  0.00     0.021 C 
HETATM    2  C2  UNL     1      10.942  19.275 -14.847  1.00  0.00    -0.005 C 
HETATM    3  C3  UNL     1      11.849  18.469 -13.931  1.00  0.00     0.021 C 
HETATM    4  C4  UNL     1       9.539  19.264 -14.363  1.00  0.00    -0.042 C 
HETATM    5  C5  UNL     1       8.537  18.586 -14.859  1.00  0.00     0.006 C 
HETATM    6  C12 UNL     1       9.493  20.170 -13.204  1.00  0.00     0.149 C 
HETATM    7  C13 UNL     1      10.629  21.128 -13.412  1.00  0.00     0.057 C 
HETATM    8  C14 UNL     1      11.316  20.718 -14.700  1.00  0.00     0.097 C 
HETATM    9 CL1  UNL     1      10.735  21.678 -16.087  1.00  0.00    -0.124 Cl
ENDROOT
BRANCH   5  10
HETATM   10  C6  UNL     1       7.228  18.677 -14.279  1.00  0.00     0.003 C 
HETATM   11  C7  UNL     1       6.784  17.865 -13.335  1.00  0.00    -0.077 C 
HETATM   12  C8  UNL     1       5.434  17.953 -12.732  1.00  0.00     0.037 C 
HETATM   13  C11 UNL     1       7.479  16.729 -12.679  1.00  0.00     0.065 C 
HETATM   14  C9  UNL     1       5.748  17.570 -11.280  1.00  0.00     0.036 C 
HETATM   15  C10 UNL     1       6.627  16.349 -11.514  1.00  0.00     0.122 C 
BRANCH  15  16
HETATM   16  O1  UNL     1       7.434  16.075 -10.414  1.00  0.00    -0.395 OA
ATOM     17  H1  UNL     1       7.736  15.175 -10.414  1.00  0.00     0.210 HD
ENDBRANCH  15  16
ENDBRANCH   5  10
BRANCH   6  18
HETATM   18  O2  UNL     1       9.652  19.433 -12.019  1.00  0.00    -0.391 OA
ATOM     19  H2  UNL     1       9.203  19.872 -11.305  1.00  0.00     0.210 HD
ENDBRANCH   6  18
TORSDOF 3
ENDMDL
MODEL 3
REMARK VINA RESULT: -6.074856586      4.759      6.510
REMARK  3 active torsions:
REMARK  status: ('A' for Active; 'I' for Inactive)
REMARK    1  A    between atoms: C5_5  and  C6_6 
REMARK    2  A    between atoms: C10_10  and  O1_11 
REMARK    3  A    between atoms: C12_14  and  O2_15 
ROOT
HETATM    1  C1  UNL     1      11.916  24.599 -12.611  1.00  0.00     0.021 C 
HETATM    2  C2  UNL     1      12.180  23.268 -11.930  1.00  0.00    -0.005 C 
HETATM    3  C3  UNL     1      13.653  23.119 -11.583  1.00  0.00     0.021 C 
HETATM    4  C4  UNL     1      11.696  22.119 -12.734  1.00  0.00    -0.042 C 
HETATM    5  C5  UNL     1      11.440  22.104 -14.016  1.00  0.00     0.006 C 
HETATM    6  C12 UNL     1      11.558  20.988 -11.801  1.00  0.00     0.149 C 
HETATM    7  C13 UNL     1      11.352  21.617 -10.454  1.00  0.00     0.057 C 
HETATM    8  C14 UNL     1      11.399  23.118 -10.660  1.00  0.00     0.097 C 
HETATM    9 CL1  UNL     1       9.762  23.808 -10.826  1.00  0.00    -0.124 Cl
ENDROOT
BRANCH   5  10
HETATM   10  C6  UNL     1      10.975  20.908 -14.659  1.00  0.00     0.003 C 
HETATM   11  C7  UNL     1      10.895  20.762 -15.971  1.00  0.00    -0.077 C 
HETATM   12  C8  UNL     1      10.416  19.531 -16.640  1.00  0.00     0.037 C 
HETATM   13  C11 UNL     1      11.242  21.731 -17.040  1.00  0.00     0.065 C 
HETATM   14  C9  UNL     1      11.334  19.503 -17.870  1.00  0.00     0.036 C 
HETATM   15  C10 UNL     1      11.222  20.956 -18.315  1.00  0.00     0.122 C 
BRANCH  15  16
HETATM   16  O1  UNL     1      12.297  21.336 -19.111  1.00  0.00    -0.395 OA
ATOM     17  H1  UNL     1      12.358  20.808 -19.898  1.00  0.00     0.210 HD
ENDBRANCH  15  16
ENDBRANCH   5  10
BRANCH   6  18
HETATM   18  O2  UNL     1      12.724  20.205 -11.830  1.00  0.00    -0.391 OA
ATOM     19  H2  UNL     1      13.183  20.282 -11.002  1.00  0.00     0.210 HD
ENDBRANCH   6  18
TORSDOF 3
ENDMDL
MODEL 4
REMARK VINA RESULT: -6.013693626      2.847      5.734
REMARK  3 active torsions:
REMARK  status: ('A' for Active; 'I' for Inactive)
REMARK    1  A    between atoms: C5_5  and  C6_6 
REMARK    2  A    between atoms: C10_10  and  O1_11 
REMARK    3  A    between atoms: C12_14  and  O2_15 
ROOT
HETATM    1  C1  UNL     1       8.907  19.991 -15.945  1.00  0.00     0.021 C 
HETATM    2  C2  UNL     1       9.716  19.278 -14.876  1.00  0.00    -0.005 C 
HETATM    3  C3  UNL     1       8.810  18.486 -13.946  1.00  0.00     0.021 C 
HETATM    4  C4  UNL     1      10.588  20.208 -14.117  1.00  0.00    -0.042 C 
HETATM    5  C5  UNL     1      10.461  21.506 -14.017  1.00  0.00     0.006 C 
HETATM    6  C12 UNL     1      11.633  19.382 -13.492  1.00  0.00     0.149 C 
HETATM    7  C13 UNL     1      11.735  18.160 -14.358  1.00  0.00     0.057 C 
HETATM    8  C14 UNL     1      10.709  18.321 -15.463  1.00  0.00     0.097 C 
HETATM    9 CL1  UNL     1      11.444  18.986 -16.947  1.00  0.00    -0.124 Cl
ENDROOT
BRANCH   5  10
HETATM   10  C6  UNL     1      11.388  22.279 -13.241  1.00  0.00     0.003 C 
HETATM   11  C7  UNL     1      11.159  22.672 -12.000  1.00  0.00    -0.077 C 
HETATM   12  C8  UNL     1      12.112  23.469 -11.194  1.00  0.00     0.037 C 
HETATM   13  C11 UNL     1       9.967  22.431 -11.150  1.00  0.00     0.065 C 
HETATM   14  C9  UNL     1      11.879  22.865  -9.802  1.00  0.00     0.036 C 
HETATM   15  C10 UNL     1      10.356  22.853  -9.772  1.00  0.00     0.122 C 
BRANCH  15  16
HETATM   16  O1  UNL     1       9.865  21.939  -8.846  1.00  0.00    -0.395 OA
ATOM     17  H1  UNL     1      10.289  21.093  -8.928  1.00  0.00     0.210 HD
ENDBRANCH  15  16
ENDBRANCH   5  10
BRANCH   6  18
HETATM   18  O2  UNL     1      11.255  19.051 -12.180  1.00  0.00    -0.391 OA
ATOM     19  H2  UNL     1      11.521  18.160 -11.983  1.00  0.00     0.210 HD
ENDBRANCH   6  18
TORSDOF 3
ENDMDL
MODEL 5
REMARK VINA RESULT: -5.947516663      4.135      6.241
REMARK  3 active torsions:
REMARK  status: ('A' for Active; 'I' for Inactive)
REMARK    1  A    between atoms: C5_5  and  C6_6 
REMARK    2  A    between atoms: C10_10  and  O1_11 
REMARK    3  A    between atoms: C12_14  and  O2_15 
ROOT
HETATM    1  C1  UNL     1      13.938  24.226 -11.212  1.00  0.00     0.021 C 
HETATM    2  C2  UNL     1      12.651  23.795 -10.533  1.00  0.00    -0.005 C 
HETATM    3  C3  UNL     1      12.772  23.904  -9.021  1.00  0.00     0.021 C 
HETATM    4  C4  UNL     1      12.226  22.434 -10.943  1.00  0.00    -0.042 C 
HETATM    5  C5  UNL     1      12.971  21.502 -11.478  1.00  0.00     0.006 C 
HETATM    6  C12 UNL     1      10.791  22.334 -10.630  1.00  0.00     0.149 C 
HETATM    7  C13 UNL     1      10.289  23.748 -10.644  1.00  0.00     0.057 C 
HETATM    8  C14 UNL     1      11.482  24.633 -10.953  1.00  0.00     0.097 C 
HETATM    9 CL1  UNL     1      11.568  25.032 -12.691  1.00  0.00    -0.124 Cl
ENDROOT
BRANCH   5  10
HETATM   10  C6  UNL     1      12.415  20.225 -11.824  1.00  0.00     0.003 C 
HETATM   11  C7  UNL     1      11.702  20.004 -12.914  1.00  0.00    -0.077 C 
HETATM   12  C8  UNL     1      11.127  18.689 -13.277  1.00  0.00     0.037 C 
HETATM   13  C11 UNL     1      11.318  20.956 -13.987  1.00  0.00     0.065 C 
HETATM   14  C9  UNL     1      11.286  18.721 -14.803  1.00  0.00     0.036 C 
HETATM   15  C10 UNL     1      10.762  20.122 -15.092  1.00  0.00     0.122 C 
BRANCH  15  16
HETATM   16  O1  UNL     1      11.219  20.601 -16.315  1.00  0.00    -0.395 OA
ATOM     17  H1  UNL     1      10.620  21.236 -16.691  1.00  0.00     0.210 HD
ENDBRANCH  15  16
ENDBRANCH   5  10
BRANCH   6  18
HETATM   18  O2  UNL     1      10.622  21.742  -9.366  1.00  0.00    -0.391 OA
ATOM     19  H2  UNL     1      10.920  20.840  -9.392  1.00  0.00     0.210 HD
ENDBRANCH   6  18
TORSDOF 3
ENDMDL
