MODEL 1
REMARK VINA RESULT: -6.140353622      0.000      0.000
REMARK  3 active torsions:
REMARK  status: ('A' for Active; 'I' for Inactive)
REMARK    1  A    between atoms: C2_2  and  C4_4 
REMARK    2  A    between atoms: C9_10  and  O1_11 
REMARK    3  A    between atoms: C15_18  and  O2_19 
ROOT
HETATM    1  C4  UNL     1      11.422  19.436 -13.774  1.00  0.00     0.045 C 
HETATM    2  C5  UNL     1      11.487  20.857 -14.221  1.00  0.00     0.056 C 
HETATM    3  C6  UNL     1      10.395  21.264 -15.188  1.00  0.00     0.112 C 
HETATM    4  F1  UNL     1       9.307  21.619 -14.374  1.00  0.00    -0.242 F 
HETATM    5  C7  UNL     1      10.877  22.460 -15.932  1.00  0.00     0.047 C 
HETATM    6  C8  UNL     1      10.615  22.498 -17.387  1.00  0.00     0.035 C 
HETATM    7  C9  UNL     1       9.405  21.800 -17.870  1.00  0.00     0.122 C 
HETATM    8  C10 UNL     1       8.948  20.627 -17.066  1.00  0.00     0.022 C 
HETATM    9  C11 UNL     1       7.615  20.962 -16.471  1.00  0.00     0.013 C 
HETATM   10  C12 UNL     1       9.971  20.128 -16.093  1.00  0.00     0.000 C 
HETATM   11  C13 UNL     1      11.205  19.738 -16.900  1.00  0.00     0.019 C 
HETATM   12  C14 UNL     1       9.535  18.940 -15.327  1.00  0.00     0.045 C 
HETATM   13  C15 UNL     1      10.003  18.931 -13.878  1.00  0.00     0.127 C 
ENDROOT
BRANCH   1  14
HETATM   14  C2  UNL     1      11.871  19.315 -12.370  1.00  0.00    -0.086 C 
HETATM   15  C1  UNL     1      11.294  20.062 -11.448  1.00  0.00     0.014 C 
HETATM   16  C3  UNL     1      12.951  18.381 -11.946  1.00  0.00     0.043 C 
ENDBRANCH   1  14
BRANCH  13  17
HETATM   17  O2  UNL     1      10.042  17.582 -13.447  1.00  0.00    -0.395 OA
ATOM     18  H2  UNL     1      10.753  17.177 -13.930  1.00  0.00     0.210 HD
ENDBRANCH  13  17
BRANCH   7  19
HETATM   19  O1  UNL     1       9.666  21.440 -19.217  1.00  0.00    -0.395 OA
ATOM     20  H1  UNL     1       8.835  21.157 -19.581  1.00  0.00     0.210 HD
ENDBRANCH   7  19
TORSDOF 3
ENDMDL
MODEL 2
REMARK VINA RESULT: -6.062060471      3.017      5.279
REMARK  3 active torsions:
REMARK  status: ('A' for Active; 'I' for Inactive)
REMARK    1  A    between atoms: C2_2  and  C4_4 
REMARK    2  A    between atoms: C9_10  and  O1_11 
REMARK    3  A    between atoms: C15_18  and  O2_19 
ROOT
HETATM    1  C4  UNL     1      10.633  19.213 -13.262  1.00  0.00     0.045 C 
HETATM    2  C5  UNL     1      10.206  20.625 -13.477  1.00  0.00     0.056 C 
HETATM    3  C6  UNL     1      11.065  21.656 -12.774  1.00  0.00     0.112 C 
HETATM    4  F1  UNL     1      12.132  21.895 -13.654  1.00  0.00    -0.242 F 
HETATM    5  C7  UNL     1      10.249  22.893 -12.626  1.00  0.00     0.047 C 
HETATM    6  C8  UNL     1      10.329  23.600 -11.330  1.00  0.00     0.035 C 
HETATM    7  C9  UNL     1      11.601  23.493 -10.584  1.00  0.00     0.122 C 
HETATM    8  C10 UNL     1      12.394  22.245 -10.796  1.00  0.00     0.022 C 
HETATM    9  C11 UNL     1      13.678  22.619 -11.468  1.00  0.00     0.013 C 
HETATM   10  C12 UNL     1      11.623  21.148 -11.463  1.00  0.00     0.000 C 
HETATM   11  C13 UNL     1      10.422  20.839 -10.575  1.00  0.00     0.019 C 
HETATM   12  C14 UNL     1      12.394  19.898 -11.635  1.00  0.00     0.045 C 
HETATM   13  C15 UNL     1      12.107  19.167 -12.940  1.00  0.00     0.127 C 
ENDROOT
BRANCH   1  14
HETATM   14  C2  UNL     1      10.385  18.407 -14.477  1.00  0.00    -0.086 C 
HETATM   15  C1  UNL     1      10.901  18.806 -15.625  1.00  0.00     0.014 C 
HETATM   16  C3  UNL     1       9.574  17.158 -14.466  1.00  0.00     0.043 C 
ENDBRANCH   1  14
BRANCH  13  17
HETATM   17  O2  UNL     1      12.416  17.798 -12.743  1.00  0.00    -0.395 OA
ATOM     18  H2  UNL     1      13.364  17.751 -12.694  1.00  0.00     0.210 HD
ENDBRANCH  13  17
BRANCH   7  19
HETATM   19  O1  UNL     1      11.275  23.678  -9.215  1.00  0.00    -0.395 OA
ATOM     20  H1  UNL     1      11.671  24.502  -8.957  1.00  0.00     0.210 HD
ENDBRANCH   7  19
TORSDOF 3
ENDMDL
MODEL 3
REMARK VINA RESULT: -6.061858501      4.438      6.146
REMARK  3 active torsions:
REMARK  status: ('A' for Active; 'I' for Inactive)
REMARK    1  A    between atoms: C2_2  and  C4_4 
REMARK    2  A    between atoms: C9_10  and  O1_11 
REMARK    3  A    between atoms: C15_18  and  O2_19 
ROOT
HETATM    1  C4  UNL     1      11.116  21.403 -12.171  1.00  0.00     0.045 C 
HETATM    2  C5  UNL     1      12.095  22.144 -13.017  1.00  0.00     0.056 C 
HETATM    3  C6  UNL     1      12.992  23.096 -12.254  1.00  0.00     0.112 C 
HETATM    4  F1  UNL     1      14.057  22.301 -11.800  1.00  0.00    -0.242 F 
HETATM    5  C7  UNL     1      13.498  24.108 -13.222  1.00  0.00     0.047 C 
HETATM    6  C8  UNL     1      13.524  25.516 -12.770  1.00  0.00     0.035 C 
HETATM    7  C9  UNL     1      13.720  25.754 -11.325  1.00  0.00     0.122 C 
HETATM    8  C10 UNL     1      13.222  24.690 -10.402  1.00  0.00     0.022 C 
HETATM    9  C11 UNL     1      14.404  24.088  -9.707  1.00  0.00     0.013 C 
HETATM   10  C12 UNL     1      12.300  23.708 -11.055  1.00  0.00     0.000 C 
HETATM   11  C13 UNL     1      11.116  24.499 -11.601  1.00  0.00     0.019 C 
HETATM   12  C14 UNL     1      11.774  22.679 -10.133  1.00  0.00     0.045 C 
HETATM   13  C15 UNL     1      11.636  21.298 -10.758  1.00  0.00     0.127 C 
ENDROOT
BRANCH   1  14
HETATM   14  C2  UNL     1      10.900  20.040 -12.704  1.00  0.00    -0.086 C 
HETATM   15  C1  UNL     1      11.943  19.249 -12.878  1.00  0.00     0.014 C 
HETATM   16  C3  UNL     1       9.551  19.514 -13.054  1.00  0.00     0.043 C 
ENDBRANCH   1  14
BRANCH  13  17
HETATM   17  O2  UNL     1      10.642  20.595 -10.033  1.00  0.00    -0.395 OA
ATOM     18  H2  UNL     1      10.691  19.695 -10.332  1.00  0.00     0.210 HD
ENDBRANCH  13  17
BRANCH   7  19
HETATM   19  O1  UNL     1      13.121  27.010 -11.045  1.00  0.00    -0.395 OA
ATOM     20  H1  UNL     1      13.122  27.099 -10.099  1.00  0.00     0.210 HD
ENDBRANCH   7  19
TORSDOF 3
ENDMDL
MODEL 4
REMARK VINA RESULT: -6.032636143      4.540      6.387
REMARK  3 active torsions:
REMARK  status: ('A' for Active; 'I' for Inactive)
REMARK    1  A    between atoms: C2_2  and  C4_4 
REMARK    2  A    between atoms: C9_10  and  O1_11 
REMARK    3  A    between atoms: C15_18  and  O2_19 
ROOT
HETATM    1  C4  UNL     1      11.164  21.563 -12.288  1.00  0.00     0.045 C 
HETATM    2  C5  UNL     1      12.218  22.488 -12.794  1.00  0.00     0.056 C 
HETATM    3  C6  UNL     1      12.877  23.336 -11.727  1.00  0.00     0.112 C 
HETATM    4  F1  UNL     1      13.902  22.529 -11.208  1.00  0.00    -0.242 F 
HETATM    5  C7  UNL     1      13.467  24.526 -12.401  1.00  0.00     0.047 C 
HETATM    6  C8  UNL     1      13.293  25.833 -11.732  1.00  0.00     0.035 C 
HETATM    7  C9  UNL     1      13.199  25.825 -10.257  1.00  0.00     0.122 C 
HETATM    8  C10 UNL     1      12.629  24.593  -9.633  1.00  0.00     0.022 C 
HETATM    9  C11 UNL     1      13.708  23.939  -8.827  1.00  0.00     0.013 C 
HETATM   10  C12 UNL     1      11.928  23.695 -10.604  1.00  0.00     0.000 C 
HETATM   11  C13 UNL     1      10.803  24.508 -11.236  1.00  0.00     0.019 C 
HETATM   12  C14 UNL     1      11.327  22.496  -9.981  1.00  0.00     0.045 C 
HETATM   13  C15 UNL     1      11.421  21.239 -10.836  1.00  0.00     0.127 C 
ENDROOT
BRANCH   1  14
HETATM   14  C2  UNL     1      11.163  20.305 -13.065  1.00  0.00    -0.086 C 
HETATM   15  C1  UNL     1      10.231  20.120 -13.981  1.00  0.00     0.014 C 
HETATM   16  C3  UNL     1      12.173  19.229 -12.861  1.00  0.00     0.043 C 
ENDBRANCH   1  14
BRANCH  13  17
HETATM   17  O2  UNL     1      10.372  20.372 -10.442  1.00  0.00    -0.395 OA
ATOM     18  H2  UNL     1      10.031  20.730  -9.631  1.00  0.00     0.210 HD
ENDBRANCH  13  17
BRANCH   7  19
HETATM   19  O1  UNL     1      12.457  26.981  -9.901  1.00  0.00    -0.395 OA
ATOM     20  H1  UNL     1      11.552  26.702  -9.824  1.00  0.00     0.210 HD
ENDBRANCH   7  19
TORSDOF 3
ENDMDL
MODEL 5
REMARK VINA RESULT: -5.786604834      4.133      5.858
REMARK  3 active torsions:
REMARK  status: ('A' for Active; 'I' for Inactive)
REMARK    1  A    between atoms: C2_2  and  C4_4 
REMARK    2  A    between atoms: C9_10  and  O1_11 
REMARK    3  A    between atoms: C15_18  and  O2_19 
ROOT
HETATM    1  C4  UNL     1      11.869  20.903 -12.615  1.00  0.00     0.045 C 
HETATM    2  C5  UNL     1      11.778  21.352 -11.197  1.00  0.00     0.056 C 
HETATM    3  C6  UNL     1      11.688  22.853 -11.016  1.00  0.00     0.112 C 
HETATM    4  F1  UNL     1      10.323  23.150 -11.148  1.00  0.00    -0.242 F 
HETATM    5  C7  UNL     1      12.140  23.166  -9.631  1.00  0.00     0.047 C 
HETATM    6  C8  UNL     1      13.027  24.336  -9.462  1.00  0.00     0.035 C 
HETATM    7  C9  UNL     1      12.867  25.446 -10.425  1.00  0.00     0.122 C 
HETATM    8  C10 UNL     1      12.380  25.078 -11.789  1.00  0.00     0.022 C 
HETATM    9  C11 UNL     1      11.032  25.698 -11.985  1.00  0.00     0.013 C 
HETATM   10  C12 UNL     1      12.453  23.611 -12.080  1.00  0.00     0.000 C 
HETATM   11  C13 UNL     1      13.914  23.197 -11.935  1.00  0.00     0.019 C 
HETATM   12  C14 UNL     1      12.012  23.250 -13.444  1.00  0.00     0.045 C 
HETATM   13  C15 UNL     1      11.245  21.937 -13.521  1.00  0.00     0.127 C 
ENDROOT
BRANCH   1  14
HETATM   14  C2  UNL     1      11.159  19.618 -12.797  1.00  0.00    -0.086 C 
HETATM   15  C1  UNL     1       9.874  19.551 -12.502  1.00  0.00     0.014 C 
HETATM   16  C3  UNL     1      11.831  18.389 -13.302  1.00  0.00     0.043 C 
ENDBRANCH   1  14
BRANCH  13  17
HETATM   17  O2  UNL     1      11.387  21.433 -14.837  1.00  0.00    -0.395 OA
ATOM     18  H2  UNL     1      10.832  21.976 -15.384  1.00  0.00     0.210 HD
ENDBRANCH  13  17
BRANCH   7  19
HETATM   19  O1  UNL     1      14.120  26.108 -10.480  1.00  0.00    -0.395 OA
ATOM     20  H1  UNL     1      14.087  26.678 -11.239  1.00  0.00     0.210 HD
ENDBRANCH   7  19
TORSDOF 3
ENDMDL
