MODEL 1
REMARK VINA RESULT: -7.111439524      0.000      0.000
REMARK  10 active torsions:
REMARK  status: ('A' for Active; 'I' for Inactive)
REMARK    1  A    between atoms: C2_2  and  C3_3 
REMARK    2  A    between atoms: C6_8  and  C7_9 
REMARK    3  A    between atoms: C7_9  and  N2_10 
REMARK    4  A    between atoms: C10_14  and  C11_15 
REMARK    5  A    between atoms: C11_15  and  C12_16 
REMARK    6  A    between atoms: C12_16  and  C14_18 
REMARK    7  A    between atoms: C16_23  and  O3_24 
REMARK    8  A    between atoms: C19_30  and  O4_31 
REMARK    9  A    between atoms: C21_34  and  O5_35 
REMARK   10  A    between atoms: C22_37  and  C24_39 
ROOT
HETATM    1  C14 UNL     1      30.040  35.074  10.958  1.00  0.00     0.157 C 
HETATM    2  O2  UNL     1      30.112  36.224  11.736  1.00  0.00    -0.356 OA
HETATM    3  C15 UNL     1      30.347  35.766  13.065  1.00  0.00     0.231 C 
HETATM    4  N3  UNL     1      29.152  35.288  13.621  1.00  0.00    -0.342 N 
ATOM      5  H3  UNL     1      28.426  35.101  12.930  1.00  0.00     0.164 HD
HETATM    6  C16 UNL     1      28.753  35.014  14.957  1.00  0.00     0.160 C 
HETATM    7  C17 UNL     1      29.242  34.003  15.901  1.00  0.00     0.058 C 
HETATM    8  C18 UNL     1      29.906  34.614  17.147  1.00  0.00     0.072 C 
HETATM    9  N4  UNL     1      29.187  32.757  15.862  1.00  0.00    -0.341 N 
ATOM     10  H4  UNL     1      29.646  32.438  16.715  1.00  0.00     0.167 HD
HETATM   11  C19 UNL     1      28.806  31.639  15.222  1.00  0.00     0.118 C 
HETATM   12  C20 UNL     1      28.740  31.467  13.754  1.00  0.00     0.116 C 
HETATM   13  C21 UNL     1      29.886  30.714  13.153  1.00  0.00     0.137 C 
HETATM   14  C22 UNL     1      29.756  30.761  11.644  1.00  0.00    -0.001 C 
HETATM   15  C23 UNL     1      30.680  29.787  10.968  1.00  0.00     0.022 C 
HETATM   16  C26 UNL     1      29.893  32.164  11.079  1.00  0.00     0.016 C 
HETATM   17  C27 UNL     1      31.176  32.833  11.372  1.00  0.00     0.009 C 
HETATM   18  C28 UNL     1      31.242  34.296  11.443  1.00  0.00     0.031 C 
HETATM   19  C29 UNL     1      31.515  34.930  12.774  1.00  0.00     0.003 C 
HETATM   20  C30 UNL     1      32.674  35.949  12.496  1.00  0.00     0.020 C 
HETATM   21  C31 UNL     1      32.111  34.091  13.819  1.00  0.00     0.020 C 
ENDROOT
BRANCH   1  22
HETATM   22  C12 UNL     1      30.171  35.474   9.519  1.00  0.00    -0.057 C 
HETATM   23  C13 UNL     1      31.404  35.466   8.996  1.00  0.00     0.017 C 
BRANCH  22  24
HETATM   24  C11 UNL     1      29.078  35.948   8.682  1.00  0.00     0.074 C 
BRANCH  24  25
HETATM   25  C10 UNL     1      28.278  37.110   9.169  1.00  0.00     0.175 C 
HETATM   26  C4  UNL     1      27.108  37.406   8.280  1.00  0.00     0.034 C 
HETATM   27  C3  UNL     1      25.848  37.336   8.543  1.00  0.00     0.026 C 
HETATM   28  N1  UNL     1      27.537  37.826   6.957  1.00  0.00    -0.389 N 
HETATM   29  C5  UNL     1      28.756  38.618   6.837  1.00  0.00     0.153 C 
ATOM     30  H1  UNL     1      26.998  37.572   6.129  1.00  0.00     0.159 HD
HETATM   31  C6  UNL     1      29.647  38.577   8.023  1.00  0.00     0.168 C 
HETATM   32  O1  UNL     1      29.079  38.269   9.234  1.00  0.00    -0.371 OA
BRANCH  27  33
HETATM   33  C2  UNL     1      25.256  36.941   9.812  1.00  0.00    -0.008 C 
HETATM   34  C1  UNL     1      24.187  37.483  10.322  1.00  0.00     0.011 C 
ENDBRANCH  27  33
BRANCH  31  35
HETATM   35  C7  UNL     1      30.214  39.997   8.173  1.00  0.00     0.304 C 
BRANCH  35  36
HETATM   36  N2  UNL     1      31.475  40.000   8.855  1.00  0.00     0.082 N 
HETATM   37  C8  UNL     1      32.427  39.050   8.368  1.00  0.00     0.309 C 
HETATM   38  C9  UNL     1      32.020  41.340   8.943  1.00  0.00     0.309 C 
ENDBRANCH  35  36
ENDBRANCH  31  35
ENDBRANCH  24  25
ENDBRANCH  22  24
ENDBRANCH   1  22
BRANCH   6  39
HETATM   39  O3  UNL     1      27.802  35.740  15.493  1.00  0.00    -0.345 OA
ATOM     40  H3  UNL     1      27.231  35.341  16.139  1.00  0.00     0.219 HD
ENDBRANCH   6  39
BRANCH  14  41
HETATM   41  C24 UNL     1      28.360  30.244  11.374  1.00  0.00    -0.025 C 
HETATM   42  C25 UNL     1      28.105  29.186  10.656  1.00  0.00     0.008 C 
ENDBRANCH  14  41
BRANCH  13  43
HETATM   43  O5  UNL     1      29.769  29.335  13.475  1.00  0.00    -0.394 OA
ATOM     44  H5  UNL     1      30.435  28.842  13.009  1.00  0.00     0.210 HD
ENDBRANCH  13  43
BRANCH  11  45
HETATM   45  O4  UNL     1      28.427  30.519  15.780  1.00  0.00    -0.349 OA
ATOM     46  H4  UNL     1      27.702  29.970  15.504  1.00  0.00     0.219 HD
ENDBRANCH  11  45
TORSDOF 10
ENDMDL
MODEL 2
REMARK VINA RESULT: -6.798771910      1.439      3.185
REMARK  10 active torsions:
REMARK  status: ('A' for Active; 'I' for Inactive)
REMARK    1  A    between atoms: C2_2  and  C3_3 
REMARK    2  A    between atoms: C6_8  and  C7_9 
REMARK    3  A    between atoms: C7_9  and  N2_10 
REMARK    4  A    between atoms: C10_14  and  C11_15 
REMARK    5  A    between atoms: C11_15  and  C12_16 
REMARK    6  A    between atoms: C12_16  and  C14_18 
REMARK    7  A    between atoms: C16_23  and  O3_24 
REMARK    8  A    between atoms: C19_30  and  O4_31 
REMARK    9  A    between atoms: C21_34  and  O5_35 
REMARK   10  A    between atoms: C22_37  and  C24_39 
ROOT
HETATM    1  C14 UNL     1      30.143  34.685  10.556  1.00  0.00     0.157 C 
HETATM    2  O2  UNL     1      30.209  35.882  11.261  1.00  0.00    -0.356 OA
HETATM    3  C15 UNL     1      30.404  35.506  12.622  1.00  0.00     0.231 C 
HETATM    4  N3  UNL     1      29.188  35.078  13.175  1.00  0.00    -0.342 N 
ATOM      5  H3  UNL     1      28.479  34.855  12.478  1.00  0.00     0.164 HD
HETATM    6  C16 UNL     1      28.751  34.893  14.514  1.00  0.00     0.160 C 
HETATM    7  C17 UNL     1      29.203  33.938  15.533  1.00  0.00     0.058 C 
HETATM    8  C18 UNL     1      29.841  34.620  16.756  1.00  0.00     0.072 C 
HETATM    9  N4  UNL     1      29.133  32.693  15.571  1.00  0.00    -0.341 N 
ATOM     10  H4  UNL     1      29.566  32.424  16.455  1.00  0.00     0.167 HD
HETATM   11  C19 UNL     1      28.755  31.541  14.993  1.00  0.00     0.118 C 
HETATM   12  C20 UNL     1      28.725  31.277  13.537  1.00  0.00     0.116 C 
HETATM   13  C21 UNL     1      29.876  30.475  13.016  1.00  0.00     0.137 C 
HETATM   14  C22 UNL     1      29.786  30.428  11.504  1.00  0.00    -0.001 C 
HETATM   15  C23 UNL     1      30.716  29.403  10.916  1.00  0.00     0.022 C 
HETATM   16  C26 UNL     1      29.955  31.791  10.855  1.00  0.00     0.016 C 
HETATM   17  C27 UNL     1      31.239  32.463  11.140  1.00  0.00     0.009 C 
HETATM   18  C28 UNL     1      31.322  33.927  11.120  1.00  0.00     0.031 C 
HETATM   19  C29 UNL     1      31.568  34.641  12.417  1.00  0.00     0.003 C 
HETATM   20  C30 UNL     1      32.746  35.627  12.106  1.00  0.00     0.020 C 
HETATM   21  C31 UNL     1      32.126  33.862  13.527  1.00  0.00     0.020 C 
ENDROOT
BRANCH   1  22
HETATM   22  C12 UNL     1      30.317  34.992   9.099  1.00  0.00    -0.057 C 
HETATM   23  C13 UNL     1      30.958  34.080   8.358  1.00  0.00     0.017 C 
BRANCH  22  24
HETATM   24  C11 UNL     1      29.918  36.236   8.454  1.00  0.00     0.074 C 
BRANCH  24  25
HETATM   25  C10 UNL     1      28.974  36.154   7.301  1.00  0.00     0.175 C 
HETATM   26  C4  UNL     1      29.272  37.179   6.249  1.00  0.00     0.034 C 
HETATM   27  C3  UNL     1      29.657  37.006   5.031  1.00  0.00     0.026 C 
HETATM   28  N1  UNL     1      29.076  38.529   6.748  1.00  0.00    -0.389 N 
HETATM   29  C5  UNL     1      28.004  38.769   7.708  1.00  0.00     0.153 C 
ATOM     30  H1  UNL     1      29.675  39.293   6.435  1.00  0.00     0.159 HD
HETATM   31  C6  UNL     1      27.483  37.552   8.380  1.00  0.00     0.168 C 
HETATM   32  O1  UNL     1      27.647  36.351   7.736  1.00  0.00    -0.371 OA
BRANCH  27  33
HETATM   33  C2  UNL     1      29.894  35.727   4.378  1.00  0.00    -0.008 C 
HETATM   34  C1  UNL     1      31.019  35.072   4.435  1.00  0.00     0.011 C 
ENDBRANCH  27  33
BRANCH  31  35
HETATM   35  C7  UNL     1      25.966  37.759   8.507  1.00  0.00     0.304 C 
BRANCH  35  36
HETATM   36  N2  UNL     1      25.377  36.839   9.437  1.00  0.00     0.082 N 
HETATM   37  C8  UNL     1      26.261  36.363  10.456  1.00  0.00     0.309 C 
HETATM   38  C9  UNL     1      24.136  37.360   9.974  1.00  0.00     0.309 C 
ENDBRANCH  35  36
ENDBRANCH  31  35
ENDBRANCH  24  25
ENDBRANCH  22  24
ENDBRANCH   1  22
BRANCH   6  39
HETATM   39  O3  UNL     1      27.796  35.662  14.978  1.00  0.00    -0.345 OA
ATOM     40  H3  UNL     1      26.898  35.354  14.934  1.00  0.00     0.219 HD
ENDBRANCH   6  39
BRANCH  14  41
HETATM   41  C24 UNL     1      28.392  29.911  11.230  1.00  0.00    -0.025 C 
HETATM   42  C25 UNL     1      28.136  28.886  10.464  1.00  0.00     0.008 C 
ENDBRANCH  14  41
BRANCH  13  43
HETATM   43  O5  UNL     1      29.733  29.121  13.420  1.00  0.00    -0.394 OA
ATOM     44  H5  UNL     1      30.446  28.886  14.003  1.00  0.00     0.210 HD
ENDBRANCH  13  43
BRANCH  11  45
HETATM   45  O4  UNL     1      28.347  30.463  15.610  1.00  0.00    -0.349 OA
ATOM     46  H4  UNL     1      28.865  29.686  15.787  1.00  0.00     0.219 HD
ENDBRANCH  11  45
TORSDOF 10
ENDMDL
MODEL 3
REMARK VINA RESULT: -6.468735589      1.377      1.685
REMARK  10 active torsions:
REMARK  status: ('A' for Active; 'I' for Inactive)
REMARK    1  A    between atoms: C2_2  and  C3_3 
REMARK    2  A    between atoms: C6_8  and  C7_9 
REMARK    3  A    between atoms: C7_9  and  N2_10 
REMARK    4  A    between atoms: C10_14  and  C11_15 
REMARK    5  A    between atoms: C11_15  and  C12_16 
REMARK    6  A    between atoms: C12_16  and  C14_18 
REMARK    7  A    between atoms: C16_23  and  O3_24 
REMARK    8  A    between atoms: C19_30  and  O4_31 
REMARK    9  A    between atoms: C21_34  and  O5_35 
REMARK   10  A    between atoms: C22_37  and  C24_39 
ROOT
HETATM    1  C14 UNL     1      28.769  34.978  11.994  1.00  0.00     0.157 C 
HETATM    2  O2  UNL     1      29.065  35.923  12.971  1.00  0.00    -0.356 OA
HETATM    3  C15 UNL     1      30.107  35.342  13.752  1.00  0.00     0.231 C 
HETATM    4  N3  UNL     1      29.568  34.389  14.629  1.00  0.00    -0.342 N 
ATOM      5  H3  UNL     1      28.626  34.091  14.379  1.00  0.00     0.164 HD
HETATM    6  C16 UNL     1      30.076  33.758  15.796  1.00  0.00     0.160 C 
HETATM    7  C17 UNL     1      31.199  32.826  15.954  1.00  0.00     0.058 C 
HETATM    8  C18 UNL     1      32.335  33.393  16.821  1.00  0.00     0.072 C 
HETATM    9  N4  UNL     1      31.361  31.666  15.523  1.00  0.00    -0.341 N 
ATOM     10  H4  UNL     1      32.279  31.377  15.861  1.00  0.00     0.167 HD
HETATM   11  C19 UNL     1      30.893  30.620  14.821  1.00  0.00     0.118 C 
HETATM   12  C20 UNL     1      30.021  30.704  13.629  1.00  0.00     0.116 C 
HETATM   13  C21 UNL     1      30.720  30.513  12.319  1.00  0.00     0.137 C 
HETATM   14  C22 UNL     1      29.733  30.784  11.201  1.00  0.00    -0.001 C 
HETATM   15  C23 UNL     1      30.255  30.328   9.867  1.00  0.00     0.022 C 
HETATM   16  C26 UNL     1      29.256  32.226  11.166  1.00  0.00     0.016 C 
HETATM   17  C27 UNL     1      30.322  33.232  10.985  1.00  0.00     0.009 C 
HETATM   18  C28 UNL     1      30.147  34.590  11.510  1.00  0.00     0.031 C 
HETATM   19  C29 UNL     1      31.018  35.027  12.650  1.00  0.00     0.003 C 
HETATM   20  C30 UNL     1      31.590  36.416  12.197  1.00  0.00     0.020 C 
HETATM   21  C31 UNL     1      32.252  34.272  12.892  1.00  0.00     0.020 C 
ENDROOT
BRANCH   1  22
HETATM   22  C12 UNL     1      27.965  35.652  10.923  1.00  0.00    -0.057 C 
HETATM   23  C13 UNL     1      26.632  35.575  11.025  1.00  0.00     0.017 C 
BRANCH  22  24
HETATM   24  C11 UNL     1      28.522  36.304   9.746  1.00  0.00     0.074 C 
BRANCH  24  25
HETATM   25  C10 UNL     1      28.054  37.684   9.425  1.00  0.00     0.175 C 
HETATM   26  C4  UNL     1      27.236  37.728   8.169  1.00  0.00     0.034 C 
HETATM   27  C3  UNL     1      25.993  38.036   8.020  1.00  0.00     0.026 C 
HETATM   28  N1  UNL     1      28.023  37.361   7.005  1.00  0.00    -0.389 N 
HETATM   29  C5  UNL     1      29.430  37.746   6.965  1.00  0.00     0.153 C 
ATOM     30  H1  UNL     1      27.603  36.845   6.233  1.00  0.00     0.159 HD
HETATM   31  C6  UNL     1      30.014  38.117   8.278  1.00  0.00     0.168 C 
HETATM   32  O1  UNL     1      29.154  38.551   9.256  1.00  0.00    -0.371 OA
BRANCH  27  33
HETATM   33  C2  UNL     1      25.072  38.429   9.076  1.00  0.00    -0.008 C 
HETATM   34  C1  UNL     1      24.196  37.631   9.618  1.00  0.00     0.011 C 
ENDBRANCH  27  33
BRANCH  31  35
HETATM   35  C7  UNL     1      30.963  39.293   7.999  1.00  0.00     0.304 C 
BRANCH  35  36
HETATM   36  N2  UNL     1      31.634  39.732   9.187  1.00  0.00     0.082 N 
HETATM   37  C8  UNL     1      32.678  38.867   9.645  1.00  0.00     0.309 C 
HETATM   38  C9  UNL     1      32.064  41.111   9.068  1.00  0.00     0.309 C 
ENDBRANCH  35  36
ENDBRANCH  31  35
ENDBRANCH  24  25
ENDBRANCH  22  24
ENDBRANCH   1  22
BRANCH   6  39
HETATM   39  O3  UNL     1      29.500  34.002  16.948  1.00  0.00    -0.345 OA
ATOM     40  H3  UNL     1      28.648  34.424  16.952  1.00  0.00     0.219 HD
ENDBRANCH   6  39
BRANCH  14  41
HETATM   41  C24 UNL     1      28.564  29.875  11.509  1.00  0.00    -0.025 C 
HETATM   42  C25 UNL     1      28.071  29.017  10.661  1.00  0.00     0.008 C 
ENDBRANCH  14  41
BRANCH  13  43
HETATM   43  O5  UNL     1      31.067  29.145  12.160  1.00  0.00    -0.394 OA
ATOM     44  H5  UNL     1      30.404  28.600  12.567  1.00  0.00     0.210 HD
ENDBRANCH  13  43
BRANCH  11  45
HETATM   45  O4  UNL     1      31.122  29.357  15.070  1.00  0.00    -0.349 OA
ATOM     46  H4  UNL     1      30.768  28.853  15.794  1.00  0.00     0.219 HD
ENDBRANCH  11  45
TORSDOF 10
ENDMDL
MODEL 4
REMARK VINA RESULT: -6.417224668      2.574      8.760
REMARK  10 active torsions:
REMARK  status: ('A' for Active; 'I' for Inactive)
REMARK    1  A    between atoms: C2_2  and  C3_3 
REMARK    2  A    between atoms: C6_8  and  C7_9 
REMARK    3  A    between atoms: C7_9  and  N2_10 
REMARK    4  A    between atoms: C10_14  and  C11_15 
REMARK    5  A    between atoms: C11_15  and  C12_16 
REMARK    6  A    between atoms: C12_16  and  C14_18 
REMARK    7  A    between atoms: C16_23  and  O3_24 
REMARK    8  A    between atoms: C19_30  and  O4_31 
REMARK    9  A    between atoms: C21_34  and  O5_35 
REMARK   10  A    between atoms: C22_37  and  C24_39 
ROOT
HETATM    1  C14 UNL     1      29.626  31.705  12.941  1.00  0.00     0.157 C 
HETATM    2  O2  UNL     1      28.499  31.659  12.128  1.00  0.00    -0.356 OA
HETATM    3  C15 UNL     1      28.674  32.710  11.181  1.00  0.00     0.231 C 
HETATM    4  N3  UNL     1      28.373  33.943  11.779  1.00  0.00    -0.342 N 
ATOM      5  H3  UNL     1      28.355  33.909  12.798  1.00  0.00     0.164 HD
HETATM    6  C16 UNL     1      28.090  35.229  11.245  1.00  0.00     0.160 C 
HETATM    7  C17 UNL     1      28.948  36.148  10.488  1.00  0.00     0.058 C 
HETATM    8  C18 UNL     1      28.444  36.401   9.057  1.00  0.00     0.072 C 
HETATM    9  N4  UNL     1      29.984  36.757  10.823  1.00  0.00    -0.341 N 
ATOM     10  H4  UNL     1      30.264  37.289   9.998  1.00  0.00     0.167 HD
HETATM   11  C19 UNL     1      30.903  37.041  11.760  1.00  0.00     0.118 C 
HETATM   12  C20 UNL     1      31.374  36.114  12.812  1.00  0.00     0.116 C 
HETATM   13  C21 UNL     1      32.703  35.478  12.546  1.00  0.00     0.137 C 
HETATM   14  C22 UNL     1      32.968  34.446  13.624  1.00  0.00    -0.001 C 
HETATM   15  C23 UNL     1      34.396  33.976  13.614  1.00  0.00     0.022 C 
HETATM   16  C26 UNL     1      31.985  33.289  13.595  1.00  0.00     0.016 C 
HETATM   17  C27 UNL     1      31.959  32.522  12.333  1.00  0.00     0.009 C 
HETATM   18  C28 UNL     1      30.737  31.824  11.923  1.00  0.00     0.031 C 
HETATM   19  C29 UNL     1      30.007  32.324  10.712  1.00  0.00     0.003 C 
HETATM   20  C30 UNL     1      29.766  31.042   9.841  1.00  0.00     0.020 C 
HETATM   21  C31 UNL     1      30.746  33.176   9.775  1.00  0.00     0.020 C 
ENDROOT
BRANCH   1  22
HETATM   22  C12 UNL     1      29.700  30.419  13.708  1.00  0.00    -0.057 C 
HETATM   23  C13 UNL     1      29.868  29.297  12.998  1.00  0.00     0.017 C 
BRANCH  22  24
HETATM   24  C11 UNL     1      29.521  30.295  15.148  1.00  0.00     0.074 C 
BRANCH  24  25
HETATM   25  C10 UNL     1      28.701  31.332  15.842  1.00  0.00     0.175 C 
HETATM   26  C4  UNL     1      29.549  32.337  16.563  1.00  0.00     0.034 C 
HETATM   27  C3  UNL     1      29.675  33.601  16.343  1.00  0.00     0.026 C 
HETATM   28  N1  UNL     1      30.300  31.723  17.644  1.00  0.00    -0.389 N 
HETATM   29  C5  UNL     1      29.684  30.630  18.388  1.00  0.00     0.153 C 
ATOM     30  H1  UNL     1      31.237  32.050  17.879  1.00  0.00     0.159 HD
HETATM   31  C6  UNL     1      28.527  29.989  17.715  1.00  0.00     0.168 C 
HETATM   32  O1  UNL     1      27.842  30.732  16.786  1.00  0.00    -0.371 OA
BRANCH  27  33
HETATM   33  C2  UNL     1      28.995  34.366  15.309  1.00  0.00    -0.008 C 
HETATM   34  C1  UNL     1      28.263  35.419  15.539  1.00  0.00     0.011 C 
ENDBRANCH  27  33
BRANCH  31  35
HETATM   35  C7  UNL     1      27.516  29.671  18.828  1.00  0.00     0.304 C 
BRANCH  35  36
HETATM   36  N2  UNL     1      27.535  28.282  19.185  1.00  0.00     0.082 N 
HETATM   37  C8  UNL     1      27.161  28.001  20.537  1.00  0.00     0.309 C 
HETATM   38  C9  UNL     1      26.797  27.485  18.225  1.00  0.00     0.309 C 
ENDBRANCH  35  36
ENDBRANCH  31  35
ENDBRANCH  24  25
ENDBRANCH  22  24
ENDBRANCH   1  22
BRANCH   6  39
HETATM   39  O3  UNL     1      26.893  35.735  11.419  1.00  0.00    -0.345 OA
ATOM     40  H3  UNL     1      26.775  36.673  11.325  1.00  0.00     0.219 HD
ENDBRANCH   6  39
BRANCH  14  41
HETATM   41  C24 UNL     1      32.806  35.211  14.919  1.00  0.00    -0.025 C 
HETATM   42  C25 UNL     1      33.214  34.772  16.077  1.00  0.00     0.008 C 
ENDBRANCH  14  41
BRANCH  13  43
HETATM   43  O5  UNL     1      33.733  36.440  12.716  1.00  0.00    -0.394 OA
ATOM     44  H5  UNL     1      34.510  36.160  12.246  1.00  0.00     0.210 HD
ENDBRANCH  13  43
BRANCH  11  45
HETATM   45  O4  UNL     1      31.533  38.178  11.907  1.00  0.00    -0.349 OA
ATOM     46  H4  UNL     1      31.168  38.982  12.258  1.00  0.00     0.219 HD
ENDBRANCH  11  45
TORSDOF 10
ENDMDL
MODEL 5
REMARK VINA RESULT: -6.305759841      4.379      8.037
REMARK  10 active torsions:
REMARK  status: ('A' for Active; 'I' for Inactive)
REMARK    1  A    between atoms: C2_2  and  C3_3 
REMARK    2  A    between atoms: C6_8  and  C7_9 
REMARK    3  A    between atoms: C7_9  and  N2_10 
REMARK    4  A    between atoms: C10_14  and  C11_15 
REMARK    5  A    between atoms: C11_15  and  C12_16 
REMARK    6  A    between atoms: C12_16  and  C14_18 
REMARK    7  A    between atoms: C16_23  and  O3_24 
REMARK    8  A    between atoms: C19_30  and  O4_31 
REMARK    9  A    between atoms: C21_34  and  O5_35 
REMARK   10  A    between atoms: C22_37  and  C24_39 
ROOT
HETATM    1  C14 UNL     1      27.944  29.315  15.958  1.00  0.00     0.157 C 
HETATM    2  O2  UNL     1      27.226  29.063  17.122  1.00  0.00    -0.356 OA
HETATM    3  C15 UNL     1      27.114  27.644  17.195  1.00  0.00     0.231 C 
HETATM    4  N3  UNL     1      26.121  27.199  16.311  1.00  0.00    -0.342 N 
ATOM      5  H3  UNL     1      25.861  27.890  15.607  1.00  0.00     0.164 HD
HETATM    6  C16 UNL     1      25.406  25.976  16.201  1.00  0.00     0.160 C 
HETATM    7  C17 UNL     1      25.883  24.629  15.865  1.00  0.00     0.058 C 
HETATM    8  C18 UNL     1      25.704  23.623  17.015  1.00  0.00     0.072 C 
HETATM    9  N4  UNL     1      26.378  24.179  14.812  1.00  0.00    -0.341 N 
ATOM     10  H4  UNL     1      26.571  23.195  15.002  1.00  0.00     0.167 HD
HETATM   11  C19 UNL     1      26.777  24.384  13.546  1.00  0.00     0.118 C 
HETATM   12  C20 UNL     1      27.346  25.642  13.015  1.00  0.00     0.116 C 
HETATM   13  C21 UNL     1      28.835  25.646  12.860  1.00  0.00     0.137 C 
HETATM   14  C22 UNL     1      29.275  27.041  12.463  1.00  0.00    -0.001 C 
HETATM   15  C23 UNL     1      30.703  27.069  11.994  1.00  0.00     0.022 C 
HETATM   16  C26 UNL     1      29.007  28.078  13.541  1.00  0.00     0.016 C 
HETATM   17  C27 UNL     1      29.673  27.822  14.834  1.00  0.00     0.009 C 
HETATM   18  C28 UNL     1      29.082  28.327  16.077  1.00  0.00     0.031 C 
HETATM   19  C29 UNL     1      28.539  27.333  17.060  1.00  0.00     0.003 C 
HETATM   20  C30 UNL     1      29.170  27.753  18.433  1.00  0.00     0.020 C 
HETATM   21  C31 UNL     1      28.994  25.944  16.944  1.00  0.00     0.020 C 
ENDROOT
BRANCH   1  22
HETATM   22  C12 UNL     1      28.424  30.735  16.004  1.00  0.00    -0.057 C 
HETATM   23  C13 UNL     1      28.956  31.159  17.156  1.00  0.00     0.017 C 
BRANCH  22  24
HETATM   24  C11 UNL     1      28.276  31.701  14.924  1.00  0.00     0.074 C 
BRANCH  24  25
HETATM   25  C10 UNL     1      29.482  32.480  14.515  1.00  0.00     0.175 C 
HETATM   26  C4  UNL     1      29.210  33.953  14.451  1.00  0.00     0.034 C 
HETATM   27  C3  UNL     1      29.712  34.904  15.163  1.00  0.00     0.026 C 
HETATM   28  N1  UNL     1      28.238  34.272  13.420  1.00  0.00    -0.389 N 
HETATM   29  C5  UNL     1      28.238  33.483  12.193  1.00  0.00     0.153 C 
ATOM     30  H1  UNL     1      27.570  35.031  13.550  1.00  0.00     0.159 HD
HETATM   31  C6  UNL     1      28.955  32.187  12.284  1.00  0.00     0.168 C 
HETATM   32  O1  UNL     1      29.930  32.066  13.244  1.00  0.00    -0.371 OA
BRANCH  27  33
HETATM   33  C2  UNL     1      30.694  34.756  16.226  1.00  0.00    -0.008 C 
HETATM   34  C1  UNL     1      30.396  34.514  17.471  1.00  0.00     0.011 C 
ENDBRANCH  27  33
BRANCH  31  35
HETATM   35  C7  UNL     1      29.669  32.005  10.935  1.00  0.00     0.304 C 
BRANCH  35  36
HETATM   36  N2  UNL     1      31.079  31.802  11.099  1.00  0.00     0.082 N 
HETATM   37  C8  UNL     1      31.567  30.544  10.626  1.00  0.00     0.309 C 
HETATM   38  C9  UNL     1      31.834  32.924  10.579  1.00  0.00     0.309 C 
ENDBRANCH  35  36
ENDBRANCH  31  35
ENDBRANCH  24  25
ENDBRANCH  22  24
ENDBRANCH   1  22
BRANCH   6  39
HETATM   39  O3  UNL     1      24.113  25.978  16.421  1.00  0.00    -0.345 OA
ATOM     40  H3  UNL     1      23.779  25.526  17.186  1.00  0.00     0.219 HD
ENDBRANCH   6  39
BRANCH  14  41
HETATM   41  C24 UNL     1      28.443  27.360  11.241  1.00  0.00    -0.025 C 
HETATM   42  C25 UNL     1      28.239  28.570  10.799  1.00  0.00     0.008 C 
ENDBRANCH  14  41
BRANCH  13  43
HETATM   43  O5  UNL     1      29.200  24.833  11.754  1.00  0.00    -0.394 OA
ATOM     44  H5  UNL     1      30.131  24.649  11.788  1.00  0.00     0.210 HD
ENDBRANCH  13  43
BRANCH  11  45
HETATM   45  O4  UNL     1      26.727  23.515  12.569  1.00  0.00    -0.349 OA
ATOM     46  H4  UNL     1      27.281  22.750  12.468  1.00  0.00     0.219 HD
ENDBRANCH  11  45
TORSDOF 10
ENDMDL
