MODEL 1
REMARK VINA RESULT: -5.982514925      0.000      0.000
REMARK  6 active torsions:
REMARK  status: ('A' for Active; 'I' for Inactive)
REMARK    1  A    between atoms: C2_3  and  S1_4 
REMARK    2  A    between atoms: S1_4  and  S2_5 
REMARK    3  A    between atoms: S2_5  and  C3_6 
REMARK    4  A    between atoms: C3_6  and  C9_18 
REMARK    5  A    between atoms: N2_7  and  N3_9 
REMARK       I    between atoms: N3_9  and  C4_11 
REMARK    6  A    between atoms: C4_11  and  C5_13 
ROOT
HETATM    1  N1  UNL     1      10.723  -3.554  21.968  1.00  0.00    -0.196 NA
HETATM    2  C1  UNL     1      11.233  -4.499  21.519  1.00  0.00     0.070 C 
HETATM    3  C2  UNL     1      11.891  -5.672  20.971  1.00  0.00     0.210 C 
ENDROOT
BRANCH   3   4
HETATM    4  S1  UNL     1      13.650  -5.571  21.349  1.00  0.00    -0.077 SA
BRANCH   4   5
HETATM    5  S2  UNL     1      14.789  -4.634  19.860  1.00  0.00    -0.032 SA
BRANCH   5   6
HETATM    6  C3  UNL     1      14.537  -2.893  19.741  1.00  0.00     0.161 C 
HETATM    7  N2  UNL     1      15.553  -2.135  19.934  1.00  0.00    -0.286 N 
ATOM      8  H2  UNL     1      16.444  -2.586  20.145  1.00  0.00     0.188 HD
BRANCH   7   9
HETATM    9  N3  UNL     1      15.532  -0.752  19.878  1.00  0.00    -0.263 N 
HETATM   10  C4  UNL     1      15.666   0.069  21.036  1.00  0.00     0.293 C 
HETATM   11  O1  UNL     1      15.811  -0.418  22.180  1.00  0.00    -0.264 OA
ATOM     12  H3  UNL     1      15.417  -0.301  18.971  1.00  0.00     0.190 HD
BRANCH  10  13
HETATM   13  C5  UNL     1      15.637   1.523  20.918  1.00  0.00     0.144 A 
HETATM   14  C6  UNL     1      14.549   2.341  20.734  1.00  0.00     0.045 A 
HETATM   15  C7  UNL     1      15.018   3.633  20.684  1.00  0.00     0.027 A 
HETATM   16  C8  UNL     1      16.395   3.546  20.844  1.00  0.00     0.143 A 
HETATM   17  O2  UNL     1      16.690   2.292  20.975  1.00  0.00    -0.317 OA
ENDBRANCH  10  13
ENDBRANCH   7   9
BRANCH   6  18
HETATM   18  C9  UNL     1      13.266  -2.317  19.439  1.00  0.00     0.290 C 
HETATM   19  N4  UNL     1      12.544  -2.730  18.291  1.00  0.00    -0.055 NA
HETATM   20  O3  UNL     1      12.703  -1.423  20.149  1.00  0.00    -0.269 OA
ENDBRANCH   6  18
ENDBRANCH   5   6
ENDBRANCH   4   5
ENDBRANCH   3   4
TORSDOF 6
ENDMDL
MODEL 2
REMARK VINA RESULT: -5.972626842      1.114      1.208
REMARK  6 active torsions:
REMARK  status: ('A' for Active; 'I' for Inactive)
REMARK    1  A    between atoms: C2_3  and  S1_4 
REMARK    2  A    between atoms: S1_4  and  S2_5 
REMARK    3  A    between atoms: S2_5  and  C3_6 
REMARK    4  A    between atoms: C3_6  and  C9_18 
REMARK    5  A    between atoms: N2_7  and  N3_9 
REMARK       I    between atoms: N3_9  and  C4_11 
REMARK    6  A    between atoms: C4_11  and  C5_13 
ROOT
HETATM    1  N1  UNL     1      11.578  -5.511  18.185  1.00  0.00    -0.196 NA
HETATM    2  C1  UNL     1      11.708  -5.533  19.341  1.00  0.00     0.070 C 
HETATM    3  C2  UNL     1      11.894  -5.556  20.782  1.00  0.00     0.210 C 
ENDROOT
BRANCH   3   4
HETATM    4  S1  UNL     1      13.662  -5.539  21.129  1.00  0.00    -0.077 SA
BRANCH   4   5
HETATM    5  S2  UNL     1      14.804  -4.532  19.689  1.00  0.00    -0.032 SA
BRANCH   5   6
HETATM    6  C3  UNL     1      14.546  -2.788  19.647  1.00  0.00     0.161 C 
HETATM    7  N2  UNL     1      15.576  -2.036  19.776  1.00  0.00    -0.286 N 
ATOM      8  H2  UNL     1      16.481  -2.492  19.894  1.00  0.00     0.188 HD
BRANCH   7   9
HETATM    9  N3  UNL     1      15.553  -0.652  19.765  1.00  0.00    -0.263 N 
HETATM   10  C4  UNL     1      15.736   0.131  20.942  1.00  0.00     0.293 C 
HETATM   11  O1  UNL     1      15.930  -0.392  22.062  1.00  0.00    -0.264 OA
ATOM     12  H3  UNL     1      15.399  -0.172  18.879  1.00  0.00     0.190 HD
BRANCH  10  13
HETATM   13  C5  UNL     1      15.702   1.588  20.873  1.00  0.00     0.144 A 
HETATM   14  C6  UNL     1      14.607   2.410  20.770  1.00  0.00     0.045 A 
HETATM   15  C7  UNL     1      15.073   3.704  20.739  1.00  0.00     0.027 A 
HETATM   16  C8  UNL     1      16.457   3.613  20.825  1.00  0.00     0.143 A 
HETATM   17  O2  UNL     1      16.757   2.357  20.901  1.00  0.00    -0.317 OA
ENDBRANCH  10  13
ENDBRANCH   7   9
BRANCH   6  18
HETATM   18  C9  UNL     1      13.254  -2.205  19.475  1.00  0.00     0.290 C 
HETATM   19  N4  UNL     1      12.754  -1.934  18.177  1.00  0.00    -0.055 NA
HETATM   20  O3  UNL     1      12.480  -1.894  20.437  1.00  0.00    -0.269 OA
ENDBRANCH   6  18
ENDBRANCH   5   6
ENDBRANCH   4   5
ENDBRANCH   3   4
TORSDOF 6
ENDMDL
MODEL 3
REMARK VINA RESULT: -5.953792514      3.279      6.568
REMARK  6 active torsions:
REMARK  status: ('A' for Active; 'I' for Inactive)
REMARK    1  A    between atoms: C2_3  and  S1_4 
REMARK    2  A    between atoms: S1_4  and  S2_5 
REMARK    3  A    between atoms: S2_5  and  C3_6 
REMARK    4  A    between atoms: C3_6  and  C9_18 
REMARK    5  A    between atoms: N2_7  and  N3_9 
REMARK       I    between atoms: N3_9  and  C4_11 
REMARK    6  A    between atoms: C4_11  and  C5_13 
ROOT
HETATM    1  N1  UNL     1      13.232   1.502  17.901  1.00  0.00    -0.196 NA
HETATM    2  C1  UNL     1      13.266   2.386  18.657  1.00  0.00     0.070 C 
HETATM    3  C2  UNL     1      13.330   3.481  19.610  1.00  0.00     0.210 C 
ENDROOT
BRANCH   3   4
HETATM    4  S1  UNL     1      14.675   3.156  20.764  1.00  0.00    -0.077 SA
BRANCH   4   5
HETATM    5  S2  UNL     1      16.145   1.862  20.017  1.00  0.00    -0.032 SA
BRANCH   5   6
HETATM    6  C3  UNL     1      15.805   0.151  20.275  1.00  0.00     0.161 C 
HETATM    7  N2  UNL     1      15.410  -0.531  19.264  1.00  0.00    -0.286 N 
ATOM      8  H2  UNL     1      15.316  -0.042  18.373  1.00  0.00     0.188 HD
BRANCH   7   9
HETATM    9  N3  UNL     1      15.101  -1.880  19.290  1.00  0.00    -0.263 N 
HETATM   10  C4  UNL     1      13.764  -2.364  19.384  1.00  0.00     0.293 C 
HETATM   11  O1  UNL     1      12.783  -1.589  19.450  1.00  0.00    -0.264 OA
ATOM     12  H3  UNL     1      15.862  -2.557  19.239  1.00  0.00     0.190 HD
BRANCH  10  13
HETATM   13  C5  UNL     1      13.496  -3.798  19.408  1.00  0.00     0.144 A 
HETATM   14  C6  UNL     1      14.199  -4.785  20.054  1.00  0.00     0.045 A 
HETATM   15  C7  UNL     1      13.567  -5.976  19.782  1.00  0.00     0.027 A 
HETATM   16  C8  UNL     1      12.487  -5.658  18.968  1.00  0.00     0.143 A 
HETATM   17  O2  UNL     1      12.503  -4.377  18.789  1.00  0.00    -0.317 OA
ENDBRANCH  10  13
ENDBRANCH   7   9
BRANCH   6  18
HETATM   18  C9  UNL     1      15.958  -0.482  21.546  1.00  0.00     0.290 C 
HETATM   19  N4  UNL     1      16.728  -1.665  21.672  1.00  0.00    -0.055 NA
HETATM   20  O3  UNL     1      15.436  -0.048  22.623  1.00  0.00    -0.269 OA
ENDBRANCH   6  18
ENDBRANCH   5   6
ENDBRANCH   4   5
ENDBRANCH   3   4
TORSDOF 6
ENDMDL
MODEL 4
REMARK VINA RESULT: -5.906236508      1.286      1.427
REMARK  6 active torsions:
REMARK  status: ('A' for Active; 'I' for Inactive)
REMARK    1  A    between atoms: C2_3  and  S1_4 
REMARK    2  A    between atoms: S1_4  and  S2_5 
REMARK    3  A    between atoms: S2_5  and  C3_6 
REMARK    4  A    between atoms: C3_6  and  C9_18 
REMARK    5  A    between atoms: N2_7  and  N3_9 
REMARK       I    between atoms: N3_9  and  C4_11 
REMARK    6  A    between atoms: C4_11  and  C5_13 
ROOT
HETATM    1  N1  UNL     1      10.727  -3.506  21.919  1.00  0.00    -0.196 NA
HETATM    2  C1  UNL     1      11.379  -4.462  21.797  1.00  0.00     0.070 C 
HETATM    3  C2  UNL     1      12.211  -5.642  21.634  1.00  0.00     0.210 C 
ENDROOT
BRANCH   3   4
HETATM    4  S1  UNL     1      13.651  -5.195  20.648  1.00  0.00    -0.077 SA
BRANCH   4   5
HETATM    5  S2  UNL     1      13.188  -4.163  18.883  1.00  0.00    -0.032 SA
BRANCH   5   6
HETATM    6  C3  UNL     1      13.588  -2.446  18.920  1.00  0.00     0.161 C 
HETATM    7  N2  UNL     1      14.803  -2.128  19.179  1.00  0.00    -0.286 N 
ATOM      8  H2  UNL     1      15.463  -2.887  19.347  1.00  0.00     0.188 HD
BRANCH   7   9
HETATM    9  N3  UNL     1      15.287  -0.833  19.246  1.00  0.00    -0.263 N 
HETATM   10  C4  UNL     1      15.561  -0.175  20.480  1.00  0.00     0.293 C 
HETATM   11  O1  UNL     1      15.378  -0.736  21.585  1.00  0.00    -0.264 OA
ATOM     12  H3  UNL     1      15.454  -0.327  18.376  1.00  0.00     0.190 HD
BRANCH  10  13
HETATM   13  C5  UNL     1      16.070   1.193  20.493  1.00  0.00     0.144 A 
HETATM   14  C6  UNL     1      16.631   1.901  19.459  1.00  0.00     0.045 A 
HETATM   15  C7  UNL     1      16.957   3.144  19.950  1.00  0.00     0.027 A 
HETATM   16  C8  UNL     1      16.573   3.140  21.285  1.00  0.00     0.143 A 
HETATM   17  O2  UNL     1      16.065   1.976  21.537  1.00  0.00    -0.317 OA
ENDBRANCH  10  13
ENDBRANCH   7   9
BRANCH   6  18
HETATM   18  C9  UNL     1      12.621  -1.424  18.673  1.00  0.00     0.290 C 
HETATM   19  N4  UNL     1      11.822  -0.920  19.728  1.00  0.00    -0.055 NA
HETATM   20  O3  UNL     1      12.411  -0.907  17.529  1.00  0.00    -0.269 OA
ENDBRANCH   6  18
ENDBRANCH   5   6
ENDBRANCH   4   5
ENDBRANCH   3   4
TORSDOF 6
ENDMDL
MODEL 5
REMARK VINA RESULT: -5.847697984      1.653      1.831
REMARK  6 active torsions:
REMARK  status: ('A' for Active; 'I' for Inactive)
REMARK    1  A    between atoms: C2_3  and  S1_4 
REMARK    2  A    between atoms: S1_4  and  S2_5 
REMARK    3  A    between atoms: S2_5  and  C3_6 
REMARK    4  A    between atoms: C3_6  and  C9_18 
REMARK    5  A    between atoms: N2_7  and  N3_9 
REMARK       I    between atoms: N3_9  and  C4_11 
REMARK    6  A    between atoms: C4_11  and  C5_13 
ROOT
HETATM    1  N1  UNL     1      11.252  -4.253  22.271  1.00  0.00    -0.196 NA
HETATM    2  C1  UNL     1      10.724  -4.040  21.255  1.00  0.00     0.070 C 
HETATM    3  C2  UNL     1      10.082  -3.790  19.977  1.00  0.00     0.210 C 
ENDROOT
BRANCH   3   4
HETATM    4  S1  UNL     1      11.101  -4.508  18.675  1.00  0.00    -0.077 SA
BRANCH   4   5
HETATM    5  S2  UNL     1      13.154  -4.161  18.912  1.00  0.00    -0.032 SA
BRANCH   5   6
HETATM    6  C3  UNL     1      13.607  -2.457  18.918  1.00  0.00     0.161 C 
HETATM    7  N2  UNL     1      14.818  -2.169  19.222  1.00  0.00    -0.286 N 
ATOM      8  H2  UNL     1      15.446  -2.943  19.441  1.00  0.00     0.188 HD
BRANCH   7   9
HETATM    9  N3  UNL     1      15.339  -0.888  19.275  1.00  0.00    -0.263 N 
HETATM   10  C4  UNL     1      15.468  -0.157  20.491  1.00  0.00     0.293 C 
HETATM   11  O1  UNL     1      15.115  -0.636  21.592  1.00  0.00    -0.264 OA
ATOM     12  H3  UNL     1      15.644  -0.448  18.407  1.00  0.00     0.190 HD
BRANCH  10  13
HETATM   13  C5  UNL     1      16.025   1.192  20.489  1.00  0.00     0.144 A 
HETATM   14  C6  UNL     1      16.613   1.868  19.448  1.00  0.00     0.045 A 
HETATM   15  C7  UNL     1      16.981   3.105  19.925  1.00  0.00     0.027 A 
HETATM   16  C8  UNL     1      16.595   3.129  21.259  1.00  0.00     0.143 A 
HETATM   17  O2  UNL     1      16.046   1.987  21.523  1.00  0.00    -0.317 OA
ENDBRANCH  10  13
ENDBRANCH   7   9
BRANCH   6  18
HETATM   18  C9  UNL     1      12.684  -1.414  18.600  1.00  0.00     0.290 C 
HETATM   19  N4  UNL     1      11.973  -0.745  19.626  1.00  0.00    -0.055 NA
HETATM   20  O3  UNL     1      12.440  -1.020  17.414  1.00  0.00    -0.269 OA
ENDBRANCH   6  18
ENDBRANCH   5   6
ENDBRANCH   4   5
ENDBRANCH   3   4
TORSDOF 6
ENDMDL
