MODEL 1
REMARK VINA RESULT: -6.207395099      0.000      0.000
REMARK  6 active torsions:
REMARK  status: ('A' for Active; 'I' for Inactive)
REMARK    1  A    between atoms: C1_2  and  C2_3 
REMARK       I    between atoms: C1_2  and  N3_16 
REMARK    2  A    between atoms: C2_3  and  S1_4 
REMARK    3  A    between atoms: S1_4  and  C3_5 
REMARK    4  A    between atoms: C4_10  and  S2_11 
REMARK    5  A    between atoms: S2_11  and  C5_12 
REMARK    6  A    between atoms: C5_12  and  O2_13 
ROOT
HETATM    1  S1  UNL     1      14.944  -1.717  20.049  1.00  0.00    -0.094 SA
ENDROOT
BRANCH   1   2
HETATM    2  C2  UNL     1      13.135  -1.690  19.971  1.00  0.00     0.184 C 
BRANCH   2   3
HETATM    3  C1  UNL     1      12.700  -2.202  18.649  1.00  0.00     0.232 C 
HETATM    4  O1  UNL     1      13.169  -3.291  18.191  1.00  0.00    -0.272 OA
HETATM    5  N3  UNL     1      11.765  -1.517  17.858  1.00  0.00    -0.316 N 
HETATM    6  C6  UNL     1      12.022  -0.370  17.316  1.00  0.00     0.079 C 
ATOM      7  H3  UNL     1      10.849  -1.939  17.705  1.00  0.00     0.170 HD
HETATM    8  C7  UNL     1      11.011   0.335  16.481  1.00  0.00     0.078 C 
HETATM    9  N4  UNL     1      13.197   0.394  17.388  1.00  0.00    -0.380 N 
HETATM   10  C8  UNL     1      11.743   1.573  16.045  1.00  0.00     0.027 C 
HETATM   11  C9  UNL     1      12.797   1.758  17.098  1.00  0.00     0.121 C 
ATOM     12  H4  UNL     1      14.137   0.059  17.601  1.00  0.00     0.160 HD
ENDBRANCH   2   3
ENDBRANCH   1   2
BRANCH   1  13
HETATM   13  C3  UNL     1      15.591  -0.034  20.020  1.00  0.00     0.129 A 
HETATM   14  N1  UNL     1      16.335   0.557  19.090  1.00  0.00    -0.287 N 
HETATM   15  N2  UNL     1      16.697   1.755  19.243  1.00  0.00    -0.287 N 
ATOM     16  H1  UNL     1      16.612   0.043  18.254  1.00  0.00     0.188 HD
HETATM   17  C4  UNL     1      16.336   2.426  20.333  1.00  0.00     0.131 A 
ATOM     18  H2  UNL     1      17.267   2.211  18.530  1.00  0.00     0.188 HD
HETATM   19  S3  UNL     1      15.426   1.236  21.158  1.00  0.00    -0.038 SA
BRANCH  17  20
HETATM   20  S2  UNL     1      16.722   4.135  20.785  1.00  0.00    -0.077 SA
BRANCH  20  21
HETATM   21  C5  UNL     1      18.395   4.158  21.496  1.00  0.00     0.245 C 
BRANCH  21  22
HETATM   22  O2  UNL     1      18.885   5.443  21.641  1.00  0.00    -0.391 OA
ATOM     23  H2  UNL     1      19.115   5.641  22.541  1.00  0.00     0.210 HD
ENDBRANCH  21  22
ENDBRANCH  20  21
ENDBRANCH  17  20
ENDBRANCH   1  13
TORSDOF 6
ENDMDL
MODEL 2
REMARK VINA RESULT: -6.116354990      2.953      3.700
REMARK  6 active torsions:
REMARK  status: ('A' for Active; 'I' for Inactive)
REMARK    1  A    between atoms: C1_2  and  C2_3 
REMARK       I    between atoms: C1_2  and  N3_16 
REMARK    2  A    between atoms: C2_3  and  S1_4 
REMARK    3  A    between atoms: S1_4  and  C3_5 
REMARK    4  A    between atoms: C4_10  and  S2_11 
REMARK    5  A    between atoms: S2_11  and  C5_12 
REMARK    6  A    between atoms: C5_12  and  O2_13 
ROOT
HETATM    1  S1  UNL     1      14.005  -5.130  20.216  1.00  0.00    -0.094 SA
ENDROOT
BRANCH   1   2
HETATM    2  C2  UNL     1      12.198  -5.206  20.315  1.00  0.00     0.184 C 
BRANCH   2   3
HETATM    3  C1  UNL     1      11.638  -5.226  18.942  1.00  0.00     0.232 C 
HETATM    4  O1  UNL     1      12.144  -5.976  18.050  1.00  0.00    -0.272 OA
HETATM    5  N3  UNL     1      10.541  -4.433  18.575  1.00  0.00    -0.316 N 
HETATM    6  C6  UNL     1      10.608  -3.142  18.515  1.00  0.00     0.079 C 
ATOM      7  H3  UNL     1       9.658  -4.891  18.347  1.00  0.00     0.170 HD
HETATM    8  C7  UNL     1       9.427  -2.324  18.121  1.00  0.00     0.078 C 
HETATM    9  N4  UNL     1      11.701  -2.304  18.782  1.00  0.00    -0.380 N 
HETATM   10  C8  UNL     1       9.968  -0.921  18.154  1.00  0.00     0.027 C 
HETATM   11  C9  UNL     1      11.133  -1.006  19.095  1.00  0.00     0.121 C 
ATOM     12  H4  UNL     1      12.690  -2.555  18.761  1.00  0.00     0.160 HD
ENDBRANCH   2   3
ENDBRANCH   1   2
BRANCH   1  13
HETATM   13  C3  UNL     1      14.550  -3.413  20.135  1.00  0.00     0.129 A 
HETATM   14  N1  UNL     1      15.043  -2.743  19.098  1.00  0.00    -0.287 N 
HETATM   15  N2  UNL     1      15.373  -1.533  19.232  1.00  0.00    -0.287 N 
ATOM     16  H1  UNL     1      15.153  -3.205  18.196  1.00  0.00     0.188 HD
HETATM   17  C4  UNL     1      15.230  -0.930  20.408  1.00  0.00     0.131 A 
ATOM     18  H2  UNL     1      15.751  -1.017  18.437  1.00  0.00     0.188 HD
HETATM   19  S3  UNL     1      14.581  -2.202  21.347  1.00  0.00    -0.038 SA
BRANCH  17  20
HETATM   20  S2  UNL     1      15.625   0.778  20.854  1.00  0.00    -0.077 SA
BRANCH  20  21
HETATM   21  C5  UNL     1      15.936   1.698  19.316  1.00  0.00     0.245 C 
BRANCH  21  22
HETATM   22  O2  UNL     1      16.596   0.932  18.373  1.00  0.00    -0.391 OA
ATOM     23  H2  UNL     1      16.299   1.116  17.489  1.00  0.00     0.210 HD
ENDBRANCH  21  22
ENDBRANCH  20  21
ENDBRANCH  17  20
ENDBRANCH   1  13
TORSDOF 6
ENDMDL
MODEL 3
REMARK VINA RESULT: -6.115963889      3.270      6.489
REMARK  6 active torsions:
REMARK  status: ('A' for Active; 'I' for Inactive)
REMARK    1  A    between atoms: C1_2  and  C2_3 
REMARK       I    between atoms: C1_2  and  N3_16 
REMARK    2  A    between atoms: C2_3  and  S1_4 
REMARK    3  A    between atoms: S1_4  and  C3_5 
REMARK    4  A    between atoms: C4_10  and  S2_11 
REMARK    5  A    between atoms: S2_11  and  C5_12 
REMARK    6  A    between atoms: C5_12  and  O2_13 
ROOT
HETATM    1  S1  UNL     1      15.930  -0.720  21.569  1.00  0.00    -0.094 SA
ENDROOT
BRANCH   1   2
HETATM    2  C2  UNL     1      15.234   0.950  21.537  1.00  0.00     0.184 C 
BRANCH   2   3
HETATM    3  C1  UNL     1      15.326   1.487  20.157  1.00  0.00     0.232 C 
HETATM    4  O1  UNL     1      16.422   1.436  19.517  1.00  0.00    -0.272 OA
HETATM    5  N3  UNL     1      14.223   2.064  19.509  1.00  0.00    -0.316 N 
HETATM    6  C6  UNL     1      13.697   3.181  19.895  1.00  0.00     0.079 C 
ATOM      7  H3  UNL     1      13.821   1.584  18.703  1.00  0.00     0.170 HD
HETATM    8  C7  UNL     1      12.528   3.771  19.187  1.00  0.00     0.078 C 
HETATM    9  N4  UNL     1      14.074   4.008  20.964  1.00  0.00    -0.380 N 
HETATM   10  C8  UNL     1      12.292   5.050  19.942  1.00  0.00     0.027 C 
HETATM   11  C9  UNL     1      12.897   4.790  21.291  1.00  0.00     0.121 C 
ATOM     12  H4  UNL     1      14.987   4.050  21.418  1.00  0.00     0.160 HD
ENDBRANCH   2   3
ENDBRANCH   1   2
BRANCH   1  13
HETATM   13  C3  UNL     1      14.984  -1.808  20.487  1.00  0.00     0.129 A 
HETATM   14  N1  UNL     1      15.148  -2.042  19.189  1.00  0.00    -0.287 N 
HETATM   15  N2  UNL     1      14.380  -2.846  18.593  1.00  0.00    -0.287 N 
ATOM     16  H1  UNL     1      15.894  -1.573  18.675  1.00  0.00     0.188 HD
HETATM   17  C4  UNL     1      13.407  -3.457  19.262  1.00  0.00     0.131 A 
ATOM     18  H2  UNL     1      14.506  -3.027  17.597  1.00  0.00     0.188 HD
HETATM   19  S3  UNL     1      13.641  -2.818  20.830  1.00  0.00    -0.038 SA
BRANCH  17  20
HETATM   20  S2  UNL     1      12.186  -4.640  18.644  1.00  0.00    -0.077 SA
BRANCH  20  21
HETATM   21  C5  UNL     1      10.595  -3.772  18.497  1.00  0.00     0.245 C 
BRANCH  21  22
HETATM   22  O2  UNL     1       9.680  -4.480  17.740  1.00  0.00    -0.391 OA
ATOM     23  H2  UNL     1       9.330  -5.231  18.206  1.00  0.00     0.210 HD
ENDBRANCH  21  22
ENDBRANCH  20  21
ENDBRANCH  17  20
ENDBRANCH   1  13
TORSDOF 6
ENDMDL
MODEL 4
REMARK VINA RESULT: -6.009125460      2.524      5.626
REMARK  6 active torsions:
REMARK  status: ('A' for Active; 'I' for Inactive)
REMARK    1  A    between atoms: C1_2  and  C2_3 
REMARK       I    between atoms: C1_2  and  N3_16 
REMARK    2  A    between atoms: C2_3  and  S1_4 
REMARK    3  A    between atoms: S1_4  and  C3_5 
REMARK    4  A    between atoms: C4_10  and  S2_11 
REMARK    5  A    between atoms: S2_11  and  C5_12 
REMARK    6  A    between atoms: C5_12  and  O2_13 
ROOT
HETATM    1  S1  UNL     1      15.243   1.050  20.960  1.00  0.00    -0.094 SA
ENDROOT
BRANCH   1   2
HETATM    2  C2  UNL     1      14.982   2.168  19.560  1.00  0.00     0.184 C 
BRANCH   2   3
HETATM    3  C1  UNL     1      13.610   2.729  19.637  1.00  0.00     0.232 C 
HETATM    4  O1  UNL     1      13.066   2.949  20.764  1.00  0.00    -0.272 OA
HETATM    5  N3  UNL     1      12.867   3.036  18.488  1.00  0.00    -0.316 N 
HETATM    6  C6  UNL     1      12.436   2.125  17.676  1.00  0.00     0.079 C 
ATOM      7  H3  UNL     1      12.660   4.014  18.284  1.00  0.00     0.170 HD
HETATM    8  C7  UNL     1      11.648   2.480  16.463  1.00  0.00     0.078 C 
HETATM    9  N4  UNL     1      12.598   0.733  17.748  1.00  0.00    -0.380 N 
HETATM   10  C8  UNL     1      11.340   1.138  15.861  1.00  0.00     0.027 C 
HETATM   11  C9  UNL     1      12.424   0.247  16.393  1.00  0.00     0.121 C 
ATOM     12  H4  UNL     1      12.798   0.179  18.582  1.00  0.00     0.160 HD
ENDBRANCH   2   3
ENDBRANCH   1   2
BRANCH   1  13
HETATM   13  C3  UNL     1      15.034  -0.661  20.434  1.00  0.00     0.129 A 
HETATM   14  N1  UNL     1      15.257  -1.200  19.239  1.00  0.00    -0.287 N 
HETATM   15  N2  UNL     1      15.053  -2.431  19.057  1.00  0.00    -0.287 N 
ATOM     16  H1  UNL     1      15.591  -0.619  18.471  1.00  0.00     0.188 HD
HETATM   17  C4  UNL     1      14.616  -3.189  20.058  1.00  0.00     0.131 A 
ATOM     18  H2  UNL     1      15.223  -2.846  18.140  1.00  0.00     0.188 HD
HETATM   19  S3  UNL     1      14.505  -2.034  21.313  1.00  0.00    -0.038 SA
BRANCH  17  20
HETATM   20  S2  UNL     1      14.250  -4.961  20.054  1.00  0.00    -0.077 SA
BRANCH  20  21
HETATM   21  C5  UNL     1      12.795  -5.226  18.996  1.00  0.00     0.245 C 
BRANCH  21  22
HETATM   22  O2  UNL     1      12.728  -4.314  17.959  1.00  0.00    -0.391 OA
ATOM     23  H2  UNL     1      11.836  -4.040  17.778  1.00  0.00     0.210 HD
ENDBRANCH  21  22
ENDBRANCH  20  21
ENDBRANCH  17  20
ENDBRANCH   1  13
TORSDOF 6
ENDMDL
MODEL 5
REMARK VINA RESULT: -6.008514274      3.135      5.773
REMARK  6 active torsions:
REMARK  status: ('A' for Active; 'I' for Inactive)
REMARK    1  A    between atoms: C1_2  and  C2_3 
REMARK       I    between atoms: C1_2  and  N3_16 
REMARK    2  A    between atoms: C2_3  and  S1_4 
REMARK    3  A    between atoms: S1_4  and  C3_5 
REMARK    4  A    between atoms: C4_10  and  S2_11 
REMARK    5  A    between atoms: S2_11  and  C5_12 
REMARK    6  A    between atoms: C5_12  and  O2_13 
ROOT
HETATM    1  S1  UNL     1      13.452  -2.722  20.004  1.00  0.00    -0.094 SA
ENDROOT
BRANCH   1   2
HETATM    2  C2  UNL     1      14.391  -2.016  21.383  1.00  0.00     0.184 C 
BRANCH   2   3
HETATM    3  C1  UNL     1      15.759  -1.682  20.916  1.00  0.00     0.232 C 
HETATM    4  O1  UNL     1      16.751  -2.398  21.259  1.00  0.00    -0.272 OA
HETATM    5  N3  UNL     1      16.012  -0.578  20.088  1.00  0.00    -0.316 N 
HETATM    6  C6  UNL     1      15.865   0.642  20.493  1.00  0.00     0.079 C 
ATOM      7  H3  UNL     1      16.324  -0.744  19.131  1.00  0.00     0.170 HD
HETATM    8  C7  UNL     1      16.143   1.795  19.592  1.00  0.00     0.078 C 
HETATM    9  N4  UNL     1      15.451   1.108  21.750  1.00  0.00    -0.380 N 
HETATM   10  C8  UNL     1      15.879   2.981  20.478  1.00  0.00     0.027 C 
HETATM   11  C9  UNL     1      14.945   2.448  21.524  1.00  0.00     0.121 C 
ATOM     12  H4  UNL     1      15.496   0.608  22.638  1.00  0.00     0.160 HD
ENDBRANCH   2   3
ENDBRANCH   1   2
BRANCH   1  13
HETATM   13  C3  UNL     1      13.014  -1.429  18.827  1.00  0.00     0.129 A 
HETATM   14  N1  UNL     1      13.119  -1.438  17.501  1.00  0.00    -0.287 N 
HETATM   15  N2  UNL     1      12.756  -0.430  16.836  1.00  0.00    -0.287 N 
ATOM     16  H1  UNL     1      13.492  -2.258  17.023  1.00  0.00     0.188 HD
HETATM   17  C4  UNL     1      12.270   0.640  17.458  1.00  0.00     0.131 A 
ATOM     18  H2  UNL     1      12.836  -0.435  15.818  1.00  0.00     0.188 HD
HETATM   19  S3  UNL     1      12.354   0.131  19.088  1.00  0.00    -0.038 SA
BRANCH  17  20
HETATM   20  S2  UNL     1      11.688   2.195  16.740  1.00  0.00    -0.077 SA
BRANCH  20  21
HETATM   21  C5  UNL     1      10.641   1.789  15.310  1.00  0.00     0.245 C 
BRANCH  21  22
HETATM   22  O2  UNL     1      10.983   0.579  14.736  1.00  0.00    -0.391 OA
ATOM     23  H2  UNL     1      10.433  -0.133  15.042  1.00  0.00     0.210 HD
ENDBRANCH  21  22
ENDBRANCH  20  21
ENDBRANCH  17  20
ENDBRANCH   1  13
TORSDOF 6
ENDMDL
