MODEL 1
REMARK VINA RESULT: -9.746116369      0.000      0.000
REMARK  15 active torsions:
REMARK  status: ('A' for Active; 'I' for Inactive)
REMARK    1  A    between atoms: C2_2  and  C3_3 
REMARK    2  A    between atoms: C5_6  and  C6_7 
REMARK    3  A    between atoms: C7_8  and  C8_9 
REMARK    4  A    between atoms: C10_11  and  C11_12 
REMARK    5  A    between atoms: C11_12  and  C12_13 
REMARK    6  A    between atoms: C12_13  and  C21_31 
REMARK    7  A    between atoms: C13_14  and  C14_15 
REMARK    8  A    between atoms: C14_15  and  O2_16 
REMARK    9  A    between atoms: O2_16  and  C15_17 
REMARK   10  A    between atoms: C17_20  and  O4_22 
REMARK   11  A    between atoms: O4_22  and  O5_23 
REMARK   12  A    between atoms: C19_25  and  O6_26 
REMARK   13  A    between atoms: C20_28  and  O7_29 
REMARK   14  A    between atoms: C21_31  and  O8_32 
REMARK   15  A    between atoms: C23_35  and  O9_36 
ROOT
HETATM    1  C12 UNL     1      17.785 -39.077   4.871  1.00  0.00    -0.055 C 
HETATM    2  C13 UNL     1      19.046 -38.929   4.629  1.00  0.00     0.004 C 
ENDROOT
BRANCH   1   3
HETATM    3  C11 UNL     1      16.773 -38.013   4.548  1.00  0.00     0.063 C 
BRANCH   3   4
HETATM    4  C10 UNL     1      16.049 -38.317   3.324  1.00  0.00    -0.016 C 
HETATM    5  C8  UNL     1      15.172 -37.556   2.674  1.00  0.00    -0.065 C 
HETATM    6  C9  UNL     1      14.605 -38.184   1.423  1.00  0.00     0.048 C 
BRANCH   5   7
HETATM    7  C7  UNL     1      14.825 -36.268   3.144  1.00  0.00     0.009 C 
HETATM    8  C6  UNL     1      13.806 -35.487   3.112  1.00  0.00     0.037 C 
BRANCH   8   9
HETATM    9  C5  UNL     1      12.484 -35.550   2.564  1.00  0.00     0.068 C 
HETATM   10  O1  UNL     1      12.105 -35.749   1.258  1.00  0.00    -0.338 OA
HETATM   11  C3  UNL     1      10.749 -35.992   1.085  1.00  0.00     0.093 C 
HETATM   12  C4  UNL     1      10.208 -35.154  -0.044  1.00  0.00     0.049 C 
HETATM   13  C23 UNL     1      10.196 -35.533   2.425  1.00  0.00     0.178 C 
HETATM   14  C22 UNL     1      11.375 -35.414   3.308  1.00  0.00     0.044 C 
BRANCH  11  15
HETATM   15  C2  UNL     1      10.404 -37.453   0.905  1.00  0.00     0.037 C 
HETATM   16  C1  UNL     1      11.462 -38.114   0.051  1.00  0.00     0.008 C 
ENDBRANCH  11  15
BRANCH  13  17
HETATM   17  O9  UNL     1       9.633 -34.257   2.317  1.00  0.00    -0.389 OA
ATOM     18  H9  UNL     1       9.271 -33.978   3.150  1.00  0.00     0.210 HD
ENDBRANCH  13  17
ENDBRANCH   8   9
ENDBRANCH   5   7
ENDBRANCH   3   4
ENDBRANCH   1   3
BRANCH   1  19
HETATM   19  C21 UNL     1      17.247 -40.354   5.505  1.00  0.00     0.198 C 
BRANCH  19  20
HETATM   20  O8  UNL     1      17.188 -40.083   6.875  1.00  0.00    -0.397 OA
ATOM     21  H8  UNL     1      18.073 -40.223   7.192  1.00  0.00     0.209 HD
ENDBRANCH  19  20
ENDBRANCH   1  19
BRANCH   2  22
HETATM   22  C14 UNL     1      19.687 -37.761   4.027  1.00  0.00     0.198 C 
BRANCH  22  23
HETATM   23  O2  UNL     1      20.828 -38.096   3.282  1.00  0.00    -0.355 OA
BRANCH  23  24
HETATM   24  C15 UNL     1      21.983 -38.156   4.053  1.00  0.00     0.291 C 
HETATM   25  O3  UNL     1      21.905 -37.121   4.977  1.00  0.00    -0.355 OA
HETATM   26  C16 UNL     1      23.141 -36.758   5.501  1.00  0.00     0.214 C 
HETATM   27  C17 UNL     1      24.017 -36.082   4.465  1.00  0.00     0.142 C 
HETATM   28  C18 UNL     1      25.405 -36.678   4.588  1.00  0.00     0.054 C 
HETATM   29  C19 UNL     1      23.495 -36.500   3.083  1.00  0.00     0.191 C 
HETATM   30  C20 UNL     1      23.214 -37.988   3.191  1.00  0.00     0.205 C 
BRANCH  27  31
HETATM   31  O4  UNL     1      24.005 -34.708   4.579  1.00  0.00    -0.227 OA
BRANCH  31  32
HETATM   32  O5  UNL     1      23.028 -34.389   5.400  1.00  0.00    -0.250 OA
ATOM     33  H5  UNL     1      23.394 -34.348   6.276  1.00  0.00     0.253 HD
ENDBRANCH  31  32
ENDBRANCH  27  31
BRANCH  29  34
HETATM   34  O6  UNL     1      22.326 -35.788   2.827  1.00  0.00    -0.390 OA
ATOM     35  H6  UNL     1      21.588 -36.367   2.974  1.00  0.00     0.210 HD
ENDBRANCH  29  34
BRANCH  30  36
HETATM   36  O7  UNL     1      23.047 -38.569   1.940  1.00  0.00    -0.388 OA
ATOM     37  H7  UNL     1      23.498 -38.080   1.263  1.00  0.00     0.210 HD
ENDBRANCH  30  36
ENDBRANCH  23  24
ENDBRANCH  22  23
ENDBRANCH   2  22
TORSDOF 15
ENDMDL
MODEL 2
REMARK VINA RESULT: -9.695234014      1.325      1.446
REMARK  15 active torsions:
REMARK  status: ('A' for Active; 'I' for Inactive)
REMARK    1  A    between atoms: C2_2  and  C3_3 
REMARK    2  A    between atoms: C5_6  and  C6_7 
REMARK    3  A    between atoms: C7_8  and  C8_9 
REMARK    4  A    between atoms: C10_11  and  C11_12 
REMARK    5  A    between atoms: C11_12  and  C12_13 
REMARK    6  A    between atoms: C12_13  and  C21_31 
REMARK    7  A    between atoms: C13_14  and  C14_15 
REMARK    8  A    between atoms: C14_15  and  O2_16 
REMARK    9  A    between atoms: O2_16  and  C15_17 
REMARK   10  A    between atoms: C17_20  and  O4_22 
REMARK   11  A    between atoms: O4_22  and  O5_23 
REMARK   12  A    between atoms: C19_25  and  O6_26 
REMARK   13  A    between atoms: C20_28  and  O7_29 
REMARK   14  A    between atoms: C21_31  and  O8_32 
REMARK   15  A    between atoms: C23_35  and  O9_36 
ROOT
HETATM    1  C12 UNL     1      18.189 -38.308   4.014  1.00  0.00    -0.055 C 
HETATM    2  C13 UNL     1      19.368 -38.752   4.302  1.00  0.00     0.004 C 
ENDROOT
BRANCH   1   3
HETATM    3  C11 UNL     1      17.901 -36.843   3.835  1.00  0.00     0.063 C 
BRANCH   3   4
HETATM    4  C10 UNL     1      17.504 -36.539   2.470  1.00  0.00    -0.016 C 
HETATM    5  C8  UNL     1      16.424 -35.883   2.052  1.00  0.00    -0.065 C 
HETATM    6  C9  UNL     1      16.319 -35.742   0.551  1.00  0.00     0.048 C 
BRANCH   5   7
HETATM    7  C7  UNL     1      15.473 -35.372   2.966  1.00  0.00     0.009 C 
HETATM    8  C6  UNL     1      14.196 -35.341   3.092  1.00  0.00     0.037 C 
BRANCH   8   9
HETATM    9  C5  UNL     1      13.081 -35.830   2.336  1.00  0.00     0.068 C 
HETATM   10  O1  UNL     1      12.968 -35.983   0.975  1.00  0.00    -0.338 OA
HETATM   11  C3  UNL     1      11.849 -36.699   0.570  1.00  0.00     0.093 C 
HETATM   12  C4  UNL     1      11.157 -35.988  -0.565  1.00  0.00     0.049 C 
HETATM   13  C23 UNL     1      11.006 -36.665   1.834  1.00  0.00     0.178 C 
HETATM   14  C22 UNL     1      11.930 -36.225   2.901  1.00  0.00     0.044 C 
BRANCH  11  15
HETATM   15  C2  UNL     1      12.132 -38.143   0.227  1.00  0.00     0.037 C 
HETATM   16  C1  UNL     1      13.626 -38.342   0.098  1.00  0.00     0.008 C 
ENDBRANCH  11  15
BRANCH  13  17
HETATM   17  O9  UNL     1      10.002 -35.696   1.735  1.00  0.00    -0.389 OA
ATOM     18  H9  UNL     1       9.384 -35.776   2.453  1.00  0.00     0.210 HD
ENDBRANCH  13  17
ENDBRANCH   8   9
ENDBRANCH   5   7
ENDBRANCH   3   4
ENDBRANCH   1   3
BRANCH   1  19
HETATM   19  C21 UNL     1      17.008 -39.256   3.838  1.00  0.00     0.198 C 
BRANCH  19  20
HETATM   20  O8  UNL     1      17.509 -40.522   4.152  1.00  0.00    -0.397 OA
ATOM     21  H8  UNL     1      17.154 -41.100   3.486  1.00  0.00     0.209 HD
ENDBRANCH  19  20
ENDBRANCH   1  19
BRANCH   2  22
HETATM   22  C14 UNL     1      20.576 -37.953   4.496  1.00  0.00     0.198 C 
BRANCH  22  23
HETATM   23  O2  UNL     1      21.498 -38.107   3.448  1.00  0.00    -0.355 OA
BRANCH  23  24
HETATM   24  C15 UNL     1      22.820 -38.040   3.872  1.00  0.00     0.291 C 
HETATM   25  O3  UNL     1      22.832 -37.280   5.036  1.00  0.00    -0.355 OA
HETATM   26  C16 UNL     1      24.079 -36.741   5.328  1.00  0.00     0.214 C 
HETATM   27  C17 UNL     1      24.472 -35.661   4.339  1.00  0.00     0.142 C 
HETATM   28  C18 UNL     1      25.918 -35.902   3.956  1.00  0.00     0.054 C 
HETATM   29  C19 UNL     1      23.651 -35.890   3.062  1.00  0.00     0.191 C 
HETATM   30  C20 UNL     1      23.688 -37.387   2.820  1.00  0.00     0.205 C 
BRANCH  27  31
HETATM   31  O4  UNL     1      24.245 -34.392   4.827  1.00  0.00    -0.227 OA
BRANCH  31  32
HETATM   32  O5  UNL     1      23.347 -34.491   5.783  1.00  0.00    -0.250 OA
ATOM     33  H5  UNL     1      23.180 -33.614   6.109  1.00  0.00     0.253 HD
ENDBRANCH  31  32
ENDBRANCH  27  31
BRANCH  29  34
HETATM   34  O6  UNL     1      22.348 -35.455   3.300  1.00  0.00    -0.390 OA
ATOM     35  H6  UNL     1      21.811 -36.217   3.482  1.00  0.00     0.210 HD
ENDBRANCH  29  34
BRANCH  30  36
HETATM   36  O7  UNL     1      23.268 -37.710   1.536  1.00  0.00    -0.388 OA
ATOM     37  H7  UNL     1      23.994 -37.980   0.987  1.00  0.00     0.210 HD
ENDBRANCH  30  36
ENDBRANCH  23  24
ENDBRANCH  22  23
ENDBRANCH   2  22
TORSDOF 15
ENDMDL
MODEL 3
REMARK VINA RESULT: -9.614083436      1.043      1.536
REMARK  15 active torsions:
REMARK  status: ('A' for Active; 'I' for Inactive)
REMARK    1  A    between atoms: C2_2  and  C3_3 
REMARK    2  A    between atoms: C5_6  and  C6_7 
REMARK    3  A    between atoms: C7_8  and  C8_9 
REMARK    4  A    between atoms: C10_11  and  C11_12 
REMARK    5  A    between atoms: C11_12  and  C12_13 
REMARK    6  A    between atoms: C12_13  and  C21_31 
REMARK    7  A    between atoms: C13_14  and  C14_15 
REMARK    8  A    between atoms: C14_15  and  O2_16 
REMARK    9  A    between atoms: O2_16  and  C15_17 
REMARK   10  A    between atoms: C17_20  and  O4_22 
REMARK   11  A    between atoms: O4_22  and  O5_23 
REMARK   12  A    between atoms: C19_25  and  O6_26 
REMARK   13  A    between atoms: C20_28  and  O7_29 
REMARK   14  A    between atoms: C21_31  and  O8_32 
REMARK   15  A    between atoms: C23_35  and  O9_36 
ROOT
HETATM    1  C12 UNL     1      17.819 -39.017   4.822  1.00  0.00    -0.055 C 
HETATM    2  C13 UNL     1      19.090 -38.866   4.642  1.00  0.00     0.004 C 
ENDROOT
BRANCH   1   3
HETATM    3  C11 UNL     1      16.820 -37.958   4.443  1.00  0.00     0.063 C 
BRANCH   3   4
HETATM    4  C10 UNL     1      16.060 -38.338   3.264  1.00  0.00    -0.016 C 
HETATM    5  C8  UNL     1      15.213 -37.595   2.554  1.00  0.00    -0.065 C 
HETATM    6  C9  UNL     1      14.591 -38.308   1.377  1.00  0.00     0.048 C 
BRANCH   5   7
HETATM    7  C7  UNL     1      14.942 -36.251   2.903  1.00  0.00     0.009 C 
HETATM    8  C6  UNL     1      13.915 -35.514   3.122  1.00  0.00     0.037 C 
BRANCH   8   9
HETATM    9  C5  UNL     1      12.495 -35.710   3.119  1.00  0.00     0.068 C 
HETATM   10  O1  UNL     1      11.791 -36.887   3.208  1.00  0.00    -0.338 OA
HETATM   11  C3  UNL     1      10.428 -36.725   3.413  1.00  0.00     0.093 C 
HETATM   12  C4  UNL     1       9.649 -37.615   2.479  1.00  0.00     0.049 C 
HETATM   13  C23 UNL     1      10.249 -35.259   3.053  1.00  0.00     0.178 C 
HETATM   14  C22 UNL     1      11.617 -34.700   3.024  1.00  0.00     0.044 C 
BRANCH  11  15
HETATM   15  C2  UNL     1       9.994 -36.916   4.849  1.00  0.00     0.037 C 
HETATM   16  C1  UNL     1       8.529 -37.286   4.883  1.00  0.00     0.008 C 
ENDBRANCH  11  15
BRANCH  13  17
HETATM   17  O9  UNL     1       9.724 -35.128   1.762  1.00  0.00    -0.389 OA
ATOM     18  H9  UNL     1      10.418 -35.142   1.113  1.00  0.00     0.210 HD
ENDBRANCH  13  17
ENDBRANCH   8   9
ENDBRANCH   5   7
ENDBRANCH   3   4
ENDBRANCH   1   3
BRANCH   1  19
HETATM   19  C21 UNL     1      17.253 -40.292   5.437  1.00  0.00     0.198 C 
BRANCH  19  20
HETATM   20  O8  UNL     1      17.152 -40.024   6.804  1.00  0.00    -0.397 OA
ATOM     21  H8  UNL     1      16.365 -39.499   6.896  1.00  0.00     0.209 HD
ENDBRANCH  19  20
ENDBRANCH   1  19
BRANCH   2  22
HETATM   22  C14 UNL     1      19.756 -37.700   4.066  1.00  0.00     0.198 C 
BRANCH  22  23
HETATM   23  O2  UNL     1      20.876 -38.044   3.295  1.00  0.00    -0.355 OA
BRANCH  23  24
HETATM   24  C15 UNL     1      22.045 -38.135   4.042  1.00  0.00     0.291 C 
HETATM   25  O3  UNL     1      21.983 -37.139   5.009  1.00  0.00    -0.355 OA
HETATM   26  C16 UNL     1      23.227 -36.797   5.526  1.00  0.00     0.214 C 
HETATM   27  C17 UNL     1      24.085 -36.079   4.504  1.00  0.00     0.142 C 
HETATM   28  C18 UNL     1      25.474 -36.677   4.578  1.00  0.00     0.054 C 
HETATM   29  C19 UNL     1      23.539 -36.440   3.115  1.00  0.00     0.191 C 
HETATM   30  C20 UNL     1      23.260 -37.930   3.166  1.00  0.00     0.205 C 
BRANCH  27  31
HETATM   31  O4  UNL     1      24.074 -34.710   4.675  1.00  0.00    -0.227 OA
BRANCH  31  32
HETATM   32  O5  UNL     1      23.111 -34.426   5.525  1.00  0.00    -0.250 OA
ATOM     33  H5  UNL     1      22.798 -33.553   5.318  1.00  0.00     0.253 HD
ENDBRANCH  31  32
ENDBRANCH  27  31
BRANCH  29  34
HETATM   34  O6  UNL     1      22.365 -35.718   2.909  1.00  0.00    -0.390 OA
ATOM     35  H6  UNL     1      22.177 -35.720   1.978  1.00  0.00     0.210 HD
ENDBRANCH  29  34
BRANCH  30  36
HETATM   36  O7  UNL     1      23.071 -38.460   1.896  1.00  0.00    -0.388 OA
ATOM     37  H7  UNL     1      23.749 -38.178   1.294  1.00  0.00     0.210 HD
ENDBRANCH  30  36
ENDBRANCH  23  24
ENDBRANCH  22  23
ENDBRANCH   2  22
TORSDOF 15
ENDMDL
MODEL 4
REMARK VINA RESULT: -9.557929672      2.088      3.423
REMARK  15 active torsions:
REMARK  status: ('A' for Active; 'I' for Inactive)
REMARK    1  A    between atoms: C2_2  and  C3_3 
REMARK    2  A    between atoms: C5_6  and  C6_7 
REMARK    3  A    between atoms: C7_8  and  C8_9 
REMARK    4  A    between atoms: C10_11  and  C11_12 
REMARK    5  A    between atoms: C11_12  and  C12_13 
REMARK    6  A    between atoms: C12_13  and  C21_31 
REMARK    7  A    between atoms: C13_14  and  C14_15 
REMARK    8  A    between atoms: C14_15  and  O2_16 
REMARK    9  A    between atoms: O2_16  and  C15_17 
REMARK   10  A    between atoms: C17_20  and  O4_22 
REMARK   11  A    between atoms: O4_22  and  O5_23 
REMARK   12  A    between atoms: C19_25  and  O6_26 
REMARK   13  A    between atoms: C20_28  and  O7_29 
REMARK   14  A    between atoms: C21_31  and  O8_32 
REMARK   15  A    between atoms: C23_35  and  O9_36 
ROOT
HETATM    1  C12 UNL     1      17.335 -36.676   4.094  1.00  0.00    -0.055 C 
HETATM    2  C13 UNL     1      18.535 -37.150   4.029  1.00  0.00     0.004 C 
ENDROOT
BRANCH   1   3
HETATM    3  C11 UNL     1      16.135 -37.549   4.339  1.00  0.00     0.063 C 
BRANCH   3   4
HETATM    4  C10 UNL     1      15.570 -38.042   3.094  1.00  0.00    -0.016 C 
HETATM    5  C8  UNL     1      14.661 -37.461   2.314  1.00  0.00    -0.065 C 
HETATM    6  C9  UNL     1      14.294 -38.253   1.081  1.00  0.00     0.048 C 
BRANCH   5   7
HETATM    7  C7  UNL     1      14.104 -36.203   2.644  1.00  0.00     0.009 C 
HETATM    8  C6  UNL     1      12.981 -35.739   3.057  1.00  0.00     0.037 C 
BRANCH   8   9
HETATM    9  C5  UNL     1      11.704 -36.296   3.395  1.00  0.00     0.068 C 
HETATM   10  O1  UNL     1      11.310 -36.882   4.574  1.00  0.00    -0.338 OA
HETATM   11  C3  UNL     1       9.943 -37.111   4.670  1.00  0.00     0.093 C 
HETATM   12  C4  UNL     1       9.682 -38.507   5.172  1.00  0.00     0.049 C 
HETATM   13  C23 UNL     1       9.518 -36.960   3.219  1.00  0.00     0.178 C 
HETATM   14  C22 UNL     1      10.666 -36.317   2.546  1.00  0.00     0.044 C 
BRANCH  11  15
HETATM   15  C2  UNL     1       9.202 -36.080   5.490  1.00  0.00     0.037 C 
HETATM   16  C1  UNL     1       8.449 -36.774   6.602  1.00  0.00     0.008 C 
ENDBRANCH  11  15
BRANCH  13  17
HETATM   17  O9  UNL     1       9.341 -38.213   2.622  1.00  0.00    -0.389 OA
ATOM     18  H9  UNL     1      10.164 -38.541   2.277  1.00  0.00     0.210 HD
ENDBRANCH  13  17
ENDBRANCH   8   9
ENDBRANCH   5   7
ENDBRANCH   3   4
ENDBRANCH   1   3
BRANCH   1  19
HETATM   19  C21 UNL     1      17.063 -35.185   3.924  1.00  0.00     0.198 C 
BRANCH  19  20
HETATM   20  O8  UNL     1      18.285 -34.561   4.190  1.00  0.00    -0.397 OA
ATOM     21  H8  UNL     1      18.061 -33.664   4.410  1.00  0.00     0.209 HD
ENDBRANCH  19  20
ENDBRANCH   1  19
BRANCH   2  22
HETATM   22  C14 UNL     1      18.928 -38.550   4.174  1.00  0.00     0.198 C 
BRANCH  22  23
HETATM   23  O2  UNL     1      20.298 -38.753   3.946  1.00  0.00    -0.355 OA
BRANCH  23  24
HETATM   24  C15 UNL     1      20.974 -37.584   3.618  1.00  0.00     0.291 C 
HETATM   25  O3  UNL     1      21.412 -37.727   2.307  1.00  0.00    -0.355 OA
HETATM   26  C16 UNL     1      22.466 -36.879   1.985  1.00  0.00     0.214 C 
HETATM   27  C17 UNL     1      23.743 -37.267   2.703  1.00  0.00     0.142 C 
HETATM   28  C18 UNL     1      24.366 -35.995   3.239  1.00  0.00     0.054 C 
HETATM   29  C19 UNL     1      23.342 -38.095   3.932  1.00  0.00     0.191 C 
HETATM   30  C20 UNL     1      22.155 -37.370   4.538  1.00  0.00     0.205 C 
BRANCH  27  31
HETATM   31  O4  UNL     1      24.598 -37.994   1.902  1.00  0.00    -0.227 OA
BRANCH  31  32
HETATM   32  O5  UNL     1      23.868 -38.594   0.987  1.00  0.00    -0.250 OA
ATOM     33  H5  UNL     1      23.783 -39.504   1.243  1.00  0.00     0.253 HD
ENDBRANCH  31  32
ENDBRANCH  27  31
BRANCH  29  34
HETATM   34  O6  UNL     1      22.980 -39.369   3.499  1.00  0.00    -0.390 OA
ATOM     35  H6  UNL     1      23.708 -39.733   3.008  1.00  0.00     0.210 HD
ENDBRANCH  29  34
BRANCH  30  36
HETATM   36  O7  UNL     1      21.887 -37.813   5.827  1.00  0.00    -0.388 OA
ATOM     37  H7  UNL     1      21.634 -38.728   5.838  1.00  0.00     0.210 HD
ENDBRANCH  30  36
ENDBRANCH  23  24
ENDBRANCH  22  23
ENDBRANCH   2  22
TORSDOF 15
ENDMDL
MODEL 5
REMARK VINA RESULT: -9.555027155      1.056      2.003
REMARK  15 active torsions:
REMARK  status: ('A' for Active; 'I' for Inactive)
REMARK    1  A    between atoms: C2_2  and  C3_3 
REMARK    2  A    between atoms: C5_6  and  C6_7 
REMARK    3  A    between atoms: C7_8  and  C8_9 
REMARK    4  A    between atoms: C10_11  and  C11_12 
REMARK    5  A    between atoms: C11_12  and  C12_13 
REMARK    6  A    between atoms: C12_13  and  C21_31 
REMARK    7  A    between atoms: C13_14  and  C14_15 
REMARK    8  A    between atoms: C14_15  and  O2_16 
REMARK    9  A    between atoms: O2_16  and  C15_17 
REMARK   10  A    between atoms: C17_20  and  O4_22 
REMARK   11  A    between atoms: O4_22  and  O5_23 
REMARK   12  A    between atoms: C19_25  and  O6_26 
REMARK   13  A    between atoms: C20_28  and  O7_29 
REMARK   14  A    between atoms: C21_31  and  O8_32 
REMARK   15  A    between atoms: C23_35  and  O9_36 
ROOT
HETATM    1  C12 UNL     1      18.025 -39.531   5.001  1.00  0.00    -0.055 C 
HETATM    2  C13 UNL     1      19.131 -38.937   5.311  1.00  0.00     0.004 C 
ENDROOT
BRANCH   1   3
HETATM    3  C11 UNL     1      17.222 -39.156   3.786  1.00  0.00     0.063 C 
BRANCH   3   4
HETATM    4  C10 UNL     1      16.344 -38.029   4.053  1.00  0.00    -0.016 C 
HETATM    5  C8  UNL     1      15.454 -37.465   3.240  1.00  0.00    -0.065 C 
HETATM    6  C9  UNL     1      14.702 -36.302   3.843  1.00  0.00     0.048 C 
BRANCH   5   7
HETATM    7  C7  UNL     1      15.255 -37.943   1.923  1.00  0.00     0.009 C 
HETATM    8  C6  UNL     1      14.287 -38.052   1.088  1.00  0.00     0.037 C 
BRANCH   8   9
HETATM    9  C5  UNL     1      12.891 -37.727   1.090  1.00  0.00     0.068 C 
HETATM   10  O1  UNL     1      12.115 -37.285   2.134  1.00  0.00    -0.338 OA
HETATM   11  C3  UNL     1      10.854 -36.836   1.761  1.00  0.00     0.093 C 
HETATM   12  C4  UNL     1       9.803 -37.414   2.674  1.00  0.00     0.049 C 
HETATM   13  C23 UNL     1      10.741 -37.412   0.359  1.00  0.00     0.178 C 
HETATM   14  C22 UNL     1      12.115 -37.822  -0.001  1.00  0.00     0.044 C 
BRANCH  11  15
HETATM   15  C2  UNL     1      10.739 -35.332   1.667  1.00  0.00     0.037 C 
HETATM   16  C1  UNL     1      10.700 -34.746   3.060  1.00  0.00     0.008 C 
ENDBRANCH  11  15
BRANCH  13  17
HETATM   17  O9  UNL     1       9.955 -38.569   0.361  1.00  0.00    -0.389 OA
ATOM     18  H9  UNL     1       9.117 -38.407  -0.057  1.00  0.00     0.210 HD
ENDBRANCH  13  17
ENDBRANCH   8   9
ENDBRANCH   5   7
ENDBRANCH   3   4
ENDBRANCH   1   3
BRANCH   1  19
HETATM   19  C21 UNL     1      17.466 -40.659   5.861  1.00  0.00     0.198 C 
BRANCH  19  20
HETATM   20  O8  UNL     1      17.168 -40.066   7.090  1.00  0.00    -0.397 OA
ATOM     21  H8  UNL     1      16.473 -40.599   7.459  1.00  0.00     0.209 HD
ENDBRANCH  19  20
ENDBRANCH   1  19
BRANCH   2  22
HETATM   22  C14 UNL     1      19.771 -37.849   4.575  1.00  0.00     0.198 C 
BRANCH  22  23
HETATM   23  O2  UNL     1      20.780 -38.302   3.711  1.00  0.00    -0.355 OA
BRANCH  23  24
HETATM   24  C15 UNL     1      22.039 -38.305   4.299  1.00  0.00     0.291 C 
HETATM   25  O3  UNL     1      22.052 -37.274   5.230  1.00  0.00    -0.355 OA
HETATM   26  C16 UNL     1      23.333 -36.852   5.565  1.00  0.00     0.214 C 
HETATM   27  C17 UNL     1      24.010 -36.136   4.413  1.00  0.00     0.142 C 
HETATM   28  C18 UNL     1      25.427 -36.664   4.322  1.00  0.00     0.054 C 
HETATM   29  C19 UNL     1      23.307 -36.580   3.123  1.00  0.00     0.191 C 
HETATM   30  C20 UNL     1      23.116 -38.079   3.262  1.00  0.00     0.205 C 
BRANCH  27  31
HETATM   31  O4  UNL     1      23.950 -34.764   4.536  1.00  0.00    -0.227 OA
BRANCH  31  32
HETATM   32  O5  UNL     1      22.968 -34.485   5.365  1.00  0.00    -0.250 OA
ATOM     33  H5  UNL     1      23.289 -33.835   5.979  1.00  0.00     0.253 HD
ENDBRANCH  31  32
ENDBRANCH  27  31
BRANCH  29  34
HETATM   34  O6  UNL     1      22.080 -35.925   3.049  1.00  0.00    -0.390 OA
ATOM     35  H6  UNL     1      21.845 -35.638   3.923  1.00  0.00     0.210 HD
ENDBRANCH  29  34
BRANCH  30  36
HETATM   36  O7  UNL     1      22.791 -38.670   2.047  1.00  0.00    -0.388 OA
ATOM     37  H7  UNL     1      23.524 -39.153   1.685  1.00  0.00     0.210 HD
ENDBRANCH  30  36
ENDBRANCH  23  24
ENDBRANCH  22  23
ENDBRANCH   2  22
TORSDOF 15
ENDMDL
