MODEL 1
REMARK VINA RESULT: -10.431981926      0.000      0.000
REMARK  13 active torsions:
REMARK  status: ('A' for Active; 'I' for Inactive)
REMARK    1  A    between atoms: O1_2  and  C2_3 
REMARK    2  A    between atoms: C4_5  and  C5_6 
REMARK    3  A    between atoms: C6_7  and  C7_8 
REMARK    4  A    between atoms: C7_8  and  O2_12 
REMARK    5  A    between atoms: O2_12  and  C8_13 
REMARK    6  A    between atoms: C8_13  and  C10_15 
REMARK    7  A    between atoms: C10_15  and  C11_16 
REMARK    8  A    between atoms: C14_19  and  O3_20 
REMARK    9  A    between atoms: O3_20  and  C15_21 
REMARK   10  A    between atoms: C17_24  and  O5_25 
REMARK   11  A    between atoms: C18_27  and  O6_28 
REMARK   12  A    between atoms: C19_30  and  O7_31 
REMARK   13  A    between atoms: C21_34  and  O8_35 
ROOT
HETATM    1  C11 UNL     1      13.353 -36.510   2.032  1.00  0.00     0.017 C 
HETATM    2  C12 UNL     1      14.537 -35.711   2.462  1.00  0.00     0.010 C 
HETATM    3  C13 UNL     1      15.145 -36.332   3.683  1.00  0.00     0.032 C 
HETATM    4  C14 UNL     1      15.874 -37.580   3.294  1.00  0.00     0.127 C 
HETATM    5  C20 UNL     1      15.328 -38.074   1.976  1.00  0.00     0.064 C 
HETATM    6  C21 UNL     1      13.824 -37.955   1.875  1.00  0.00     0.124 C 
ENDROOT
BRANCH   1   7
HETATM    7  C10 UNL     1      12.163 -36.429   2.943  1.00  0.00     0.039 C 
BRANCH   7   8
HETATM    8  C8  UNL     1      10.905 -36.703   2.156  1.00  0.00     0.127 C 
HETATM    9  C9  UNL     1       9.823 -37.265   3.043  1.00  0.00     0.040 C 
BRANCH   8  10
HETATM   10  O2  UNL     1      10.498 -35.590   1.396  1.00  0.00    -0.331 OA
BRANCH  10  11
HETATM   11  C7  UNL     1      10.711 -35.575   0.033  1.00  0.00     0.135 C 
HETATM   12  N1  UNL     1       9.702 -35.531  -0.737  1.00  0.00    -0.380 N 
ATOM     13  H12 UNL     1       9.860 -35.520  -1.745  1.00  0.00     0.158 HD
ATOM     14  H11 UNL     1       8.749 -35.507  -0.375  1.00  0.00     0.158 HD
BRANCH  11  15
HETATM   15  C6  UNL     1      12.084 -35.610  -0.490  1.00  0.00     0.056 C 
HETATM   16  C5  UNL     1      12.357 -35.908  -1.733  1.00  0.00     0.017 C 
BRANCH  16  17
HETATM   17  C4  UNL     1      13.735 -35.930  -2.208  1.00  0.00    -0.009 A 
HETATM   18  C3  UNL     1      14.147 -35.867  -3.529  1.00  0.00     0.077 A 
HETATM   19  C2  UNL     1      15.526 -35.916  -3.550  1.00  0.00     0.185 A 
HETATM   20  O9  UNL     1      15.918 -36.003  -2.316  1.00  0.00    -0.299 OA
HETATM   21  C22 UNL     1      14.899 -36.015  -1.478  1.00  0.00     0.156 A 
BRANCH  19  22
HETATM   22  O1  UNL     1      16.322 -35.877  -4.710  1.00  0.00    -0.335 OA
HETATM   23  C1  UNL     1      15.788 -36.331  -5.938  1.00  0.00     0.212 C 
ENDBRANCH  19  22
ENDBRANCH  16  17
ENDBRANCH  11  15
ENDBRANCH  10  11
ENDBRANCH   8  10
ENDBRANCH   7   8
ENDBRANCH   1   7
BRANCH   6  24
HETATM   24  O8  UNL     1      13.447 -38.424   0.637  1.00  0.00    -0.395 OA
ATOM     25  H8  UNL     1      12.759 -39.069   0.743  1.00  0.00     0.210 HD
ENDBRANCH   6  24
BRANCH   4  26
HETATM   26  O3  UNL     1      17.238 -37.346   3.203  1.00  0.00    -0.353 OA
BRANCH  26  27
HETATM   27  C15 UNL     1      17.928 -37.771   4.325  1.00  0.00     0.291 C 
HETATM   28  O4  UNL     1      18.808 -36.786   4.796  1.00  0.00    -0.356 OA
HETATM   29  C16 UNL     1      20.017 -36.887   4.107  1.00  0.00     0.205 C 
HETATM   30  C17 UNL     1      20.815 -38.093   4.607  1.00  0.00     0.173 C 
HETATM   31  C18 UNL     1      19.814 -39.097   5.118  1.00  0.00     0.182 C 
HETATM   32  C19 UNL     1      18.607 -39.093   4.180  1.00  0.00     0.204 C 
BRANCH  30  33
HETATM   33  O5  UNL     1      21.504 -38.672   3.556  1.00  0.00    -0.391 OA
ATOM     34  H5  UNL     1      21.617 -39.601   3.717  1.00  0.00     0.210 HD
ENDBRANCH  30  33
BRANCH  31  35
HETATM   35  O6  UNL     1      20.410 -40.361   4.991  1.00  0.00    -0.390 OA
ATOM     36  H6  UNL     1      19.802 -40.988   5.366  1.00  0.00     0.210 HD
ENDBRANCH  31  35
BRANCH  32  37
HETATM   37  O7  UNL     1      17.767 -40.121   4.669  1.00  0.00    -0.388 OA
ATOM     38  H7  UNL     1      18.294 -40.850   4.977  1.00  0.00     0.210 HD
ENDBRANCH  32  37
ENDBRANCH  26  27
ENDBRANCH   4  26
TORSDOF 13
ENDMDL
MODEL 2
REMARK VINA RESULT: -10.296704421      0.886      1.563
REMARK  13 active torsions:
REMARK  status: ('A' for Active; 'I' for Inactive)
REMARK    1  A    between atoms: O1_2  and  C2_3 
REMARK    2  A    between atoms: C4_5  and  C5_6 
REMARK    3  A    between atoms: C6_7  and  C7_8 
REMARK    4  A    between atoms: C7_8  and  O2_12 
REMARK    5  A    between atoms: O2_12  and  C8_13 
REMARK    6  A    between atoms: C8_13  and  C10_15 
REMARK    7  A    between atoms: C10_15  and  C11_16 
REMARK    8  A    between atoms: C14_19  and  O3_20 
REMARK    9  A    between atoms: O3_20  and  C15_21 
REMARK   10  A    between atoms: C17_24  and  O5_25 
REMARK   11  A    between atoms: C18_27  and  O6_28 
REMARK   12  A    between atoms: C19_30  and  O7_31 
REMARK   13  A    between atoms: C21_34  and  O8_35 
ROOT
HETATM    1  C11 UNL     1      13.470 -36.389   2.301  1.00  0.00     0.017 C 
HETATM    2  C12 UNL     1      14.593 -35.654   2.952  1.00  0.00     0.010 C 
HETATM    3  C13 UNL     1      15.009 -36.376   4.199  1.00  0.00     0.032 C 
HETATM    4  C14 UNL     1      15.764 -37.613   3.827  1.00  0.00     0.127 C 
HETATM    5  C20 UNL     1      15.406 -37.999   2.412  1.00  0.00     0.064 C 
HETATM    6  C21 UNL     1      13.934 -37.832   2.108  1.00  0.00     0.124 C 
ENDROOT
BRANCH   1   7
HETATM    7  C10 UNL     1      12.163 -36.339   3.037  1.00  0.00     0.039 C 
BRANCH   7   8
HETATM    8  C8  UNL     1      11.041 -36.717   2.101  1.00  0.00     0.127 C 
HETATM    9  C9  UNL     1       9.955 -37.464   2.832  1.00  0.00     0.040 C 
BRANCH   8  10
HETATM   10  O2  UNL     1      10.574 -35.617   1.356  1.00  0.00    -0.331 OA
BRANCH  10  11
HETATM   11  C7  UNL     1      10.787 -35.572  -0.007  1.00  0.00     0.135 C 
HETATM   12  N1  UNL     1       9.777 -35.509  -0.775  1.00  0.00    -0.380 N 
ATOM     13  H12 UNL     1       9.934 -35.476  -1.782  1.00  0.00     0.158 HD
ATOM     14  H11 UNL     1       8.825 -35.492  -0.411  1.00  0.00     0.158 HD
BRANCH  11  15
HETATM   15  C6  UNL     1      12.159 -35.598  -0.531  1.00  0.00     0.056 C 
HETATM   16  C5  UNL     1      12.435 -35.930  -1.765  1.00  0.00     0.017 C 
BRANCH  16  17
HETATM   17  C4  UNL     1      13.812 -35.941  -2.243  1.00  0.00    -0.009 A 
HETATM   18  C3  UNL     1      14.221 -35.876  -3.564  1.00  0.00     0.077 A 
HETATM   19  C2  UNL     1      15.601 -35.914  -3.588  1.00  0.00     0.185 A 
HETATM   20  O9  UNL     1      15.996 -35.995  -2.354  1.00  0.00    -0.299 OA
HETATM   21  C22 UNL     1      14.979 -36.015  -1.515  1.00  0.00     0.156 A 
BRANCH  19  22
HETATM   22  O1  UNL     1      16.395 -35.870  -4.749  1.00  0.00    -0.335 OA
HETATM   23  C1  UNL     1      15.832 -36.235  -5.993  1.00  0.00     0.212 C 
ENDBRANCH  19  22
ENDBRANCH  16  17
ENDBRANCH  11  15
ENDBRANCH  10  11
ENDBRANCH   8  10
ENDBRANCH   7   8
ENDBRANCH   1   7
BRANCH   6  24
HETATM   24  O8  UNL     1      13.731 -38.202   0.798  1.00  0.00    -0.395 OA
ATOM     25  H8  UNL     1      13.295 -39.046   0.775  1.00  0.00     0.210 HD
ENDBRANCH   6  24
BRANCH   4  26
HETATM   26  O3  UNL     1      17.131 -37.411   3.948  1.00  0.00    -0.353 OA
BRANCH  26  27
HETATM   27  C15 UNL     1      17.847 -38.595   3.952  1.00  0.00     0.291 C 
HETATM   28  O4  UNL     1      17.107 -39.647   4.511  1.00  0.00    -0.356 OA
HETATM   29  C16 UNL     1      17.268 -39.633   5.897  1.00  0.00     0.205 C 
HETATM   30  C17 UNL     1      18.649 -40.166   6.278  1.00  0.00     0.173 C 
HETATM   31  C18 UNL     1      19.564 -39.878   5.114  1.00  0.00     0.182 C 
HETATM   32  C19 UNL     1      19.210 -38.501   4.555  1.00  0.00     0.204 C 
BRANCH  30  33
HETATM   33  O5  UNL     1      19.132 -39.484   7.380  1.00  0.00    -0.391 OA
ATOM     34  H5  UNL     1      19.944 -39.879   7.675  1.00  0.00     0.210 HD
ENDBRANCH  30  33
BRANCH  31  35
HETATM   35  O6  UNL     1      20.861 -39.773   5.638  1.00  0.00    -0.390 OA
ATOM     36  H6  UNL     1      21.104 -40.640   5.941  1.00  0.00     0.210 HD
ENDBRANCH  31  35
BRANCH  32  37
HETATM   37  O7  UNL     1      20.169 -38.268   3.540  1.00  0.00    -0.388 OA
ATOM     38  H7  UNL     1      20.040 -37.404   3.165  1.00  0.00     0.210 HD
ENDBRANCH  32  37
ENDBRANCH  26  27
ENDBRANCH   4  26
TORSDOF 13
ENDMDL
MODEL 3
REMARK VINA RESULT: -10.272214188      1.109      1.640
REMARK  13 active torsions:
REMARK  status: ('A' for Active; 'I' for Inactive)
REMARK    1  A    between atoms: O1_2  and  C2_3 
REMARK    2  A    between atoms: C4_5  and  C5_6 
REMARK    3  A    between atoms: C6_7  and  C7_8 
REMARK    4  A    between atoms: C7_8  and  O2_12 
REMARK    5  A    between atoms: O2_12  and  C8_13 
REMARK    6  A    between atoms: C8_13  and  C10_15 
REMARK    7  A    between atoms: C10_15  and  C11_16 
REMARK    8  A    between atoms: C14_19  and  O3_20 
REMARK    9  A    between atoms: O3_20  and  C15_21 
REMARK   10  A    between atoms: C17_24  and  O5_25 
REMARK   11  A    between atoms: C18_27  and  O6_28 
REMARK   12  A    between atoms: C19_30  and  O7_31 
REMARK   13  A    between atoms: C21_34  and  O8_35 
ROOT
HETATM    1  C11 UNL     1      13.618 -36.683   2.015  1.00  0.00     0.017 C 
HETATM    2  C12 UNL     1      14.418 -35.890   2.992  1.00  0.00     0.010 C 
HETATM    3  C13 UNL     1      14.568 -36.666   4.266  1.00  0.00     0.032 C 
HETATM    4  C14 UNL     1      15.547 -37.779   4.057  1.00  0.00     0.127 C 
HETATM    5  C20 UNL     1      15.639 -38.079   2.580  1.00  0.00     0.064 C 
HETATM    6  C21 UNL     1      14.297 -38.046   1.885  1.00  0.00     0.124 C 
ENDROOT
BRANCH   1   7
HETATM    7  C10 UNL     1      12.164 -36.838   2.357  1.00  0.00     0.039 C 
BRANCH   7   8
HETATM    8  C8  UNL     1      11.361 -36.986   1.088  1.00  0.00     0.127 C 
HETATM    9  C9  UNL     1      10.147 -37.851   1.315  1.00  0.00     0.040 C 
BRANCH   8  10
HETATM   10  O2  UNL     1      11.072 -35.744   0.491  1.00  0.00    -0.331 OA
BRANCH  10  11
HETATM   11  C7  UNL     1      10.925 -35.659  -0.878  1.00  0.00     0.135 C 
HETATM   12  N1  UNL     1       9.750 -35.644  -1.360  1.00  0.00    -0.380 N 
ATOM     13  H12 UNL     1       9.641 -35.581  -2.373  1.00  0.00     0.158 HD
ATOM     14  H11 UNL     1       8.923 -35.692  -0.765  1.00  0.00     0.158 HD
BRANCH  11  15
HETATM   15  C6  UNL     1      12.115 -35.589  -1.736  1.00  0.00     0.056 C 
HETATM   16  C5  UNL     1      13.305 -35.931  -1.318  1.00  0.00     0.017 C 
BRANCH  16  17
HETATM   17  C4  UNL     1      14.460 -35.846  -2.204  1.00  0.00    -0.009 A 
HETATM   18  C3  UNL     1      14.438 -35.915  -3.587  1.00  0.00     0.077 A 
HETATM   19  C2  UNL     1      15.735 -35.794  -4.043  1.00  0.00     0.185 A 
HETATM   20  O9  UNL     1      16.490 -35.660  -2.995  1.00  0.00    -0.299 OA
HETATM   21  C22 UNL     1      15.788 -35.684  -1.879  1.00  0.00     0.156 A 
BRANCH  19  22
HETATM   22  O1  UNL     1      16.126 -35.816  -5.394  1.00  0.00    -0.335 OA
HETATM   23  C1  UNL     1      15.382 -36.578  -6.323  1.00  0.00     0.212 C 
ENDBRANCH  19  22
ENDBRANCH  16  17
ENDBRANCH  11  15
ENDBRANCH  10  11
ENDBRANCH   8  10
ENDBRANCH   7   8
ENDBRANCH   1   7
BRANCH   6  24
HETATM   24  O8  UNL     1      14.507 -38.323   0.553  1.00  0.00    -0.395 OA
ATOM     25  H8  UNL     1      15.383 -38.671   0.440  1.00  0.00     0.210 HD
ENDBRANCH   6  24
BRANCH   4  26
HETATM   26  O3  UNL     1      16.791 -37.441   4.567  1.00  0.00    -0.353 OA
BRANCH  26  27
HETATM   27  C15 UNL     1      17.833 -37.948   3.810  1.00  0.00     0.291 C 
HETATM   28  O4  UNL     1      18.392 -39.093   4.398  1.00  0.00    -0.356 OA
HETATM   29  C16 UNL     1      19.358 -38.702   5.328  1.00  0.00     0.205 C 
HETATM   30  C17 UNL     1      20.625 -38.233   4.613  1.00  0.00     0.173 C 
HETATM   31  C18 UNL     1      20.198 -37.709   3.265  1.00  0.00     0.182 C 
HETATM   32  C19 UNL     1      18.882 -36.952   3.439  1.00  0.00     0.204 C 
BRANCH  30  33
HETATM   33  O5  UNL     1      21.203 -37.189   5.313  1.00  0.00    -0.391 OA
ATOM     34  H5  UNL     1      20.689 -36.399   5.199  1.00  0.00     0.210 HD
ENDBRANCH  30  33
BRANCH  31  35
HETATM   35  O6  UNL     1      21.155 -36.759   2.879  1.00  0.00    -0.390 OA
ATOM     36  H6  UNL     1      21.427 -36.988   1.998  1.00  0.00     0.210 HD
ENDBRANCH  31  35
BRANCH  32  37
HETATM   37  O7  UNL     1      18.604 -36.415   2.159  1.00  0.00    -0.388 OA
ATOM     38  H7  UNL     1      18.179 -37.072   1.619  1.00  0.00     0.210 HD
ENDBRANCH  32  37
ENDBRANCH  26  27
ENDBRANCH   4  26
TORSDOF 13
ENDMDL
MODEL 4
REMARK VINA RESULT: -10.167310618      2.175      5.900
REMARK  13 active torsions:
REMARK  status: ('A' for Active; 'I' for Inactive)
REMARK    1  A    between atoms: O1_2  and  C2_3 
REMARK    2  A    between atoms: C4_5  and  C5_6 
REMARK    3  A    between atoms: C6_7  and  C7_8 
REMARK    4  A    between atoms: C7_8  and  O2_12 
REMARK    5  A    between atoms: O2_12  and  C8_13 
REMARK    6  A    between atoms: C8_13  and  C10_15 
REMARK    7  A    between atoms: C10_15  and  C11_16 
REMARK    8  A    between atoms: C14_19  and  O3_20 
REMARK    9  A    between atoms: O3_20  and  C15_21 
REMARK   10  A    between atoms: C17_24  and  O5_25 
REMARK   11  A    between atoms: C18_27  and  O6_28 
REMARK   12  A    between atoms: C19_30  and  O7_31 
REMARK   13  A    between atoms: C21_34  and  O8_35 
ROOT
HETATM    1  C11 UNL     1      13.794 -36.814   1.592  1.00  0.00     0.017 C 
HETATM    2  C12 UNL     1      14.476 -38.070   2.022  1.00  0.00     0.010 C 
HETATM    3  C13 UNL     1      15.914 -37.780   2.329  1.00  0.00     0.032 C 
HETATM    4  C14 UNL     1      16.005 -37.045   3.630  1.00  0.00     0.127 C 
HETATM    5  C20 UNL     1      14.676 -36.388   3.915  1.00  0.00     0.064 C 
HETATM    6  C21 UNL     1      14.042 -35.776   2.685  1.00  0.00     0.124 C 
ENDROOT
BRANCH   1   7
HETATM    7  C10 UNL     1      14.211 -36.290   0.249  1.00  0.00     0.039 C 
BRANCH   7   8
HETATM    8  C8  UNL     1      12.997 -36.149  -0.636  1.00  0.00     0.127 C 
HETATM    9  C9  UNL     1      13.397 -35.907  -2.069  1.00  0.00     0.040 C 
BRANCH   8  10
HETATM   10  O2  UNL     1      12.089 -37.213  -0.470  1.00  0.00    -0.331 OA
BRANCH  10  11
HETATM   11  C7  UNL     1      10.799 -36.954  -0.055  1.00  0.00     0.135 C 
HETATM   12  N1  UNL     1      10.051 -36.253  -0.805  1.00  0.00    -0.380 N 
ATOM     13  H12 UNL     1       9.097 -36.061  -0.498  1.00  0.00     0.158 HD
ATOM     14  H11 UNL     1      10.380 -35.881  -1.696  1.00  0.00     0.158 HD
BRANCH  11  15
HETATM   15  C6  UNL     1      10.326 -37.490   1.228  1.00  0.00     0.056 C 
HETATM   16  C5  UNL     1      10.020 -36.723   2.242  1.00  0.00     0.017 C 
BRANCH  16  17
HETATM   17  C4  UNL     1       9.554 -37.298   3.498  1.00  0.00    -0.009 A 
HETATM   18  C3  UNL     1       9.604 -36.696   4.743  1.00  0.00     0.077 A 
HETATM   19  C2  UNL     1       9.065 -37.570   5.665  1.00  0.00     0.185 A 
HETATM   20  O9  UNL     1       8.711 -38.634   5.010  1.00  0.00    -0.299 OA
HETATM   21  C22 UNL     1       8.978 -38.529   3.723  1.00  0.00     0.156 A 
BRANCH  19  22
HETATM   22  O1  UNL     1       8.938 -37.321   7.044  1.00  0.00    -0.335 OA
HETATM   23  C1  UNL     1       8.025 -36.340   7.494  1.00  0.00     0.212 C 
ENDBRANCH  19  22
ENDBRANCH  16  17
ENDBRANCH  11  15
ENDBRANCH  10  11
ENDBRANCH   8  10
ENDBRANCH   7   8
ENDBRANCH   1   7
BRANCH   6  24
HETATM   24  O8  UNL     1      12.842 -35.220   3.064  1.00  0.00    -0.395 OA
ATOM     25  H8  UNL     1      12.990 -34.610   3.777  1.00  0.00     0.210 HD
ENDBRANCH   6  24
BRANCH   4  26
HETATM   26  O3  UNL     1      16.357 -37.905   4.659  1.00  0.00    -0.353 OA
BRANCH  26  27
HETATM   27  C15 UNL     1      17.398 -38.750   4.315  1.00  0.00     0.291 C 
HETATM   28  O4  UNL     1      17.183 -40.055   4.784  1.00  0.00    -0.356 OA
HETATM   29  C16 UNL     1      17.641 -40.148   6.099  1.00  0.00     0.205 C 
HETATM   30  C17 UNL     1      19.169 -40.198   6.127  1.00  0.00     0.173 C 
HETATM   31  C18 UNL     1      19.653 -39.469   4.899  1.00  0.00     0.182 C 
HETATM   32  C19 UNL     1      18.757 -38.251   4.680  1.00  0.00     0.204 C 
BRANCH  30  33
HETATM   33  O5  UNL     1      19.643 -39.525   7.239  1.00  0.00    -0.391 OA
ATOM     34  H5  UNL     1      20.186 -40.104   7.761  1.00  0.00     0.210 HD
ENDBRANCH  30  33
BRANCH  31  35
HETATM   35  O6  UNL     1      20.930 -38.974   5.202  1.00  0.00    -0.390 OA
ATOM     36  H6  UNL     1      21.514 -39.723   5.227  1.00  0.00     0.210 HD
ENDBRANCH  31  35
BRANCH  32  37
HETATM   37  O7  UNL     1      19.333 -37.575   3.578  1.00  0.00    -0.388 OA
ATOM     38  H7  UNL     1      19.053 -37.983   2.766  1.00  0.00     0.210 HD
ENDBRANCH  32  37
ENDBRANCH  26  27
ENDBRANCH   4  26
TORSDOF 13
ENDMDL
MODEL 5
REMARK VINA RESULT: -10.095090272      1.533      2.550
REMARK  13 active torsions:
REMARK  status: ('A' for Active; 'I' for Inactive)
REMARK    1  A    between atoms: O1_2  and  C2_3 
REMARK    2  A    between atoms: C4_5  and  C5_6 
REMARK    3  A    between atoms: C6_7  and  C7_8 
REMARK    4  A    between atoms: C7_8  and  O2_12 
REMARK    5  A    between atoms: O2_12  and  C8_13 
REMARK    6  A    between atoms: C8_13  and  C10_15 
REMARK    7  A    between atoms: C10_15  and  C11_16 
REMARK    8  A    between atoms: C14_19  and  O3_20 
REMARK    9  A    between atoms: O3_20  and  C15_21 
REMARK   10  A    between atoms: C17_24  and  O5_25 
REMARK   11  A    between atoms: C18_27  and  O6_28 
REMARK   12  A    between atoms: C19_30  and  O7_31 
REMARK   13  A    between atoms: C21_34  and  O8_35 
ROOT
HETATM    1  C11 UNL     1      15.053 -36.470   3.338  1.00  0.00     0.017 C 
HETATM    2  C12 UNL     1      15.684 -37.042   4.562  1.00  0.00     0.010 C 
HETATM    3  C13 UNL     1      16.578 -38.184   4.179  1.00  0.00     0.032 C 
HETATM    4  C14 UNL     1      17.821 -37.648   3.541  1.00  0.00     0.127 C 
HETATM    5  C20 UNL     1      17.544 -36.258   3.020  1.00  0.00     0.064 C 
HETATM    6  C21 UNL     1      16.185 -36.130   2.369  1.00  0.00     0.124 C 
ENDROOT
BRANCH   1   7
HETATM    7  C10 UNL     1      14.028 -37.347   2.679  1.00  0.00     0.039 C 
BRANCH   7   8
HETATM    8  C8  UNL     1      12.652 -36.765   2.894  1.00  0.00     0.127 C 
HETATM    9  C9  UNL     1      12.723 -35.274   3.105  1.00  0.00     0.040 C 
BRANCH   8  10
HETATM   10  O2  UNL     1      11.745 -37.157   1.890  1.00  0.00    -0.331 OA
BRANCH  10  11
HETATM   11  C7  UNL     1      11.415 -36.274   0.882  1.00  0.00     0.135 C 
HETATM   12  N1  UNL     1      10.408 -35.518   1.046  1.00  0.00    -0.380 N 
ATOM     13  H12 UNL     1      10.165 -34.865   0.300  1.00  0.00     0.158 HD
ATOM     14  H11 UNL     1       9.846 -35.548   1.896  1.00  0.00     0.158 HD
BRANCH  11  15
HETATM   15  C6  UNL     1      12.226 -36.231  -0.342  1.00  0.00     0.056 C 
HETATM   16  C5  UNL     1      13.507 -35.971  -0.329  1.00  0.00     0.017 C 
BRANCH  16  17
HETATM   17  C4  UNL     1      14.273 -35.939  -1.569  1.00  0.00    -0.009 A 
HETATM   18  C3  UNL     1      13.755 -35.861  -2.850  1.00  0.00     0.077 A 
HETATM   19  C2  UNL     1      14.811 -35.856  -3.740  1.00  0.00     0.185 A 
HETATM   20  O9  UNL     1      15.898 -35.926  -3.034  1.00  0.00    -0.299 OA
HETATM   21  C22 UNL     1      15.639 -35.978  -1.742  1.00  0.00     0.156 A 
BRANCH  19  22
HETATM   22  O1  UNL     1      14.692 -35.786  -5.141  1.00  0.00    -0.335 OA
HETATM   23  C1  UNL     1      15.616 -36.481  -5.954  1.00  0.00     0.212 C 
ENDBRANCH  19  22
ENDBRANCH  16  17
ENDBRANCH  11  15
ENDBRANCH  10  11
ENDBRANCH   8  10
ENDBRANCH   7   8
ENDBRANCH   1   7
BRANCH   6  24
HETATM   24  O8  UNL     1      16.043 -34.828   1.946  1.00  0.00    -0.395 OA
ATOM     25  H8  UNL     1      16.822 -34.568   1.468  1.00  0.00     0.210 HD
ENDBRANCH   6  24
BRANCH   4  26
HETATM   26  O3  UNL     1      18.872 -37.631   4.446  1.00  0.00    -0.353 OA
BRANCH  26  27
HETATM   27  C15 UNL     1      20.006 -38.257   3.958  1.00  0.00     0.291 C 
HETATM   28  O4  UNL     1      20.404 -39.322   4.779  1.00  0.00    -0.356 OA
HETATM   29  C16 UNL     1      21.210 -38.828   5.807  1.00  0.00     0.205 C 
HETATM   30  C17 UNL     1      22.602 -38.485   5.273  1.00  0.00     0.173 C 
HETATM   31  C18 UNL     1      22.437 -38.141   3.814  1.00  0.00     0.182 C 
HETATM   32  C19 UNL     1      21.145 -37.341   3.652  1.00  0.00     0.204 C 
BRANCH  30  33
HETATM   33  O5  UNL     1      23.094 -37.368   5.922  1.00  0.00    -0.391 OA
ATOM     34  H5  UNL     1      23.863 -37.601   6.429  1.00  0.00     0.210 HD
ENDBRANCH  30  33
BRANCH  31  35
HETATM   35  O6  UNL     1      23.486 -37.271   3.484  1.00  0.00    -0.390 OA
ATOM     36  H6  UNL     1      23.209 -36.399   3.741  1.00  0.00     0.210 HD
ENDBRANCH  31  35
BRANCH  32  37
HETATM   37  O7  UNL     1      21.115 -36.978   2.285  1.00  0.00    -0.388 OA
ATOM     38  H7  UNL     1      21.904 -36.496   2.061  1.00  0.00     0.210 HD
ENDBRANCH  32  37
ENDBRANCH  26  27
ENDBRANCH   4  26
TORSDOF 13
ENDMDL
