MODEL 1
REMARK VINA RESULT: -8.833453781      0.000      0.000
REMARK  15 active torsions:
REMARK  status: ('A' for Active; 'I' for Inactive)
REMARK    1  A    between atoms: C2_2  and  C4_4 
REMARK    2  A    between atoms: C4_4  and  C5_5 
REMARK    3  A    between atoms: C5_5  and  C6_6 
REMARK    4  A    between atoms: C6_6  and  C8_8 
REMARK    5  A    between atoms: C8_8  and  O1_9 
REMARK    6  A    between atoms: C8_8  and  C9_11 
REMARK    7  A    between atoms: C9_11  and  C10_12 
REMARK    8  A    between atoms: C13_17  and  O3_18 
REMARK    9  A    between atoms: O3_18  and  C14_19 
REMARK   10  A    between atoms: C15_21  and  C16_22 
REMARK   11  A    between atoms: C16_22  and  O5_23 
REMARK   12  A    between atoms: C17_25  and  O6_26 
REMARK   13  A    between atoms: C18_28  and  O7_29 
REMARK   14  A    between atoms: C19_31  and  O8_32 
REMARK   15  A    between atoms: C20_34  and  O9_35 
ROOT
HETATM    1  C10 UNL     1      14.787 -36.349   0.483  1.00  0.00    -0.007 C 
HETATM    2  C11 UNL     1      15.524 -36.428   1.581  1.00  0.00     0.014 C 
HETATM    3  S1  UNL     1      17.042 -35.502   1.806  1.00  0.00    -0.052 SA
HETATM    4  C12 UNL     1      17.127 -35.801   3.587  1.00  0.00     0.222 C 
HETATM    5  O2  UNL     1      17.697 -35.052   4.345  1.00  0.00    -0.282 OA
HETATM    6  C13 UNL     1      16.390 -37.053   3.767  1.00  0.00     0.239 C 
HETATM    7  C20 UNL     1      15.320 -37.216   2.794  1.00  0.00     0.195 C 
ENDROOT
BRANCH   6   8
HETATM    8  O3  UNL     1      17.146 -38.183   3.897  1.00  0.00    -0.342 OA
BRANCH   8   9
HETATM    9  C14 UNL     1      17.678 -38.543   5.051  1.00  0.00     0.292 C 
HETATM   10  O4  UNL     1      19.052 -38.440   5.189  1.00  0.00    -0.348 OA
HETATM   11  C15 UNL     1      19.531 -39.087   6.308  1.00  0.00     0.179 C 
HETATM   12  C17 UNL     1      19.411 -40.582   6.248  1.00  0.00     0.180 C 
HETATM   13  C18 UNL     1      18.335 -40.920   5.247  1.00  0.00     0.183 C 
HETATM   14  C19 UNL     1      17.184 -39.928   5.457  1.00  0.00     0.204 C 
BRANCH  11  15
HETATM   15  C16 UNL     1      21.014 -38.752   6.424  1.00  0.00     0.198 C 
BRANCH  15  16
HETATM   16  O5  UNL     1      21.331 -37.602   5.726  1.00  0.00    -0.398 OA
ATOM     17  H5  UNL     1      21.134 -37.690   4.801  1.00  0.00     0.209 HD
ENDBRANCH  15  16
ENDBRANCH  11  15
BRANCH  12  18
HETATM   18  O6  UNL     1      19.178 -41.152   7.496  1.00  0.00    -0.390 OA
ATOM     19  H6  UNL     1      19.748 -40.801   8.170  1.00  0.00     0.210 HD
ENDBRANCH  12  18
BRANCH  13  20
HETATM   20  O7  UNL     1      17.885 -42.216   5.394  1.00  0.00    -0.390 OA
ATOM     21  H7  UNL     1      18.588 -42.811   5.626  1.00  0.00     0.210 HD
ENDBRANCH  13  20
BRANCH  14  22
HETATM   22  O8  UNL     1      16.876 -39.990   6.815  1.00  0.00    -0.388 OA
ATOM     23  H8  UNL     1      15.943 -40.097   6.960  1.00  0.00     0.210 HD
ENDBRANCH  14  22
ENDBRANCH   8   9
ENDBRANCH   6   8
BRANCH   7  24
HETATM   24  O9  UNL     1      14.046 -36.991   3.366  1.00  0.00    -0.387 OA
ATOM     25  H9  UNL     1      13.357 -36.987   2.712  1.00  0.00     0.210 HD
ENDBRANCH   7  24
BRANCH   1  26
HETATM   26  C9  UNL     1      13.532 -37.097   0.266  1.00  0.00     0.060 C 
BRANCH  26  27
HETATM   27  C8  UNL     1      12.824 -36.812  -1.027  1.00  0.00     0.125 C 
BRANCH  27  28
HETATM   28  C6  UNL     1      11.632 -35.910  -0.924  1.00  0.00     0.011 C 
HETATM   29  C7  UNL     1      11.217 -35.223  -2.172  1.00  0.00     0.012 C 
BRANCH  28  30
HETATM   30  C5  UNL     1      10.491 -36.587  -0.172  1.00  0.00     0.007 C 
BRANCH  30  31
HETATM   31  C4  UNL     1      10.159 -35.685   0.997  1.00  0.00     0.004 C 
BRANCH  31  32
HETATM   32  C2  UNL     1      10.743 -36.213   2.288  1.00  0.00    -0.023 C 
HETATM   33  C1  UNL     1      11.261 -35.118   3.165  1.00  0.00     0.009 C 
HETATM   34  C3  UNL     1       9.608 -36.918   3.041  1.00  0.00     0.009 C 
ENDBRANCH  31  32
ENDBRANCH  30  31
ENDBRANCH  28  30
ENDBRANCH  27  28
BRANCH  27  35
HETATM   35  O1  UNL     1      13.714 -36.110  -1.898  1.00  0.00    -0.395 OA
ATOM     36  H1  UNL     1      13.141 -35.559  -2.418  1.00  0.00     0.210 HD
ENDBRANCH  27  35
ENDBRANCH  26  27
ENDBRANCH   1  26
TORSDOF 15
ENDMDL
MODEL 2
REMARK VINA RESULT: -8.833436445      0.976      1.195
REMARK  15 active torsions:
REMARK  status: ('A' for Active; 'I' for Inactive)
REMARK    1  A    between atoms: C2_2  and  C4_4 
REMARK    2  A    between atoms: C4_4  and  C5_5 
REMARK    3  A    between atoms: C5_5  and  C6_6 
REMARK    4  A    between atoms: C6_6  and  C8_8 
REMARK    5  A    between atoms: C8_8  and  O1_9 
REMARK    6  A    between atoms: C8_8  and  C9_11 
REMARK    7  A    between atoms: C9_11  and  C10_12 
REMARK    8  A    between atoms: C13_17  and  O3_18 
REMARK    9  A    between atoms: O3_18  and  C14_19 
REMARK   10  A    between atoms: C15_21  and  C16_22 
REMARK   11  A    between atoms: C16_22  and  O5_23 
REMARK   12  A    between atoms: C17_25  and  O6_26 
REMARK   13  A    between atoms: C18_28  and  O7_29 
REMARK   14  A    between atoms: C19_31  and  O8_32 
REMARK   15  A    between atoms: C20_34  and  O9_35 
ROOT
HETATM    1  C10 UNL     1      14.907 -36.455   1.001  1.00  0.00    -0.007 C 
HETATM    2  C11 UNL     1      15.808 -36.454   1.972  1.00  0.00     0.014 C 
HETATM    3  S1  UNL     1      17.151 -35.270   2.058  1.00  0.00    -0.052 SA
HETATM    4  C12 UNL     1      17.564 -35.649   3.776  1.00  0.00     0.222 C 
HETATM    5  O2  UNL     1      18.101 -34.850   4.507  1.00  0.00    -0.282 OA
HETATM    6  C13 UNL     1      17.101 -37.028   3.952  1.00  0.00     0.239 C 
HETATM    7  C20 UNL     1      15.941 -37.335   3.130  1.00  0.00     0.195 C 
ENDROOT
BRANCH   6   8
HETATM    8  O3  UNL     1      18.059 -37.998   3.876  1.00  0.00    -0.342 OA
BRANCH   8   9
HETATM    9  C14 UNL     1      18.448 -38.685   4.935  1.00  0.00     0.292 C 
HETATM   10  O4  UNL     1      19.662 -39.347   4.866  1.00  0.00    -0.348 OA
HETATM   11  C15 UNL     1      19.846 -40.244   5.897  1.00  0.00     0.179 C 
HETATM   12  C17 UNL     1      18.926 -41.430   5.847  1.00  0.00     0.180 C 
HETATM   13  C18 UNL     1      17.725 -41.050   5.017  1.00  0.00     0.183 C 
HETATM   14  C19 UNL     1      17.335 -39.618   5.403  1.00  0.00     0.204 C 
BRANCH  11  15
HETATM   15  C16 UNL     1      21.273 -40.769   5.791  1.00  0.00     0.198 C 
BRANCH  15  16
HETATM   16  O5  UNL     1      21.306 -42.150   5.757  1.00  0.00    -0.398 OA
ATOM     17  H5  UNL     1      22.193 -42.480   5.835  1.00  0.00     0.209 HD
ENDBRANCH  15  16
ENDBRANCH  11  15
BRANCH  12  18
HETATM   18  O6  UNL     1      18.577 -41.891   7.112  1.00  0.00    -0.390 OA
ATOM     19  H6  UNL     1      19.270 -42.394   7.522  1.00  0.00     0.210 HD
ENDBRANCH  12  18
BRANCH  13  20
HETATM   20  O7  UNL     1      16.666 -41.908   5.222  1.00  0.00    -0.390 OA
ATOM     21  H7  UNL     1      16.075 -41.926   4.478  1.00  0.00     0.210 HD
ENDBRANCH  13  20
BRANCH  14  22
HETATM   22  O8  UNL     1      17.212 -39.621   6.791  1.00  0.00    -0.388 OA
ATOM     23  H8  UNL     1      17.254 -38.743   7.151  1.00  0.00     0.210 HD
ENDBRANCH  14  22
ENDBRANCH   8   9
ENDBRANCH   6   8
BRANCH   7  24
HETATM   24  O9  UNL     1      14.751 -37.390   3.894  1.00  0.00    -0.387 OA
ATOM     25  H9  UNL     1      14.769 -36.787   4.627  1.00  0.00     0.210 HD
ENDBRANCH   7  24
BRANCH   1  26
HETATM   26  C9  UNL     1      13.790 -37.415   0.901  1.00  0.00     0.060 C 
BRANCH  26  27
HETATM   27  C8  UNL     1      13.009 -37.368  -0.381  1.00  0.00     0.125 C 
BRANCH  27  28
HETATM   28  C6  UNL     1      12.002 -36.263  -0.483  1.00  0.00     0.011 C 
HETATM   29  C7  UNL     1      11.905 -35.582  -1.798  1.00  0.00     0.012 C 
BRANCH  28  30
HETATM   30  C5  UNL     1      10.660 -36.683   0.106  1.00  0.00     0.007 C 
BRANCH  30  31
HETATM   31  C4  UNL     1      10.360 -35.702   1.218  1.00  0.00     0.004 C 
BRANCH  31  32
HETATM   32  C2  UNL     1      10.742 -36.263   2.570  1.00  0.00    -0.023 C 
HETATM   33  C1  UNL     1      11.887 -35.524   3.186  1.00  0.00     0.009 C 
HETATM   34  C3  UNL     1       9.526 -36.091   3.488  1.00  0.00     0.009 C 
ENDBRANCH  31  32
ENDBRANCH  30  31
ENDBRANCH  28  30
ENDBRANCH  27  28
BRANCH  27  35
HETATM   35  O1  UNL     1      13.910 -37.118  -1.463  1.00  0.00    -0.395 OA
ATOM     36  H1  UNL     1      13.756 -37.840  -2.061  1.00  0.00     0.210 HD
ENDBRANCH  27  35
ENDBRANCH  26  27
ENDBRANCH   1  26
TORSDOF 15
ENDMDL
MODEL 3
REMARK VINA RESULT: -8.829127691      1.549      2.713
REMARK  15 active torsions:
REMARK  status: ('A' for Active; 'I' for Inactive)
REMARK    1  A    between atoms: C2_2  and  C4_4 
REMARK    2  A    between atoms: C4_4  and  C5_5 
REMARK    3  A    between atoms: C5_5  and  C6_6 
REMARK    4  A    between atoms: C6_6  and  C8_8 
REMARK    5  A    between atoms: C8_8  and  O1_9 
REMARK    6  A    between atoms: C8_8  and  C9_11 
REMARK    7  A    between atoms: C9_11  and  C10_12 
REMARK    8  A    between atoms: C13_17  and  O3_18 
REMARK    9  A    between atoms: O3_18  and  C14_19 
REMARK   10  A    between atoms: C15_21  and  C16_22 
REMARK   11  A    between atoms: C16_22  and  O5_23 
REMARK   12  A    between atoms: C17_25  and  O6_26 
REMARK   13  A    between atoms: C18_28  and  O7_29 
REMARK   14  A    between atoms: C19_31  and  O8_32 
REMARK   15  A    between atoms: C20_34  and  O9_35 
ROOT
HETATM    1  C10 UNL     1      14.646 -36.318   1.618  1.00  0.00    -0.007 C 
HETATM    2  C11 UNL     1      15.694 -36.451   2.418  1.00  0.00     0.014 C 
HETATM    3  S1  UNL     1      17.220 -35.539   2.189  1.00  0.00    -0.052 SA
HETATM    4  C12 UNL     1      17.863 -35.925   3.834  1.00  0.00     0.222 C 
HETATM    5  O2  UNL     1      18.657 -35.214   4.404  1.00  0.00    -0.282 OA
HETATM    6  C13 UNL     1      17.201 -37.184   4.183  1.00  0.00     0.239 C 
HETATM    7  C20 UNL     1      15.875 -37.297   3.595  1.00  0.00     0.195 C 
ENDROOT
BRANCH   6   8
HETATM    8  O3  UNL     1      17.940 -38.319   4.012  1.00  0.00    -0.342 OA
BRANCH   8   9
HETATM    9  C14 UNL     1      18.385 -39.028   5.035  1.00  0.00     0.292 C 
HETATM   10  O4  UNL     1      19.629 -39.622   4.917  1.00  0.00    -0.348 OA
HETATM   11  C15 UNL     1      19.880 -40.550   5.906  1.00  0.00     0.179 C 
HETATM   12  C17 UNL     1      19.022 -41.779   5.822  1.00  0.00     0.180 C 
HETATM   13  C18 UNL     1      17.788 -41.429   5.030  1.00  0.00     0.183 C 
HETATM   14  C19 UNL     1      17.330 -40.036   5.482  1.00  0.00     0.204 C 
BRANCH  11  15
HETATM   15  C16 UNL     1      21.330 -40.993   5.753  1.00  0.00     0.198 C 
BRANCH  15  16
HETATM   16  O5  UNL     1      21.421 -42.339   5.455  1.00  0.00    -0.398 OA
ATOM     17  H5  UNL     1      21.410 -42.872   6.240  1.00  0.00     0.209 HD
ENDBRANCH  15  16
ENDBRANCH  11  15
BRANCH  12  18
HETATM   18  O6  UNL     1      18.722 -42.309   7.072  1.00  0.00    -0.390 OA
ATOM     19  H6  UNL     1      18.468 -41.643   7.701  1.00  0.00     0.210 HD
ENDBRANCH  12  18
BRANCH  13  20
HETATM   20  O7  UNL     1      16.778 -42.350   5.216  1.00  0.00    -0.390 OA
ATOM     21  H7  UNL     1      16.877 -43.104   4.647  1.00  0.00     0.210 HD
ENDBRANCH  13  20
BRANCH  14  22
HETATM   22  O8  UNL     1      17.235 -40.103   6.871  1.00  0.00    -0.388 OA
ATOM     23  H8  UNL     1      16.372 -39.853   7.177  1.00  0.00     0.210 HD
ENDBRANCH  14  22
ENDBRANCH   8   9
ENDBRANCH   6   8
BRANCH   7  24
HETATM   24  O9  UNL     1      14.853 -37.099   4.554  1.00  0.00    -0.387 OA
ATOM     25  H9  UNL     1      14.010 -36.938   4.148  1.00  0.00     0.210 HD
ENDBRANCH   7  24
BRANCH   1  26
HETATM   26  C9  UNL     1      13.376 -37.054   1.779  1.00  0.00     0.060 C 
BRANCH  26  27
HETATM   27  C8  UNL     1      12.199 -36.226   2.207  1.00  0.00     0.125 C 
BRANCH  27  28
HETATM   28  C6  UNL     1      10.866 -36.688   1.701  1.00  0.00     0.011 C 
HETATM   29  C7  UNL     1       9.804 -36.872   2.720  1.00  0.00     0.012 C 
BRANCH  28  30
HETATM   30  C5  UNL     1      10.432 -35.885   0.479  1.00  0.00     0.007 C 
BRANCH  30  31
HETATM   31  C4  UNL     1      11.139 -36.504  -0.707  1.00  0.00     0.004 C 
BRANCH  31  32
HETATM   32  C2  UNL     1      12.023 -35.499  -1.411  1.00  0.00    -0.023 C 
HETATM   33  C1  UNL     1      13.347 -36.079  -1.793  1.00  0.00     0.009 C 
HETATM   34  C3  UNL     1      11.302 -35.090  -2.701  1.00  0.00     0.009 C 
ENDBRANCH  31  32
ENDBRANCH  30  31
ENDBRANCH  28  30
ENDBRANCH  27  28
BRANCH  27  35
HETATM   35  O1  UNL     1      12.073 -36.300   3.629  1.00  0.00    -0.395 OA
ATOM     36  H1  UNL     1      11.136 -36.363   3.774  1.00  0.00     0.210 HD
ENDBRANCH  27  35
ENDBRANCH  26  27
ENDBRANCH   1  26
TORSDOF 15
ENDMDL
MODEL 4
REMARK VINA RESULT: -8.712545087      1.505      2.958
REMARK  15 active torsions:
REMARK  status: ('A' for Active; 'I' for Inactive)
REMARK    1  A    between atoms: C2_2  and  C4_4 
REMARK    2  A    between atoms: C4_4  and  C5_5 
REMARK    3  A    between atoms: C5_5  and  C6_6 
REMARK    4  A    between atoms: C6_6  and  C8_8 
REMARK    5  A    between atoms: C8_8  and  O1_9 
REMARK    6  A    between atoms: C8_8  and  C9_11 
REMARK    7  A    between atoms: C9_11  and  C10_12 
REMARK    8  A    between atoms: C13_17  and  O3_18 
REMARK    9  A    between atoms: O3_18  and  C14_19 
REMARK   10  A    between atoms: C15_21  and  C16_22 
REMARK   11  A    between atoms: C16_22  and  O5_23 
REMARK   12  A    between atoms: C17_25  and  O6_26 
REMARK   13  A    between atoms: C18_28  and  O7_29 
REMARK   14  A    between atoms: C19_31  and  O8_32 
REMARK   15  A    between atoms: C20_34  and  O9_35 
ROOT
HETATM    1  C10 UNL     1      14.721 -36.249   0.088  1.00  0.00    -0.007 C 
HETATM    2  C11 UNL     1      15.295 -36.396   1.273  1.00  0.00     0.014 C 
HETATM    3  S1  UNL     1      16.840 -35.603   1.715  1.00  0.00    -0.052 SA
HETATM    4  C12 UNL     1      16.660 -35.919   3.486  1.00  0.00     0.222 C 
HETATM    5  O2  UNL     1      17.182 -35.226   4.326  1.00  0.00    -0.282 OA
HETATM    6  C13 UNL     1      15.804 -37.106   3.544  1.00  0.00     0.239 C 
HETATM    7  C20 UNL     1      14.866 -37.172   2.434  1.00  0.00     0.195 C 
ENDROOT
BRANCH   6   8
HETATM    8  O3  UNL     1      16.441 -38.296   3.753  1.00  0.00    -0.342 OA
BRANCH   8   9
HETATM    9  C14 UNL     1      17.269 -38.481   4.766  1.00  0.00     0.292 C 
HETATM   10  O4  UNL     1      18.621 -38.285   4.538  1.00  0.00    -0.348 OA
HETATM   11  C15 UNL     1      19.414 -38.762   5.561  1.00  0.00     0.179 C 
HETATM   12  C17 UNL     1      19.409 -40.257   5.692  1.00  0.00     0.180 C 
HETATM   13  C18 UNL     1      18.153 -40.775   5.039  1.00  0.00     0.183 C 
HETATM   14  C19 UNL     1      17.009 -39.831   5.428  1.00  0.00     0.204 C 
BRANCH  11  15
HETATM   15  C16 UNL     1      20.846 -38.333   5.260  1.00  0.00     0.198 C 
BRANCH  15  16
HETATM   16  O5  UNL     1      20.953 -36.960   5.152  1.00  0.00    -0.398 OA
ATOM     17  H5  UNL     1      21.650 -36.621   5.700  1.00  0.00     0.209 HD
ENDBRANCH  15  16
ENDBRANCH  11  15
BRANCH  12  18
HETATM   18  O6  UNL     1      19.540 -40.680   7.010  1.00  0.00    -0.390 OA
ATOM     19  H6  UNL     1      18.828 -41.245   7.285  1.00  0.00     0.210 HD
ENDBRANCH  12  18
BRANCH  13  20
HETATM   20  O7  UNL     1      17.864 -42.066   5.431  1.00  0.00    -0.390 OA
ATOM     21  H7  UNL     1      17.321 -42.516   4.794  1.00  0.00     0.210 HD
ENDBRANCH  13  20
BRANCH  14  22
HETATM   22  O8  UNL     1      17.051 -39.741   6.818  1.00  0.00    -0.388 OA
ATOM     23  H8  UNL     1      17.481 -40.494   7.207  1.00  0.00     0.210 HD
ENDBRANCH  14  22
ENDBRANCH   8   9
ENDBRANCH   6   8
BRANCH   7  24
HETATM   24  O9  UNL     1      13.549 -36.845   2.835  1.00  0.00    -0.387 OA
ATOM     25  H9  UNL     1      13.420 -36.963   3.768  1.00  0.00     0.210 HD
ENDBRANCH   7  24
BRANCH   1  26
HETATM   26  C9  UNL     1      13.450 -36.888  -0.307  1.00  0.00     0.060 C 
BRANCH  26  27
HETATM   27  C8  UNL     1      12.219 -36.049  -0.119  1.00  0.00     0.125 C 
BRANCH  27  28
HETATM   28  C6  UNL     1      11.293 -35.988  -1.296  1.00  0.00     0.011 C 
HETATM   29  C7  UNL     1       9.895 -35.580  -1.013  1.00  0.00     0.012 C 
BRANCH  28  30
HETATM   30  C5  UNL     1      11.937 -35.252  -2.466  1.00  0.00     0.007 C 
BRANCH  30  31
HETATM   31  C4  UNL     1      10.807 -34.859  -3.393  1.00  0.00     0.004 C 
BRANCH  31  32
HETATM   32  C2  UNL     1      11.327 -34.403  -4.738  1.00  0.00    -0.023 C 
HETATM   33  C1  UNL     1      12.618 -35.065  -5.100  1.00  0.00     0.009 C 
HETATM   34  C3  UNL     1      10.284 -34.807  -5.785  1.00  0.00     0.009 C 
ENDBRANCH  31  32
ENDBRANCH  30  31
ENDBRANCH  28  30
ENDBRANCH  27  28
BRANCH  27  35
HETATM   35  O1  UNL     1      11.421 -36.624   0.919  1.00  0.00    -0.395 OA
ATOM     36  H1  UNL     1      11.921 -36.460   1.711  1.00  0.00     0.210 HD
ENDBRANCH  27  35
ENDBRANCH  26  27
ENDBRANCH   1  26
TORSDOF 15
ENDMDL
MODEL 5
REMARK VINA RESULT: -8.697997561      2.903      4.982
REMARK  15 active torsions:
REMARK  status: ('A' for Active; 'I' for Inactive)
REMARK    1  A    between atoms: C2_2  and  C4_4 
REMARK    2  A    between atoms: C4_4  and  C5_5 
REMARK    3  A    between atoms: C5_5  and  C6_6 
REMARK    4  A    between atoms: C6_6  and  C8_8 
REMARK    5  A    between atoms: C8_8  and  O1_9 
REMARK    6  A    between atoms: C8_8  and  C9_11 
REMARK    7  A    between atoms: C9_11  and  C10_12 
REMARK    8  A    between atoms: C13_17  and  O3_18 
REMARK    9  A    between atoms: O3_18  and  C14_19 
REMARK   10  A    between atoms: C15_21  and  C16_22 
REMARK   11  A    between atoms: C16_22  and  O5_23 
REMARK   12  A    between atoms: C17_25  and  O6_26 
REMARK   13  A    between atoms: C18_28  and  O7_29 
REMARK   14  A    between atoms: C19_31  and  O8_32 
REMARK   15  A    between atoms: C20_34  and  O9_35 
ROOT
HETATM    1  C10 UNL     1      15.444 -36.787   4.149  1.00  0.00    -0.007 C 
HETATM    2  C11 UNL     1      16.709 -37.167   4.259  1.00  0.00     0.014 C 
HETATM    3  S1  UNL     1      17.239 -38.492   5.344  1.00  0.00    -0.052 SA
HETATM    4  C12 UNL     1      18.872 -38.651   4.585  1.00  0.00     0.222 C 
HETATM    5  O2  UNL     1      19.503 -39.681   4.613  1.00  0.00    -0.282 OA
HETATM    6  C13 UNL     1      19.125 -37.325   4.017  1.00  0.00     0.239 C 
HETATM    7  C20 UNL     1      17.904 -36.659   3.590  1.00  0.00     0.195 C 
ENDROOT
BRANCH   6   8
HETATM    8  O3  UNL     1      19.933 -36.502   4.749  1.00  0.00    -0.342 OA
BRANCH   8   9
HETATM    9  C14 UNL     1      21.249 -36.612   4.730  1.00  0.00     0.292 C 
HETATM   10  O4  UNL     1      21.996 -35.497   5.071  1.00  0.00    -0.348 OA
HETATM   11  C15 UNL     1      23.333 -35.628   4.758  1.00  0.00     0.179 C 
HETATM   12  C17 UNL     1      23.615 -35.661   3.284  1.00  0.00     0.180 C 
HETATM   13  C18 UNL     1      22.349 -36.079   2.579  1.00  0.00     0.183 C 
HETATM   14  C19 UNL     1      21.714 -37.206   3.403  1.00  0.00     0.204 C 
BRANCH  11  15
HETATM   15  C16 UNL     1      24.052 -34.414   5.334  1.00  0.00     0.198 C 
BRANCH  15  16
HETATM   16  O5  UNL     1      23.292 -33.786   6.302  1.00  0.00    -0.398 OA
ATOM     17  H5  UNL     1      22.756 -34.406   6.782  1.00  0.00     0.209 HD
ENDBRANCH  15  16
ENDBRANCH  11  15
BRANCH  12  18
HETATM   18  O6  UNL     1      24.698 -36.473   2.964  1.00  0.00    -0.390 OA
ATOM     19  H6  UNL     1      25.532 -36.059   3.146  1.00  0.00     0.210 HD
ENDBRANCH  12  18
BRANCH  13  20
HETATM   20  O7  UNL     1      22.595 -36.506   1.291  1.00  0.00    -0.390 OA
ATOM     21  H7  UNL     1      21.877 -37.025   0.947  1.00  0.00     0.210 HD
ENDBRANCH  13  20
BRANCH  14  22
HETATM   22  O8  UNL     1      22.721 -38.152   3.585  1.00  0.00    -0.388 OA
ATOM     23  H8  UNL     1      23.402 -38.073   2.927  1.00  0.00     0.210 HD
ENDBRANCH  14  22
ENDBRANCH   8   9
ENDBRANCH   6   8
BRANCH   7  24
HETATM   24  O9  UNL     1      17.765 -36.661   2.182  1.00  0.00    -0.387 OA
ATOM     25  H9  UNL     1      17.482 -35.818   1.850  1.00  0.00     0.210 HD
ENDBRANCH   7  24
BRANCH   1  26
HETATM   26  C9  UNL     1      14.975 -35.700   3.265  1.00  0.00     0.060 C 
BRANCH  26  27
HETATM   27  C8  UNL     1      13.559 -35.825   2.783  1.00  0.00     0.125 C 
BRANCH  27  28
HETATM   28  C6  UNL     1      13.385 -36.509   1.461  1.00  0.00     0.011 C 
HETATM   29  C7  UNL     1      14.108 -37.792   1.285  1.00  0.00     0.012 C 
BRANCH  28  30
HETATM   30  C5  UNL     1      11.916 -36.555   1.053  1.00  0.00     0.007 C 
BRANCH  30  31
HETATM   31  C4  UNL     1      11.898 -36.827  -0.435  1.00  0.00     0.004 C 
BRANCH  31  32
HETATM   32  C2  UNL     1      12.362 -35.623  -1.224  1.00  0.00    -0.023 C 
HETATM   33  C1  UNL     1      13.577 -35.917  -2.044  1.00  0.00     0.009 C 
HETATM   34  C3  UNL     1      11.228 -35.250  -2.186  1.00  0.00     0.009 C 
ENDBRANCH  31  32
ENDBRANCH  30  31
ENDBRANCH  28  30
ENDBRANCH  27  28
BRANCH  27  35
HETATM   35  O1  UNL     1      12.829 -36.647   3.697  1.00  0.00    -0.395 OA
ATOM     36  H1  UNL     1      12.734 -36.103   4.470  1.00  0.00     0.210 HD
ENDBRANCH  27  35
ENDBRANCH  26  27
ENDBRANCH   1  26
TORSDOF 15
ENDMDL
