MODEL 1
REMARK VINA RESULT: -8.493354276      0.000      0.000
REMARK  15 active torsions:
REMARK  status: ('A' for Active; 'I' for Inactive)
REMARK    1  A    between atoms: C3_3  and  O1_4 
REMARK    2  A    between atoms: C6_8  and  O2_9 
REMARK    3  A    between atoms: C6_8  and  C7_11 
REMARK    4  A    between atoms: C8_12  and  C9_13 
REMARK    5  A    between atoms: C9_13  and  C10_14 
REMARK    6  A    between atoms: C9_13  and  O4_17 
REMARK    7  A    between atoms: C10_14  and  O3_15 
REMARK    8  A    between atoms: O4_17  and  C11_18 
REMARK    9  A    between atoms: C13_22  and  O7_23 
REMARK   10  A    between atoms: O7_23  and  C14_24 
REMARK   11  A    between atoms: C14_24  and  C15_25 
REMARK   12  A    between atoms: C15_25  and  C16_26 
REMARK   13  A    between atoms: C16_26  and  C17_27 
REMARK   14  A    between atoms: C20_30  and  O8_32 
REMARK   15  A    between atoms: C22_34  and  O9_35 
ROOT
HETATM    1  C7  UNL     1      13.383 -36.943   1.173  1.00  0.00     0.089 C 
HETATM    2  C8  UNL     1      12.246 -35.992   1.188  1.00  0.00     0.166 C 
HETATM    3  O6  UNL     1      12.217 -35.066   0.159  1.00  0.00    -0.353 OA
HETATM    4  C13 UNL     1      12.461 -35.546  -1.094  1.00  0.00     0.263 C 
HETATM    5  C19 UNL     1      12.766 -36.999  -1.201  1.00  0.00     0.098 C 
HETATM    6  C20 UNL     1      13.766 -37.443  -0.169  1.00  0.00     0.068 C 
HETATM    7  C21 UNL     1      13.796 -38.968  -0.239  1.00  0.00     0.046 C 
ENDROOT
BRANCH   1   8
HETATM    8  C6  UNL     1      14.545 -36.451   2.028  1.00  0.00     0.096 C 
HETATM    9  C5  UNL     1      15.776 -36.097   1.272  1.00  0.00     0.044 C 
HETATM   10  C4  UNL     1      16.620 -35.219   2.219  1.00  0.00     0.039 C 
HETATM   11  C3  UNL     1      16.961 -35.926   3.487  1.00  0.00     0.149 C 
HETATM   12  C2  UNL     1      16.312 -37.252   3.558  1.00  0.00    -0.029 C 
HETATM   13  C1  UNL     1      16.984 -38.337   3.947  1.00  0.00     0.019 C 
HETATM   14  C22 UNL     1      14.865 -37.356   3.183  1.00  0.00     0.183 C 
BRANCH  11  15
HETATM   15  O1  UNL     1      18.342 -36.032   3.682  1.00  0.00    -0.391 OA
ATOM     16  H1  UNL     1      18.616 -35.546   4.450  1.00  0.00     0.210 HD
ENDBRANCH  11  15
BRANCH  14  17
HETATM   17  O9  UNL     1      14.146 -36.980   4.345  1.00  0.00    -0.388 OA
ATOM     18  H9  UNL     1      14.188 -36.031   4.374  1.00  0.00     0.210 HD
ENDBRANCH  14  17
BRANCH   8  19
HETATM   19  O2  UNL     1      14.102 -35.230   2.607  1.00  0.00    -0.386 OA
ATOM     20  H2  UNL     1      13.223 -35.409   2.918  1.00  0.00     0.210 HD
ENDBRANCH   8  19
ENDBRANCH   1   8
BRANCH   2  21
HETATM   21  C9  UNL     1      10.882 -36.548   1.400  1.00  0.00     0.184 C 
BRANCH  21  22
HETATM   22  C10 UNL     1      10.563 -37.823   0.686  1.00  0.00     0.199 C 
BRANCH  22  23
HETATM   23  O3  UNL     1       9.690 -37.439  -0.377  1.00  0.00    -0.398 OA
ATOM     24  H3  UNL     1       9.899 -38.030  -1.089  1.00  0.00     0.209 HD
ENDBRANCH  22  23
ENDBRANCH  21  22
BRANCH  21  25
HETATM   25  O4  UNL     1      10.669 -36.725   2.805  1.00  0.00    -0.311 OA
BRANCH  25  26
HETATM   26  C11 UNL     1       9.812 -35.984   3.565  1.00  0.00     0.255 C 
HETATM   27  C12 UNL     1       9.307 -36.382   4.901  1.00  0.00     0.126 C 
HETATM   28  O5  UNL     1       9.419 -34.878   3.104  1.00  0.00    -0.266 OA
ENDBRANCH  25  26
ENDBRANCH  21  25
ENDBRANCH   2  21
BRANCH   6  29
HETATM   29  O8  UNL     1      14.997 -36.936  -0.611  1.00  0.00    -0.389 OA
ATOM     30  H8  UNL     1      15.734 -37.484  -0.366  1.00  0.00     0.210 HD
ENDBRANCH   6  29
BRANCH   4  31
HETATM   31  O7  UNL     1      11.439 -35.212  -2.003  1.00  0.00    -0.361 OA
BRANCH  31  32
HETATM   32  C14 UNL     1      11.981 -35.105  -3.275  1.00  0.00     0.171 C 
BRANCH  32  33
HETATM   33  C15 UNL     1      10.892 -34.693  -4.238  1.00  0.00     0.026 C 
BRANCH  33  34
HETATM   34  C16 UNL     1      11.393 -34.347  -5.607  1.00  0.00     0.002 C 
BRANCH  34  35
HETATM   35  C17 UNL     1      10.476 -34.878  -6.691  1.00  0.00    -0.004 C 
HETATM   36  C18 UNL     1      11.013 -34.562  -8.069  1.00  0.00     0.005 C 
ENDBRANCH  34  35
ENDBRANCH  33  34
ENDBRANCH  32  33
ENDBRANCH  31  32
ENDBRANCH   4  31
TORSDOF 15
ENDMDL
MODEL 2
REMARK VINA RESULT: -7.883918388      7.583     11.673
REMARK  15 active torsions:
REMARK  status: ('A' for Active; 'I' for Inactive)
REMARK    1  A    between atoms: C3_3  and  O1_4 
REMARK    2  A    between atoms: C6_8  and  O2_9 
REMARK    3  A    between atoms: C6_8  and  C7_11 
REMARK    4  A    between atoms: C8_12  and  C9_13 
REMARK    5  A    between atoms: C9_13  and  C10_14 
REMARK    6  A    between atoms: C9_13  and  O4_17 
REMARK    7  A    between atoms: C10_14  and  O3_15 
REMARK    8  A    between atoms: O4_17  and  C11_18 
REMARK    9  A    between atoms: C13_22  and  O7_23 
REMARK   10  A    between atoms: O7_23  and  C14_24 
REMARK   11  A    between atoms: C14_24  and  C15_25 
REMARK   12  A    between atoms: C15_25  and  C16_26 
REMARK   13  A    between atoms: C16_26  and  C17_27 
REMARK   14  A    between atoms: C20_30  and  O8_32 
REMARK   15  A    between atoms: C22_34  and  O9_35 
ROOT
HETATM    1  C7  UNL     1      23.732 -38.551   4.033  1.00  0.00     0.089 C 
HETATM    2  C8  UNL     1      22.312 -38.355   3.656  1.00  0.00     0.166 C 
HETATM    3  O6  UNL     1      21.382 -39.033   4.425  1.00  0.00    -0.353 OA
HETATM    4  C13 UNL     1      21.561 -38.980   5.776  1.00  0.00     0.263 C 
HETATM    5  C19 UNL     1      22.754 -38.231   6.259  1.00  0.00     0.098 C 
HETATM    6  C20 UNL     1      23.995 -38.592   5.490  1.00  0.00     0.068 C 
HETATM    7  C21 UNL     1      25.064 -37.591   5.922  1.00  0.00     0.046 C 
ENDROOT
BRANCH   1   8
HETATM    8  C6  UNL     1      24.382 -39.674   3.233  1.00  0.00     0.096 C 
HETATM    9  C5  UNL     1      25.776 -40.004   3.631  1.00  0.00     0.044 C 
HETATM   10  C4  UNL     1      26.064 -41.407   3.055  1.00  0.00     0.039 C 
HETATM   11  C3  UNL     1      25.912 -41.446   1.572  1.00  0.00     0.149 C 
HETATM   12  C2  UNL     1      25.420 -40.156   1.043  1.00  0.00    -0.029 C 
HETATM   13  C1  UNL     1      25.969 -39.589  -0.033  1.00  0.00     0.019 C 
HETATM   14  C22 UNL     1      24.277 -39.490   1.746  1.00  0.00     0.183 C 
BRANCH  11  15
HETATM   15  O1  UNL     1      27.090 -41.836   0.927  1.00  0.00    -0.391 OA
ATOM     16  H1  UNL     1      27.005 -42.708   0.559  1.00  0.00     0.210 HD
ENDBRANCH  11  15
BRANCH  14  17
HETATM   17  O9  UNL     1      23.108 -40.106   1.233  1.00  0.00    -0.388 OA
ATOM     18  H9  UNL     1      22.443 -39.427   1.231  1.00  0.00     0.210 HD
ENDBRANCH  14  17
BRANCH   8  19
HETATM   19  O2  UNL     1      23.625 -40.840   3.530  1.00  0.00    -0.386 OA
ATOM     20  H2  UNL     1      22.874 -40.803   2.949  1.00  0.00     0.210 HD
ENDBRANCH   8  19
ENDBRANCH   1   8
BRANCH   2  21
HETATM   21  C9  UNL     1      21.845 -36.962   3.416  1.00  0.00     0.184 C 
BRANCH  21  22
HETATM   22  C10 UNL     1      22.671 -36.133   2.486  1.00  0.00     0.199 C 
BRANCH  22  23
HETATM   23  O3  UNL     1      22.438 -36.691   1.193  1.00  0.00    -0.398 OA
ATOM     24  H3  UNL     1      22.701 -36.011   0.583  1.00  0.00     0.209 HD
ENDBRANCH  22  23
ENDBRANCH  21  22
BRANCH  21  25
HETATM   25  O4  UNL     1      20.494 -37.004   2.942  1.00  0.00    -0.311 OA
BRANCH  25  26
HETATM   26  C11 UNL     1      19.434 -36.397   3.550  1.00  0.00     0.255 C 
HETATM   27  C12 UNL     1      18.073 -36.295   2.973  1.00  0.00     0.126 C 
HETATM   28  O5  UNL     1      19.619 -35.884   4.688  1.00  0.00    -0.266 OA
ENDBRANCH  25  26
ENDBRANCH  21  25
ENDBRANCH   2  21
BRANCH   6  29
HETATM   29  O8  UNL     1      24.349 -39.871   5.946  1.00  0.00    -0.389 OA
ATOM     30  H8  UNL     1      24.144 -40.007   6.864  1.00  0.00     0.210 HD
ENDBRANCH   6  29
BRANCH   4  31
HETATM   31  O7  UNL     1      20.413 -38.520   6.449  1.00  0.00    -0.361 OA
BRANCH  31  32
HETATM   32  C14 UNL     1      19.889 -39.555   7.211  1.00  0.00     0.171 C 
BRANCH  32  33
HETATM   33  C15 UNL     1      18.436 -39.744   6.846  1.00  0.00     0.026 C 
BRANCH  33  34
HETATM   34  C16 UNL     1      18.005 -38.957   5.646  1.00  0.00     0.002 C 
BRANCH  34  35
HETATM   35  C17 UNL     1      17.371 -39.843   4.592  1.00  0.00    -0.004 C 
HETATM   36  C18 UNL     1      17.365 -41.292   5.023  1.00  0.00     0.005 C 
ENDBRANCH  34  35
ENDBRANCH  33  34
ENDBRANCH  32  33
ENDBRANCH  31  32
ENDBRANCH   4  31
TORSDOF 15
ENDMDL
MODEL 3
REMARK VINA RESULT: -7.775047576      5.908     10.310
REMARK  15 active torsions:
REMARK  status: ('A' for Active; 'I' for Inactive)
REMARK    1  A    between atoms: C3_3  and  O1_4 
REMARK    2  A    between atoms: C6_8  and  O2_9 
REMARK    3  A    between atoms: C6_8  and  C7_11 
REMARK    4  A    between atoms: C8_12  and  C9_13 
REMARK    5  A    between atoms: C9_13  and  C10_14 
REMARK    6  A    between atoms: C9_13  and  O4_17 
REMARK    7  A    between atoms: C10_14  and  O3_15 
REMARK    8  A    between atoms: O4_17  and  C11_18 
REMARK    9  A    between atoms: C13_22  and  O7_23 
REMARK   10  A    between atoms: O7_23  and  C14_24 
REMARK   11  A    between atoms: C14_24  and  C15_25 
REMARK   12  A    between atoms: C15_25  and  C16_26 
REMARK   13  A    between atoms: C16_26  and  C17_27 
REMARK   14  A    between atoms: C20_30  and  O8_32 
REMARK   15  A    between atoms: C22_34  and  O9_35 
ROOT
HETATM    1  C7  UNL     1      23.035 -36.736   4.137  1.00  0.00     0.089 C 
HETATM    2  C8  UNL     1      21.931 -36.853   5.120  1.00  0.00     0.166 C 
HETATM    3  O6  UNL     1      20.716 -36.316   4.732  1.00  0.00    -0.353 OA
HETATM    4  C13 UNL     1      20.302 -36.608   3.466  1.00  0.00     0.263 C 
HETATM    5  C19 UNL     1      21.222 -37.437   2.641  1.00  0.00     0.098 C 
HETATM    6  C20 UNL     1      22.645 -36.954   2.725  1.00  0.00     0.068 C 
HETATM    7  C21 UNL     1      23.494 -38.022   2.039  1.00  0.00     0.046 C 
ENDROOT
BRANCH   1   8
HETATM    8  C6  UNL     1      23.883 -35.494   4.383  1.00  0.00     0.096 C 
HETATM    9  C5  UNL     1      25.278 -35.575   3.874  1.00  0.00     0.044 C 
HETATM   10  C4  UNL     1      25.791 -34.120   3.802  1.00  0.00     0.039 C 
HETATM   11  C3  UNL     1      25.747 -33.442   5.129  1.00  0.00     0.149 C 
HETATM   12  C2  UNL     1      25.125 -34.303   6.156  1.00  0.00    -0.029 C 
HETATM   13  C1  UNL     1      25.665 -34.445   7.369  1.00  0.00     0.019 C 
HETATM   14  C22 UNL     1      23.857 -35.021   5.808  1.00  0.00     0.183 C 
BRANCH  11  15
HETATM   15  O1  UNL     1      27.009 -33.001   5.542  1.00  0.00    -0.391 OA
ATOM     16  H1  UNL     1      27.663 -33.165   4.872  1.00  0.00     0.210 HD
ENDBRANCH  11  15
BRANCH  14  17
HETATM   17  O9  UNL     1      22.819 -34.079   6.019  1.00  0.00    -0.388 OA
ATOM     18  H9  UNL     1      22.651 -34.091   6.954  1.00  0.00     0.210 HD
ENDBRANCH  14  17
BRANCH   8  19
HETATM   19  O2  UNL     1      23.271 -34.459   3.624  1.00  0.00    -0.386 OA
ATOM     20  H2  UNL     1      23.312 -34.756   2.722  1.00  0.00     0.210 HD
ENDBRANCH   8  19
ENDBRANCH   1   8
BRANCH   2  21
HETATM   21  C9  UNL     1      21.712 -38.179   5.760  1.00  0.00     0.184 C 
BRANCH  21  22
HETATM   22  C10 UNL     1      22.691 -38.579   6.818  1.00  0.00     0.199 C 
BRANCH  22  23
HETATM   23  O3  UNL     1      23.098 -39.899   6.459  1.00  0.00    -0.398 OA
ATOM     24  H3  UNL     1      22.932 -40.424   7.233  1.00  0.00     0.209 HD
ENDBRANCH  22  23
ENDBRANCH  21  22
BRANCH  21  25
HETATM   25  O4  UNL     1      20.387 -38.217   6.301  1.00  0.00    -0.311 OA
BRANCH  25  26
HETATM   26  C11 UNL     1      19.522 -39.265   6.177  1.00  0.00     0.255 C 
HETATM   27  C12 UNL     1      18.527 -39.666   7.201  1.00  0.00     0.126 C 
HETATM   28  O5  UNL     1      19.565 -39.945   5.116  1.00  0.00    -0.266 OA
ENDBRANCH  25  26
ENDBRANCH  21  25
ENDBRANCH   2  21
BRANCH   6  29
HETATM   29  O8  UNL     1      22.677 -35.777   1.960  1.00  0.00    -0.389 OA
ATOM     30  H8  UNL     1      22.519 -35.931   1.036  1.00  0.00     0.210 HD
ENDBRANCH   6  29
BRANCH   4  31
HETATM   31  O7  UNL     1      19.012 -37.171   3.442  1.00  0.00    -0.361 OA
BRANCH  31  32
HETATM   32  C14 UNL     1      18.121 -36.290   4.036  1.00  0.00     0.171 C 
BRANCH  32  33
HETATM   33  C15 UNL     1      16.745 -36.913   4.040  1.00  0.00     0.026 C 
BRANCH  33  34
HETATM   34  C16 UNL     1      15.724 -36.132   3.271  1.00  0.00     0.002 C 
BRANCH  34  35
HETATM   35  C17 UNL     1      14.521 -36.982   2.912  1.00  0.00    -0.004 C 
HETATM   36  C18 UNL     1      13.227 -36.246   3.183  1.00  0.00     0.005 C 
ENDBRANCH  34  35
ENDBRANCH  33  34
ENDBRANCH  32  33
ENDBRANCH  31  32
ENDBRANCH   4  31
TORSDOF 15
ENDMDL
MODEL 4
REMARK VINA RESULT: -7.710431491      5.859     10.128
REMARK  15 active torsions:
REMARK  status: ('A' for Active; 'I' for Inactive)
REMARK    1  A    between atoms: C3_3  and  O1_4 
REMARK    2  A    between atoms: C6_8  and  O2_9 
REMARK    3  A    between atoms: C6_8  and  C7_11 
REMARK    4  A    between atoms: C8_12  and  C9_13 
REMARK    5  A    between atoms: C9_13  and  C10_14 
REMARK    6  A    between atoms: C9_13  and  O4_17 
REMARK    7  A    between atoms: C10_14  and  O3_15 
REMARK    8  A    between atoms: O4_17  and  C11_18 
REMARK    9  A    between atoms: C13_22  and  O7_23 
REMARK   10  A    between atoms: O7_23  and  C14_24 
REMARK   11  A    between atoms: C14_24  and  C15_25 
REMARK   12  A    between atoms: C15_25  and  C16_26 
REMARK   13  A    between atoms: C16_26  and  C17_27 
REMARK   14  A    between atoms: C20_30  and  O8_32 
REMARK   15  A    between atoms: C22_34  and  O9_35 
ROOT
HETATM    1  C7  UNL     1      22.597 -37.252   4.402  1.00  0.00     0.089 C 
HETATM    2  C8  UNL     1      21.430 -37.467   5.290  1.00  0.00     0.166 C 
HETATM    3  O6  UNL     1      20.319 -36.684   5.030  1.00  0.00    -0.353 OA
HETATM    4  C13 UNL     1      19.948 -36.575   3.721  1.00  0.00     0.263 C 
HETATM    5  C19 UNL     1      20.804 -37.280   2.728  1.00  0.00     0.098 C 
HETATM    6  C20 UNL     1      22.268 -37.038   2.973  1.00  0.00     0.068 C 
HETATM    7  C21 UNL     1      23.015 -37.997   2.049  1.00  0.00     0.046 C 
ENDROOT
BRANCH   1   8
HETATM    8  C6  UNL     1      23.580 -36.246   4.990  1.00  0.00     0.096 C 
HETATM    9  C5  UNL     1      23.014 -34.897   5.256  1.00  0.00     0.044 C 
HETATM   10  C4  UNL     1      23.988 -34.212   6.239  1.00  0.00     0.039 C 
HETATM   11  C3  UNL     1      25.367 -34.109   5.682  1.00  0.00     0.149 C 
HETATM   12  C2  UNL     1      25.474 -34.785   4.372  1.00  0.00    -0.029 C 
HETATM   13  C1  UNL     1      26.095 -34.211   3.339  1.00  0.00     0.019 C 
HETATM   14  C22 UNL     1      24.868 -36.147   4.224  1.00  0.00     0.183 C 
BRANCH  11  15
HETATM   15  O1  UNL     1      25.810 -32.784   5.600  1.00  0.00    -0.391 OA
ATOM     16  H1  UNL     1      26.180 -32.497   6.427  1.00  0.00     0.210 HD
ENDBRANCH  11  15
BRANCH  14  17
HETATM   17  O9  UNL     1      25.837 -37.049   4.730  1.00  0.00    -0.388 OA
ATOM     18  H9  UNL     1      26.676 -36.712   4.436  1.00  0.00     0.210 HD
ENDBRANCH  14  17
BRANCH   8  19
HETATM   19  O2  UNL     1      23.931 -36.760   6.269  1.00  0.00    -0.386 OA
ATOM     20  H2  UNL     1      23.115 -36.802   6.752  1.00  0.00     0.210 HD
ENDBRANCH   8  19
ENDBRANCH   1   8
BRANCH   2  21
HETATM   21  C9  UNL     1      21.005 -38.870   5.548  1.00  0.00     0.184 C 
BRANCH  21  22
HETATM   22  C10 UNL     1      22.058 -39.802   6.059  1.00  0.00     0.199 C 
BRANCH  22  23
HETATM   23  O3  UNL     1      22.508 -39.213   7.278  1.00  0.00    -0.398 OA
ATOM     24  H3  UNL     1      23.351 -39.615   7.447  1.00  0.00     0.209 HD
ENDBRANCH  22  23
ENDBRANCH  21  22
BRANCH  21  25
HETATM   25  O4  UNL     1      19.900 -38.858   6.458  1.00  0.00    -0.311 OA
BRANCH  25  26
HETATM   26  C11 UNL     1      18.725 -39.525   6.269  1.00  0.00     0.255 C 
HETATM   27  C12 UNL     1      18.279 -40.102   4.977  1.00  0.00     0.126 C 
HETATM   28  O5  UNL     1      17.959 -39.668   7.261  1.00  0.00    -0.266 OA
ENDBRANCH  25  26
ENDBRANCH  21  25
ENDBRANCH   2  21
BRANCH   6  29
HETATM   29  O8  UNL     1      22.496 -35.719   2.551  1.00  0.00    -0.389 OA
ATOM     30  H8  UNL     1      21.983 -35.480   1.788  1.00  0.00     0.210 HD
ENDBRANCH   6  29
BRANCH   4  31
HETATM   31  O7  UNL     1      18.601 -36.929   3.516  1.00  0.00    -0.361 OA
BRANCH  31  32
HETATM   32  C14 UNL     1      17.796 -35.838   3.808  1.00  0.00     0.171 C 
BRANCH  32  33
HETATM   33  C15 UNL     1      16.429 -36.333   4.216  1.00  0.00     0.026 C 
BRANCH  33  34
HETATM   34  C16 UNL     1      16.008 -37.592   3.521  1.00  0.00     0.002 C 
BRANCH  34  35
HETATM   35  C17 UNL     1      14.848 -37.349   2.575  1.00  0.00    -0.004 C 
HETATM   36  C18 UNL     1      13.848 -36.382   3.169  1.00  0.00     0.005 C 
ENDBRANCH  34  35
ENDBRANCH  33  34
ENDBRANCH  32  33
ENDBRANCH  31  32
ENDBRANCH   4  31
TORSDOF 15
ENDMDL
MODEL 5
REMARK VINA RESULT: -7.684323615      6.522     11.089
REMARK  15 active torsions:
REMARK  status: ('A' for Active; 'I' for Inactive)
REMARK    1  A    between atoms: C3_3  and  O1_4 
REMARK    2  A    between atoms: C6_8  and  O2_9 
REMARK    3  A    between atoms: C6_8  and  C7_11 
REMARK    4  A    between atoms: C8_12  and  C9_13 
REMARK    5  A    between atoms: C9_13  and  C10_14 
REMARK    6  A    between atoms: C9_13  and  O4_17 
REMARK    7  A    between atoms: C10_14  and  O3_15 
REMARK    8  A    between atoms: O4_17  and  C11_18 
REMARK    9  A    between atoms: C13_22  and  O7_23 
REMARK   10  A    between atoms: O7_23  and  C14_24 
REMARK   11  A    between atoms: C14_24  and  C15_25 
REMARK   12  A    between atoms: C15_25  and  C16_26 
REMARK   13  A    between atoms: C16_26  and  C17_27 
REMARK   14  A    between atoms: C20_30  and  O8_32 
REMARK   15  A    between atoms: C22_34  and  O9_35 
ROOT
HETATM    1  C7  UNL     1      22.833 -38.498   4.811  1.00  0.00     0.089 C 
HETATM    2  C8  UNL     1      21.617 -38.170   4.030  1.00  0.00     0.166 C 
HETATM    3  O6  UNL     1      20.511 -38.966   4.269  1.00  0.00    -0.353 OA
HETATM    4  C13 UNL     1      20.221 -39.222   5.577  1.00  0.00     0.263 C 
HETATM    5  C19 UNL     1      21.149 -38.646   6.588  1.00  0.00     0.098 C 
HETATM    6  C20 UNL     1      22.591 -38.872   6.224  1.00  0.00     0.068 C 
HETATM    7  C21 UNL     1      23.410 -38.034   7.202  1.00  0.00     0.046 C 
ENDROOT
BRANCH   1   8
HETATM    8  C6  UNL     1      23.760 -39.438   4.049  1.00  0.00     0.096 C 
HETATM    9  C5  UNL     1      24.967 -39.875   4.800  1.00  0.00     0.044 C 
HETATM   10  C4  UNL     1      25.493 -41.128   4.068  1.00  0.00     0.039 C 
HETATM   11  C3  UNL     1      25.827 -40.848   2.642  1.00  0.00     0.149 C 
HETATM   12  C2  UNL     1      25.468 -39.465   2.264  1.00  0.00    -0.029 C 
HETATM   13  C1  UNL     1      26.304 -38.693   1.567  1.00  0.00     0.019 C 
HETATM   14  C22 UNL     1      24.128 -38.940   2.681  1.00  0.00     0.183 C 
BRANCH  11  15
HETATM   15  O1  UNL     1      27.168 -41.116   2.347  1.00  0.00    -0.391 OA
ATOM     16  H1  UNL     1      27.255 -41.934   1.873  1.00  0.00     0.210 HD
ENDBRANCH  11  15
BRANCH  14  17
HETATM   17  O9  UNL     1      23.217 -39.407   1.701  1.00  0.00    -0.388 OA
ATOM     18  H9  UNL     1      23.219 -38.748   1.017  1.00  0.00     0.210 HD
ENDBRANCH  14  17
BRANCH   8  19
HETATM   19  O2  UNL     1      23.006 -40.625   3.836  1.00  0.00    -0.386 OA
ATOM     20  H2  UNL     1      22.160 -40.328   3.523  1.00  0.00     0.210 HD
ENDBRANCH   8  19
ENDBRANCH   1   8
BRANCH   2  21
HETATM   21  C9  UNL     1      21.201 -36.742   3.963  1.00  0.00     0.184 C 
BRANCH  21  22
HETATM   22  C10 UNL     1      19.730 -36.477   3.922  1.00  0.00     0.199 C 
BRANCH  22  23
HETATM   23  O3  UNL     1      19.554 -35.269   4.662  1.00  0.00    -0.398 OA
ATOM     24  H3  UNL     1      19.298 -34.623   4.016  1.00  0.00     0.209 HD
ENDBRANCH  22  23
ENDBRANCH  21  22
BRANCH  21  25
HETATM   25  O4  UNL     1      21.779 -36.040   5.070  1.00  0.00    -0.311 OA
BRANCH  25  26
HETATM   26  C11 UNL     1      22.557 -34.924   4.967  1.00  0.00     0.255 C 
HETATM   27  C12 UNL     1      23.864 -34.866   4.269  1.00  0.00     0.126 C 
HETATM   28  O5  UNL     1      22.138 -33.860   5.500  1.00  0.00    -0.266 OA
ENDBRANCH  25  26
ENDBRANCH  21  25
ENDBRANCH   2  21
BRANCH   6  29
HETATM   29  O8  UNL     1      22.822 -40.234   6.476  1.00  0.00    -0.389 OA
ATOM     30  H8  UNL     1      22.347 -40.556   7.234  1.00  0.00     0.210 HD
ENDBRANCH   6  29
BRANCH   4  31
HETATM   31  O7  UNL     1      18.895 -38.881   5.908  1.00  0.00    -0.361 OA
BRANCH  31  32
HETATM   32  C14 UNL     1      18.037 -39.837   5.384  1.00  0.00     0.171 C 
BRANCH  32  33
HETATM   33  C15 UNL     1      17.150 -39.185   4.350  1.00  0.00     0.026 C 
BRANCH  33  34
HETATM   34  C16 UNL     1      16.414 -37.982   4.856  1.00  0.00     0.002 C 
BRANCH  34  35
HETATM   35  C17 UNL     1      16.099 -37.007   3.739  1.00  0.00    -0.004 C 
HETATM   36  C18 UNL     1      15.052 -37.565   2.801  1.00  0.00     0.005 C 
ENDBRANCH  34  35
ENDBRANCH  33  34
ENDBRANCH  32  33
ENDBRANCH  31  32
ENDBRANCH   4  31
TORSDOF 15
ENDMDL
