MODEL 1
REMARK VINA RESULT: -7.508561555      0.000      0.000
REMARK  7 active torsions:
REMARK  status: ('A' for Active; 'I' for Inactive)
REMARK    1  A    between atoms: C2_2  and  C3_3 
REMARK    2  A    between atoms: C3_3  and  C5_5 
REMARK    3  A    between atoms: C7_7  and  N1_8 
REMARK    4  A    between atoms: N3_17  and  C15_18 
REMARK    5  A    between atoms: C15_18  and  C16_19 
REMARK    6  A    between atoms: C16_19  and  N4_20 
REMARK    7  A    between atoms: C16_19  and  C17_24 
ROOT
HETATM    1  C5  UNL     1      -4.268   5.295  11.929  1.00  0.00     0.089 C 
HETATM    2  C6  UNL     1      -4.748   5.399  13.356  1.00  0.00     0.061 C 
HETATM    3  C7  UNL     1      -4.024   4.602  14.367  1.00  0.00     0.226 C 
HETATM    4  C13 UNL     1      -2.648   4.187  13.974  1.00  0.00     0.055 C 
HETATM    5  C14 UNL     1      -2.100   5.150  12.989  1.00  0.00     0.124 C 
HETATM    6  N3  UNL     1      -2.879   5.248  11.795  1.00  0.00    -0.386 N 
ENDROOT
BRANCH   6   7
HETATM    7  C15 UNL     1      -2.232   4.978  10.598  1.00  0.00     0.099 C 
BRANCH   7   8
HETATM    8  C16 UNL     1      -1.098   3.991  10.582  1.00  0.00     0.295 C 
BRANCH   8   9
HETATM    9  N4  UNL     1      -0.508   3.899   9.250  1.00  0.00    -0.063 N 
ATOM     10  H43 UNL     1      -0.018   4.757   8.995  1.00  0.00     0.275 HD
ATOM     11  H42 UNL     1       0.284   3.258   9.232  1.00  0.00     0.275 HD
ATOM     12  H41 UNL     1      -1.212   3.648   8.556  1.00  0.00     0.275 HD
ENDBRANCH   8   9
BRANCH   8  13
HETATM   13  C17 UNL     1      -1.675   2.614  10.811  1.00  0.00     0.159 A 
HETATM   14  N5  UNL     1      -1.089   1.487  11.195  1.00  0.00    -0.346 N 
HETATM   15  C18 UNL     1      -2.013   0.524  11.261  1.00  0.00     0.122 A 
ATOM     16  H5  UNL     1      -0.097   1.375  11.406  1.00  0.00     0.167 HD
HETATM   17  C19 UNL     1      -3.200   1.062  10.912  1.00  0.00     0.066 A 
HETATM   18  C20 UNL     1      -4.515   0.391  10.837  1.00  0.00     0.078 C 
HETATM   19  O1  UNL     1      -2.960   2.330  10.645  1.00  0.00    -0.298 OA
ENDBRANCH   8  13
ENDBRANCH   7   8
ENDBRANCH   6   7
BRANCH   1  20
HETATM   20  C3  UNL     1      -4.967   6.400  11.176  1.00  0.00     0.004 C 
HETATM   21  C4  UNL     1      -4.212   7.668  11.006  1.00  0.00     0.012 C 
BRANCH  20  22
HETATM   22  C2  UNL     1      -6.368   6.687  11.582  1.00  0.00     0.002 C 
HETATM   23  C1  UNL     1      -6.803   8.089  11.122  1.00  0.00     0.005 C 
ENDBRANCH  20  22
ENDBRANCH   1  20
BRANCH   3  24
HETATM   24  N1  UNL     1      -4.808   3.470  14.830  1.00  0.00     0.096 N 
HETATM   25  C8  UNL     1      -4.013   2.584  15.624  1.00  0.00     0.303 C 
HETATM   26  C9  UNL     1      -4.826   1.522  16.326  1.00  0.00     0.302 C 
HETATM   27  N2  UNL     1      -6.197   1.866  16.486  1.00  0.00     0.087 N 
HETATM   28  C10 UNL     1      -6.896   1.123  17.482  1.00  0.00     0.310 C 
HETATM   29  C11 UNL     1      -6.248   3.277  16.830  1.00  0.00     0.302 C 
HETATM   30  C12 UNL     1      -5.924   4.038  15.570  1.00  0.00     0.303 C 
ENDBRANCH   3  24
TORSDOF 7
ENDMDL
MODEL 2
REMARK VINA RESULT: -7.403848218      2.396      5.949
REMARK  7 active torsions:
REMARK  status: ('A' for Active; 'I' for Inactive)
REMARK    1  A    between atoms: C2_2  and  C3_3 
REMARK    2  A    between atoms: C3_3  and  C5_5 
REMARK    3  A    between atoms: C7_7  and  N1_8 
REMARK    4  A    between atoms: N3_17  and  C15_18 
REMARK    5  A    between atoms: C15_18  and  C16_19 
REMARK    6  A    between atoms: C16_19  and  N4_20 
REMARK    7  A    between atoms: C16_19  and  C17_24 
ROOT
HETATM    1  C5  UNL     1      -4.326   4.246  12.876  1.00  0.00     0.089 C 
HETATM    2  C6  UNL     1      -3.824   5.577  12.369  1.00  0.00     0.061 C 
HETATM    3  C7  UNL     1      -2.837   5.547  11.271  1.00  0.00     0.226 C 
HETATM    4  C13 UNL     1      -2.816   4.286  10.477  1.00  0.00     0.055 C 
HETATM    5  C14 UNL     1      -4.145   3.633  10.544  1.00  0.00     0.124 C 
HETATM    6  N3  UNL     1      -4.549   3.301  11.874  1.00  0.00    -0.386 N 
ENDROOT
BRANCH   6   7
HETATM    7  C15 UNL     1      -4.841   1.968  12.128  1.00  0.00     0.099 C 
BRANCH   7   8
HETATM    8  C16 UNL     1      -3.810   1.106  12.801  1.00  0.00     0.295 C 
BRANCH   8   9
HETATM    9  N4  UNL     1      -4.035  -0.305  12.499  1.00  0.00    -0.063 N 
ATOM     10  H43 UNL     1      -3.293  -0.894  12.878  1.00  0.00     0.275 HD
ATOM     11  H42 UNL     1      -4.819  -0.683  13.029  1.00  0.00     0.275 HD
ATOM     12  H41 UNL     1      -4.153  -0.447  11.496  1.00  0.00     0.275 HD
ENDBRANCH   8   9
BRANCH   8  13
HETATM   13  C17 UNL     1      -4.033   1.190  14.293  1.00  0.00     0.159 A 
HETATM   14  N5  UNL     1      -3.361   1.846  15.230  1.00  0.00    -0.346 N 
HETATM   15  C18 UNL     1      -3.939   1.618  16.413  1.00  0.00     0.122 A 
ATOM     16  H5  UNL     1      -2.539   2.429  15.072  1.00  0.00     0.167 HD
HETATM   17  C19 UNL     1      -4.995   0.803  16.209  1.00  0.00     0.066 A 
HETATM   18  C20 UNL     1      -5.941   0.273  17.213  1.00  0.00     0.078 C 
HETATM   19  O1  UNL     1      -5.023   0.561  14.913  1.00  0.00    -0.298 OA
ENDBRANCH   8  13
ENDBRANCH   7   8
ENDBRANCH   6   7
BRANCH   1  20
HETATM   20  C3  UNL     1      -5.504   4.560  13.764  1.00  0.00     0.004 C 
HETATM   21  C4  UNL     1      -6.563   5.425  13.181  1.00  0.00     0.012 C 
BRANCH  20  22
HETATM   22  C2  UNL     1      -5.185   5.001  15.148  1.00  0.00     0.002 C 
HETATM   23  C1  UNL     1      -6.161   4.386  16.165  1.00  0.00     0.005 C 
ENDBRANCH  20  22
ENDBRANCH   1  20
BRANCH   3  24
HETATM   24  N1  UNL     1      -1.506   5.910  11.726  1.00  0.00     0.096 N 
HETATM   25  C8  UNL     1      -0.552   4.900  11.383  1.00  0.00     0.303 C 
HETATM   26  C9  UNL     1       0.877   5.328  11.617  1.00  0.00     0.302 C 
HETATM   27  N2  UNL     1       1.054   6.740  11.646  1.00  0.00     0.087 N 
HETATM   28  C10 UNL     1       2.391   7.189  11.441  1.00  0.00     0.310 C 
HETATM   29  C11 UNL     1       0.206   7.299  10.606  1.00  0.00     0.302 C 
HETATM   30  C12 UNL     1      -1.213   7.193  11.105  1.00  0.00     0.303 C 
ENDBRANCH   3  24
TORSDOF 7
ENDMDL
MODEL 3
REMARK VINA RESULT: -7.358966500      1.179      1.633
REMARK  7 active torsions:
REMARK  status: ('A' for Active; 'I' for Inactive)
REMARK    1  A    between atoms: C2_2  and  C3_3 
REMARK    2  A    between atoms: C3_3  and  C5_5 
REMARK    3  A    between atoms: C7_7  and  N1_8 
REMARK    4  A    between atoms: N3_17  and  C15_18 
REMARK    5  A    between atoms: C15_18  and  C16_19 
REMARK    6  A    between atoms: C16_19  and  N4_20 
REMARK    7  A    between atoms: C16_19  and  C17_24 
ROOT
HETATM    1  C5  UNL     1      -4.546   4.838  12.568  1.00  0.00     0.089 C 
HETATM    2  C6  UNL     1      -4.721   5.384  13.965  1.00  0.00     0.061 C 
HETATM    3  C7  UNL     1      -3.818   4.857  15.008  1.00  0.00     0.226 C 
HETATM    4  C13 UNL     1      -2.559   4.242  14.501  1.00  0.00     0.055 C 
HETATM    5  C14 UNL     1      -2.209   4.836  13.189  1.00  0.00     0.124 C 
HETATM    6  N3  UNL     1      -3.216   4.647  12.192  1.00  0.00    -0.386 N 
ENDROOT
BRANCH   6   7
HETATM    7  C15 UNL     1      -2.833   3.996  11.028  1.00  0.00     0.099 C 
BRANCH   7   8
HETATM    8  C16 UNL     1      -1.898   2.822  11.116  1.00  0.00     0.295 C 
BRANCH   8   9
HETATM    9  N4  UNL     1      -1.086   2.712   9.908  1.00  0.00    -0.063 N 
ATOM     10  H43 UNL     1      -1.529   2.114   9.210  1.00  0.00     0.275 HD
ATOM     11  H42 UNL     1      -1.075   3.585   9.381  1.00  0.00     0.275 HD
ATOM     12  H41 UNL     1      -0.143   2.395  10.132  1.00  0.00     0.275 HD
ENDBRANCH   8   9
BRANCH   8  13
HETATM   13  C17 UNL     1      -2.729   1.561  11.103  1.00  0.00     0.159 A 
HETATM   14  N5  UNL     1      -4.036   1.390  10.950  1.00  0.00    -0.346 N 
HETATM   15  C18 UNL     1      -4.308   0.083  11.008  1.00  0.00     0.122 A 
ATOM     16  H5  UNL     1      -4.720   2.135  10.811  1.00  0.00     0.167 HD
HETATM   17  C19 UNL     1      -3.146  -0.575  11.199  1.00  0.00     0.066 A 
HETATM   18  C20 UNL     1      -2.938  -2.033  11.326  1.00  0.00     0.078 C 
HETATM   19  O1  UNL     1      -2.208   0.350  11.253  1.00  0.00    -0.298 OA
ENDBRANCH   8  13
ENDBRANCH   7   8
ENDBRANCH   6   7
BRANCH   1  20
HETATM   20  C3  UNL     1      -5.366   5.730  11.670  1.00  0.00     0.004 C 
HETATM   21  C4  UNL     1      -4.631   6.804  10.952  1.00  0.00     0.012 C 
BRANCH  20  22
HETATM   22  C2  UNL     1      -6.625   6.269  12.250  1.00  0.00     0.002 C 
HETATM   23  C1  UNL     1      -7.064   7.553  11.526  1.00  0.00     0.005 C 
ENDBRANCH  20  22
ENDBRANCH   1  20
BRANCH   3  24
HETATM   24  N1  UNL     1      -4.510   3.969  15.928  1.00  0.00     0.096 N 
HETATM   25  C8  UNL     1      -5.929   4.103  15.803  1.00  0.00     0.303 C 
HETATM   26  C9  UNL     1      -6.695   3.042  16.558  1.00  0.00     0.302 C 
HETATM   27  N2  UNL     1      -5.935   1.868  16.822  1.00  0.00     0.087 N 
HETATM   28  C10 UNL     1      -6.701   0.709  17.139  1.00  0.00     0.310 C 
HETATM   29  C11 UNL     1      -5.140   1.597  15.636  1.00  0.00     0.302 C 
HETATM   30  C12 UNL     1      -4.042   2.629  15.610  1.00  0.00     0.303 C 
ENDBRANCH   3  24
TORSDOF 7
ENDMDL
MODEL 4
REMARK VINA RESULT: -7.214505339      2.257      5.593
REMARK  7 active torsions:
REMARK  status: ('A' for Active; 'I' for Inactive)
REMARK    1  A    between atoms: C2_2  and  C3_3 
REMARK    2  A    between atoms: C3_3  and  C5_5 
REMARK    3  A    between atoms: C7_7  and  N1_8 
REMARK    4  A    between atoms: N3_17  and  C15_18 
REMARK    5  A    between atoms: C15_18  and  C16_19 
REMARK    6  A    between atoms: C16_19  and  N4_20 
REMARK    7  A    between atoms: C16_19  and  C17_24 
ROOT
HETATM    1  C5  UNL     1      -3.815   4.047  14.266  1.00  0.00     0.089 C 
HETATM    2  C6  UNL     1      -3.438   5.476  14.570  1.00  0.00     0.061 C 
HETATM    3  C7  UNL     1      -3.070   6.331  13.423  1.00  0.00     0.226 C 
HETATM    4  C13 UNL     1      -3.568   5.859  12.100  1.00  0.00     0.055 C 
HETATM    5  C14 UNL     1      -4.791   5.043  12.292  1.00  0.00     0.124 C 
HETATM    6  N3  UNL     1      -4.585   3.892  13.113  1.00  0.00    -0.386 N 
ENDROOT
BRANCH   6   7
HETATM    7  C15 UNL     1      -4.892   2.659  12.555  1.00  0.00     0.099 C 
BRANCH   7   8
HETATM    8  C16 UNL     1      -4.521   2.387  11.124  1.00  0.00     0.295 C 
BRANCH   8   9
HETATM    9  N4  UNL     1      -4.923   1.040  10.730  1.00  0.00    -0.063 N 
ATOM     10  H43 UNL     1      -4.946   0.405  11.528  1.00  0.00     0.275 HD
ATOM     11  H42 UNL     1      -5.909   1.001  10.472  1.00  0.00     0.275 HD
ATOM     12  H41 UNL     1      -4.324   0.685   9.983  1.00  0.00     0.275 HD
ENDBRANCH   8   9
BRANCH   8  13
HETATM   13  C17 UNL     1      -3.014   2.351  11.030  1.00  0.00     0.159 A 
HETATM   14  N5  UNL     1      -2.127   1.606  11.676  1.00  0.00    -0.346 N 
HETATM   15  C18 UNL     1      -0.902   1.931  11.252  1.00  0.00     0.122 A 
ATOM     16  H5  UNL     1      -2.345   0.900  12.380  1.00  0.00     0.167 HD
HETATM   17  C19 UNL     1      -1.029   2.899  10.321  1.00  0.00     0.066 A 
HETATM   18  C20 UNL     1       0.044   3.578   9.565  1.00  0.00     0.078 C 
HETATM   19  O1  UNL     1      -2.322   3.132  10.210  1.00  0.00    -0.298 OA
ENDBRANCH   8  13
ENDBRANCH   7   8
ENDBRANCH   6   7
BRANCH   1  20
HETATM   20  C3  UNL     1      -4.412   3.498  15.539  1.00  0.00     0.004 C 
HETATM   21  C4  UNL     1      -4.032   2.108  15.904  1.00  0.00     0.012 C 
BRANCH  20  22
HETATM   22  C2  UNL     1      -5.876   3.692  15.714  1.00  0.00     0.002 C 
HETATM   23  C1  UNL     1      -6.315   3.337  17.145  1.00  0.00     0.005 C 
ENDBRANCH  20  22
ENDBRANCH   1  20
BRANCH   3  24
HETATM   24  N1  UNL     1      -1.644   6.606  13.385  1.00  0.00     0.096 N 
HETATM   25  C8  UNL     1      -1.037   6.021  12.229  1.00  0.00     0.303 C 
HETATM   26  C9  UNL     1       0.388   6.471  12.013  1.00  0.00     0.302 C 
HETATM   27  N2  UNL     1       0.699   7.706  12.646  1.00  0.00     0.087 N 
HETATM   28  C10 UNL     1       1.855   8.372  12.143  1.00  0.00     0.310 C 
HETATM   29  C11 UNL     1      -0.454   8.576  12.481  1.00  0.00     0.302 C 
HETATM   30  C12 UNL     1      -1.521   8.056  13.411  1.00  0.00     0.303 C 
ENDBRANCH   3  24
TORSDOF 7
ENDMDL
MODEL 5
REMARK VINA RESULT: -7.200444697      2.124      6.622
REMARK  7 active torsions:
REMARK  status: ('A' for Active; 'I' for Inactive)
REMARK    1  A    between atoms: C2_2  and  C3_3 
REMARK    2  A    between atoms: C3_3  and  C5_5 
REMARK    3  A    between atoms: C7_7  and  N1_8 
REMARK    4  A    between atoms: N3_17  and  C15_18 
REMARK    5  A    between atoms: C15_18  and  C16_19 
REMARK    6  A    between atoms: C16_19  and  N4_20 
REMARK    7  A    between atoms: C16_19  and  C17_24 
ROOT
HETATM    1  C5  UNL     1      -3.302   2.337  11.892  1.00  0.00     0.089 C 
HETATM    2  C6  UNL     1      -2.489   3.448  11.273  1.00  0.00     0.061 C 
HETATM    3  C7  UNL     1      -2.777   4.823  11.726  1.00  0.00     0.226 C 
HETATM    4  C13 UNL     1      -3.460   4.921  13.048  1.00  0.00     0.055 C 
HETATM    5  C14 UNL     1      -3.137   3.726  13.864  1.00  0.00     0.124 C 
HETATM    6  N3  UNL     1      -3.541   2.497  13.257  1.00  0.00    -0.386 N 
ENDROOT
BRANCH   6   7
HETATM    7  C15 UNL     1      -4.408   1.693  13.984  1.00  0.00     0.099 C 
BRANCH   7   8
HETATM    8  C16 UNL     1      -3.949   1.112  15.293  1.00  0.00     0.295 C 
BRANCH   8   9
HETATM    9  N4  UNL     1      -4.105  -0.339  15.300  1.00  0.00    -0.063 N 
ATOM     10  H43 UNL     1      -4.672  -0.661  14.516  1.00  0.00     0.275 HD
ATOM     11  H42 UNL     1      -3.233  -0.813  15.065  1.00  0.00     0.275 HD
ATOM     12  H41 UNL     1      -4.479  -0.660  16.194  1.00  0.00     0.275 HD
ENDBRANCH   8   9
BRANCH   8  13
HETATM   13  C17 UNL     1      -4.899   1.578  16.370  1.00  0.00     0.159 A 
HETATM   14  N5  UNL     1      -5.409   0.931  17.409  1.00  0.00    -0.346 N 
HETATM   15  C18 UNL     1      -6.203   1.764  18.087  1.00  0.00     0.122 A 
ATOM     16  H5  UNL     1      -5.224  -0.043  17.651  1.00  0.00     0.167 HD
HETATM   17  C19 UNL     1      -6.187   2.958  17.458  1.00  0.00     0.066 A 
HETATM   18  C20 UNL     1      -6.908   4.192  17.832  1.00  0.00     0.078 C 
HETATM   19  O1  UNL     1      -5.387   2.811  16.421  1.00  0.00    -0.298 OA
ENDBRANCH   8  13
ENDBRANCH   7   8
ENDBRANCH   6   7
BRANCH   1  20
HETATM   20  C3  UNL     1      -2.625   1.052  11.485  1.00  0.00     0.004 C 
HETATM   21  C4  UNL     1      -1.311   1.182  10.802  1.00  0.00     0.012 C 
BRANCH  20  22
HETATM   22  C2  UNL     1      -3.474   0.056  10.779  1.00  0.00     0.002 C 
HETATM   23  C1  UNL     1      -3.770  -1.157  11.678  1.00  0.00     0.005 C 
ENDBRANCH  20  22
ENDBRANCH   1  20
BRANCH   3  24
HETATM   24  N1  UNL     1      -3.473   5.596  10.711  1.00  0.00     0.096 N 
HETATM   25  C8  UNL     1      -4.073   4.740   9.735  1.00  0.00     0.303 C 
HETATM   26  C9  UNL     1      -5.003   5.471   8.795  1.00  0.00     0.302 C 
HETATM   27  N2  UNL     1      -5.495   6.699   9.318  1.00  0.00     0.087 N 
HETATM   28  C10 UNL     1      -6.667   7.204   8.683  1.00  0.00     0.310 C 
HETATM   29  C11 UNL     1      -5.781   6.481  10.727  1.00  0.00     0.302 C 
HETATM   30  C12 UNL     1      -4.449   6.402  11.428  1.00  0.00     0.303 C 
ENDBRANCH   3  24
TORSDOF 7
ENDMDL
