MODEL 1
REMARK VINA RESULT: -6.902069787      0.000      0.000
REMARK  5 active torsions:
REMARK  status: ('A' for Active; 'I' for Inactive)
REMARK    1  A    between atoms: C2_2  and  O1_3 
REMARK    2  A    between atoms: O1_3  and  C3_4 
REMARK    3  A    between atoms: C6_11  and  N3_12 
REMARK    4  A    between atoms: C12_19  and  C13_20 
REMARK    5  A    between atoms: C13_20  and  N4_21 
ROOT
HETATM    1  C3  UNL     1      -4.088   2.907  11.252  1.00  0.00     0.159 A 
HETATM    2  N1  UNL     1      -4.045   1.646  10.851  1.00  0.00    -0.326 N 
ATOM      3  H1  UNL     1      -3.974   1.446   9.853  1.00  0.00     0.169 HD
HETATM    4  C4  UNL     1      -4.092   0.622  11.720  1.00  0.00     0.080 A 
HETATM    5  C5  UNL     1      -4.040  -0.792  11.234  1.00  0.00     0.089 C 
HETATM    6  N2  UNL     1      -4.183   0.919  12.998  1.00  0.00    -0.332 N 
ATOM      7  H2  UNL     1      -4.219   0.147  13.664  1.00  0.00     0.168 HD
HETATM    8  C6  UNL     1      -4.235   2.209  13.499  1.00  0.00     0.120 A 
HETATM    9  C12 UNL     1      -4.185   3.239  12.628  1.00  0.00     0.074 A 
ENDROOT
BRANCH   9  10
HETATM   10  C13 UNL     1      -4.259   4.649  12.900  1.00  0.00     0.105 C 
BRANCH  10  11
HETATM   11  N4  UNL     1      -3.196   5.469  13.231  1.00  0.00    -0.386 N 
HETATM   12  C14 UNL     1      -1.911   4.830  13.459  1.00  0.00     0.149 C 
HETATM   13  C15 UNL     1      -0.966   5.054  12.313  1.00  0.00     0.252 C 
HETATM   14  N5  UNL     1      -0.798   6.434  11.963  1.00  0.00    -0.072 N 
HETATM   15  C16 UNL     1      -1.736   7.321  12.604  1.00  0.00     0.252 C 
ATOM     16  H52 UNL     1       0.159   6.734  12.144  1.00  0.00     0.277 HD
ATOM     17  H51 UNL     1      -0.828   6.552  10.951  1.00  0.00     0.277 HD
HETATM   18  C17 UNL     1      -3.100   6.718  12.545  1.00  0.00     0.149 C 
ENDBRANCH  10  11
ENDBRANCH   9  10
BRANCH   1  19
HETATM   19  O1  UNL     1      -4.035   3.895  10.290  1.00  0.00    -0.335 OA
BRANCH  19  20
HETATM   20  C2  UNL     1      -2.891   4.303   9.620  1.00  0.00     0.173 C 
HETATM   21  C1  UNL     1      -2.996   5.650   8.968  1.00  0.00     0.034 C 
ENDBRANCH  19  20
ENDBRANCH   1  19
BRANCH   8  22
HETATM   22  N3  UNL     1      -4.400   2.219  14.894  1.00  0.00    -0.366 N 
HETATM   23  C7  UNL     1      -4.928   3.362  15.595  1.00  0.00     0.127 C 
HETATM   24  C8  UNL     1      -6.274   3.031  16.222  1.00  0.00     0.057 C 
HETATM   25  C9  UNL     1      -6.312   1.600  16.641  1.00  0.00     0.173 C 
HETATM   26  F1  UNL     1      -7.154   1.391  17.696  1.00  0.00    -0.249 F 
HETATM   27  C10 UNL     1      -4.910   1.094  16.946  1.00  0.00     0.057 C 
HETATM   28  C11 UNL     1      -4.092   1.032  15.661  1.00  0.00     0.127 C 
ENDBRANCH   8  22
TORSDOF 5
ENDMDL
MODEL 2
REMARK VINA RESULT: -6.898379563      1.372      1.863
REMARK  5 active torsions:
REMARK  status: ('A' for Active; 'I' for Inactive)
REMARK    1  A    between atoms: C2_2  and  O1_3 
REMARK    2  A    between atoms: O1_3  and  C3_4 
REMARK    3  A    between atoms: C6_11  and  N3_12 
REMARK    4  A    between atoms: C12_19  and  C13_20 
REMARK    5  A    between atoms: C13_20  and  N4_21 
ROOT
HETATM    1  C3  UNL     1      -2.680   2.580  11.571  1.00  0.00     0.159 A 
HETATM    2  N1  UNL     1      -3.053   1.373  11.178  1.00  0.00    -0.326 N 
ATOM      3  H1  UNL     1      -2.813   1.061  10.237  1.00  0.00     0.169 HD
HETATM    4  C4  UNL     1      -3.740   0.545  11.984  1.00  0.00     0.080 A 
HETATM    5  C5  UNL     1      -4.147  -0.816  11.510  1.00  0.00     0.089 C 
HETATM    6  N2  UNL     1      -4.033   0.980  13.189  1.00  0.00    -0.332 N 
ATOM      7  H2  UNL     1      -4.553   0.358  13.807  1.00  0.00     0.168 HD
HETATM    8  C6  UNL     1      -3.680   2.228  13.676  1.00  0.00     0.120 A 
HETATM    9  C12 UNL     1      -2.988   3.061  12.869  1.00  0.00     0.074 A 
ENDROOT
BRANCH   9  10
HETATM   10  C13 UNL     1      -2.546   4.404  13.132  1.00  0.00     0.105 C 
BRANCH  10  11
HETATM   11  N4  UNL     1      -3.218   5.562  12.787  1.00  0.00    -0.386 N 
HETATM   12  C14 UNL     1      -2.436   6.629  12.188  1.00  0.00     0.149 C 
HETATM   13  C15 UNL     1      -2.688   6.743  10.711  1.00  0.00     0.252 C 
HETATM   14  N5  UNL     1      -4.074   6.867  10.369  1.00  0.00    -0.072 N 
HETATM   15  C16 UNL     1      -4.975   6.621  11.465  1.00  0.00     0.252 C 
ATOM     16  H52 UNL     1      -4.259   7.779   9.952  1.00  0.00     0.277 HD
ATOM     17  H51 UNL     1      -4.302   6.266   9.577  1.00  0.00     0.277 HD
HETATM   18  C17 UNL     1      -4.518   5.413  12.214  1.00  0.00     0.149 C 
ENDBRANCH  10  11
ENDBRANCH   9  10
BRANCH   1  19
HETATM   19  O1  UNL     1      -1.978   3.363  10.677  1.00  0.00    -0.335 OA
BRANCH  19  20
HETATM   20  C2  UNL     1      -0.669   3.144  10.273  1.00  0.00     0.173 C 
HETATM   21  C1  UNL     1       0.355   3.962  11.002  1.00  0.00     0.034 C 
ENDBRANCH  19  20
ENDBRANCH   1  19
BRANCH   8  22
HETATM   22  N3  UNL     1      -4.185   2.445  14.970  1.00  0.00    -0.366 N 
HETATM   23  C7  UNL     1      -4.979   3.600  15.299  1.00  0.00     0.127 C 
HETATM   24  C8  UNL     1      -6.398   3.190  15.660  1.00  0.00     0.057 C 
HETATM   25  C9  UNL     1      -6.398   1.856  16.329  1.00  0.00     0.173 C 
HETATM   26  F1  UNL     1      -7.449   1.706  17.187  1.00  0.00    -0.249 F 
HETATM   27  C10 UNL     1      -5.072   1.611  17.032  1.00  0.00     0.057 C 
HETATM   28  C11 UNL     1      -3.960   1.455  16.001  1.00  0.00     0.127 C 
ENDBRANCH   8  22
TORSDOF 5
ENDMDL
MODEL 3
REMARK VINA RESULT: -6.646213658      2.982      5.971
REMARK  5 active torsions:
REMARK  status: ('A' for Active; 'I' for Inactive)
REMARK    1  A    between atoms: C2_2  and  O1_3 
REMARK    2  A    between atoms: O1_3  and  C3_4 
REMARK    3  A    between atoms: C6_11  and  N3_12 
REMARK    4  A    between atoms: C12_19  and  C13_20 
REMARK    5  A    between atoms: C13_20  and  N4_21 
ROOT
HETATM    1  C3  UNL     1      -1.943   1.927  11.356  1.00  0.00     0.159 A 
HETATM    2  N1  UNL     1      -0.875   2.238  10.640  1.00  0.00    -0.326 N 
ATOM      3  H1  UNL     1      -0.240   1.494  10.347  1.00  0.00     0.169 HD
HETATM    4  C4  UNL     1      -0.601   3.505  10.285  1.00  0.00     0.080 A 
HETATM    5  C5  UNL     1       0.614   3.824   9.473  1.00  0.00     0.089 C 
HETATM    6  N2  UNL     1      -1.441   4.437  10.680  1.00  0.00    -0.332 N 
ATOM      7  H2  UNL     1      -1.241   5.401  10.415  1.00  0.00     0.168 HD
HETATM    8  C6  UNL     1      -2.579   4.196  11.432  1.00  0.00     0.120 A 
HETATM    9  C12 UNL     1      -2.856   2.922  11.787  1.00  0.00     0.074 A 
ENDROOT
BRANCH   9  10
HETATM   10  C13 UNL     1      -3.945   2.431  12.588  1.00  0.00     0.105 C 
BRANCH  10  11
HETATM   11  N4  UNL     1      -3.961   2.336  13.967  1.00  0.00    -0.386 N 
HETATM   12  C14 UNL     1      -4.556   3.439  14.701  1.00  0.00     0.149 C 
HETATM   13  C15 UNL     1      -5.909   3.080  15.247  1.00  0.00     0.252 C 
HETATM   14  N5  UNL     1      -5.917   1.879  16.029  1.00  0.00    -0.072 N 
HETATM   15  C16 UNL     1      -4.697   1.117  15.950  1.00  0.00     0.252 C 
ATOM     16  H52 UNL     1      -6.146   2.087  17.001  1.00  0.00     0.277 HD
ATOM     17  H51 UNL     1      -6.718   1.298  15.784  1.00  0.00     0.277 HD
HETATM   18  C17 UNL     1      -4.251   1.053  14.526  1.00  0.00     0.149 C 
ENDBRANCH  10  11
ENDBRANCH   9  10
BRANCH   1  19
HETATM   19  O1  UNL     1      -2.145   0.600  11.675  1.00  0.00    -0.335 OA
BRANCH  19  20
HETATM   20  C2  UNL     1      -2.750  -0.341  10.854  1.00  0.00     0.173 C 
HETATM   21  C1  UNL     1      -3.792  -1.182  11.530  1.00  0.00     0.034 C 
ENDBRANCH  19  20
ENDBRANCH   1  19
BRANCH   8  22
HETATM   22  N3  UNL     1      -3.247   5.386  11.764  1.00  0.00    -0.366 N 
HETATM   23  C7  UNL     1      -2.837   6.213  12.871  1.00  0.00     0.127 C 
HETATM   24  C8  UNL     1      -2.324   7.556  12.376  1.00  0.00     0.057 C 
HETATM   25  C9  UNL     1      -3.059   7.970  11.145  1.00  0.00     0.173 C 
HETATM   26  F1  UNL     1      -3.116   9.327  11.007  1.00  0.00    -0.249 F 
HETATM   27  C10 UNL     1      -4.450   7.355  11.121  1.00  0.00     0.057 C 
HETATM   28  C11 UNL     1      -4.345   5.845  10.941  1.00  0.00     0.127 C 
ENDBRANCH   8  22
TORSDOF 5
ENDMDL
MODEL 4
REMARK VINA RESULT: -6.600372126      1.627      4.595
REMARK  5 active torsions:
REMARK  status: ('A' for Active; 'I' for Inactive)
REMARK    1  A    between atoms: C2_2  and  O1_3 
REMARK    2  A    between atoms: O1_3  and  C3_4 
REMARK    3  A    between atoms: C6_11  and  N3_12 
REMARK    4  A    between atoms: C12_19  and  C13_20 
REMARK    5  A    between atoms: C13_20  and  N4_21 
ROOT
HETATM    1  C3  UNL     1      -2.342   5.006  11.798  1.00  0.00     0.159 A 
HETATM    2  N1  UNL     1      -1.883   6.098  12.387  1.00  0.00    -0.326 N 
ATOM      3  H1  UNL     1      -1.093   6.592  11.969  1.00  0.00     0.169 HD
HETATM    4  C4  UNL     1      -2.427   6.577  13.519  1.00  0.00     0.080 A 
HETATM    5  C5  UNL     1      -1.885   7.816  14.159  1.00  0.00     0.089 C 
HETATM    6  N2  UNL     1      -3.442   5.915  14.027  1.00  0.00    -0.332 N 
ATOM      7  H2  UNL     1      -3.862   6.272  14.886  1.00  0.00     0.168 HD
HETATM    8  C6  UNL     1      -3.981   4.765  13.474  1.00  0.00     0.120 A 
HETATM    9  C12 UNL     1      -3.438   4.284  12.336  1.00  0.00     0.074 A 
ENDROOT
BRANCH   9  10
HETATM   10  C13 UNL     1      -3.794   3.100  11.601  1.00  0.00     0.105 C 
BRANCH  10  11
HETATM   11  N4  UNL     1      -3.335   1.820  11.851  1.00  0.00    -0.386 N 
HETATM   12  C14 UNL     1      -4.330   0.766  11.953  1.00  0.00     0.149 C 
HETATM   13  C15 UNL     1      -4.343  -0.109  10.731  1.00  0.00     0.252 C 
HETATM   14  N5  UNL     1      -3.058  -0.646  10.392  1.00  0.00    -0.072 N 
HETATM   15  C16 UNL     1      -1.964  -0.065  11.128  1.00  0.00     0.252 C 
ATOM     16  H52 UNL     1      -3.058  -1.661  10.492  1.00  0.00     0.277 HD
ATOM     17  H51 UNL     1      -2.893  -0.571   9.388  1.00  0.00     0.277 HD
HETATM   18  C17 UNL     1      -2.140   1.416  11.180  1.00  0.00     0.149 C 
ENDBRANCH  10  11
ENDBRANCH   9  10
BRANCH   1  19
HETATM   19  O1  UNL     1      -1.722   4.586  10.639  1.00  0.00    -0.335 OA
BRANCH  19  20
HETATM   20  C2  UNL     1      -0.412   4.870  10.279  1.00  0.00     0.173 C 
HETATM   21  C1  UNL     1       0.602   3.891  10.791  1.00  0.00     0.034 C 
ENDBRANCH  19  20
ENDBRANCH   1  19
BRANCH   8  22
HETATM   22  N3  UNL     1      -5.013   4.238  14.270  1.00  0.00    -0.366 N 
HETATM   23  C7  UNL     1      -5.481   2.884  14.120  1.00  0.00     0.127 C 
HETATM   24  C8  UNL     1      -5.166   2.067  15.364  1.00  0.00     0.057 C 
HETATM   25  C9  UNL     1      -5.227   2.930  16.579  1.00  0.00     0.173 C 
HETATM   26  F1  UNL     1      -5.562   2.224  17.700  1.00  0.00    -0.249 F 
HETATM   27  C10 UNL     1      -6.176   4.098  16.359  1.00  0.00     0.057 C 
HETATM   28  C11 UNL     1      -5.594   5.048  15.318  1.00  0.00     0.127 C 
ENDBRANCH   8  22
TORSDOF 5
ENDMDL
MODEL 5
REMARK VINA RESULT: -6.568854552      2.883      5.786
REMARK  5 active torsions:
REMARK  status: ('A' for Active; 'I' for Inactive)
REMARK    1  A    between atoms: C2_2  and  O1_3 
REMARK    2  A    between atoms: O1_3  and  C3_4 
REMARK    3  A    between atoms: C6_11  and  N3_12 
REMARK    4  A    between atoms: C12_19  and  C13_20 
REMARK    5  A    between atoms: C13_20  and  N4_21 
ROOT
HETATM    1  C3  UNL     1      -1.674   2.521  10.982  1.00  0.00     0.159 A 
HETATM    2  N1  UNL     1      -0.520   2.620  10.341  1.00  0.00    -0.326 N 
ATOM      3  H1  UNL     1       0.135   1.838  10.377  1.00  0.00     0.169 HD
HETATM    4  C4  UNL     1      -0.186   3.719   9.644  1.00  0.00     0.080 A 
HETATM    5  C5  UNL     1       1.126   3.797   8.928  1.00  0.00     0.089 C 
HETATM    6  N2  UNL     1      -1.054   4.706   9.620  1.00  0.00    -0.332 N 
ATOM      7  H2  UNL     1      -0.809   5.543   9.093  1.00  0.00     0.168 HD
HETATM    8  C6  UNL     1      -2.280   4.684  10.263  1.00  0.00     0.120 A 
HETATM    9  C12 UNL     1      -2.619   3.579  10.963  1.00  0.00     0.074 A 
ENDROOT
BRANCH   9  10
HETATM   10  C13 UNL     1      -3.807   3.335  11.736  1.00  0.00     0.105 C 
BRANCH  10  11
HETATM   11  N4  UNL     1      -3.910   3.415  13.113  1.00  0.00    -0.386 N 
HETATM   12  C14 UNL     1      -4.131   4.732  13.686  1.00  0.00     0.149 C 
HETATM   13  C15 UNL     1      -5.547   4.904  14.157  1.00  0.00     0.252 C 
HETATM   14  N5  UNL     1      -5.989   3.874  15.051  1.00  0.00    -0.072 N 
HETATM   15  C16 UNL     1      -5.091   2.750  15.142  1.00  0.00     0.252 C 
ATOM     16  H52 UNL     1      -6.174   4.259  15.976  1.00  0.00     0.277 HD
ATOM     17  H51 UNL     1      -6.927   3.562  14.802  1.00  0.00     0.277 HD
HETATM   18  C17 UNL     1      -4.635   2.375  13.771  1.00  0.00     0.149 C 
ENDBRANCH  10  11
ENDBRANCH   9  10
BRANCH   1  19
HETATM   19  O1  UNL     1      -1.934   1.356  11.673  1.00  0.00    -0.335 OA
BRANCH  19  20
HETATM   20  C2  UNL     1      -2.163   0.114  11.098  1.00  0.00     0.173 C 
HETATM   21  C1  UNL     1      -3.600  -0.316  11.096  1.00  0.00     0.034 C 
ENDBRANCH  19  20
ENDBRANCH   1  19
BRANCH   8  22
HETATM   22  N3  UNL     1      -2.967   5.901  10.120  1.00  0.00    -0.366 N 
HETATM   23  C7  UNL     1      -3.981   6.096   9.116  1.00  0.00     0.127 C 
HETATM   24  C8  UNL     1      -5.342   6.303   9.762  1.00  0.00     0.057 C 
HETATM   25  C9  UNL     1      -5.194   7.013  11.066  1.00  0.00     0.173 C 
HETATM   26  F1  UNL     1      -6.300   7.748  11.384  1.00  0.00    -0.249 F 
HETATM   27  C10 UNL     1      -3.940   7.874  11.067  1.00  0.00     0.057 C 
HETATM   28  C11 UNL     1      -2.702   6.985  11.041  1.00  0.00     0.127 C 
ENDBRANCH   8  22
TORSDOF 5
ENDMDL
