MODEL 1
REMARK VINA RESULT: -9.307679838      0.000      0.000
REMARK  16 active torsions:
REMARK  status: ('A' for Active; 'I' for Inactive)
REMARK    1  A    between atoms: C1_2  and  C2_4 
REMARK    2  A    between atoms: C2_4  and  O3_5 
REMARK    3  A    between atoms: O3_5  and  S1_6 
REMARK    4  A    between atoms: S1_6  and  N1_9 
REMARK       I    between atoms: N1_9  and  C3_11 
REMARK    5  A    between atoms: C3_11  and  C4_13 
REMARK    6  A    between atoms: C4_13  and  O7_14 
REMARK    7  A    between atoms: C4_13  and  C5_16 
REMARK    8  A    between atoms: C6_17  and  O8_18 
REMARK    9  A    between atoms: C7_20  and  C8_21 
REMARK   10  A    between atoms: C8_21  and  O9_22 
REMARK   11  A    between atoms: C8_21  and  O10_24 
REMARK   12  A    between atoms: C9_26  and  O11_27 
REMARK   13  A    between atoms: N2_29  and  C10_30 
REMARK   14  A    between atoms: C12_35  and  O12_36 
REMARK   15  A    between atoms: C13_38  and  O13_39 
REMARK   16  A    between atoms: C14_42  and  O14_43 
ROOT
HETATM    1  C5  UNL     1      16.634  50.575  -6.625  1.00  0.00     0.115 A 
HETATM    2  C6  UNL     1      16.634  51.755  -5.930  1.00  0.00     0.111 A 
HETATM    3  C7  UNL     1      17.082  51.546  -4.628  1.00  0.00     0.083 A 
HETATM    4  C9  UNL     1      17.354  50.220  -4.545  1.00  0.00     0.162 A 
HETATM    5  N2  UNL     1      17.089  49.648  -5.725  1.00  0.00    -0.276 N 
ENDROOT
BRANCH   1   6
HETATM    6  C4  UNL     1      16.278  50.223  -7.966  1.00  0.00     0.165 C 
BRANCH   6   7
HETATM    7  C3  UNL     1      16.902  50.702  -9.184  1.00  0.00     0.292 C 
HETATM    8  N1  UNL     1      16.170  51.609 -10.034  1.00  0.00    -0.225 N 
ATOM      9  H1  UNL     1      15.227  51.907  -9.782  1.00  0.00     0.184 HD
HETATM   10  O6  UNL     1      18.043  50.414  -9.603  1.00  0.00    -0.264 OA
BRANCH   8  11
HETATM   11  S1  UNL     1      16.903  52.176 -11.471  1.00  0.00     0.365 S 
HETATM   12  O4  UNL     1      15.984  53.239 -12.057  1.00  0.00    -0.175 OA
HETATM   13  O5  UNL     1      17.008  51.081 -12.506  1.00  0.00    -0.175 OA
BRANCH  11  14
HETATM   14  O3  UNL     1      18.379  52.905 -11.214  1.00  0.00    -0.249 OA
BRANCH  14  15
HETATM   15  C2  UNL     1      19.287  52.633 -12.210  1.00  0.00     0.305 C 
BRANCH  15  16
HETATM   16  C1  UNL     1      20.461  51.873 -11.714  1.00  0.00     0.199 C 
HETATM   17  O1  UNL     1      21.152  51.242 -12.552  1.00  0.00    -0.646 OA
HETATM   18  O2  UNL     1      20.766  51.874 -10.368  1.00  0.00    -0.646 OA
ENDBRANCH  15  16
ENDBRANCH  14  15
ENDBRANCH  11  14
ENDBRANCH   8  11
ENDBRANCH   6   7
BRANCH   6  19
HETATM   19  O7  UNL     1      15.301  49.391  -8.177  1.00  0.00    -0.354 OA
ATOM     20  H7  UNL     1      14.446  49.804  -8.177  1.00  0.00     0.218 HD
ENDBRANCH   6  19
ENDBRANCH   1   6
BRANCH   2  21
HETATM   21  O8  UNL     1      16.260  52.979  -6.403  1.00  0.00    -0.357 OA
ATOM     22  H8  UNL     1      15.977  53.725  -5.887  1.00  0.00     0.217 HD
ENDBRANCH   2  21
BRANCH   5  23
HETATM   23  C10 UNL     1      17.269  48.242  -5.981  1.00  0.00     0.139 A 
HETATM   24  S2  UNL     1      18.492  47.429  -6.849  1.00  0.00    -0.030 SA
HETATM   25  C11 UNL     1      17.932  45.835  -6.647  1.00  0.00     0.163 A 
HETATM   26  N3  UNL     1      18.174  44.517  -6.934  1.00  0.00    -0.313 N 
HETATM   27  N4  UNL     1      16.828  45.984  -5.920  1.00  0.00    -0.245 N 
HETATM   28  C12 UNL     1      17.186  43.817  -6.366  1.00  0.00     0.195 A 
ATOM     29  H3  UNL     1      18.954  44.143  -7.475  1.00  0.00     0.170 HD
HETATM   30  C13 UNL     1      16.337  44.705  -5.730  1.00  0.00     0.203 A 
HETATM   31  C14 UNL     1      16.474  47.199  -5.572  1.00  0.00     0.186 A 
BRANCH  28  32
HETATM   32  O12 UNL     1      17.001  42.429  -6.384  1.00  0.00    -0.343 OA
ATOM     33  H12 UNL     1      16.263  41.937  -6.043  1.00  0.00     0.219 HD
ENDBRANCH  28  32
BRANCH  30  34
HETATM   34  O13 UNL     1      15.197  44.313  -5.034  1.00  0.00    -0.342 OA
ATOM     35  H13 UNL     1      14.413  44.845  -4.972  1.00  0.00     0.219 HD
ENDBRANCH  30  34
BRANCH  31  36
HETATM   36  O14 UNL     1      15.315  47.528  -4.792  1.00  0.00    -0.344 OA
ATOM     37  H14 UNL     1      14.936  46.833  -4.267  1.00  0.00     0.219 HD
ENDBRANCH  31  36
ENDBRANCH   5  23
BRANCH   3  38
HETATM   38  C8  UNL     1      17.230  52.550  -3.566  1.00  0.00     0.295 C 
BRANCH  38  39
HETATM   39  O9  UNL     1      16.213  53.518  -3.658  1.00  0.00    -0.367 OA
ATOM     40  H9  UNL     1      16.454  54.300  -3.176  1.00  0.00     0.213 HD
ENDBRANCH  38  39
BRANCH  38  41
HETATM   41  O10 UNL     1      18.451  53.197  -3.716  1.00  0.00    -0.367 OA
ATOM     42  H10 UNL     1      19.070  52.845  -3.088  1.00  0.00     0.213 HD
ENDBRANCH  38  41
ENDBRANCH   3  38
BRANCH   4  43
HETATM   43  O11 UNL     1      17.833  49.546  -3.414  1.00  0.00    -0.345 OA
ATOM     44  H11 UNL     1      17.861  48.604  -3.294  1.00  0.00     0.219 HD
ENDBRANCH   4  43
TORSDOF 16
ENDMDL
MODEL 2
REMARK VINA RESULT: -9.006586555      1.938      2.679
REMARK  16 active torsions:
REMARK  status: ('A' for Active; 'I' for Inactive)
REMARK    1  A    between atoms: C1_2  and  C2_4 
REMARK    2  A    between atoms: C2_4  and  O3_5 
REMARK    3  A    between atoms: O3_5  and  S1_6 
REMARK    4  A    between atoms: S1_6  and  N1_9 
REMARK       I    between atoms: N1_9  and  C3_11 
REMARK    5  A    between atoms: C3_11  and  C4_13 
REMARK    6  A    between atoms: C4_13  and  O7_14 
REMARK    7  A    between atoms: C4_13  and  C5_16 
REMARK    8  A    between atoms: C6_17  and  O8_18 
REMARK    9  A    between atoms: C7_20  and  C8_21 
REMARK   10  A    between atoms: C8_21  and  O9_22 
REMARK   11  A    between atoms: C8_21  and  O10_24 
REMARK   12  A    between atoms: C9_26  and  O11_27 
REMARK   13  A    between atoms: N2_29  and  C10_30 
REMARK   14  A    between atoms: C12_35  and  O12_36 
REMARK   15  A    between atoms: C13_38  and  O13_39 
REMARK   16  A    between atoms: C14_42  and  O14_43 
ROOT
HETATM    1  C5  UNL     1      16.782  50.598  -7.656  1.00  0.00     0.115 A 
HETATM    2  C6  UNL     1      16.829  51.906  -7.252  1.00  0.00     0.111 A 
HETATM    3  C7  UNL     1      16.961  51.976  -5.867  1.00  0.00     0.083 A 
HETATM    4  C9  UNL     1      16.993  50.690  -5.439  1.00  0.00     0.162 A 
HETATM    5  N2  UNL     1      16.888  49.877  -6.497  1.00  0.00    -0.276 N 
ENDROOT
BRANCH   1   6
HETATM    6  C4  UNL     1      16.657  49.969  -8.936  1.00  0.00     0.165 C 
BRANCH   6   7
HETATM    7  C3  UNL     1      17.733  49.644  -9.853  1.00  0.00     0.292 C 
HETATM    8  N1  UNL     1      19.097  49.810  -9.417  1.00  0.00    -0.225 N 
ATOM      9  H1  UNL     1      19.302  50.153  -8.478  1.00  0.00     0.184 HD
HETATM   10  O6  UNL     1      17.616  49.218 -11.022  1.00  0.00    -0.264 OA
BRANCH   8  11
HETATM   11  S1  UNL     1      20.367  49.427 -10.495  1.00  0.00     0.365 S 
HETATM   12  O4  UNL     1      20.108  48.020 -11.017  1.00  0.00    -0.175 OA
HETATM   13  O5  UNL     1      21.700  49.383  -9.784  1.00  0.00    -0.175 OA
BRANCH  11  14
HETATM   14  O3  UNL     1      20.428  50.429 -11.825  1.00  0.00    -0.249 OA
BRANCH  14  15
HETATM   15  C2  UNL     1      20.406  51.762 -11.488  1.00  0.00     0.305 C 
BRANCH  15  16
HETATM   16  C1  UNL     1      19.131  52.421 -11.867  1.00  0.00     0.199 C 
HETATM   17  O1  UNL     1      18.999  52.811 -13.053  1.00  0.00    -0.646 OA
HETATM   18  O2  UNL     1      18.134  52.588 -10.927  1.00  0.00    -0.646 OA
ENDBRANCH  15  16
ENDBRANCH  14  15
ENDBRANCH  11  14
ENDBRANCH   8  11
ENDBRANCH   6   7
BRANCH   6  19
HETATM   19  O7  UNL     1      15.481  49.630  -9.376  1.00  0.00    -0.354 OA
ATOM     20  H7  UNL     1      14.954  50.369  -9.655  1.00  0.00     0.218 HD
ENDBRANCH   6  19
ENDBRANCH   1   6
BRANCH   2  21
HETATM   21  O8  UNL     1      16.761  53.009  -8.052  1.00  0.00    -0.357 OA
ATOM     22  H8  UNL     1      17.116  53.870  -7.863  1.00  0.00     0.217 HD
ENDBRANCH   2  21
BRANCH   5  23
HETATM   23  C10 UNL     1      16.888  48.440  -6.395  1.00  0.00     0.139 A 
HETATM   24  S2  UNL     1      15.600  47.357  -6.117  1.00  0.00    -0.030 SA
HETATM   25  C11 UNL     1      16.481  45.900  -6.151  1.00  0.00     0.163 A 
HETATM   26  N3  UNL     1      16.396  44.537  -6.041  1.00  0.00    -0.313 N 
HETATM   27  N4  UNL     1      17.730  46.299  -6.374  1.00  0.00    -0.245 N 
HETATM   28  C12 UNL     1      17.639  44.066  -6.202  1.00  0.00     0.195 A 
ATOM     29  H3  UNL     1      15.553  43.989  -5.871  1.00  0.00     0.170 HD
HETATM   30  C13 UNL     1      18.485  45.140  -6.410  1.00  0.00     0.203 A 
HETATM   31  C14 UNL     1      17.958  47.585  -6.501  1.00  0.00     0.186 A 
BRANCH  28  32
HETATM   32  O12 UNL     1      18.057  42.730  -6.173  1.00  0.00    -0.343 OA
ATOM     33  H12 UNL     1      17.997  42.088  -6.870  1.00  0.00     0.219 HD
ENDBRANCH  28  32
BRANCH  30  34
HETATM   34  O13 UNL     1      19.855  45.009  -6.614  1.00  0.00    -0.342 OA
ATOM     35  H13 UNL     1      20.485  44.941  -5.907  1.00  0.00     0.219 HD
ENDBRANCH  30  34
BRANCH  31  36
HETATM   36  O14 UNL     1      19.243  48.174  -6.743  1.00  0.00    -0.344 OA
ATOM     37  H14 UNL     1      19.940  47.592  -7.020  1.00  0.00     0.219 HD
ENDBRANCH  31  36
ENDBRANCH   5  23
BRANCH   3  38
HETATM   38  C8  UNL     1      17.047  53.188  -5.042  1.00  0.00     0.295 C 
BRANCH  38  39
HETATM   39  O9  UNL     1      16.709  52.900  -3.707  1.00  0.00    -0.367 OA
ATOM     40  H9  UNL     1      17.265  53.387  -3.111  1.00  0.00     0.213 HD
ENDBRANCH  38  39
BRANCH  38  41
HETATM   41  O10 UNL     1      16.142  54.130  -5.518  1.00  0.00    -0.367 OA
ATOM     42  H10 UNL     1      15.293  53.720  -5.625  1.00  0.00     0.213 HD
ENDBRANCH  38  41
ENDBRANCH   3  38
BRANCH   4  43
HETATM   43  O11 UNL     1      17.115  50.266  -4.109  1.00  0.00    -0.345 OA
ATOM     44  H11 UNL     1      16.964  49.385  -3.787  1.00  0.00     0.219 HD
ENDBRANCH   4  43
TORSDOF 16
ENDMDL
MODEL 3
REMARK VINA RESULT: -8.882890048      1.278      1.586
REMARK  16 active torsions:
REMARK  status: ('A' for Active; 'I' for Inactive)
REMARK    1  A    between atoms: C1_2  and  C2_4 
REMARK    2  A    between atoms: C2_4  and  O3_5 
REMARK    3  A    between atoms: O3_5  and  S1_6 
REMARK    4  A    between atoms: S1_6  and  N1_9 
REMARK       I    between atoms: N1_9  and  C3_11 
REMARK    5  A    between atoms: C3_11  and  C4_13 
REMARK    6  A    between atoms: C4_13  and  O7_14 
REMARK    7  A    between atoms: C4_13  and  C5_16 
REMARK    8  A    between atoms: C6_17  and  O8_18 
REMARK    9  A    between atoms: C7_20  and  C8_21 
REMARK   10  A    between atoms: C8_21  and  O9_22 
REMARK   11  A    between atoms: C8_21  and  O10_24 
REMARK   12  A    between atoms: C9_26  and  O11_27 
REMARK   13  A    between atoms: N2_29  and  C10_30 
REMARK   14  A    between atoms: C12_35  and  O12_36 
REMARK   15  A    between atoms: C13_38  and  O13_39 
REMARK   16  A    between atoms: C14_42  and  O14_43 
ROOT
HETATM    1  C5  UNL     1      16.538  50.467  -6.475  1.00  0.00     0.115 A 
HETATM    2  C6  UNL     1      16.590  51.658  -5.799  1.00  0.00     0.111 A 
HETATM    3  C7  UNL     1      17.073  51.458  -4.509  1.00  0.00     0.083 A 
HETATM    4  C9  UNL     1      17.314  50.127  -4.413  1.00  0.00     0.162 A 
HETATM    5  N2  UNL     1      16.998  49.543  -5.574  1.00  0.00    -0.276 N 
ENDROOT
BRANCH   1   6
HETATM    6  C4  UNL     1      16.131  50.104  -7.798  1.00  0.00     0.165 C 
BRANCH   6   7
HETATM    7  C3  UNL     1      16.793  50.459  -9.039  1.00  0.00     0.292 C 
HETATM    8  N1  UNL     1      16.106  51.308  -9.980  1.00  0.00    -0.225 N 
ATOM      9  H1  UNL     1      15.167  51.653  -9.776  1.00  0.00     0.184 HD
HETATM   10  O6  UNL     1      17.934  50.105  -9.405  1.00  0.00    -0.264 OA
BRANCH   8  11
HETATM   11  S1  UNL     1      16.884  51.729 -11.442  1.00  0.00     0.365 S 
HETATM   12  O4  UNL     1      15.927  52.617 -12.225  1.00  0.00    -0.175 OA
HETATM   13  O5  UNL     1      17.140  50.512 -12.301  1.00  0.00    -0.175 OA
BRANCH  11  14
HETATM   14  O3  UNL     1      18.281  52.610 -11.216  1.00  0.00    -0.249 OA
BRANCH  14  15
HETATM   15  C2  UNL     1      19.201  52.414 -12.218  1.00  0.00     0.305 C 
BRANCH  15  16
HETATM   16  C1  UNL     1      20.441  51.762 -11.729  1.00  0.00     0.199 C 
HETATM   17  O1  UNL     1      21.216  51.256 -12.577  1.00  0.00    -0.646 OA
HETATM   18  O2  UNL     1      20.713  51.724 -10.376  1.00  0.00    -0.646 OA
ENDBRANCH  15  16
ENDBRANCH  14  15
ENDBRANCH  11  14
ENDBRANCH   8  11
ENDBRANCH   6   7
BRANCH   6  19
HETATM   19  O7  UNL     1      15.063  49.381  -7.969  1.00  0.00    -0.354 OA
ATOM     20  H7  UNL     1      14.490  49.708  -8.652  1.00  0.00     0.218 HD
ENDBRANCH   6  19
ENDBRANCH   1   6
BRANCH   2  21
HETATM   21  O8  UNL     1      16.231  52.883  -6.281  1.00  0.00    -0.357 OA
ATOM     22  H8  UNL     1      16.673  53.708  -6.119  1.00  0.00     0.217 HD
ENDBRANCH   2  21
BRANCH   5  23
HETATM   23  C10 UNL     1      17.134  48.129  -5.813  1.00  0.00     0.139 A 
HETATM   24  S2  UNL     1      16.133  46.832  -5.340  1.00  0.00    -0.030 SA
HETATM   25  C11 UNL     1      17.025  45.556  -6.029  1.00  0.00     0.163 A 
HETATM   26  N3  UNL     1      17.082  44.199  -6.212  1.00  0.00    -0.313 N 
HETATM   27  N4  UNL     1      18.058  46.172  -6.596  1.00  0.00    -0.245 N 
HETATM   28  C12 UNL     1      18.191  43.959  -6.921  1.00  0.00     0.195 A 
ATOM     29  H3  UNL     1      16.411  43.509  -5.875  1.00  0.00     0.170 HD
HETATM   30  C13 UNL     1      18.815  45.168  -7.172  1.00  0.00     0.203 A 
HETATM   31  C14 UNL     1      18.132  47.479  -6.498  1.00  0.00     0.186 A 
BRANCH  28  32
HETATM   32  O12 UNL     1      18.676  42.719  -7.355  1.00  0.00    -0.343 OA
ATOM     33  H12 UNL     1      19.581  42.435  -7.405  1.00  0.00     0.219 HD
ENDBRANCH  28  32
BRANCH  30  34
HETATM   34  O13 UNL     1      20.002  45.284  -7.888  1.00  0.00    -0.342 OA
ATOM     35  H13 UNL     1      20.802  45.642  -7.522  1.00  0.00     0.219 HD
ENDBRANCH  30  34
BRANCH  31  36
HETATM   36  O14 UNL     1      19.178  48.289  -7.052  1.00  0.00    -0.344 OA
ATOM     37  H14 UNL     1      20.071  48.050  -6.833  1.00  0.00     0.219 HD
ENDBRANCH  31  36
ENDBRANCH   5  23
BRANCH   3  38
HETATM   38  C8  UNL     1      17.279  52.474  -3.468  1.00  0.00     0.295 C 
BRANCH  38  39
HETATM   39  O9  UNL     1      16.162  53.323  -3.381  1.00  0.00    -0.367 OA
ATOM     40  H9  UNL     1      15.522  52.970  -2.774  1.00  0.00     0.213 HD
ENDBRANCH  38  39
BRANCH  38  41
HETATM   41  O10 UNL     1      18.383  53.251  -3.802  1.00  0.00    -0.367 OA
ATOM     42  H10 UNL     1      18.662  53.740  -3.037  1.00  0.00     0.213 HD
ENDBRANCH  38  41
ENDBRANCH   3  38
BRANCH   4  43
HETATM   43  O11 UNL     1      17.812  49.458  -3.286  1.00  0.00    -0.345 OA
ATOM     44  H11 UNL     1      17.401  48.723  -2.846  1.00  0.00     0.219 HD
ENDBRANCH   4  43
TORSDOF 16
ENDMDL
MODEL 4
REMARK VINA RESULT: -8.872829986      2.516      3.362
REMARK  16 active torsions:
REMARK  status: ('A' for Active; 'I' for Inactive)
REMARK    1  A    between atoms: C1_2  and  C2_4 
REMARK    2  A    between atoms: C2_4  and  O3_5 
REMARK    3  A    between atoms: O3_5  and  S1_6 
REMARK    4  A    between atoms: S1_6  and  N1_9 
REMARK       I    between atoms: N1_9  and  C3_11 
REMARK    5  A    between atoms: C3_11  and  C4_13 
REMARK    6  A    between atoms: C4_13  and  O7_14 
REMARK    7  A    between atoms: C4_13  and  C5_16 
REMARK    8  A    between atoms: C6_17  and  O8_18 
REMARK    9  A    between atoms: C7_20  and  C8_21 
REMARK   10  A    between atoms: C8_21  and  O9_22 
REMARK   11  A    between atoms: C8_21  and  O10_24 
REMARK   12  A    between atoms: C9_26  and  O11_27 
REMARK   13  A    between atoms: N2_29  and  C10_30 
REMARK   14  A    between atoms: C12_35  and  O12_36 
REMARK   15  A    between atoms: C13_38  and  O13_39 
REMARK   16  A    between atoms: C14_42  and  O14_43 
ROOT
HETATM    1  C5  UNL     1      16.775  50.624  -7.756  1.00  0.00     0.115 A 
HETATM    2  C6  UNL     1      16.859  51.928  -7.342  1.00  0.00     0.111 A 
HETATM    3  C7  UNL     1      16.913  51.987  -5.952  1.00  0.00     0.083 A 
HETATM    4  C9  UNL     1      16.860  50.699  -5.530  1.00  0.00     0.162 A 
HETATM    5  N2  UNL     1      16.779  49.896  -6.596  1.00  0.00    -0.276 N 
ENDROOT
BRANCH   1   6
HETATM    6  C4  UNL     1      16.695  50.005  -9.045  1.00  0.00     0.165 C 
BRANCH   6   7
HETATM    7  C3  UNL     1      17.802  49.688  -9.926  1.00  0.00     0.292 C 
HETATM    8  N1  UNL     1      19.148  49.762  -9.412  1.00  0.00    -0.225 N 
ATOM      9  H1  UNL     1      19.317  50.034  -8.443  1.00  0.00     0.184 HD
HETATM   10  O6  UNL     1      17.729  49.343 -11.125  1.00  0.00    -0.264 OA
BRANCH   8  11
HETATM   11  S1  UNL     1      20.455  49.387 -10.448  1.00  0.00     0.365 S 
HETATM   12  O4  UNL     1      21.711  49.332  -9.589  1.00  0.00    -0.175 OA
HETATM   13  O5  UNL     1      20.680  50.479 -11.468  1.00  0.00    -0.175 OA
BRANCH  11  14
HETATM   14  O3  UNL     1      20.309  47.899 -11.182  1.00  0.00    -0.249 OA
BRANCH  14  15
HETATM   15  C2  UNL     1      21.067  46.928 -10.571  1.00  0.00     0.305 C 
BRANCH  15  16
HETATM   16  C1  UNL     1      20.406  46.368  -9.367  1.00  0.00     0.199 C 
HETATM   17  O1  UNL     1      19.274  45.841  -9.506  1.00  0.00    -0.646 OA
HETATM   18  O2  UNL     1      21.035  46.434  -8.140  1.00  0.00    -0.646 OA
ENDBRANCH  15  16
ENDBRANCH  14  15
ENDBRANCH  11  14
ENDBRANCH   8  11
ENDBRANCH   6   7
BRANCH   6  19
HETATM   19  O7  UNL     1      15.535  49.670  -9.528  1.00  0.00    -0.354 OA
ATOM     20  H7  UNL     1      14.984  50.413  -9.741  1.00  0.00     0.218 HD
ENDBRANCH   6  19
ENDBRANCH   1   6
BRANCH   2  21
HETATM   21  O8  UNL     1      16.889  53.035  -8.139  1.00  0.00    -0.357 OA
ATOM     22  H8  UNL     1      16.143  53.556  -8.414  1.00  0.00     0.217 HD
ENDBRANCH   2  21
BRANCH   5  23
HETATM   23  C10 UNL     1      16.707  48.460  -6.503  1.00  0.00     0.139 A 
HETATM   24  S2  UNL     1      15.352  47.434  -6.363  1.00  0.00    -0.030 SA
HETATM   25  C11 UNL     1      16.167  45.940  -6.316  1.00  0.00     0.163 A 
HETATM   26  N3  UNL     1      16.012  44.582  -6.222  1.00  0.00    -0.313 N 
HETATM   27  N4  UNL     1      17.448  46.283  -6.410  1.00  0.00    -0.245 N 
HETATM   28  C12 UNL     1      17.243  44.057  -6.260  1.00  0.00     0.195 A 
ATOM     29  H3  UNL     1      15.133  44.071  -6.140  1.00  0.00     0.170 HD
HETATM   30  C13 UNL     1      18.152  45.093  -6.375  1.00  0.00     0.203 A 
HETATM   31  C14 UNL     1      17.743  47.559  -6.505  1.00  0.00     0.186 A 
BRANCH  28  32
HETATM   32  O12 UNL     1      17.598  42.704  -6.196  1.00  0.00    -0.343 OA
ATOM     33  H12 UNL     1      18.367  42.288  -6.565  1.00  0.00     0.219 HD
ENDBRANCH  28  32
BRANCH  30  34
HETATM   34  O13 UNL     1      19.529  44.902  -6.441  1.00  0.00    -0.342 OA
ATOM     35  H13 UNL     1      20.130  45.548  -6.792  1.00  0.00     0.219 HD
ENDBRANCH  30  34
BRANCH  31  36
HETATM   36  O14 UNL     1      19.071  48.091  -6.613  1.00  0.00    -0.344 OA
ATOM     37  H14 UNL     1      19.749  47.503  -6.925  1.00  0.00     0.219 HD
ENDBRANCH  31  36
ENDBRANCH   5  23
BRANCH   3  38
HETATM   38  C8  UNL     1      17.007  53.191  -5.115  1.00  0.00     0.295 C 
BRANCH  38  39
HETATM   39  O9  UNL     1      16.687  52.889  -3.780  1.00  0.00    -0.367 OA
ATOM     40  H9  UNL     1      17.316  53.286  -3.189  1.00  0.00     0.213 HD
ENDBRANCH  38  39
BRANCH  38  41
HETATM   41  O10 UNL     1      16.094  54.136  -5.571  1.00  0.00    -0.367 OA
ATOM     42  H10 UNL     1      16.459  55.004  -5.451  1.00  0.00     0.213 HD
ENDBRANCH  38  41
ENDBRANCH   3  38
BRANCH   4  43
HETATM   43  O11 UNL     1      16.885  50.266  -4.197  1.00  0.00    -0.345 OA
ATOM     44  H11 UNL     1      17.504  49.651  -3.821  1.00  0.00     0.219 HD
ENDBRANCH   4  43
TORSDOF 16
ENDMDL
MODEL 5
REMARK VINA RESULT: -8.860063795      1.587      2.299
REMARK  16 active torsions:
REMARK  status: ('A' for Active; 'I' for Inactive)
REMARK    1  A    between atoms: C1_2  and  C2_4 
REMARK    2  A    between atoms: C2_4  and  O3_5 
REMARK    3  A    between atoms: O3_5  and  S1_6 
REMARK    4  A    between atoms: S1_6  and  N1_9 
REMARK       I    between atoms: N1_9  and  C3_11 
REMARK    5  A    between atoms: C3_11  and  C4_13 
REMARK    6  A    between atoms: C4_13  and  O7_14 
REMARK    7  A    between atoms: C4_13  and  C5_16 
REMARK    8  A    between atoms: C6_17  and  O8_18 
REMARK    9  A    between atoms: C7_20  and  C8_21 
REMARK   10  A    between atoms: C8_21  and  O9_22 
REMARK   11  A    between atoms: C8_21  and  O10_24 
REMARK   12  A    between atoms: C9_26  and  O11_27 
REMARK   13  A    between atoms: N2_29  and  C10_30 
REMARK   14  A    between atoms: C12_35  and  O12_36 
REMARK   15  A    between atoms: C13_38  and  O13_39 
REMARK   16  A    between atoms: C14_42  and  O14_43 
ROOT
HETATM    1  C5  UNL     1      16.921  50.415  -7.713  1.00  0.00     0.115 A 
HETATM    2  C6  UNL     1      16.831  51.708  -7.270  1.00  0.00     0.111 A 
HETATM    3  C7  UNL     1      17.045  51.760  -5.895  1.00  0.00     0.083 A 
HETATM    4  C9  UNL     1      17.266  50.478  -5.512  1.00  0.00     0.162 A 
HETATM    5  N2  UNL     1      17.193  49.685  -6.587  1.00  0.00    -0.276 N 
ENDROOT
BRANCH   1   6
HETATM    6  C4  UNL     1      16.790  49.807  -9.003  1.00  0.00     0.165 C 
BRANCH   6   7
HETATM    7  C3  UNL     1      17.856  49.539  -9.949  1.00  0.00     0.292 C 
HETATM    8  N1  UNL     1      19.222  49.764  -9.545  1.00  0.00    -0.225 N 
ATOM      9  H1  UNL     1      19.435  50.107  -8.608  1.00  0.00     0.184 HD
HETATM   10  O6  UNL     1      17.729  49.119 -11.119  1.00  0.00    -0.264 OA
BRANCH   8  11
HETATM   11  S1  UNL     1      20.481  49.449 -10.658  1.00  0.00     0.365 S 
HETATM   12  O4  UNL     1      20.244  48.056 -11.226  1.00  0.00    -0.175 OA
HETATM   13  O5  UNL     1      21.827  49.408  -9.971  1.00  0.00    -0.175 OA
BRANCH  11  14
HETATM   14  O3  UNL     1      20.496  50.500 -11.951  1.00  0.00    -0.249 OA
BRANCH  14  15
HETATM   15  C2  UNL     1      20.420  51.818 -11.566  1.00  0.00     0.305 C 
BRANCH  15  16
HETATM   16  C1  UNL     1      19.108  52.428 -11.895  1.00  0.00     0.199 C 
HETATM   17  O1  UNL     1      18.921  52.826 -13.071  1.00  0.00    -0.646 OA
HETATM   18  O2  UNL     1      18.137  52.544 -10.921  1.00  0.00    -0.646 OA
ENDBRANCH  15  16
ENDBRANCH  14  15
ENDBRANCH  11  14
ENDBRANCH   8  11
ENDBRANCH   6   7
BRANCH   6  19
HETATM   19  O7  UNL     1      15.618  49.434  -9.424  1.00  0.00    -0.354 OA
ATOM     20  H7  UNL     1      15.196  48.800  -8.857  1.00  0.00     0.218 HD
ENDBRANCH   6  19
ENDBRANCH   1   6
BRANCH   2  21
HETATM   21  O8  UNL     1      16.573  52.813  -8.027  1.00  0.00    -0.357 OA
ATOM     22  H8  UNL     1      16.491  52.846  -8.973  1.00  0.00     0.217 HD
ENDBRANCH   2  21
BRANCH   5  23
HETATM   23  C10 UNL     1      17.380  48.258  -6.533  1.00  0.00     0.139 A 
HETATM   24  S2  UNL     1      18.788  47.323  -6.760  1.00  0.00    -0.030 SA
HETATM   25  C11 UNL     1      18.112  45.779  -6.521  1.00  0.00     0.163 A 
HETATM   26  N3  UNL     1      18.373  44.435  -6.487  1.00  0.00    -0.313 N 
HETATM   27  N4  UNL     1      16.831  46.038  -6.275  1.00  0.00    -0.245 N 
HETATM   28  C12 UNL     1      17.212  43.830  -6.209  1.00  0.00     0.195 A 
ATOM     29  H3  UNL     1      19.274  43.983  -6.643  1.00  0.00     0.170 HD
HETATM   30  C13 UNL     1      16.239  44.804  -6.073  1.00  0.00     0.203 A 
HETATM   31  C14 UNL     1      16.439  47.290  -6.276  1.00  0.00     0.186 A 
BRANCH  28  32
HETATM   32  O12 UNL     1      16.974  42.457  -6.070  1.00  0.00    -0.343 OA
ATOM     33  H12 UNL     1      16.803  41.826  -6.759  1.00  0.00     0.219 HD
ENDBRANCH  28  32
BRANCH  30  34
HETATM   34  O13 UNL     1      14.907  44.523  -5.781  1.00  0.00    -0.342 OA
ATOM     35  H13 UNL     1      14.208  45.161  -5.862  1.00  0.00     0.219 HD
ENDBRANCH  30  34
BRANCH  31  36
HETATM   36  O14 UNL     1      15.097  47.734  -6.030  1.00  0.00    -0.344 OA
ATOM     37  H14 UNL     1      14.900  48.643  -6.221  1.00  0.00     0.219 HD
ENDBRANCH  31  36
ENDBRANCH   5  23
BRANCH   3  38
HETATM   38  C8  UNL     1      17.034  52.952  -5.036  1.00  0.00     0.295 C 
BRANCH  38  39
HETATM   39  O9  UNL     1      16.702  52.604  -3.715  1.00  0.00    -0.367 OA
ATOM     40  H9  UNL     1      15.999  51.966  -3.706  1.00  0.00     0.213 HD
ENDBRANCH  38  39
BRANCH  38  41
HETATM   41  O10 UNL     1      16.070  53.840  -5.501  1.00  0.00    -0.367 OA
ATOM     42  H10 UNL     1      16.417  54.314  -6.247  1.00  0.00     0.213 HD
ENDBRANCH  38  41
ENDBRANCH   3  38
BRANCH   4  43
HETATM   43  O11 UNL     1      17.529  50.040  -4.207  1.00  0.00    -0.345 OA
ATOM     44  H11 UNL     1      18.381  50.013  -3.787  1.00  0.00     0.219 HD
ENDBRANCH   4  43
TORSDOF 16
ENDMDL
