MODEL 1
REMARK VINA RESULT: -9.584493293      0.000      0.000
REMARK  9 active torsions:
REMARK  status: ('A' for Active; 'I' for Inactive)
REMARK    1  A    between atoms: N2_5  and  C4_6 
REMARK    2  A    between atoms: C6_10  and  N4_11 
REMARK    3  A    between atoms: N4_11  and  C7_13 
REMARK    4  A    between atoms: C10_18  and  N6_19 
REMARK    5  A    between atoms: N6_19  and  C11_21 
REMARK    6  A    between atoms: C11_21  and  C12_22 
REMARK    7  A    between atoms: C12_22  and  C13_23 
REMARK    8  A    between atoms: C13_23  and  N7_24 
REMARK    9  A    between atoms: N7_24  and  C15_26 
ROOT
HETATM    1  C7  UNL     1     -17.218   6.684  -9.271  1.00  0.00     0.684 A 
HETATM    2  N5  UNL     1     -16.232   6.962  -8.398  1.00  0.00    -0.202 N 
ATOM      3  H5  UNL     1     -16.227   7.875  -7.942  1.00  0.00     0.183 HD
HETATM    4  C8  UNL     1     -15.256   6.092  -8.099  1.00  0.00     0.110 A 
HETATM    5  C9  UNL     1     -15.275   4.848  -8.729  1.00  0.00     0.066 A 
HETATM    6  C10 UNL     1     -16.272   4.535  -9.628  1.00  0.00     0.118 A 
HETATM    7  N10 UNL     1     -17.214   5.467  -9.870  1.00  0.00    -0.177 N 
ATOM      8  H10 UNL     1     -17.957   5.248 -10.534  1.00  0.00     0.186 HD
ENDROOT
BRANCH   1   9
HETATM    9  N4  UNL     1     -18.140   7.551  -9.529  1.00  0.00    -0.189 N 
ATOM     10  H4  UNL     1     -18.321   7.852 -10.486  1.00  0.00     0.184 HD
BRANCH   9  11
HETATM   11  C6  UNL     1     -18.895   8.073  -8.448  1.00  0.00     0.081 A 
HETATM   12  C5  UNL     1     -20.154   7.633  -8.125  1.00  0.00     0.137 A 
HETATM   13  N3  UNL     1     -20.823   8.162  -7.088  1.00  0.00    -0.200 N 
HETATM   14  C4  UNL     1     -20.297   9.147  -6.315  1.00  0.00     0.680 A 
ATOM     15  H3  UNL     1     -21.758   7.813  -6.875  1.00  0.00     0.183 HD
HETATM   16  N11 UNL     1     -19.056   9.563  -6.653  1.00  0.00    -0.200 N 
HETATM   17  C19 UNL     1     -18.344   9.071  -7.676  1.00  0.00     0.137 A 
ATOM     18  H11 UNL     1     -18.634  10.302  -6.091  1.00  0.00     0.183 HD
BRANCH  14  19
HETATM   19  N2  UNL     1     -21.013   9.692  -5.229  1.00  0.00    -0.215 N 
HETATM   20  C3  UNL     1     -21.938  10.779  -5.417  1.00  0.00     0.160 C 
HETATM   21  C2  UNL     1     -22.752  11.036  -4.171  1.00  0.00     0.136 C 
HETATM   22  N1  UNL     1     -21.966  11.144  -2.979  1.00  0.00    -0.414 N 
HETATM   23  C1  UNL     1     -21.771  12.487  -2.523  1.00  0.00     0.143 C 
HETATM   24  C21 UNL     1     -20.809  10.319  -2.927  1.00  0.00     0.136 C 
HETATM   25  C20 UNL     1     -20.832   9.167  -3.900  1.00  0.00     0.160 C 
ENDBRANCH  14  19
ENDBRANCH   9  11
ENDBRANCH   1   9
BRANCH   6  26
HETATM   26  N6  UNL     1     -16.340   3.399 -10.238  1.00  0.00    -0.376 N 
ATOM     27  H6  UNL     1     -17.022   3.324 -10.993  1.00  0.00     0.161 HD
BRANCH  26  28
HETATM   28  C11 UNL     1     -15.556   2.241  -9.963  1.00  0.00     0.123 C 
BRANCH  28  29
HETATM   29  C12 UNL     1     -14.675   1.889 -11.164  1.00  0.00     0.040 C 
BRANCH  29  30
HETATM   30  C13 UNL     1     -15.523   1.605 -12.395  1.00  0.00     0.142 C 
BRANCH  30  31
HETATM   31  N7  UNL     1     -14.708   1.442 -13.573  1.00  0.00    -0.223 N 
HETATM   32  C14 UNL     1     -13.358   0.907 -13.486  1.00  0.00     0.168 C 
BRANCH  31  33
HETATM   33  C15 UNL     1     -15.191   1.794 -14.862  1.00  0.00     0.671 C 
HETATM   34  N8  UNL     1     -15.341   0.842 -15.740  1.00  0.00    -0.226 N 
HETATM   35  C16 UNL     1     -15.831   1.145 -17.072  1.00  0.00     0.139 C 
ATOM     36  H8  UNL     1     -15.113  -0.120 -15.490  1.00  0.00     0.177 HD
HETATM   37  C17 UNL     1     -16.942   2.168 -16.978  1.00  0.00     0.040 C 
HETATM   38  C18 UNL     1     -16.420   3.435 -16.329  1.00  0.00     0.139 C 
HETATM   39  N9  UNL     1     -15.518   3.113 -15.244  1.00  0.00    -0.226 N 
ATOM     40  H9  UNL     1     -15.095   3.882 -14.725  1.00  0.00     0.177 HD
ENDBRANCH  31  33
ENDBRANCH  30  31
ENDBRANCH  29  30
ENDBRANCH  28  29
ENDBRANCH  26  28
ENDBRANCH   6  26
TORSDOF 9
ENDMDL
MODEL 2
REMARK VINA RESULT: -9.567626310      2.634     12.245
REMARK  9 active torsions:
REMARK  status: ('A' for Active; 'I' for Inactive)
REMARK    1  A    between atoms: N2_5  and  C4_6 
REMARK    2  A    between atoms: C6_10  and  N4_11 
REMARK    3  A    between atoms: N4_11  and  C7_13 
REMARK    4  A    between atoms: C10_18  and  N6_19 
REMARK    5  A    between atoms: N6_19  and  C11_21 
REMARK    6  A    between atoms: C11_21  and  C12_22 
REMARK    7  A    between atoms: C12_22  and  C13_23 
REMARK    8  A    between atoms: C13_23  and  N7_24 
REMARK    9  A    between atoms: N7_24  and  C15_26 
ROOT
HETATM    1  C7  UNL     1     -19.221   8.456  -7.809  1.00  0.00     0.684 A 
HETATM    2  N5  UNL     1     -20.270   7.706  -8.192  1.00  0.00    -0.202 N 
ATOM      3  H5  UNL     1     -20.206   7.187  -9.068  1.00  0.00     0.183 HD
HETATM    4  C8  UNL     1     -21.398   7.609  -7.472  1.00  0.00     0.110 A 
HETATM    5  C9  UNL     1     -21.472   8.321  -6.276  1.00  0.00     0.066 A 
HETATM    6  C10 UNL     1     -20.412   9.098  -5.858  1.00  0.00     0.118 A 
HETATM    7  N10 UNL     1     -19.318   9.140  -6.642  1.00  0.00    -0.177 N 
ATOM      8  H10 UNL     1     -18.527   9.711  -6.344  1.00  0.00     0.186 HD
ENDROOT
BRANCH   1   9
HETATM    9  N4  UNL     1     -18.153   8.520  -8.532  1.00  0.00    -0.189 N 
ATOM     10  H4  UNL     1     -17.813   9.415  -8.884  1.00  0.00     0.184 HD
BRANCH   9  11
HETATM   11  C6  UNL     1     -17.464   7.315  -8.826  1.00  0.00     0.081 A 
HETATM   12  C5  UNL     1     -17.540   6.680 -10.040  1.00  0.00     0.137 A 
HETATM   13  N3  UNL     1     -16.864   5.541 -10.263  1.00  0.00    -0.200 N 
HETATM   14  C4  UNL     1     -16.081   4.966  -9.314  1.00  0.00     0.680 A 
ATOM     15  H3  UNL     1     -16.942   5.093 -11.177  1.00  0.00     0.183 HD
HETATM   16  N11 UNL     1     -16.023   5.611  -8.128  1.00  0.00    -0.200 N 
HETATM   17  C19 UNL     1     -16.675   6.748  -7.850  1.00  0.00     0.137 A 
ATOM     18  H11 UNL     1     -15.443   5.205  -7.394  1.00  0.00     0.183 HD
BRANCH  14  19
HETATM   19  N2  UNL     1     -15.377   3.770  -9.566  1.00  0.00    -0.215 N 
HETATM   20  C3  UNL     1     -13.962   3.674  -9.323  1.00  0.00     0.160 C 
HETATM   21  C2  UNL     1     -13.474   2.249  -9.439  1.00  0.00     0.136 C 
HETATM   22  N1  UNL     1     -13.905   1.587 -10.634  1.00  0.00    -0.414 N 
HETATM   23  C1  UNL     1     -12.896   1.484 -11.644  1.00  0.00     0.143 C 
HETATM   24  C21 UNL     1     -15.195   1.949 -11.108  1.00  0.00     0.136 C 
HETATM   25  C20 UNL     1     -16.067   2.612 -10.073  1.00  0.00     0.160 C 
ENDBRANCH  14  19
ENDBRANCH   9  11
ENDBRANCH   1   9
BRANCH   6  26
HETATM   26  N6  UNL     1     -20.426   9.777  -4.760  1.00  0.00    -0.376 N 
ATOM     27  H6  UNL     1     -19.809  10.588  -4.715  1.00  0.00     0.161 HD
BRANCH  26  28
HETATM   28  C11 UNL     1     -21.218   9.507  -3.606  1.00  0.00     0.123 C 
BRANCH  28  29
HETATM   29  C12 UNL     1     -20.443   9.845  -2.331  1.00  0.00     0.040 C 
BRANCH  29  30
HETATM   30  C13 UNL     1     -21.279  10.712  -1.400  1.00  0.00     0.142 C 
BRANCH  30  31
HETATM   31  N7  UNL     1     -20.963  12.110  -1.554  1.00  0.00    -0.223 N 
HETATM   32  C14 UNL     1     -19.875  12.723  -0.806  1.00  0.00     0.168 C 
BRANCH  31  33
HETATM   33  C15 UNL     1     -21.698  12.943  -2.440  1.00  0.00     0.671 C 
HETATM   34  N8  UNL     1     -21.284  13.041  -3.672  1.00  0.00    -0.226 N 
HETATM   35  C16 UNL     1     -21.998  13.876  -4.620  1.00  0.00     0.139 C 
ATOM     36  H8  UNL     1     -20.455  12.528  -3.972  1.00  0.00     0.177 HD
HETATM   37  C17 UNL     1     -23.488  13.713  -4.412  1.00  0.00     0.040 C 
HETATM   38  C18 UNL     1     -23.856  14.120  -2.998  1.00  0.00     0.139 C 
HETATM   39  N9  UNL     1     -22.850  13.665  -2.063  1.00  0.00    -0.226 N 
ATOM     40  H9  UNL     1     -22.981  13.879  -1.074  1.00  0.00     0.177 HD
ENDBRANCH  31  33
ENDBRANCH  30  31
ENDBRANCH  29  30
ENDBRANCH  28  29
ENDBRANCH  26  28
ENDBRANCH   6  26
TORSDOF 9
ENDMDL
MODEL 3
REMARK VINA RESULT: -9.476188723      2.494     12.404
REMARK  9 active torsions:
REMARK  status: ('A' for Active; 'I' for Inactive)
REMARK    1  A    between atoms: N2_5  and  C4_6 
REMARK    2  A    between atoms: C6_10  and  N4_11 
REMARK    3  A    between atoms: N4_11  and  C7_13 
REMARK    4  A    between atoms: C10_18  and  N6_19 
REMARK    5  A    between atoms: N6_19  and  C11_21 
REMARK    6  A    between atoms: C11_21  and  C12_22 
REMARK    7  A    between atoms: C12_22  and  C13_23 
REMARK    8  A    between atoms: C13_23  and  N7_24 
REMARK    9  A    between atoms: N7_24  and  C15_26 
ROOT
HETATM    1  C7  UNL     1     -19.078   8.292  -7.709  1.00  0.00     0.684 A 
HETATM    2  N5  UNL     1     -19.998   7.391  -8.101  1.00  0.00    -0.202 N 
ATOM      3  H5  UNL     1     -19.764   6.757  -8.866  1.00  0.00     0.183 HD
HETATM    4  C8  UNL     1     -21.208   7.289  -7.531  1.00  0.00     0.110 A 
HETATM    5  C9  UNL     1     -21.513   8.161  -6.487  1.00  0.00     0.066 A 
HETATM    6  C10 UNL     1     -20.591   9.094  -6.064  1.00  0.00     0.118 A 
HETATM    7  N10 UNL     1     -19.400   9.129  -6.691  1.00  0.00    -0.177 N 
ATOM      8  H10 UNL     1     -18.709   9.816  -6.387  1.00  0.00     0.186 HD
ENDROOT
BRANCH   1   9
HETATM    9  N4  UNL     1     -17.924   8.355  -8.284  1.00  0.00    -0.189 N 
ATOM     10  H4  UNL     1     -17.499   9.256  -8.506  1.00  0.00     0.184 HD
BRANCH   9  11
HETATM   11  C6  UNL     1     -17.261   7.142  -8.601  1.00  0.00     0.081 A 
HETATM   12  C5  UNL     1     -16.463   6.465  -7.713  1.00  0.00     0.137 A 
HETATM   13  N3  UNL     1     -15.860   5.318  -8.066  1.00  0.00    -0.200 N 
HETATM   14  C4  UNL     1     -16.007   4.775  -9.302  1.00  0.00     0.680 A 
ATOM     15  H3  UNL     1     -15.273   4.839  -7.383  1.00  0.00     0.183 HD
HETATM   16  N11 UNL     1     -16.798   5.460 -10.157  1.00  0.00    -0.200 N 
HETATM   17  C19 UNL     1     -17.423   6.607  -9.859  1.00  0.00     0.137 A 
ATOM     18  H11 UNL     1     -16.929   5.078 -11.094  1.00  0.00     0.183 HD
BRANCH  14  19
HETATM   19  N2  UNL     1     -15.368   3.568  -9.657  1.00  0.00    -0.215 N 
HETATM   20  C3  UNL     1     -13.983   3.340  -9.343  1.00  0.00     0.160 C 
HETATM   21  C2  UNL     1     -13.583   1.907  -9.604  1.00  0.00     0.136 C 
HETATM   22  N1  UNL     1     -13.972   1.425 -10.896  1.00  0.00    -0.414 N 
HETATM   23  C1  UNL     1     -12.904   1.369 -11.848  1.00  0.00     0.143 C 
HETATM   24  C21 UNL     1     -15.200   1.936 -11.400  1.00  0.00     0.136 C 
HETATM   25  C20 UNL     1     -16.096   2.533 -10.345  1.00  0.00     0.160 C 
ENDBRANCH  14  19
ENDBRANCH   9  11
ENDBRANCH   1   9
BRANCH   6  26
HETATM   26  N6  UNL     1     -20.820   9.925  -5.102  1.00  0.00    -0.376 N 
ATOM     27  H6  UNL     1     -20.235   9.838  -4.272  1.00  0.00     0.161 HD
BRANCH  26  28
HETATM   28  C11 UNL     1     -21.810  10.951  -5.086  1.00  0.00     0.123 C 
BRANCH  28  29
HETATM   29  C12 UNL     1     -22.819  10.708  -3.962  1.00  0.00     0.040 C 
BRANCH  29  30
HETATM   30  C13 UNL     1     -22.267   9.728  -2.937  1.00  0.00     0.142 C 
BRANCH  30  31
HETATM   31  N7  UNL     1     -22.144  10.336  -1.636  1.00  0.00    -0.223 N 
HETATM   32  C14 UNL     1     -23.187  10.185  -0.633  1.00  0.00     0.168 C 
BRANCH  31  33
HETATM   33  C15 UNL     1     -21.002  11.103  -1.282  1.00  0.00     0.671 C 
HETATM   34  N8  UNL     1     -21.150  12.392  -1.145  1.00  0.00    -0.226 N 
HETATM   35  C16 UNL     1     -20.018  13.224  -0.783  1.00  0.00     0.139 C 
ATOM     36  H8  UNL     1     -22.065  12.817  -1.292  1.00  0.00     0.177 HD
HETATM   37  C17 UNL     1     -19.189  12.517   0.267  1.00  0.00     0.040 C 
HETATM   38  C18 UNL     1     -18.691  11.192  -0.278  1.00  0.00     0.139 C 
HETATM   39  N9  UNL     1     -19.721  10.552  -1.067  1.00  0.00    -0.226 N 
ATOM     40  H9  UNL     1     -19.509   9.650  -1.494  1.00  0.00     0.177 HD
ENDBRANCH  31  33
ENDBRANCH  30  31
ENDBRANCH  29  30
ENDBRANCH  28  29
ENDBRANCH  26  28
ENDBRANCH   6  26
TORSDOF 9
ENDMDL
MODEL 4
REMARK VINA RESULT: -9.426604218      0.508      1.061
REMARK  9 active torsions:
REMARK  status: ('A' for Active; 'I' for Inactive)
REMARK    1  A    between atoms: N2_5  and  C4_6 
REMARK    2  A    between atoms: C6_10  and  N4_11 
REMARK    3  A    between atoms: N4_11  and  C7_13 
REMARK    4  A    between atoms: C10_18  and  N6_19 
REMARK    5  A    between atoms: N6_19  and  C11_21 
REMARK    6  A    between atoms: C11_21  and  C12_22 
REMARK    7  A    between atoms: C12_22  and  C13_23 
REMARK    8  A    between atoms: C13_23  and  N7_24 
REMARK    9  A    between atoms: N7_24  and  C15_26 
ROOT
HETATM    1  C7  UNL     1     -17.415   6.642  -9.180  1.00  0.00     0.684 A 
HETATM    2  N5  UNL     1     -16.477   6.943  -8.264  1.00  0.00    -0.202 N 
ATOM      3  H5  UNL     1     -16.550   7.830  -7.764  1.00  0.00     0.183 HD
HETATM    4  C8  UNL     1     -15.450   6.129  -7.977  1.00  0.00     0.110 A 
HETATM    5  C9  UNL     1     -15.363   4.920  -8.667  1.00  0.00     0.066 A 
HETATM    6  C10 UNL     1     -16.310   4.585  -9.611  1.00  0.00     0.118 A 
HETATM    7  N10 UNL     1     -17.308   5.460  -9.838  1.00  0.00    -0.177 N 
ATOM      8  H10 UNL     1     -18.015   5.224 -10.534  1.00  0.00     0.186 HD
ENDROOT
BRANCH   1   9
HETATM    9  N4  UNL     1     -18.389   7.455  -9.424  1.00  0.00    -0.189 N 
ATOM     10  H4  UNL     1     -18.660   7.672 -10.383  1.00  0.00     0.184 HD
BRANCH   9  11
HETATM   11  C6  UNL     1     -19.071   8.037  -8.327  1.00  0.00     0.081 A 
HETATM   12  C5  UNL     1     -20.308   7.621  -7.900  1.00  0.00     0.137 A 
HETATM   13  N3  UNL     1     -20.908   8.208  -6.852  1.00  0.00    -0.200 N 
HETATM   14  C4  UNL     1     -20.331   9.230  -6.168  1.00  0.00     0.680 A 
ATOM     15  H3  UNL     1     -21.827   7.876  -6.561  1.00  0.00     0.183 HD
HETATM   16  N11 UNL     1     -19.114   9.621  -6.607  1.00  0.00    -0.200 N 
HETATM   17  C19 UNL     1     -18.470   9.072  -7.646  1.00  0.00     0.137 A 
ATOM     18  H11 UNL     1     -18.655  10.387  -6.114  1.00  0.00     0.183 HD
BRANCH  14  19
HETATM   19  N2  UNL     1     -20.975   9.836  -5.069  1.00  0.00    -0.215 N 
HETATM   20  C3  UNL     1     -20.767   9.357  -3.728  1.00  0.00     0.160 C 
HETATM   21  C2  UNL     1     -21.364  10.293  -2.705  1.00  0.00     0.136 C 
HETATM   22  N1  UNL     1     -22.719  10.666  -2.984  1.00  0.00    -0.414 N 
HETATM   23  C1  UNL     1     -23.692   9.981  -2.188  1.00  0.00     0.143 C 
HETATM   24  C21 UNL     1     -23.052  10.793  -4.361  1.00  0.00     0.136 C 
HETATM   25  C20 UNL     1     -21.860  10.955  -5.268  1.00  0.00     0.160 C 
ENDBRANCH  14  19
ENDBRANCH   9  11
ENDBRANCH   1   9
BRANCH   6  26
HETATM   26  N6  UNL     1     -16.279   3.480 -10.279  1.00  0.00    -0.376 N 
ATOM     27  H6  UNL     1     -16.851   3.437 -11.122  1.00  0.00     0.161 HD
BRANCH  26  28
HETATM   28  C11 UNL     1     -15.525   2.315  -9.954  1.00  0.00     0.123 C 
BRANCH  28  29
HETATM   29  C12 UNL     1     -14.663   1.882 -11.142  1.00  0.00     0.040 C 
BRANCH  29  30
HETATM   30  C13 UNL     1     -15.512   1.698 -12.391  1.00  0.00     0.142 C 
BRANCH  30  31
HETATM   31  N7  UNL     1     -14.698   1.442 -13.552  1.00  0.00    -0.223 N 
HETATM   32  C14 UNL     1     -13.392   0.813 -13.432  1.00  0.00     0.168 C 
BRANCH  31  33
HETATM   33  C15 UNL     1     -15.138   1.792 -14.857  1.00  0.00     0.671 C 
HETATM   34  N8  UNL     1     -15.104   0.872 -15.781  1.00  0.00    -0.226 N 
HETATM   35  C16 UNL     1     -15.542   1.173 -17.131  1.00  0.00     0.139 C 
ATOM     36  H8  UNL     1     -14.769  -0.065 -15.554  1.00  0.00     0.177 HD
HETATM   37  C17 UNL     1     -16.782   2.040 -17.075  1.00  0.00     0.040 C 
HETATM   38  C18 UNL     1     -16.474   3.330 -16.341  1.00  0.00     0.139 C 
HETATM   39  N9  UNL     1     -15.610   3.074 -15.209  1.00  0.00    -0.226 N 
ATOM     40  H9  UNL     1     -15.326   3.865 -14.631  1.00  0.00     0.177 HD
ENDBRANCH  31  33
ENDBRANCH  30  31
ENDBRANCH  29  30
ENDBRANCH  28  29
ENDBRANCH  26  28
ENDBRANCH   6  26
TORSDOF 9
ENDMDL
MODEL 5
REMARK VINA RESULT: -9.371537974      2.986      5.069
REMARK  9 active torsions:
REMARK  status: ('A' for Active; 'I' for Inactive)
REMARK    1  A    between atoms: N2_5  and  C4_6 
REMARK    2  A    between atoms: C6_10  and  N4_11 
REMARK    3  A    between atoms: N4_11  and  C7_13 
REMARK    4  A    between atoms: C10_18  and  N6_19 
REMARK    5  A    between atoms: N6_19  and  C11_21 
REMARK    6  A    between atoms: C11_21  and  C12_22 
REMARK    7  A    between atoms: C12_22  and  C13_23 
REMARK    8  A    between atoms: C13_23  and  N7_24 
REMARK    9  A    between atoms: N7_24  and  C15_26 
ROOT
HETATM    1  C7  UNL     1     -17.210   6.667  -9.279  1.00  0.00     0.684 A 
HETATM    2  N5  UNL     1     -16.220   6.967  -8.419  1.00  0.00    -0.202 N 
ATOM      3  H5  UNL     1     -16.221   7.886  -7.975  1.00  0.00     0.183 HD
HETATM    4  C8  UNL     1     -15.230   6.113  -8.118  1.00  0.00     0.110 A 
HETATM    5  C9  UNL     1     -15.241   4.860  -8.731  1.00  0.00     0.066 A 
HETATM    6  C10 UNL     1     -16.243   4.524  -9.616  1.00  0.00     0.118 A 
HETATM    7  N10 UNL     1     -17.198   5.441  -9.862  1.00  0.00    -0.177 N 
ATOM      8  H10 UNL     1     -17.945   5.205 -10.515  1.00  0.00     0.186 HD
ENDROOT
BRANCH   1   9
HETATM    9  N4  UNL     1     -18.145   7.519  -9.538  1.00  0.00    -0.189 N 
ATOM     10  H4  UNL     1     -18.338   7.806 -10.498  1.00  0.00     0.184 HD
BRANCH   9  11
HETATM   11  C6  UNL     1     -18.895   8.046  -8.457  1.00  0.00     0.081 A 
HETATM   12  C5  UNL     1     -20.159   7.618  -8.136  1.00  0.00     0.137 A 
HETATM   13  N3  UNL     1     -20.824   8.152  -7.099  1.00  0.00    -0.200 N 
HETATM   14  C4  UNL     1     -20.289   9.130  -6.324  1.00  0.00     0.680 A 
ATOM     15  H3  UNL     1     -21.762   7.812  -6.887  1.00  0.00     0.183 HD
HETATM   16  N11 UNL     1     -19.044   9.534  -6.660  1.00  0.00    -0.200 N 
HETATM   17  C19 UNL     1     -18.336   9.037  -7.682  1.00  0.00     0.137 A 
ATOM     18  H11 UNL     1     -18.615  10.267  -6.096  1.00  0.00     0.183 HD
BRANCH  14  19
HETATM   19  N2  UNL     1     -21.001   9.680  -5.237  1.00  0.00    -0.215 N 
HETATM   20  C3  UNL     1     -21.928  10.764  -5.426  1.00  0.00     0.160 C 
HETATM   21  C2  UNL     1     -22.737  11.027  -4.179  1.00  0.00     0.136 C 
HETATM   22  N1  UNL     1     -21.945  11.142  -2.990  1.00  0.00    -0.414 N 
HETATM   23  C1  UNL     1     -21.750  12.488  -2.542  1.00  0.00     0.143 C 
HETATM   24  C21 UNL     1     -20.787  10.319  -2.940  1.00  0.00     0.136 C 
HETATM   25  C20 UNL     1     -20.813   9.162  -3.906  1.00  0.00     0.160 C 
ENDBRANCH  14  19
ENDBRANCH   9  11
ENDBRANCH   1   9
BRANCH   6  26
HETATM   26  N6  UNL     1     -16.303   3.380 -10.211  1.00  0.00    -0.376 N 
ATOM     27  H6  UNL     1     -17.152   3.182 -10.741  1.00  0.00     0.161 HD
BRANCH  26  28
HETATM   28  C11 UNL     1     -15.302   2.365 -10.200  1.00  0.00     0.123 C 
BRANCH  28  29
HETATM   29  C12 UNL     1     -15.568   1.358  -9.079  1.00  0.00     0.040 C 
BRANCH  29  30
HETATM   30  C13 UNL     1     -14.710   0.113  -9.252  1.00  0.00     0.142 C 
BRANCH  30  31
HETATM   31  N7  UNL     1     -13.699   0.020  -8.230  1.00  0.00    -0.223 N 
HETATM   32  C14 UNL     1     -12.503   0.847  -8.276  1.00  0.00     0.168 C 
BRANCH  31  33
HETATM   33  C15 UNL     1     -13.830  -0.880  -7.138  1.00  0.00     0.671 C 
HETATM   34  N8  UNL     1     -12.740  -1.334  -6.585  1.00  0.00    -0.226 N 
HETATM   35  C16 UNL     1     -12.815  -2.255  -5.466  1.00  0.00     0.139 C 
ATOM     36  H8  UNL     1     -11.830  -1.041  -6.941  1.00  0.00     0.177 HD
HETATM   37  C17 UNL     1     -13.924  -1.820  -4.532  1.00  0.00     0.040 C 
HETATM   38  C18 UNL     1     -15.247  -1.813  -5.273  1.00  0.00     0.139 C 
HETATM   39  N9  UNL     1     -15.070  -1.305  -6.616  1.00  0.00    -0.226 N 
ATOM     40  H9  UNL     1     -15.890  -1.252  -7.222  1.00  0.00     0.177 HD
ENDBRANCH  31  33
ENDBRANCH  30  31
ENDBRANCH  29  30
ENDBRANCH  28  29
ENDBRANCH  26  28
ENDBRANCH   6  26
TORSDOF 9
ENDMDL
