MODEL 1
REMARK VINA RESULT: -6.724379279      0.000      0.000
REMARK  5 active torsions:
REMARK  status: ('A' for Active; 'I' for Inactive)
REMARK    1  A    between atoms: C5_9  and  C6_10 
REMARK    2  A    between atoms: C6_10  and  N3_11 
REMARK    3  A    between atoms: N3_11  and  C7_13 
REMARK    4  A    between atoms: C7_13  and  C8_14 
REMARK    5  A    between atoms: C8_14  and  N4_15 
ROOT
HETATM    1  C8  UNL     1       5.225  27.693  36.851  1.00  0.00     0.175 C 
HETATM    2  C13 UNL     1       5.732  29.163  37.116  1.00  0.00     0.043 C 
HETATM    3  C14 UNL     1       5.033  29.878  35.981  1.00  0.00     0.003 C 
HETATM    4  C15 UNL     1       3.777  29.068  35.665  1.00  0.00     0.003 C 
HETATM    5  C16 UNL     1       3.781  27.977  36.758  1.00  0.00     0.043 C 
ENDROOT
BRANCH   1   6
HETATM    6  C7  UNL     1       5.928  27.312  35.594  1.00  0.00     0.161 C 
BRANCH   6   7
HETATM    7  N3  UNL     1       7.182  26.669  35.677  1.00  0.00    -0.395 N 
ATOM      8  H3  UNL     1       7.701  26.684  36.554  1.00  0.00     0.159 HD
BRANCH   7   9
HETATM    9  C6  UNL     1       7.719  26.009  34.559  1.00  0.00     0.098 C 
BRANCH   9  10
HETATM   10  C5  UNL     1       7.889  24.540  34.722  1.00  0.00     0.026 A 
HETATM   11  C2  UNL     1       9.151  23.962  34.556  1.00  0.00     0.035 A 
HETATM   12  C1  UNL     1      10.427  24.647  34.215  1.00  0.00     0.070 C 
HETATM   13  N1  UNL     1       8.976  22.646  34.772  1.00  0.00    -0.304 N 
HETATM   14  N2  UNL     1       7.721  22.371  35.054  1.00  0.00    -0.304 N 
ATOM     15  H1  UNL     1       9.721  21.951  34.723  1.00  0.00     0.186 HD
HETATM   16  C3  UNL     1       7.038  23.535  35.027  1.00  0.00     0.035 A 
ATOM     17  H2  UNL     1       7.336  21.448  35.256  1.00  0.00     0.186 HD
HETATM   18  C4  UNL     1       5.586  23.694  35.294  1.00  0.00     0.070 C 
ENDBRANCH   9  10
ENDBRANCH   7   9
ENDBRANCH   6   7
ENDBRANCH   1   6
BRANCH   1  19
HETATM   19  N4  UNL     1       5.659  26.882  37.960  1.00  0.00     0.103 N 
HETATM   20  C9  UNL     1       4.707  25.815  38.182  1.00  0.00     0.301 C 
HETATM   21  C10 UNL     1       5.050  24.927  39.331  1.00  0.00     0.262 C 
HETATM   22  N5  UNL     1       5.504  25.623  40.506  1.00  0.00    -0.072 N 
HETATM   23  C11 UNL     1       6.261  26.797  40.247  1.00  0.00     0.262 C 
ATOM     24  H52 UNL     1       4.715  25.838  41.116  1.00  0.00     0.277 HD
ATOM     25  H51 UNL     1       6.027  24.991  41.111  1.00  0.00     0.277 HD
HETATM   26  C12 UNL     1       5.669  27.680  39.158  1.00  0.00     0.301 C 
ENDBRANCH   1  19
TORSDOF 5
ENDMDL
MODEL 2
REMARK VINA RESULT: -6.598180713      8.278     11.025
REMARK  5 active torsions:
REMARK  status: ('A' for Active; 'I' for Inactive)
REMARK    1  A    between atoms: C5_9  and  C6_10 
REMARK    2  A    between atoms: C6_10  and  N3_11 
REMARK    3  A    between atoms: N3_11  and  C7_13 
REMARK    4  A    between atoms: C7_13  and  C8_14 
REMARK    5  A    between atoms: C8_14  and  N4_15 
ROOT
HETATM    1  C8  UNL     1      13.951  21.031  32.512  1.00  0.00     0.175 C 
HETATM    2  C13 UNL     1      13.255  20.749  31.125  1.00  0.00     0.043 C 
HETATM    3  C14 UNL     1      13.037  22.170  30.658  1.00  0.00     0.003 C 
HETATM    4  C15 UNL     1      14.124  23.015  31.319  1.00  0.00     0.003 C 
HETATM    5  C16 UNL     1      14.992  21.964  32.044  1.00  0.00     0.043 C 
ENDROOT
BRANCH   1   6
HETATM    6  C7  UNL     1      12.846  21.598  33.337  1.00  0.00     0.161 C 
BRANCH   6   7
HETATM    7  N3  UNL     1      12.822  21.337  34.723  1.00  0.00    -0.395 N 
ATOM      8  H3  UNL     1      12.829  20.374  35.058  1.00  0.00     0.159 HD
BRANCH   7   9
HETATM    9  C6  UNL     1      12.790  22.396  35.647  1.00  0.00     0.098 C 
BRANCH   9  10
HETATM   10  C5  UNL     1      14.123  22.934  36.029  1.00  0.00     0.026 A 
HETATM   11  C2  UNL     1      14.777  22.438  37.161  1.00  0.00     0.035 A 
HETATM   12  C1  UNL     1      14.299  21.386  38.098  1.00  0.00     0.070 C 
HETATM   13  N1  UNL     1      15.939  23.110  37.229  1.00  0.00    -0.304 N 
HETATM   14  N2  UNL     1      16.052  23.972  36.242  1.00  0.00    -0.304 N 
ATOM     15  H1  UNL     1      16.643  22.970  37.955  1.00  0.00     0.186 HD
HETATM   16  C3  UNL     1      14.934  23.873  35.491  1.00  0.00     0.035 A 
ATOM     17  H2  UNL     1      16.839  24.599  36.075  1.00  0.00     0.186 HD
HETATM   18  C4  UNL     1      14.640  24.658  34.267  1.00  0.00     0.070 C 
ENDBRANCH   9  10
ENDBRANCH   7   9
ENDBRANCH   6   7
ENDBRANCH   1   6
BRANCH   1  19
HETATM   19  N4  UNL     1      14.398  19.765  33.036  1.00  0.00     0.103 N 
HETATM   20  C9  UNL     1      15.491  19.982  33.958  1.00  0.00     0.301 C 
HETATM   21  C10 UNL     1      16.049  18.726  34.541  1.00  0.00     0.262 C 
HETATM   22  N5  UNL     1      16.225  17.657  33.593  1.00  0.00    -0.072 N 
HETATM   23  C11 UNL     1      15.244  17.606  32.565  1.00  0.00     0.262 C 
ATOM     24  H52 UNL     1      17.160  17.694  33.187  1.00  0.00     0.277 HD
ATOM     25  H51 UNL     1      16.277  16.761  34.076  1.00  0.00     0.277 HD
HETATM   26  C12 UNL     1      14.920  18.963  31.960  1.00  0.00     0.301 C 
ENDBRANCH   1  19
TORSDOF 5
ENDMDL
MODEL 3
REMARK VINA RESULT: -6.534752084      0.891      2.010
REMARK  5 active torsions:
REMARK  status: ('A' for Active; 'I' for Inactive)
REMARK    1  A    between atoms: C5_9  and  C6_10 
REMARK    2  A    between atoms: C6_10  and  N3_11 
REMARK    3  A    between atoms: N3_11  and  C7_13 
REMARK    4  A    between atoms: C7_13  and  C8_14 
REMARK    5  A    between atoms: C8_14  and  N4_15 
ROOT
HETATM    1  C8  UNL     1       5.386  27.903  37.338  1.00  0.00     0.175 C 
HETATM    2  C13 UNL     1       6.092  29.110  36.609  1.00  0.00     0.043 C 
HETATM    3  C14 UNL     1       5.129  29.308  35.459  1.00  0.00     0.003 C 
HETATM    4  C15 UNL     1       3.768  28.814  35.944  1.00  0.00     0.003 C 
HETATM    5  C16 UNL     1       4.027  28.471  37.426  1.00  0.00     0.043 C 
ENDROOT
BRANCH   1   6
HETATM    6  C7  UNL     1       5.591  26.769  36.394  1.00  0.00     0.161 C 
BRANCH   6   7
HETATM    7  N3  UNL     1       6.906  26.419  36.018  1.00  0.00    -0.395 N 
ATOM      8  H3  UNL     1       7.675  26.563  36.672  1.00  0.00     0.159 HD
BRANCH   7   9
HETATM    9  C6  UNL     1       7.162  25.873  34.748  1.00  0.00     0.098 C 
BRANCH   9  10
HETATM   10  C5  UNL     1       7.793  24.526  34.763  1.00  0.00     0.026 A 
HETATM   11  C2  UNL     1       7.008  23.391  34.984  1.00  0.00     0.035 A 
HETATM   12  C1  UNL     1       5.541  23.333  35.226  1.00  0.00     0.070 C 
HETATM   13  N1  UNL     1       7.858  22.350  34.932  1.00  0.00    -0.304 N 
HETATM   14  N2  UNL     1       9.089  22.749  34.699  1.00  0.00    -0.304 N 
ATOM     15  H1  UNL     1       7.582  21.375  35.057  1.00  0.00     0.186 HD
HETATM   16  C3  UNL     1       9.063  24.094  34.592  1.00  0.00     0.035 A 
ATOM     17  H2  UNL     1       9.912  22.151  34.614  1.00  0.00     0.186 HD
HETATM   18  C4  UNL     1      10.234  24.965  34.322  1.00  0.00     0.070 C 
ENDBRANCH   9  10
ENDBRANCH   7   9
ENDBRANCH   6   7
ENDBRANCH   1   6
BRANCH   1  19
HETATM   19  N4  UNL     1       6.081  27.683  38.580  1.00  0.00     0.103 N 
HETATM   20  C9  UNL     1       5.579  26.482  39.211  1.00  0.00     0.301 C 
HETATM   21  C10 UNL     1       6.218  26.176  40.525  1.00  0.00     0.262 C 
HETATM   22  N5  UNL     1       6.387  27.318  41.385  1.00  0.00    -0.072 N 
HETATM   23  C11 UNL     1       6.669  28.536  40.708  1.00  0.00     0.262 C 
ATOM     24  H52 UNL     1       5.572  27.429  41.988  1.00  0.00     0.277 HD
ATOM     25  H51 UNL     1       7.102  27.129  42.086  1.00  0.00     0.277 HD
HETATM   26  C12 UNL     1       5.800  28.770  39.482  1.00  0.00     0.301 C 
ENDBRANCH   1  19
TORSDOF 5
ENDMDL
MODEL 4
REMARK VINA RESULT: -6.534073656      8.271     11.018
REMARK  5 active torsions:
REMARK  status: ('A' for Active; 'I' for Inactive)
REMARK    1  A    between atoms: C5_9  and  C6_10 
REMARK    2  A    between atoms: C6_10  and  N3_11 
REMARK    3  A    between atoms: N3_11  and  C7_13 
REMARK    4  A    between atoms: C7_13  and  C8_14 
REMARK    5  A    between atoms: C8_14  and  N4_15 
ROOT
HETATM    1  C8  UNL     1      13.934  20.928  32.476  1.00  0.00     0.175 C 
HETATM    2  C13 UNL     1      13.290  20.634  31.068  1.00  0.00     0.043 C 
HETATM    3  C14 UNL     1      13.024  22.051  30.611  1.00  0.00     0.003 C 
HETATM    4  C15 UNL     1      14.057  22.932  31.311  1.00  0.00     0.003 C 
HETATM    5  C16 UNL     1      14.948  21.910  32.048  1.00  0.00     0.043 C 
ENDROOT
BRANCH   1   6
HETATM    6  C7  UNL     1      12.785  21.437  33.276  1.00  0.00     0.161 C 
BRANCH   6   7
HETATM    7  N3  UNL     1      12.812  21.299  34.681  1.00  0.00    -0.395 N 
ATOM      8  H3  UNL     1      12.858  20.369  35.097  1.00  0.00     0.159 HD
BRANCH   7   9
HETATM    9  C6  UNL     1      12.775  22.433  35.510  1.00  0.00     0.098 C 
BRANCH   9  10
HETATM   10  C5  UNL     1      14.088  22.830  36.084  1.00  0.00     0.026 A 
HETATM   11  C2  UNL     1      14.839  23.840  35.474  1.00  0.00     0.035 A 
HETATM   12  C1  UNL     1      14.493  24.620  34.256  1.00  0.00     0.070 C 
HETATM   13  N1  UNL     1      15.949  23.965  36.223  1.00  0.00    -0.304 N 
HETATM   14  N2  UNL     1      15.943  23.122  37.233  1.00  0.00    -0.304 N 
ATOM     15  H1  UNL     1      16.701  24.628  36.031  1.00  0.00     0.186 HD
HETATM   16  C3  UNL     1      14.796  22.414  37.158  1.00  0.00     0.035 A 
ATOM     17  H2  UNL     1      16.670  23.023  37.941  1.00  0.00     0.186 HD
HETATM   18  C4  UNL     1      14.369  21.353  38.105  1.00  0.00     0.070 C 
ENDBRANCH   9  10
ENDBRANCH   7   9
ENDBRANCH   6   7
ENDBRANCH   1   6
BRANCH   1  19
HETATM   19  N4  UNL     1      14.421  19.676  32.998  1.00  0.00     0.103 N 
HETATM   20  C9  UNL     1      15.499  19.925  33.930  1.00  0.00     0.301 C 
HETATM   21  C10 UNL     1      16.094  18.685  34.511  1.00  0.00     0.262 C 
HETATM   22  N5  UNL     1      16.313  17.628  33.560  1.00  0.00    -0.072 N 
HETATM   23  C11 UNL     1      15.342  17.548  32.525  1.00  0.00     0.262 C 
ATOM     24  H52 UNL     1      17.249  17.698  33.161  1.00  0.00     0.277 HD
ATOM     25  H51 UNL     1      16.392  16.732  34.040  1.00  0.00     0.277 HD
HETATM   26  C12 UNL     1      14.977  18.896  31.923  1.00  0.00     0.301 C 
ENDBRANCH   1  19
TORSDOF 5
ENDMDL
MODEL 5
REMARK VINA RESULT: -6.506461441      9.196     11.502
REMARK  5 active torsions:
REMARK  status: ('A' for Active; 'I' for Inactive)
REMARK    1  A    between atoms: C5_9  and  C6_10 
REMARK    2  A    between atoms: C6_10  and  N3_11 
REMARK    3  A    between atoms: N3_11  and  C7_13 
REMARK    4  A    between atoms: C7_13  and  C8_14 
REMARK    5  A    between atoms: C8_14  and  N4_15 
ROOT
HETATM    1  C8  UNL     1      14.436  21.046  32.131  1.00  0.00     0.175 C 
HETATM    2  C13 UNL     1      13.454  21.507  33.275  1.00  0.00     0.043 C 
HETATM    3  C14 UNL     1      12.594  22.476  32.494  1.00  0.00     0.003 C 
HETATM    4  C15 UNL     1      12.628  22.011  31.040  1.00  0.00     0.003 C 
HETATM    5  C16 UNL     1      13.430  20.694  31.112  1.00  0.00     0.043 C 
ENDROOT
BRANCH   1   6
HETATM    6  C7  UNL     1      15.262  22.261  31.883  1.00  0.00     0.161 C 
BRANCH   6   7
HETATM    7  N3  UNL     1      16.060  22.774  32.928  1.00  0.00    -0.395 N 
ATOM      8  H3  UNL     1      16.585  22.135  33.524  1.00  0.00     0.159 HD
BRANCH   7   9
HETATM    9  C6  UNL     1      16.135  24.159  33.153  1.00  0.00     0.098 C 
BRANCH   9  10
HETATM   10  C5  UNL     1      16.619  24.547  34.505  1.00  0.00     0.026 A 
HETATM   11  C2  UNL     1      17.898  25.090  34.659  1.00  0.00     0.035 A 
HETATM   12  C1  UNL     1      18.909  25.348  33.599  1.00  0.00     0.070 C 
HETATM   13  N1  UNL     1      18.029  25.336  35.975  1.00  0.00    -0.304 N 
HETATM   14  N2  UNL     1      16.946  24.991  36.636  1.00  0.00    -0.304 N 
ATOM     15  H1  UNL     1      18.862  25.738  36.405  1.00  0.00     0.186 HD
HETATM   16  C3  UNL     1      16.065  24.501  35.738  1.00  0.00     0.035 A 
ATOM     17  H2  UNL     1      16.799  25.078  37.642  1.00  0.00     0.186 HD
HETATM   18  C4  UNL     1      14.702  23.999  36.046  1.00  0.00     0.070 C 
ENDBRANCH   9  10
ENDBRANCH   7   9
ENDBRANCH   6   7
ENDBRANCH   1   6
BRANCH   1  19
HETATM   19  N4  UNL     1      15.235  19.968  32.656  1.00  0.00     0.103 N 
HETATM   20  C9  UNL     1      14.966  18.757  31.912  1.00  0.00     0.301 C 
HETATM   21  C10 UNL     1      15.727  17.568  32.396  1.00  0.00     0.262 C 
HETATM   22  N5  UNL     1      15.771  17.432  33.828  1.00  0.00    -0.072 N 
HETATM   23  C11 UNL     1      15.818  18.661  34.541  1.00  0.00     0.262 C 
ATOM     24  H52 UNL     1      14.989  16.864  34.154  1.00  0.00     0.277 HD
ATOM     25  H51 UNL     1      16.550  16.835  34.102  1.00  0.00     0.277 HD
HETATM   26  C12 UNL     1      14.847  19.709  34.018  1.00  0.00     0.301 C 
ENDBRANCH   1  19
TORSDOF 5
ENDMDL
