MODEL 1
REMARK VINA RESULT: -6.997572209      0.000      0.000
REMARK  7 active torsions:
REMARK  status: ('A' for Active; 'I' for Inactive)
REMARK    1  A    between atoms: C2_2  and  O1_3 
REMARK    2  A    between atoms: O1_3  and  C3_4 
REMARK    3  A    between atoms: C3_4  and  C4_6 
REMARK    4  A    between atoms: C4_6  and  C6_9 
REMARK    5  A    between atoms: C6_9  and  N2_10 
REMARK    6  A    between atoms: C11_15  and  C12_16 
REMARK    7  A    between atoms: C12_16  and  O4_18 
ROOT
HETATM    1  C4  UNL     1      -1.072  20.191  -2.706  1.00  0.00     0.230 C 
HETATM    2  C5  UNL     1      -0.452  21.266  -1.886  1.00  0.00     0.079 C 
HETATM    3  N1  UNL     1       0.014  22.104  -1.239  1.00  0.00    -0.196 NA
ENDROOT
BRANCH   1   4
HETATM    4  C3  UNL     1       0.035  19.354  -3.171  1.00  0.00     0.281 C 
HETATM    5  O2  UNL     1       1.145  19.863  -3.424  1.00  0.00    -0.263 OA
BRANCH   4   6
HETATM    6  O1  UNL     1      -0.097  17.990  -3.346  1.00  0.00    -0.321 OA
BRANCH   6   7
HETATM    7  C2  UNL     1       0.744  17.206  -4.152  1.00  0.00     0.174 C 
HETATM    8  C1  UNL     1       1.857  16.547  -3.403  1.00  0.00     0.034 C 
ENDBRANCH   6   7
ENDBRANCH   4   6
ENDBRANCH   1   4
BRANCH   1   9
HETATM    9  C6  UNL     1      -1.937  20.823  -3.732  1.00  0.00     0.093 C 
BRANCH   9  10
HETATM   10  N2  UNL     1      -3.208  20.301  -3.975  1.00  0.00    -0.367 N 
HETATM   11  C7  UNL     1      -4.277  20.797  -3.234  1.00  0.00     0.063 C 
HETATM   12  C8  UNL     1      -5.285  19.767  -2.780  1.00  0.00     0.045 C 
HETATM   13  C9  UNL     1      -4.747  18.400  -2.621  1.00  0.00     0.013 C 
HETATM   14  C10 UNL     1      -3.833  17.938  -3.708  1.00  0.00     0.023 C 
HETATM   15  C11 UNL     1      -4.522  16.977  -4.624  1.00  0.00     0.091 C 
HETATM   16  C16 UNL     1      -3.310  19.032  -4.581  1.00  0.00     0.093 C 
HETATM   17  C14 UNL     1      -5.132  17.870  -5.667  1.00  0.00     0.017 C 
HETATM   18  C15 UNL     1      -4.221  19.069  -5.785  1.00  0.00     0.027 C 
BRANCH  15  19
HETATM   19  C12 UNL     1      -3.560  16.037  -5.273  1.00  0.00     0.263 C 
HETATM   20  O3  UNL     1      -2.415  15.945  -4.801  1.00  0.00    -0.265 OA
BRANCH  19  21
HETATM   21  O4  UNL     1      -3.895  15.274  -6.367  1.00  0.00    -0.326 OA
HETATM   22  C13 UNL     1      -4.901  14.282  -6.339  1.00  0.00     0.213 C 
ENDBRANCH  19  21
ENDBRANCH  15  19
ENDBRANCH   9  10
ENDBRANCH   1   9
TORSDOF 7
ENDMDL
MODEL 2
REMARK VINA RESULT: -6.923108135      2.194      5.407
REMARK  7 active torsions:
REMARK  status: ('A' for Active; 'I' for Inactive)
REMARK    1  A    between atoms: C2_2  and  O1_3 
REMARK    2  A    between atoms: O1_3  and  C3_4 
REMARK    3  A    between atoms: C3_4  and  C4_6 
REMARK    4  A    between atoms: C4_6  and  C6_9 
REMARK    5  A    between atoms: C6_9  and  N2_10 
REMARK    6  A    between atoms: C11_15  and  C12_16 
REMARK    7  A    between atoms: C12_16  and  O4_18 
ROOT
HETATM    1  C4  UNL     1      -3.384  17.243  -4.291  1.00  0.00     0.230 C 
HETATM    2  C5  UNL     1      -2.020  17.765  -4.578  1.00  0.00     0.079 C 
HETATM    3  N1  UNL     1      -0.962  18.183  -4.787  1.00  0.00    -0.196 NA
ENDROOT
BRANCH   1   4
HETATM    4  C3  UNL     1      -3.393  15.863  -4.777  1.00  0.00     0.281 C 
HETATM    5  O2  UNL     1      -2.323  15.282  -5.044  1.00  0.00    -0.263 OA
BRANCH   4   6
HETATM    6  O1  UNL     1      -4.566  15.156  -4.959  1.00  0.00    -0.321 OA
BRANCH   6   7
HETATM    7  C2  UNL     1      -4.916  14.486  -6.142  1.00  0.00     0.174 C 
HETATM    8  C1  UNL     1      -5.164  15.396  -7.302  1.00  0.00     0.034 C 
ENDBRANCH   6   7
ENDBRANCH   4   6
ENDBRANCH   1   4
BRANCH   1   9
HETATM    9  C6  UNL     1      -4.376  18.184  -4.866  1.00  0.00     0.093 C 
BRANCH   9  10
HETATM   10  N2  UNL     1      -4.915  19.190  -4.061  1.00  0.00    -0.367 N 
HETATM   11  C7  UNL     1      -5.957  19.957  -4.575  1.00  0.00     0.063 C 
HETATM   12  C8  UNL     1      -5.896  21.432  -4.253  1.00  0.00     0.045 C 
HETATM   13  C9  UNL     1      -4.537  21.959  -4.012  1.00  0.00     0.013 C 
HETATM   14  C10 UNL     1      -3.655  21.101  -3.166  1.00  0.00     0.023 C 
HETATM   15  C11 UNL     1      -3.528  21.655  -1.781  1.00  0.00     0.091 C 
HETATM   16  C16 UNL     1      -4.134  19.696  -3.003  1.00  0.00     0.093 C 
HETATM   17  C14 UNL     1      -4.671  21.014  -1.047  1.00  0.00     0.017 C 
HETATM   18  C15 UNL     1      -4.894  19.669  -1.697  1.00  0.00     0.027 C 
BRANCH  15  19
HETATM   19  C12 UNL     1      -2.239  21.261  -1.139  1.00  0.00     0.263 C 
HETATM   20  O3  UNL     1      -2.258  20.889   0.046  1.00  0.00    -0.265 OA
BRANCH  19  21
HETATM   21  O4  UNL     1      -1.038  21.296  -1.809  1.00  0.00    -0.326 OA
HETATM   22  C13 UNL     1      -0.166  20.187  -1.892  1.00  0.00     0.213 C 
ENDBRANCH  19  21
ENDBRANCH  15  19
ENDBRANCH   9  10
ENDBRANCH   1   9
TORSDOF 7
ENDMDL
MODEL 3
REMARK VINA RESULT: -6.815744903      2.282      5.607
REMARK  7 active torsions:
REMARK  status: ('A' for Active; 'I' for Inactive)
REMARK    1  A    between atoms: C2_2  and  O1_3 
REMARK    2  A    between atoms: O1_3  and  C3_4 
REMARK    3  A    between atoms: C3_4  and  C4_6 
REMARK    4  A    between atoms: C4_6  and  C6_9 
REMARK    5  A    between atoms: C6_9  and  N2_10 
REMARK    6  A    between atoms: C11_15  and  C12_16 
REMARK    7  A    between atoms: C12_16  and  O4_18 
ROOT
HETATM    1  C4  UNL     1      -3.442  17.220  -4.255  1.00  0.00     0.230 C 
HETATM    2  C5  UNL     1      -2.104  17.795  -4.560  1.00  0.00     0.079 C 
HETATM    3  N1  UNL     1      -1.066  18.254  -4.784  1.00  0.00    -0.196 NA
ENDROOT
BRANCH   1   4
HETATM    4  C3  UNL     1      -3.416  15.851  -4.771  1.00  0.00     0.281 C 
HETATM    5  O2  UNL     1      -2.330  15.304  -5.047  1.00  0.00    -0.263 OA
BRANCH   4   6
HETATM    6  O1  UNL     1      -4.570  15.119  -4.972  1.00  0.00    -0.321 OA
BRANCH   6   7
HETATM    7  C2  UNL     1      -4.903  14.472  -6.172  1.00  0.00     0.174 C 
HETATM    8  C1  UNL     1      -5.173  15.406  -7.308  1.00  0.00     0.034 C 
ENDBRANCH   6   7
ENDBRANCH   4   6
ENDBRANCH   1   4
BRANCH   1   9
HETATM    9  C6  UNL     1      -4.479  18.138  -4.786  1.00  0.00     0.093 C 
BRANCH   9  10
HETATM   10  N2  UNL     1      -4.924  19.202  -3.998  1.00  0.00    -0.367 N 
HETATM   11  C7  UNL     1      -5.850  20.085  -4.545  1.00  0.00     0.063 C 
HETATM   12  C8  UNL     1      -5.628  21.543  -4.217  1.00  0.00     0.045 C 
HETATM   13  C9  UNL     1      -4.225  21.908  -3.928  1.00  0.00     0.013 C 
HETATM   14  C10 UNL     1      -3.481  20.953  -3.053  1.00  0.00     0.023 C 
HETATM   15  C11 UNL     1      -3.338  21.490  -1.664  1.00  0.00     0.091 C 
HETATM   16  C16 UNL     1      -4.127  19.614  -2.911  1.00  0.00     0.093 C 
HETATM   17  C14 UNL     1      -4.573  20.988  -0.971  1.00  0.00     0.017 C 
HETATM   18  C15 UNL     1      -4.929  19.678  -1.633  1.00  0.00     0.027 C 
BRANCH  15  19
HETATM   19  C12 UNL     1      -2.127  20.948  -0.978  1.00  0.00     0.263 C 
HETATM   20  O3  UNL     1      -1.187  20.536  -1.677  1.00  0.00    -0.265 OA
BRANCH  19  21
HETATM   21  O4  UNL     1      -2.017  20.891   0.391  1.00  0.00    -0.326 OA
HETATM   22  C13 UNL     1      -1.414  21.910   1.162  1.00  0.00     0.213 C 
ENDBRANCH  19  21
ENDBRANCH  15  19
ENDBRANCH   9  10
ENDBRANCH   1   9
TORSDOF 7
ENDMDL
MODEL 4
REMARK VINA RESULT: -6.780686814      3.187      4.250
REMARK  7 active torsions:
REMARK  status: ('A' for Active; 'I' for Inactive)
REMARK    1  A    between atoms: C2_2  and  O1_3 
REMARK    2  A    between atoms: O1_3  and  C3_4 
REMARK    3  A    between atoms: C3_4  and  C4_6 
REMARK    4  A    between atoms: C4_6  and  C6_9 
REMARK    5  A    between atoms: C6_9  and  N2_10 
REMARK    6  A    between atoms: C11_15  and  C12_16 
REMARK    7  A    between atoms: C12_16  and  O4_18 
ROOT
HETATM    1  C4  UNL     1      -1.434  19.671  -3.622  1.00  0.00     0.230 C 
HETATM    2  C5  UNL     1      -0.456  20.216  -2.641  1.00  0.00     0.079 C 
HETATM    3  N1  UNL     1       0.294  20.632  -1.865  1.00  0.00    -0.196 NA
ENDROOT
BRANCH   1   4
HETATM    4  C3  UNL     1      -0.704  19.546  -4.885  1.00  0.00     0.281 C 
HETATM    5  O2  UNL     1      -1.016  20.251  -5.864  1.00  0.00    -0.263 OA
BRANCH   4   6
HETATM    6  O1  UNL     1       0.342  18.658  -5.044  1.00  0.00    -0.321 OA
BRANCH   6   7
HETATM    7  C2  UNL     1       0.358  17.348  -4.538  1.00  0.00     0.174 C 
HETATM    8  C1  UNL     1       1.378  17.125  -3.469  1.00  0.00     0.034 C 
ENDBRANCH   6   7
ENDBRANCH   4   6
ENDBRANCH   1   4
BRANCH   1   9
HETATM    9  C6  UNL     1      -2.642  20.531  -3.606  1.00  0.00     0.093 C 
BRANCH   9  10
HETATM   10  N2  UNL     1      -3.904  19.944  -3.721  1.00  0.00    -0.367 N 
HETATM   11  C7  UNL     1      -3.987  18.554  -3.707  1.00  0.00     0.063 C 
HETATM   12  C8  UNL     1      -4.974  17.954  -4.682  1.00  0.00     0.045 C 
HETATM   13  C9  UNL     1      -5.240  18.776  -5.881  1.00  0.00     0.013 C 
HETATM   14  C10 UNL     1      -5.423  20.237  -5.631  1.00  0.00     0.023 C 
HETATM   15  C11 UNL     1      -6.866  20.625  -5.711  1.00  0.00     0.091 C 
HETATM   16  C16 UNL     1      -4.948  20.698  -4.292  1.00  0.00     0.093 C 
HETATM   17  C14 UNL     1      -7.352  20.436  -4.303  1.00  0.00     0.017 C 
HETATM   18  C15 UNL     1      -6.169  20.708  -3.404  1.00  0.00     0.027 C 
BRANCH  15  19
HETATM   19  C12 UNL     1      -7.038  22.053  -6.112  1.00  0.00     0.263 C 
HETATM   20  O3  UNL     1      -8.115  22.614  -5.850  1.00  0.00    -0.265 OA
BRANCH  19  21
HETATM   21  O4  UNL     1      -6.053  22.764  -6.757  1.00  0.00    -0.326 OA
HETATM   22  C13 UNL     1      -5.800  24.132  -6.509  1.00  0.00     0.213 C 
ENDBRANCH  19  21
ENDBRANCH  15  19
ENDBRANCH   9  10
ENDBRANCH   1   9
TORSDOF 7
ENDMDL
MODEL 5
REMARK VINA RESULT: -6.745351316      3.122      5.242
REMARK  7 active torsions:
REMARK  status: ('A' for Active; 'I' for Inactive)
REMARK    1  A    between atoms: C2_2  and  O1_3 
REMARK    2  A    between atoms: O1_3  and  C3_4 
REMARK    3  A    between atoms: C3_4  and  C4_6 
REMARK    4  A    between atoms: C4_6  and  C6_9 
REMARK    5  A    between atoms: C6_9  and  N2_10 
REMARK    6  A    between atoms: C11_15  and  C12_16 
REMARK    7  A    between atoms: C12_16  and  O4_18 
ROOT
HETATM    1  C4  UNL     1      -2.538  17.771  -4.300  1.00  0.00     0.230 C 
HETATM    2  C5  UNL     1      -1.080  17.748  -4.596  1.00  0.00     0.079 C 
HETATM    3  N1  UNL     1       0.056  17.742  -4.811  1.00  0.00    -0.196 NA
ENDROOT
BRANCH   1   4
HETATM    4  C3  UNL     1      -3.077  16.526  -4.847  1.00  0.00     0.281 C 
HETATM    5  O2  UNL     1      -2.352  15.516  -4.945  1.00  0.00    -0.263 OA
BRANCH   4   6
HETATM    6  O1  UNL     1      -4.386  16.415  -5.273  1.00  0.00    -0.321 OA
BRANCH   6   7
HETATM    7  C2  UNL     1      -4.928  15.279  -5.894  1.00  0.00     0.174 C 
HETATM    8  C1  UNL     1      -5.072  15.410  -7.376  1.00  0.00     0.034 C 
ENDBRANCH   6   7
ENDBRANCH   4   6
ENDBRANCH   1   4
BRANCH   1   9
HETATM    9  C6  UNL     1      -3.099  19.047  -4.807  1.00  0.00     0.093 C 
BRANCH   9  10
HETATM   10  N2  UNL     1      -3.464  20.045  -3.901  1.00  0.00    -0.367 N 
HETATM   11  C7  UNL     1      -2.843  20.063  -2.655  1.00  0.00     0.063 C 
HETATM   12  C8  UNL     1      -3.744  20.385  -1.486  1.00  0.00     0.045 C 
HETATM   13  C9  UNL     1      -5.166  20.036  -1.683  1.00  0.00     0.013 C 
HETATM   14  C10 UNL     1      -5.734  20.383  -3.020  1.00  0.00     0.023 C 
HETATM   15  C11 UNL     1      -6.605  21.597  -2.940  1.00  0.00     0.091 C 
HETATM   16  C16 UNL     1      -4.710  20.681  -4.066  1.00  0.00     0.093 C 
HETATM   17  C14 UNL     1      -5.644  22.728  -3.177  1.00  0.00     0.017 C 
HETATM   18  C15 UNL     1      -4.563  22.184  -4.081  1.00  0.00     0.027 C 
BRANCH  15  19
HETATM   19  C12 UNL     1      -7.654  21.603  -4.002  1.00  0.00     0.263 C 
HETATM   20  O3  UNL     1      -8.386  20.606  -4.114  1.00  0.00    -0.265 OA
BRANCH  19  21
HETATM   21  O4  UNL     1      -7.836  22.666  -4.855  1.00  0.00    -0.326 OA
HETATM   22  C13 UNL     1      -7.756  22.552  -6.261  1.00  0.00     0.213 C 
ENDBRANCH  19  21
ENDBRANCH  15  19
ENDBRANCH   9  10
ENDBRANCH   1   9
TORSDOF 7
ENDMDL
