MODEL 1
REMARK VINA RESULT: -5.894619306      0.000      0.000
REMARK  9 active torsions:
REMARK  status: ('A' for Active; 'I' for Inactive)
REMARK    1  A    between atoms: C2_2  and  O1_3 
REMARK    2  A    between atoms: O1_3  and  C3_4 
REMARK    3  A    between atoms: C3_4  and  C4_5 
REMARK    4  A    between atoms: C4_5  and  N1_6 
REMARK    5  A    between atoms: C7_9  and  C8_10 
REMARK    6  A    between atoms: C8_10  and  O2_11 
REMARK    7  A    between atoms: C8_10  and  N2_13 
REMARK       I    between atoms: N2_13  and  C9_15 
REMARK    8  A    between atoms: C9_15  and  O4_17 
REMARK    9  A    between atoms: O4_17  and  C10_18 
ROOT
HETATM    1  C8  UNL     1      -1.741  20.793  -4.001  1.00  0.00     0.150 C 
ENDROOT
BRANCH   1   2
HETATM    2  C7  UNL     1      -2.598  19.613  -4.150  1.00  0.00     0.203 C 
HETATM    3  C6  UNL     1      -3.339  19.368  -2.818  1.00  0.00     0.085 C 
HETATM    4  C5  UNL     1      -4.750  18.874  -3.142  1.00  0.00     0.063 C 
HETATM    5  N1  UNL     1      -4.782  17.976  -4.219  1.00  0.00    -0.370 N 
HETATM    6  C14 UNL     1      -4.163  18.533  -5.423  1.00  0.00     0.293 C 
HETATM    7  O5  UNL     1      -3.527  19.741  -5.130  1.00  0.00    -0.358 OA
BRANCH   5   8
HETATM    8  C4  UNL     1      -4.438  16.619  -4.049  1.00  0.00     0.150 C 
BRANCH   8   9
HETATM    9  C3  UNL     1      -3.336  16.077  -4.898  1.00  0.00     0.187 C 
BRANCH   9  10
HETATM   10  O1  UNL     1      -3.585  14.955  -5.627  1.00  0.00    -0.390 OA
BRANCH  10  11
HETATM   11  C2  UNL     1      -4.940  14.845  -6.012  1.00  0.00     0.163 C 
HETATM   12  C1  UNL     1      -5.111  15.369  -7.431  1.00  0.00     0.033 C 
ENDBRANCH  10  11
ENDBRANCH   9  10
ENDBRANCH   8   9
ENDBRANCH   5   8
ENDBRANCH   1   2
BRANCH   1  13
HETATM   13  O2  UNL     1      -1.177  21.209  -5.136  1.00  0.00    -0.347 OA
ATOM     14  H2  UNL     1      -1.484  22.057  -5.437  1.00  0.00     0.219 HD
ENDBRANCH   1  13
BRANCH   1  15
HETATM   15  N2  UNL     1      -1.435  21.525  -2.885  1.00  0.00    -0.284 N 
HETATM   16  C9  UNL     1      -0.457  21.423  -1.901  1.00  0.00     0.367 C 
HETATM   17  O3  UNL     1       0.454  20.595  -1.755  1.00  0.00    -0.238 OA
ATOM     18  H2  UNL     1      -2.060  22.318  -2.745  1.00  0.00     0.173 HD
BRANCH  16  19
HETATM   19  O4  UNL     1      -0.417  22.396  -0.837  1.00  0.00    -0.294 OA
BRANCH  19  20
HETATM   20  C10 UNL     1      -1.310  22.331   0.220  1.00  0.00     0.061 C 
HETATM   21  C11 UNL     1      -0.517  22.715   1.475  1.00  0.00     0.046 C 
HETATM   22  C12 UNL     1      -2.427  23.372   0.110  1.00  0.00     0.046 C 
HETATM   23  C13 UNL     1      -1.937  21.006   0.458  1.00  0.00     0.046 C 
ENDBRANCH  19  20
ENDBRANCH  16  19
ENDBRANCH   1  15
TORSDOF 9
ENDMDL
MODEL 2
REMARK VINA RESULT: -5.779505674      2.443      7.319
REMARK  9 active torsions:
REMARK  status: ('A' for Active; 'I' for Inactive)
REMARK    1  A    between atoms: C2_2  and  O1_3 
REMARK    2  A    between atoms: O1_3  and  C3_4 
REMARK    3  A    between atoms: C3_4  and  C4_5 
REMARK    4  A    between atoms: C4_5  and  N1_6 
REMARK    5  A    between atoms: C7_9  and  C8_10 
REMARK    6  A    between atoms: C8_10  and  O2_11 
REMARK    7  A    between atoms: C8_10  and  N2_13 
REMARK       I    between atoms: N2_13  and  C9_15 
REMARK    8  A    between atoms: C9_15  and  O4_17 
REMARK    9  A    between atoms: O4_17  and  C10_18 
ROOT
HETATM    1  C8  UNL     1      -2.077  18.036  -4.423  1.00  0.00     0.150 C 
ENDROOT
BRANCH   1   2
HETATM    2  C7  UNL     1      -1.979  19.460  -4.092  1.00  0.00     0.203 C 
HETATM    3  C6  UNL     1      -3.365  20.112  -4.291  1.00  0.00     0.085 C 
HETATM    4  C5  UNL     1      -3.558  21.162  -3.195  1.00  0.00     0.063 C 
HETATM    5  N1  UNL     1      -2.393  21.895  -2.927  1.00  0.00    -0.370 N 
HETATM    6  C14 UNL     1      -1.261  21.030  -2.591  1.00  0.00     0.293 C 
HETATM    7  O5  UNL     1      -1.586  19.691  -2.815  1.00  0.00    -0.358 OA
BRANCH   5   8
HETATM    8  C4  UNL     1      -1.992  22.960  -3.760  1.00  0.00     0.150 C 
BRANCH   8   9
HETATM    9  C3  UNL     1      -3.060  23.853  -4.297  1.00  0.00     0.187 C 
BRANCH   9  10
HETATM   10  O1  UNL     1      -3.040  24.146  -5.626  1.00  0.00    -0.390 OA
BRANCH  10  11
HETATM   11  C2  UNL     1      -4.211  24.811  -6.056  1.00  0.00     0.163 C 
HETATM   12  C1  UNL     1      -5.426  23.946  -5.757  1.00  0.00     0.033 C 
ENDBRANCH  10  11
ENDBRANCH   9  10
ENDBRANCH   8   9
ENDBRANCH   5   8
ENDBRANCH   1   2
BRANCH   1  13
HETATM   13  O2  UNL     1      -0.903  17.409  -4.508  1.00  0.00    -0.347 OA
ATOM     14  H2  UNL     1      -0.637  16.967  -3.710  1.00  0.00     0.219 HD
ENDBRANCH   1  13
BRANCH   1  15
HETATM   15  N2  UNL     1      -3.180  17.259  -4.657  1.00  0.00    -0.284 N 
HETATM   16  C9  UNL     1      -3.374  15.902  -4.895  1.00  0.00     0.367 C 
HETATM   17  O3  UNL     1      -2.556  14.973  -4.966  1.00  0.00    -0.238 OA
ATOM     18  H2  UNL     1      -4.049  17.792  -4.657  1.00  0.00     0.173 HD
BRANCH  16  19
HETATM   19  O4  UNL     1      -4.711  15.402  -5.103  1.00  0.00    -0.294 OA
BRANCH  19  20
HETATM   20  C10 UNL     1      -5.385  15.645  -6.289  1.00  0.00     0.061 C 
HETATM   21  C11 UNL     1      -6.707  14.873  -6.195  1.00  0.00     0.046 C 
HETATM   22  C12 UNL     1      -5.782  17.115  -6.448  1.00  0.00     0.046 C 
HETATM   23  C13 UNL     1      -4.688  15.218  -7.528  1.00  0.00     0.046 C 
ENDBRANCH  19  20
ENDBRANCH  16  19
ENDBRANCH   1  15
TORSDOF 9
ENDMDL
MODEL 3
REMARK VINA RESULT: -5.777952176      2.185      7.669
REMARK  9 active torsions:
REMARK  status: ('A' for Active; 'I' for Inactive)
REMARK    1  A    between atoms: C2_2  and  O1_3 
REMARK    2  A    between atoms: O1_3  and  C3_4 
REMARK    3  A    between atoms: C3_4  and  C4_5 
REMARK    4  A    between atoms: C4_5  and  N1_6 
REMARK    5  A    between atoms: C7_9  and  C8_10 
REMARK    6  A    between atoms: C8_10  and  O2_11 
REMARK    7  A    between atoms: C8_10  and  N2_13 
REMARK       I    between atoms: N2_13  and  C9_15 
REMARK    8  A    between atoms: C9_15  and  O4_17 
REMARK    9  A    between atoms: O4_17  and  C10_18 
ROOT
HETATM    1  C8  UNL     1      -2.196  18.021  -4.325  1.00  0.00     0.150 C 
ENDROOT
BRANCH   1   2
HETATM    2  C7  UNL     1      -2.165  19.362  -3.734  1.00  0.00     0.203 C 
HETATM    3  C6  UNL     1      -3.522  19.634  -3.050  1.00  0.00     0.085 C 
HETATM    4  C5  UNL     1      -3.260  20.438  -1.775  1.00  0.00     0.063 C 
HETATM    5  N1  UNL     1      -2.269  21.417  -1.938  1.00  0.00    -0.370 N 
HETATM    6  C14 UNL     1      -1.013  20.855  -2.437  1.00  0.00     0.293 C 
HETATM    7  O5  UNL     1      -1.188  19.519  -2.806  1.00  0.00    -0.358 OA
BRANCH   5   8
HETATM    8  C4  UNL     1      -2.557  22.652  -2.556  1.00  0.00     0.150 C 
BRANCH   8   9
HETATM    9  C3  UNL     1      -1.812  22.986  -3.805  1.00  0.00     0.187 C 
BRANCH   9  10
HETATM   10  O1  UNL     1      -1.042  24.109  -3.808  1.00  0.00    -0.390 OA
BRANCH  10  11
HETATM   11  C2  UNL     1      -0.909  24.681  -2.523  1.00  0.00     0.163 C 
HETATM   12  C1  UNL     1       0.076  25.840  -2.580  1.00  0.00     0.033 C 
ENDBRANCH  10  11
ENDBRANCH   9  10
ENDBRANCH   8   9
ENDBRANCH   5   8
ENDBRANCH   1   2
BRANCH   1  13
HETATM   13  O2  UNL     1      -0.995  17.526  -4.627  1.00  0.00    -0.347 OA
ATOM     14  H2  UNL     1      -0.935  17.151  -5.498  1.00  0.00     0.219 HD
ENDBRANCH   1  13
BRANCH   1  15
HETATM   15  N2  UNL     1      -3.260  17.209  -4.611  1.00  0.00    -0.284 N 
HETATM   16  C9  UNL     1      -3.389  15.862  -4.932  1.00  0.00     0.367 C 
HETATM   17  O3  UNL     1      -2.527  14.978  -5.057  1.00  0.00    -0.238 OA
ATOM     18  H2  UNL     1      -4.154  17.699  -4.583  1.00  0.00     0.173 HD
BRANCH  16  19
HETATM   19  O4  UNL     1      -4.700  15.312  -5.177  1.00  0.00    -0.294 OA
BRANCH  19  20
HETATM   20  C10 UNL     1      -5.400  15.628  -6.330  1.00  0.00     0.061 C 
HETATM   21  C11 UNL     1      -6.740  14.889  -6.233  1.00  0.00     0.046 C 
HETATM   22  C12 UNL     1      -5.759  17.114  -6.412  1.00  0.00     0.046 C 
HETATM   23  C13 UNL     1      -4.751  15.239  -7.608  1.00  0.00     0.046 C 
ENDBRANCH  19  20
ENDBRANCH  16  19
ENDBRANCH   1  15
TORSDOF 9
ENDMDL
MODEL 4
REMARK VINA RESULT: -5.740609666      2.169      6.930
REMARK  9 active torsions:
REMARK  status: ('A' for Active; 'I' for Inactive)
REMARK    1  A    between atoms: C2_2  and  O1_3 
REMARK    2  A    between atoms: O1_3  and  C3_4 
REMARK    3  A    between atoms: C3_4  and  C4_5 
REMARK    4  A    between atoms: C4_5  and  N1_6 
REMARK    5  A    between atoms: C7_9  and  C8_10 
REMARK    6  A    between atoms: C8_10  and  O2_11 
REMARK    7  A    between atoms: C8_10  and  N2_13 
REMARK       I    between atoms: N2_13  and  C9_15 
REMARK    8  A    between atoms: C9_15  and  O4_17 
REMARK    9  A    between atoms: O4_17  and  C10_18 
ROOT
HETATM    1  C8  UNL     1      -2.509  18.141  -4.139  1.00  0.00     0.150 C 
ENDROOT
BRANCH   1   2
HETATM    2  C7  UNL     1      -2.666  19.505  -3.626  1.00  0.00     0.203 C 
HETATM    3  C6  UNL     1      -3.820  19.519  -2.599  1.00  0.00     0.085 C 
HETATM    4  C5  UNL     1      -3.446  20.487  -1.476  1.00  0.00     0.063 C 
HETATM    5  N1  UNL     1      -2.816  21.650  -1.943  1.00  0.00    -0.370 N 
HETATM    6  C14 UNL     1      -1.634  21.352  -2.753  1.00  0.00     0.293 C 
HETATM    7  O5  UNL     1      -1.554  19.982  -3.013  1.00  0.00    -0.358 OA
BRANCH   5   8
HETATM    8  C4  UNL     1      -3.560  22.713  -2.497  1.00  0.00     0.150 C 
BRANCH   8   9
HETATM    9  C3  UNL     1      -3.241  23.120  -3.897  1.00  0.00     0.187 C 
BRANCH   9  10
HETATM   10  O1  UNL     1      -4.082  22.714  -4.887  1.00  0.00    -0.390 OA
BRANCH  10  11
HETATM   11  C2  UNL     1      -5.364  22.368  -4.404  1.00  0.00     0.163 C 
HETATM   12  C1  UNL     1      -5.920  21.209  -5.218  1.00  0.00     0.033 C 
ENDBRANCH  10  11
ENDBRANCH   9  10
ENDBRANCH   8   9
ENDBRANCH   5   8
ENDBRANCH   1   2
BRANCH   1  13
HETATM   13  O2  UNL     1      -1.243  17.737  -4.247  1.00  0.00    -0.347 OA
ATOM     14  H2  UNL     1      -0.974  17.113  -3.583  1.00  0.00     0.219 HD
ENDBRANCH   1  13
BRANCH   1  15
HETATM   15  N2  UNL     1      -3.456  17.229  -4.522  1.00  0.00    -0.284 N 
HETATM   16  C9  UNL     1      -3.410  15.895  -4.914  1.00  0.00     0.367 C 
HETATM   17  O3  UNL     1      -2.446  15.124  -5.033  1.00  0.00    -0.238 OA
ATOM     18  H2  UNL     1      -4.401  17.611  -4.519  1.00  0.00     0.173 HD
BRANCH  16  19
HETATM   19  O4  UNL     1      -4.635  15.213  -5.256  1.00  0.00    -0.294 OA
BRANCH  19  20
HETATM   20  C10 UNL     1      -5.368  15.585  -6.371  1.00  0.00     0.061 C 
HETATM   21  C11 UNL     1      -6.722  14.875  -6.248  1.00  0.00     0.046 C 
HETATM   22  C12 UNL     1      -5.693  17.081  -6.389  1.00  0.00     0.046 C 
HETATM   23  C13 UNL     1      -4.776  15.225  -7.684  1.00  0.00     0.046 C 
ENDBRANCH  19  20
ENDBRANCH  16  19
ENDBRANCH   1  15
TORSDOF 9
ENDMDL
MODEL 5
REMARK VINA RESULT: -5.736834199      1.917      2.735
REMARK  9 active torsions:
REMARK  status: ('A' for Active; 'I' for Inactive)
REMARK    1  A    between atoms: C2_2  and  O1_3 
REMARK    2  A    between atoms: O1_3  and  C3_4 
REMARK    3  A    between atoms: C3_4  and  C4_5 
REMARK    4  A    between atoms: C4_5  and  N1_6 
REMARK    5  A    between atoms: C7_9  and  C8_10 
REMARK    6  A    between atoms: C8_10  and  O2_11 
REMARK    7  A    between atoms: C8_10  and  N2_13 
REMARK       I    between atoms: N2_13  and  C9_15 
REMARK    8  A    between atoms: C9_15  and  O4_17 
REMARK    9  A    between atoms: O4_17  and  C10_18 
ROOT
HETATM    1  C8  UNL     1      -0.976  21.289  -1.428  1.00  0.00     0.150 C 
ENDROOT
BRANCH   1   2
HETATM    2  C7  UNL     1      -1.239  20.279  -2.458  1.00  0.00     0.203 C 
HETATM    3  C6  UNL     1      -2.763  20.046  -2.544  1.00  0.00     0.085 C 
HETATM    4  C5  UNL     1      -3.126  19.816  -4.012  1.00  0.00     0.063 C 
HETATM    5  N1  UNL     1      -2.186  19.028  -4.692  1.00  0.00    -0.370 N 
HETATM    6  C14 UNL     1      -0.832  19.577  -4.597  1.00  0.00     0.293 C 
HETATM    7  O5  UNL     1      -0.799  20.638  -3.689  1.00  0.00    -0.358 OA
BRANCH   5   8
HETATM    8  C4  UNL     1      -2.178  17.624  -4.562  1.00  0.00     0.150 C 
BRANCH   8   9
HETATM    9  C3  UNL     1      -3.447  16.897  -4.863  1.00  0.00     0.187 C 
BRANCH   9  10
HETATM   10  O1  UNL     1      -3.357  15.660  -5.422  1.00  0.00    -0.390 OA
BRANCH  10  11
HETATM   11  C2  UNL     1      -4.621  15.113  -5.738  1.00  0.00     0.163 C 
HETATM   12  C1  UNL     1      -5.015  15.524  -7.150  1.00  0.00     0.033 C 
ENDBRANCH  10  11
ENDBRANCH   9  10
ENDBRANCH   8   9
ENDBRANCH   5   8
ENDBRANCH   1   2
BRANCH   1  13
HETATM   13  O2  UNL     1      -0.391  22.398  -1.883  1.00  0.00    -0.347 OA
ATOM     14  H2  UNL     1       0.195  22.814  -1.262  1.00  0.00     0.219 HD
ENDBRANCH   1  13
BRANCH   1  15
HETATM   15  N2  UNL     1      -1.236  21.266  -0.084  1.00  0.00    -0.284 N 
HETATM   16  C9  UNL     1      -0.841  22.056   0.990  1.00  0.00     0.367 C 
HETATM   17  O3  UNL     1      -0.102  23.052   1.028  1.00  0.00    -0.238 OA
ATOM     18  H2  UNL     1      -1.854  20.503   0.189  1.00  0.00     0.173 HD
BRANCH  16  19
HETATM   19  O4  UNL     1      -1.318  21.744   2.315  1.00  0.00    -0.294 OA
BRANCH  19  20
HETATM   20  C10 UNL     1      -2.459  22.347   2.820  1.00  0.00     0.061 C 
HETATM   21  C11 UNL     1      -3.325  21.215   3.388  1.00  0.00     0.046 C 
HETATM   22  C12 UNL     1      -2.160  23.266   4.008  1.00  0.00     0.046 C 
HETATM   23  C13 UNL     1      -3.277  23.107   1.842  1.00  0.00     0.046 C 
ENDBRANCH  19  20
ENDBRANCH  16  19
ENDBRANCH   1  15
TORSDOF 9
ENDMDL
