MODEL 1
REMARK VINA RESULT: -5.137426596      0.000      0.000
REMARK  4 active torsions:
REMARK  status: ('A' for Active; 'I' for Inactive)
REMARK    1  A    between atoms: C6_6  and  S1_7 
REMARK    2  A    between atoms: S1_7  and  C7_9 
REMARK    3  A    between atoms: C7_9  and  N1_10 
REMARK    4  A    between atoms: N1_10  and  N2_11 
ROOT
HETATM    1  C1  UNL     1      -1.045 -25.205  53.053  1.00  0.00     0.011 C 
HETATM    2  C2  UNL     1      -1.127 -26.275  51.974  1.00  0.00    -0.010 C 
HETATM    3  C3  UNL     1      -1.207 -25.694  50.595  1.00  0.00     0.009 C 
HETATM    4  C4  UNL     1       0.096 -25.256  50.031  1.00  0.00     0.035 C 
HETATM    5  C5  UNL     1       1.250 -26.073  50.403  1.00  0.00    -0.070 C 
HETATM    6  C6  UNL     1       2.314 -26.102  49.625  1.00  0.00     0.088 C 
HETATM    7  C8  UNL     1       1.281 -26.887  51.642  1.00  0.00     0.043 C 
HETATM    8  C9  UNL     1      -0.066 -27.320  52.119  1.00  0.00    -0.041 C 
HETATM    9  C10 UNL     1       0.049 -27.738  53.558  1.00  0.00     0.015 C 
HETATM   10  C11 UNL     1      -0.542 -28.550  51.342  1.00  0.00     0.015 C 
ENDROOT
BRANCH   6  11
HETATM   11  S1  UNL     1       3.739 -27.044  49.983  1.00  0.00     0.095 S 
HETATM   12  O1  UNL     1       5.141 -26.132  49.859  1.00  0.00    -0.246 OA
BRANCH  11  13
HETATM   13  C7  UNL     1       3.888 -28.388  48.849  1.00  0.00     0.290 C 
BRANCH  13  14
HETATM   14  N1  UNL     1       2.822 -28.796  48.308  1.00  0.00    -0.336 NA
BRANCH  14  15
HETATM   15  N2  UNL     1       1.718 -29.195  47.965  1.00  0.00    -0.280 N 
ATOM     16  H22 UNL     1       1.322 -28.420  48.499  1.00  0.00     0.191 HD
ATOM     17  H21 UNL     1       0.878 -29.644  47.600  1.00  0.00     0.191 HD
ENDBRANCH  14  15
ENDBRANCH  13  14
ENDBRANCH  11  13
ENDBRANCH   6  11
TORSDOF 4
ENDMDL
MODEL 2
REMARK VINA RESULT: -5.046994699      1.825      2.455
REMARK  4 active torsions:
REMARK  status: ('A' for Active; 'I' for Inactive)
REMARK    1  A    between atoms: C6_6  and  S1_7 
REMARK    2  A    between atoms: S1_7  and  C7_9 
REMARK    3  A    between atoms: C7_9  and  N1_10 
REMARK    4  A    between atoms: N1_10  and  N2_11 
ROOT
HETATM    1  C1  UNL     1      -1.432 -26.014  49.971  1.00  0.00     0.011 C 
HETATM    2  C2  UNL     1      -0.821 -27.146  50.784  1.00  0.00    -0.010 C 
HETATM    3  C3  UNL     1      -0.576 -28.375  49.962  1.00  0.00     0.009 C 
HETATM    4  C4  UNL     1       0.659 -28.331  49.138  1.00  0.00     0.035 C 
HETATM    5  C5  UNL     1       1.791 -27.625  49.735  1.00  0.00    -0.070 C 
HETATM    6  C6  UNL     1       3.022 -27.920  49.363  1.00  0.00     0.088 C 
HETATM    7  C8  UNL     1       1.617 -26.568  50.760  1.00  0.00     0.043 C 
HETATM    8  C9  UNL     1       0.373 -26.708  51.573  1.00  0.00    -0.041 C 
HETATM    9  C10 UNL     1       0.090 -25.393  52.244  1.00  0.00     0.015 C 
HETATM   10  C11 UNL     1       0.571 -27.736  52.689  1.00  0.00     0.015 C 
ENDROOT
BRANCH   6  11
HETATM   11  S1  UNL     1       4.437 -27.134  50.016  1.00  0.00     0.095 S 
HETATM   12  O1  UNL     1       4.474 -25.500  49.642  1.00  0.00    -0.246 OA
BRANCH  11  13
HETATM   13  C7  UNL     1       5.903 -27.857  49.352  1.00  0.00     0.290 C 
BRANCH  13  14
HETATM   14  N1  UNL     1       5.968 -27.957  48.095  1.00  0.00    -0.336 NA
BRANCH  14  15
HETATM   15  N2  UNL     1       6.214 -27.991  46.897  1.00  0.00    -0.280 N 
ATOM     16  H22 UNL     1       7.033 -28.555  47.126  1.00  0.00     0.191 HD
ATOM     17  H21 UNL     1       6.285 -27.928  45.882  1.00  0.00     0.191 HD
ENDBRANCH  14  15
ENDBRANCH  13  14
ENDBRANCH  11  13
ENDBRANCH   6  11
TORSDOF 4
ENDMDL
MODEL 3
REMARK VINA RESULT: -4.862133103      1.121      1.367
REMARK  4 active torsions:
REMARK  status: ('A' for Active; 'I' for Inactive)
REMARK    1  A    between atoms: C6_6  and  S1_7 
REMARK    2  A    between atoms: S1_7  and  C7_9 
REMARK    3  A    between atoms: C7_9  and  N1_10 
REMARK    4  A    between atoms: N1_10  and  N2_11 
ROOT
HETATM    1  C1  UNL     1      -1.136 -25.215  53.021  1.00  0.00     0.011 C 
HETATM    2  C2  UNL     1      -1.166 -26.318  51.973  1.00  0.00    -0.010 C 
HETATM    3  C3  UNL     1      -1.250 -25.781  50.576  1.00  0.00     0.009 C 
HETATM    4  C4  UNL     1       0.044 -25.314  50.016  1.00  0.00     0.035 C 
HETATM    5  C5  UNL     1       1.222 -26.077  50.426  1.00  0.00    -0.070 C 
HETATM    6  C6  UNL     1       2.296 -26.090  49.661  1.00  0.00     0.088 C 
HETATM    7  C8  UNL     1       1.266 -26.852  51.688  1.00  0.00     0.043 C 
HETATM    8  C9  UNL     1      -0.070 -27.320  52.162  1.00  0.00    -0.041 C 
HETATM    9  C10 UNL     1       0.041 -27.691  53.614  1.00  0.00     0.015 C 
HETATM   10  C11 UNL     1      -0.492 -28.589  51.417  1.00  0.00     0.015 C 
ENDROOT
BRANCH   6  11
HETATM   11  S1  UNL     1       3.750 -26.969  50.064  1.00  0.00     0.095 S 
HETATM   12  O1  UNL     1       5.101 -25.976  50.073  1.00  0.00    -0.246 OA
BRANCH  11  13
HETATM   13  C7  UNL     1       4.045 -28.243  48.879  1.00  0.00     0.290 C 
BRANCH  13  14
HETATM   14  N1  UNL     1       5.158 -28.217  48.282  1.00  0.00    -0.336 NA
BRANCH  14  15
HETATM   15  N2  UNL     1       6.261 -28.019  47.792  1.00  0.00    -0.280 N 
ATOM     16  H22 UNL     1       6.159 -27.042  48.067  1.00  0.00     0.191 HD
ATOM     17  H21 UNL     1       7.179 -28.013  47.347  1.00  0.00     0.191 HD
ENDBRANCH  14  15
ENDBRANCH  13  14
ENDBRANCH  11  13
ENDBRANCH   6  11
TORSDOF 4
ENDMDL
MODEL 4
REMARK VINA RESULT: -4.466276495      5.059      8.965
REMARK  4 active torsions:
REMARK  status: ('A' for Active; 'I' for Inactive)
REMARK    1  A    between atoms: C6_6  and  S1_7 
REMARK    2  A    between atoms: S1_7  and  C7_9 
REMARK    3  A    between atoms: C7_9  and  N1_10 
REMARK    4  A    between atoms: N1_10  and  N2_11 
ROOT
HETATM    1  C1  UNL     1       9.998 -29.037  44.223  1.00  0.00     0.011 C 
HETATM    2  C2  UNL     1       9.060 -27.845  44.103  1.00  0.00    -0.010 C 
HETATM    3  C3  UNL     1       7.720 -28.223  43.549  1.00  0.00     0.009 C 
HETATM    4  C4  UNL     1       6.790 -28.827  44.538  1.00  0.00     0.035 C 
HETATM    5  C5  UNL     1       6.886 -28.299  45.897  1.00  0.00    -0.070 C 
HETATM    6  C6  UNL     1       5.848 -28.377  46.708  1.00  0.00     0.088 C 
HETATM    7  C8  UNL     1       8.121 -27.668  46.420  1.00  0.00     0.043 C 
HETATM    8  C9  UNL     1       8.979 -27.048  45.368  1.00  0.00    -0.041 C 
HETATM    9  C10 UNL     1      10.357 -26.844  45.934  1.00  0.00     0.015 C 
HETATM   10  C11 UNL     1       8.452 -25.663  44.989  1.00  0.00     0.015 C 
ENDROOT
BRANCH   6  11
HETATM   11  S1  UNL     1       5.864 -27.777  48.347  1.00  0.00     0.095 S 
HETATM   12  O1  UNL     1       6.829 -28.715  49.348  1.00  0.00    -0.246 OA
BRANCH  11  13
HETATM   13  C7  UNL     1       4.234 -27.797  49.024  1.00  0.00     0.290 C 
BRANCH  13  14
HETATM   14  N1  UNL     1       3.408 -28.592  48.494  1.00  0.00    -0.336 NA
BRANCH  14  15
HETATM   15  N2  UNL     1       2.621 -29.246  47.824  1.00  0.00    -0.280 N 
ATOM     16  H22 UNL     1       3.362 -29.938  47.710  1.00  0.00     0.191 HD
ATOM     17  H21 UNL     1       1.860 -29.671  47.295  1.00  0.00     0.191 HD
ENDBRANCH  14  15
ENDBRANCH  13  14
ENDBRANCH  11  13
ENDBRANCH   6  11
TORSDOF 4
ENDMDL
MODEL 5
REMARK VINA RESULT: -4.075090548      2.260      3.481
REMARK  4 active torsions:
REMARK  status: ('A' for Active; 'I' for Inactive)
REMARK    1  A    between atoms: C6_6  and  S1_7 
REMARK    2  A    between atoms: S1_7  and  C7_9 
REMARK    3  A    between atoms: C7_9  and  N1_10 
REMARK    4  A    between atoms: N1_10  and  N2_11 
ROOT
HETATM    1  C1  UNL     1      -3.856 -25.411  53.082  1.00  0.00     0.011 C 
HETATM    2  C2  UNL     1      -2.529 -24.679  52.946  1.00  0.00    -0.010 C 
HETATM    3  C3  UNL     1      -1.493 -25.184  53.903  1.00  0.00     0.009 C 
HETATM    4  C4  UNL     1      -0.819 -26.438  53.478  1.00  0.00     0.035 C 
HETATM    5  C5  UNL     1      -0.603 -26.583  52.040  1.00  0.00    -0.070 C 
HETATM    6  C6  UNL     1       0.368 -27.355  51.594  1.00  0.00     0.088 C 
HETATM    7  C8  UNL     1      -1.444 -25.886  51.037  1.00  0.00     0.043 C 
HETATM    8  C9  UNL     1      -2.051 -24.615  51.529  1.00  0.00    -0.041 C 
HETATM    9  C10 UNL     1      -3.190 -24.246  50.619  1.00  0.00     0.015 C 
HETATM   10  C11 UNL     1      -1.039 -23.469  51.451  1.00  0.00     0.015 C 
ENDROOT
BRANCH   6  11
HETATM   11  S1  UNL     1       0.704 -27.592  49.898  1.00  0.00     0.095 S 
HETATM   12  O1  UNL     1      -0.008 -28.990  49.307  1.00  0.00    -0.246 OA
BRANCH  11  13
HETATM   13  C7  UNL     1       2.442 -27.737  49.630  1.00  0.00     0.290 C 
BRANCH  13  14
HETATM   14  N1  UNL     1       2.812 -28.501  48.695  1.00  0.00    -0.336 NA
BRANCH  14  15
HETATM   15  N2  UNL     1       2.980 -29.272  47.760  1.00  0.00    -0.280 N 
ATOM     16  H22 UNL     1       3.929 -28.905  47.686  1.00  0.00     0.191 HD
ATOM     17  H21 UNL     1       2.965 -29.960  47.008  1.00  0.00     0.191 HD
ENDBRANCH  14  15
ENDBRANCH  13  14
ENDBRANCH  11  13
ENDBRANCH   6  11
TORSDOF 4
ENDMDL
