MODEL 1
REMARK VINA RESULT: -6.354082488      0.000      0.000
REMARK  4 active torsions:
REMARK  status: ('A' for Active; 'I' for Inactive)
REMARK    1  A    between atoms: O1_1  and  C1_3 
REMARK    2  A    between atoms: C8_11  and  C9_12 
REMARK    3  A    between atoms: C10_13  and  C11_14 
REMARK    4  A    between atoms: C11_14  and  C12_15 
ROOT
HETATM    1  C1  UNL     1       1.841 -27.332  49.061  1.00  0.00     0.150 C 
HETATM    2  C2  UNL     1       1.403 -26.191  49.890  1.00  0.00     0.042 C 
HETATM    3  C3  UNL     1      -0.009 -25.779  49.813  1.00  0.00     0.018 C 
HETATM    4  C4  UNL     1      -0.694 -25.849  51.184  1.00  0.00     0.036 C 
HETATM    5  C5  UNL     1      -1.030 -27.323  51.230  1.00  0.00     0.273 C 
HETATM    6  N1  UNL     1      -1.212 -27.773  49.883  1.00  0.00     0.092 N 
HETATM    7  C6  UNL     1      -0.301 -28.861  49.625  1.00  0.00     0.310 C 
HETATM    8  C7  UNL     1       0.918 -28.447  48.895  1.00  0.00    -0.015 C 
HETATM    9  C8  UNL     1       1.215 -29.260  47.897  1.00  0.00     0.071 C 
HETATM   10  C13 UNL     1      -0.894 -26.691  49.000  1.00  0.00     0.277 C 
ENDROOT
BRANCH   1  11
HETATM   11  O1  UNL     1       2.997 -27.860  49.694  1.00  0.00    -0.391 OA
ATOM     12  H1  UNL     1       3.705 -27.258  49.498  1.00  0.00     0.210 HD
ENDBRANCH   1  11
BRANCH   9  13
HETATM   13  C9  UNL     1       2.371 -29.033  47.057  1.00  0.00    -0.078 C 
HETATM   14  C10 UNL     1       3.345 -28.859  46.361  1.00  0.00    -0.101 C 
BRANCH  14  15
HETATM   15  C11 UNL     1       4.514 -28.670  45.524  1.00  0.00     0.109 C 
BRANCH  15  16
HETATM   16  C12 UNL     1       5.626 -27.953  46.265  1.00  0.00     0.126 C 
HETATM   17 CL1  UNL     1       5.742 -28.733  47.881  1.00  0.00    -0.130 Cl
ENDBRANCH  15  16
ENDBRANCH  14  15
ENDBRANCH   9  13
TORSDOF 4
ENDMDL
MODEL 2
REMARK VINA RESULT: -6.156986723      4.977      8.875
REMARK  4 active torsions:
REMARK  status: ('A' for Active; 'I' for Inactive)
REMARK    1  A    between atoms: O1_1  and  C1_3 
REMARK    2  A    between atoms: C8_11  and  C9_12 
REMARK    3  A    between atoms: C10_13  and  C11_14 
REMARK    4  A    between atoms: C11_14  and  C12_15 
ROOT
HETATM    1  C1  UNL     1       7.396 -26.815  44.637  1.00  0.00     0.150 C 
HETATM    2  C2  UNL     1       8.552 -26.056  44.120  1.00  0.00     0.042 C 
HETATM    3  C3  UNL     1       9.713 -26.813  43.625  1.00  0.00     0.018 C 
HETATM    4  C4  UNL     1      10.016 -26.487  42.156  1.00  0.00     0.036 C 
HETATM    5  C5  UNL     1       9.017 -27.398  41.479  1.00  0.00     0.273 C 
HETATM    6  N1  UNL     1       8.799 -28.524  42.334  1.00  0.00     0.092 N 
HETATM    7  C6  UNL     1       7.392 -28.617  42.638  1.00  0.00     0.310 C 
HETATM    8  C7  UNL     1       7.037 -28.054  43.959  1.00  0.00    -0.015 C 
HETATM    9  C8  UNL     1       6.233 -28.844  44.650  1.00  0.00     0.071 C 
HETATM   10  C13 UNL     1       9.516 -28.307  43.555  1.00  0.00     0.277 C 
ENDROOT
BRANCH   1  11
HETATM   11  O1  UNL     1       6.273 -25.954  44.519  1.00  0.00    -0.391 OA
ATOM     12  H1  UNL     1       5.958 -25.807  45.403  1.00  0.00     0.210 HD
ENDBRANCH   1  11
BRANCH   9  13
HETATM   13  C9  UNL     1       5.767 -28.477  45.970  1.00  0.00    -0.078 C 
HETATM   14  C10 UNL     1       5.358 -28.172  47.067  1.00  0.00    -0.101 C 
BRANCH  14  15
HETATM   15  C11 UNL     1       4.855 -27.819  48.380  1.00  0.00     0.109 C 
BRANCH  15  16
HETATM   16  C12 UNL     1       3.339 -27.770  48.407  1.00  0.00     0.126 C 
HETATM   17 CL1  UNL     1       2.898 -26.344  49.409  1.00  0.00    -0.130 Cl
ENDBRANCH  15  16
ENDBRANCH  14  15
ENDBRANCH   9  13
TORSDOF 4
ENDMDL
MODEL 3
REMARK VINA RESULT: -5.999126061      1.138      1.209
REMARK  4 active torsions:
REMARK  status: ('A' for Active; 'I' for Inactive)
REMARK    1  A    between atoms: O1_1  and  C1_3 
REMARK    2  A    between atoms: C8_11  and  C9_12 
REMARK    3  A    between atoms: C10_13  and  C11_14 
REMARK    4  A    between atoms: C11_14  and  C12_15 
ROOT
HETATM    1  C1  UNL     1       2.252 -27.263  49.106  1.00  0.00     0.150 C 
HETATM    2  C2  UNL     1       1.672 -26.210  49.964  1.00  0.00     0.042 C 
HETATM    3  C3  UNL     1       0.261 -25.845  49.756  1.00  0.00     0.018 C 
HETATM    4  C4  UNL     1      -0.570 -26.052  51.030  1.00  0.00     0.036 C 
HETATM    5  C5  UNL     1      -0.842 -27.536  50.923  1.00  0.00     0.273 C 
HETATM    6  N1  UNL     1      -0.852 -27.880  49.534  1.00  0.00     0.092 N 
HETATM    7  C6  UNL     1       0.131 -28.910  49.299  1.00  0.00     0.310 C 
HETATM    8  C7  UNL     1       1.404 -28.393  48.749  1.00  0.00    -0.015 C 
HETATM    9  C8  UNL     1       1.848 -29.112  47.732  1.00  0.00     0.071 C 
HETATM   10  C13 UNL     1      -0.485 -26.720  48.779  1.00  0.00     0.277 C 
ENDROOT
BRANCH   1  11
HETATM   11  O1  UNL     1       3.352 -27.799  49.826  1.00  0.00    -0.391 OA
ATOM     12  H1  UNL     1       3.036 -27.966  50.705  1.00  0.00     0.210 HD
ENDBRANCH   1  11
BRANCH   9  13
HETATM   13  C9  UNL     1       3.079 -28.774  47.051  1.00  0.00    -0.078 C 
HETATM   14  C10 UNL     1       4.118 -28.505  46.493  1.00  0.00    -0.101 C 
BRANCH  14  15
HETATM   15  C11 UNL     1       5.369 -28.200  45.826  1.00  0.00     0.109 C 
BRANCH  15  16
HETATM   16  C12 UNL     1       5.543 -29.013  44.558  1.00  0.00     0.126 C 
HETATM   17 CL1  UNL     1       7.300 -29.373  44.426  1.00  0.00    -0.130 Cl
ENDBRANCH  15  16
ENDBRANCH  14  15
ENDBRANCH   9  13
TORSDOF 4
ENDMDL
MODEL 4
REMARK VINA RESULT: -5.645112604      1.717      2.540
REMARK  4 active torsions:
REMARK  status: ('A' for Active; 'I' for Inactive)
REMARK    1  A    between atoms: O1_1  and  C1_3 
REMARK    2  A    between atoms: C8_11  and  C9_12 
REMARK    3  A    between atoms: C10_13  and  C11_14 
REMARK    4  A    between atoms: C11_14  and  C12_15 
ROOT
HETATM    1  C1  UNL     1       1.182 -28.116  49.126  1.00  0.00     0.150 C 
HETATM    2  C2  UNL     1      -0.043 -28.770  49.630  1.00  0.00     0.042 C 
HETATM    3  C3  UNL     1      -0.503 -28.429  50.986  1.00  0.00     0.018 C 
HETATM    4  C4  UNL     1      -1.925 -27.852  50.973  1.00  0.00     0.036 C 
HETATM    5  C5  UNL     1      -1.616 -26.415  50.618  1.00  0.00     0.273 C 
HETATM    6  N1  UNL     1      -0.309 -26.111  51.115  1.00  0.00     0.092 N 
HETATM    7  C6  UNL     1       0.518 -25.665  50.020  1.00  0.00     0.310 C 
HETATM    8  C7  UNL     1       1.405 -26.721  49.484  1.00  0.00    -0.015 C 
HETATM    9  C8  UNL     1       2.644 -26.300  49.300  1.00  0.00     0.071 C 
HETATM   10  C13 UNL     1       0.258 -27.311  51.654  1.00  0.00     0.277 C 
ENDROOT
BRANCH   1  11
HETATM   11  O1  UNL     1       1.098 -28.157  47.709  1.00  0.00    -0.391 OA
ATOM     12  H1  UNL     1       0.457 -27.501  47.463  1.00  0.00     0.210 HD
ENDBRANCH   1  11
BRANCH   9  13
HETATM   13  C9  UNL     1       3.671 -27.179  48.781  1.00  0.00    -0.078 C 
HETATM   14  C10 UNL     1       4.534 -27.899  48.336  1.00  0.00    -0.101 C 
BRANCH  14  15
HETATM   15  C11 UNL     1       5.580 -28.748  47.801  1.00  0.00     0.109 C 
BRANCH  15  16
HETATM   16  C12 UNL     1       5.986 -28.326  46.401  1.00  0.00     0.126 C 
HETATM   17 CL1  UNL     1       4.593 -28.714  45.333  1.00  0.00    -0.130 Cl
ENDBRANCH  15  16
ENDBRANCH  14  15
ENDBRANCH   9  13
TORSDOF 4
ENDMDL
MODEL 5
REMARK VINA RESULT: -5.083813696      5.810      9.812
REMARK  4 active torsions:
REMARK  status: ('A' for Active; 'I' for Inactive)
REMARK    1  A    between atoms: O1_1  and  C1_3 
REMARK    2  A    between atoms: C8_11  and  C9_12 
REMARK    3  A    between atoms: C10_13  and  C11_14 
REMARK    4  A    between atoms: C11_14  and  C12_15 
ROOT
HETATM    1  C1  UNL     1       7.586 -28.484  42.922  1.00  0.00     0.150 C 
HETATM    2  C2  UNL     1       7.767 -28.973  41.540  1.00  0.00     0.042 C 
HETATM    3  C3  UNL     1       7.780 -27.983  40.450  1.00  0.00     0.018 C 
HETATM    4  C4  UNL     1       9.093 -28.032  39.658  1.00  0.00     0.036 C 
HETATM    5  C5  UNL     1       9.969 -27.189  40.558  1.00  0.00     0.273 C 
HETATM    6  N1  UNL     1       9.127 -26.253  41.237  1.00  0.00     0.092 N 
HETATM    7  C6  UNL     1       9.293 -26.419  42.660  1.00  0.00     0.310 C 
HETATM    8  C7  UNL     1       8.221 -27.224  43.287  1.00  0.00    -0.015 C 
HETATM    9  C8  UNL     1       7.758 -26.679  44.398  1.00  0.00     0.071 C 
HETATM   10  C13 UNL     1       7.766 -26.543  40.899  1.00  0.00     0.277 C 
ENDROOT
BRANCH   1  11
HETATM   11  O1  UNL     1       8.148 -29.476  43.769  1.00  0.00    -0.391 OA
ATOM     12  H1  UNL     1       7.585 -30.237  43.695  1.00  0.00     0.210 HD
ENDBRANCH   1  11
BRANCH   9  13
HETATM   13  C9  UNL     1       6.705 -27.309  45.166  1.00  0.00    -0.078 C 
HETATM   14  C10 UNL     1       5.839 -27.840  45.821  1.00  0.00    -0.101 C 
BRANCH  14  15
HETATM   15  C11 UNL     1       4.808 -28.471  46.623  1.00  0.00     0.109 C 
BRANCH  15  16
HETATM   16  C12 UNL     1       4.978 -28.166  48.099  1.00  0.00     0.126 C 
HETATM   17 CL1  UNL     1       3.411 -27.485  48.658  1.00  0.00    -0.130 Cl
ENDBRANCH  15  16
ENDBRANCH  14  15
ENDBRANCH   9  13
TORSDOF 4
ENDMDL
