MODEL 1
REMARK VINA RESULT: -8.317494231      0.000      0.000
REMARK  9 active torsions:
REMARK  status: ('A' for Active; 'I' for Inactive)
REMARK       I    between atoms: C1_2  and  N2_4 
REMARK       I    between atoms: N2_4  and  C2_6 
REMARK    1  A    between atoms: C2_6  and  S1_8 
REMARK    2  A    between atoms: S1_8  and  N3_9 
REMARK    3  A    between atoms: S1_8  and  C3_13 
REMARK    4  A    between atoms: C3_13  and  C4_14 
REMARK    5  A    between atoms: C4_14  and  C5_15 
REMARK    6  A    between atoms: C6_16  and  C7_17 
REMARK    7  A    between atoms: C7_17  and  N4_18 
REMARK    8  A    between atoms: N4_18  and  C8_20 
REMARK    9  A    between atoms: N5_30  and  O5_32 
ROOT
HETATM    1  C7  UNL     1      93.637  16.331  16.934  1.00  0.00     0.142 C 
ENDROOT
BRANCH   1   2
HETATM    2  C6  UNL     1      94.847  17.157  16.688  1.00  0.00    -0.012 C 
HETATM    3  C5  UNL     1      95.978  16.615  16.247  1.00  0.00    -0.028 C 
BRANCH   3   4
HETATM    4  C4  UNL     1      97.225  17.381  15.979  1.00  0.00     0.041 C 
BRANCH   4   5
HETATM    5  C3  UNL     1      98.456  16.724  16.639  1.00  0.00     0.131 C 
BRANCH   5   6
HETATM    6  S1  UNL     1      99.703  16.051  15.562  1.00  0.00     0.105 S 
HETATM    7  O3  UNL     1      98.764  16.779  14.122  1.00  0.00    -0.240 OA
BRANCH   6   8
HETATM    8  C2  UNL     1     101.095  17.250  16.282  1.00  0.00     0.323 C 
HETATM    9  N2  UNL     1     101.692  17.100  17.523  1.00  0.00    -0.270 N 
HETATM   10  C1  UNL     1     101.564  16.212  18.575  1.00  0.00     0.336 C 
ATOM     11  H2  UNL     1     102.395  17.816  17.703  1.00  0.00     0.174 HD
HETATM   12  N1  UNL     1     102.405  16.398  19.748  1.00  0.00    -0.040 NA
HETATM   13  O1  UNL     1     100.800  15.258  18.634  1.00  0.00    -0.251 OA
HETATM   14  O2  UNL     1     101.481  18.230  15.577  1.00  0.00    -0.256 OA
ENDBRANCH   6   8
BRANCH   6  15
HETATM   15  N3  UNL     1     100.749  15.400  14.399  1.00  0.00    -0.353 N 
ATOM     16  H32 UNL     1     100.681  14.598  13.773  1.00  0.00     0.166 HD
ATOM     17  H31 UNL     1     101.460  16.112  14.569  1.00  0.00     0.166 HD
ENDBRANCH   6  15
ENDBRANCH   5   6
ENDBRANCH   4   5
ENDBRANCH   3   4
ENDBRANCH   1   2
BRANCH   1  18
HETATM   18  N4  UNL     1      93.813  14.940  16.665  1.00  0.00    -0.407 N 
ATOM     19  H4  UNL     1      94.362  14.610  15.871  1.00  0.00     0.154 HD
BRANCH  18  20
HETATM   20  C8  UNL     1      93.180  14.036  17.570  1.00  0.00     0.157 C 
HETATM   21  C9  UNL     1      93.999  12.739  17.526  1.00  0.00     0.071 C 
HETATM   22  C10 UNL     1      95.136  12.970  18.498  1.00  0.00     0.071 C 
HETATM   23  C11 UNL     1      96.416  13.323  17.770  1.00  0.00     0.038 C 
HETATM   24  C15 UNL     1      95.373  11.797  19.409  1.00  0.00     0.038 C 
HETATM   25  O4  UNL     1      94.685  14.048  19.300  1.00  0.00    -0.325 OA
HETATM   26  C12 UNL     1      97.493  13.586  18.793  1.00  0.00     0.003 C 
HETATM   27  C13 UNL     1      97.843  12.285  19.450  1.00  0.00     0.000 C 
HETATM   28  C14 UNL     1      96.767  11.246  19.350  1.00  0.00     0.003 C 
HETATM   29  C16 UNL     1      93.396  14.415  19.000  1.00  0.00     0.161 C 
HETATM   30  N5  UNL     1      92.477  14.975  19.717  1.00  0.00    -0.249 N 
ATOM     31  H5  UNL     1      91.572  15.163  19.286  1.00  0.00     0.196 HD
BRANCH  30  32
HETATM   32  O5  UNL     1      92.662  15.327  21.029  1.00  0.00    -0.288 OA
ATOM     33  H5  UNL     1      91.967  15.672  21.577  1.00  0.00     0.244 HD
ENDBRANCH  30  32
ENDBRANCH  18  20
ENDBRANCH   1  18
TORSDOF 9
ENDMDL
MODEL 2
REMARK VINA RESULT: -8.127457040      1.620      1.891
REMARK  9 active torsions:
REMARK  status: ('A' for Active; 'I' for Inactive)
REMARK       I    between atoms: C1_2  and  N2_4 
REMARK       I    between atoms: N2_4  and  C2_6 
REMARK    1  A    between atoms: C2_6  and  S1_8 
REMARK    2  A    between atoms: S1_8  and  N3_9 
REMARK    3  A    between atoms: S1_8  and  C3_13 
REMARK    4  A    between atoms: C3_13  and  C4_14 
REMARK    5  A    between atoms: C4_14  and  C5_15 
REMARK    6  A    between atoms: C6_16  and  C7_17 
REMARK    7  A    between atoms: C7_17  and  N4_18 
REMARK    8  A    between atoms: N4_18  and  C8_20 
REMARK    9  A    between atoms: N5_30  and  O5_32 
ROOT
HETATM    1  C7  UNL     1      94.314  15.314  15.459  1.00  0.00     0.142 C 
ENDROOT
BRANCH   1   2
HETATM    2  C6  UNL     1      95.640  15.449  14.801  1.00  0.00    -0.012 C 
HETATM    3  C5  UNL     1      96.582  14.522  14.944  1.00  0.00    -0.028 C 
BRANCH   3   4
HETATM    4  C4  UNL     1      97.928  14.592  14.316  1.00  0.00     0.041 C 
BRANCH   4   5
HETATM    5  C3  UNL     1      99.047  14.735  15.369  1.00  0.00     0.131 C 
BRANCH   5   6
HETATM    6  S1  UNL     1      99.624  16.379  15.736  1.00  0.00     0.105 S 
HETATM    7  O3  UNL     1      98.766  16.959  14.183  1.00  0.00    -0.240 OA
BRANCH   6   8
HETATM    8  C2  UNL     1      98.497  16.506  17.352  1.00  0.00     0.323 C 
HETATM    9  N2  UNL     1      98.916  16.164  18.627  1.00  0.00    -0.270 N 
HETATM   10  C1  UNL     1     100.083  15.670  19.179  1.00  0.00     0.336 C 
ATOM     11  H2  UNL     1      98.189  16.312  19.326  1.00  0.00     0.174 HD
HETATM   12  N1  UNL     1     100.129  15.437  20.615  1.00  0.00    -0.040 NA
HETATM   13  O1  UNL     1     101.115  15.398  18.580  1.00  0.00    -0.251 OA
HETATM   14  O2  UNL     1      97.307  16.925  17.235  1.00  0.00    -0.256 OA
ENDBRANCH   6   8
BRANCH   6  15
HETATM   15  N3  UNL     1     100.169  17.975  15.892  1.00  0.00    -0.353 N 
ATOM     16  H32 UNL     1     100.022  18.818  15.336  1.00  0.00     0.166 HD
ATOM     17  H31 UNL     1     100.692  17.766  16.742  1.00  0.00     0.166 HD
ENDBRANCH   6  15
ENDBRANCH   5   6
ENDBRANCH   4   5
ENDBRANCH   3   4
ENDBRANCH   1   2
BRANCH   1  18
HETATM   18  N4  UNL     1      94.370  15.260  16.884  1.00  0.00    -0.407 N 
ATOM     19  H4  UNL     1      95.023  15.832  17.419  1.00  0.00     0.154 HD
BRANCH  18  20
HETATM   20  C8  UNL     1      93.462  14.360  17.519  1.00  0.00     0.157 C 
HETATM   21  C9  UNL     1      94.091  12.965  17.408  1.00  0.00     0.071 C 
HETATM   22  C10 UNL     1      95.049  12.881  18.577  1.00  0.00     0.071 C 
HETATM   23  C11 UNL     1      96.477  13.114  18.134  1.00  0.00     0.038 C 
HETATM   24  C15 UNL     1      94.950  11.576  19.319  1.00  0.00     0.038 C 
HETATM   25  O4  UNL     1      94.607  13.904  19.453  1.00  0.00    -0.325 OA
HETATM   26  C12 UNL     1      97.371  13.064  19.348  1.00  0.00     0.003 C 
HETATM   27  C13 UNL     1      97.413  11.649  19.840  1.00  0.00     0.000 C 
HETATM   28  C14 UNL     1      96.242  10.819  19.404  1.00  0.00     0.003 C 
HETATM   29  C16 UNL     1      93.458  14.510  19.007  1.00  0.00     0.161 C 
HETATM   30  N5  UNL     1      92.508  15.112  19.642  1.00  0.00    -0.249 N 
ATOM     31  H5  UNL     1      91.733  15.499  19.104  1.00  0.00     0.196 HD
BRANCH  30  32
HETATM   32  O5  UNL     1      92.492  15.256  21.005  1.00  0.00    -0.288 OA
ATOM     33  H5  UNL     1      92.207  14.569  21.597  1.00  0.00     0.244 HD
ENDBRANCH  30  32
ENDBRANCH  18  20
ENDBRANCH   1  18
TORSDOF 9
ENDMDL
MODEL 3
REMARK VINA RESULT: -8.119456749      2.228      2.942
REMARK  9 active torsions:
REMARK  status: ('A' for Active; 'I' for Inactive)
REMARK       I    between atoms: C1_2  and  N2_4 
REMARK       I    between atoms: N2_4  and  C2_6 
REMARK    1  A    between atoms: C2_6  and  S1_8 
REMARK    2  A    between atoms: S1_8  and  N3_9 
REMARK    3  A    between atoms: S1_8  and  C3_13 
REMARK    4  A    between atoms: C3_13  and  C4_14 
REMARK    5  A    between atoms: C4_14  and  C5_15 
REMARK    6  A    between atoms: C6_16  and  C7_17 
REMARK    7  A    between atoms: C7_17  and  N4_18 
REMARK    8  A    between atoms: N4_18  and  C8_20 
REMARK    9  A    between atoms: N5_30  and  O5_32 
ROOT
HETATM    1  C7  UNL     1      93.407  16.080  16.598  1.00  0.00     0.142 C 
ENDROOT
BRANCH   1   2
HETATM    2  C6  UNL     1      94.543  17.037  16.609  1.00  0.00    -0.012 C 
HETATM    3  C5  UNL     1      95.735  16.692  17.088  1.00  0.00    -0.028 C 
BRANCH   3   4
HETATM    4  C4  UNL     1      96.914  17.596  17.131  1.00  0.00     0.041 C 
BRANCH   4   5
HETATM    5  C3  UNL     1      98.191  16.903  16.611  1.00  0.00     0.131 C 
BRANCH   5   6
HETATM    6  S1  UNL     1      98.664  17.213  14.923  1.00  0.00     0.105 S 
HETATM    7  O3  UNL     1     100.007  18.336  15.573  1.00  0.00    -0.240 OA
BRANCH   6   8
HETATM    8  C2  UNL     1      99.256  15.350  14.656  1.00  0.00     0.323 C 
HETATM    9  N2  UNL     1      98.404  14.285  14.414  1.00  0.00    -0.270 N 
HETATM   10  C1  UNL     1      97.035  14.128  14.296  1.00  0.00     0.336 C 
ATOM     11  H2  UNL     1      98.907  13.406  14.293  1.00  0.00     0.174 HD
HETATM   12  N1  UNL     1      96.509  12.798  14.027  1.00  0.00    -0.040 NA
HETATM   13  O1  UNL     1      96.189  15.007  14.396  1.00  0.00    -0.251 OA
HETATM   14  O2  UNL     1     100.495  15.089  14.708  1.00  0.00    -0.256 OA
ENDBRANCH   6   8
BRANCH   6  15
HETATM   15  N3  UNL     1      99.179  17.684  13.380  1.00  0.00    -0.353 N 
ATOM     16  H32 UNL     1      98.721  17.700  12.468  1.00  0.00     0.166 HD
ATOM     17  H31 UNL     1     100.108  17.940  13.714  1.00  0.00     0.166 HD
ENDBRANCH   6  15
ENDBRANCH   5   6
ENDBRANCH   4   5
ENDBRANCH   3   4
ENDBRANCH   1   2
BRANCH   1  18
HETATM   18  N4  UNL     1      93.797  14.707  16.623  1.00  0.00    -0.407 N 
ATOM     19  H4  UNL     1      94.518  14.341  16.002  1.00  0.00     0.154 HD
BRANCH  18  20
HETATM   20  C8  UNL     1      93.121  13.874  17.564  1.00  0.00     0.157 C 
HETATM   21  C9  UNL     1      93.870  12.535  17.571  1.00  0.00     0.071 C 
HETATM   22  C10 UNL     1      95.023  12.746  18.530  1.00  0.00     0.071 C 
HETATM   23  C11 UNL     1      96.316  13.001  17.785  1.00  0.00     0.038 C 
HETATM   24  C15 UNL     1      95.202  11.599  19.487  1.00  0.00     0.038 C 
HETATM   25  O4  UNL     1      94.633  13.877  19.289  1.00  0.00    -0.325 OA
HETATM   26  C12 UNL     1      97.410  13.247  18.794  1.00  0.00     0.003 C 
HETATM   27  C13 UNL     1      97.695  11.958  19.501  1.00  0.00     0.000 C 
HETATM   28  C14 UNL     1      96.565  10.973  19.447  1.00  0.00     0.003 C 
HETATM   29  C16 UNL     1      93.363  14.299  18.978  1.00  0.00     0.161 C 
HETATM   30  N5  UNL     1      92.479  14.934  19.674  1.00  0.00    -0.249 N 
ATOM     31  H5  UNL     1      91.583  15.153  19.239  1.00  0.00     0.196 HD
BRANCH  30  32
HETATM   32  O5  UNL     1      92.688  15.329  20.970  1.00  0.00    -0.288 OA
ATOM     33  H5  UNL     1      93.359  14.950  21.526  1.00  0.00     0.244 HD
ENDBRANCH  30  32
ENDBRANCH  18  20
ENDBRANCH   1  18
TORSDOF 9
ENDMDL
MODEL 4
REMARK VINA RESULT: -8.086641436      2.137      2.376
REMARK  9 active torsions:
REMARK  status: ('A' for Active; 'I' for Inactive)
REMARK       I    between atoms: C1_2  and  N2_4 
REMARK       I    between atoms: N2_4  and  C2_6 
REMARK    1  A    between atoms: C2_6  and  S1_8 
REMARK    2  A    between atoms: S1_8  and  N3_9 
REMARK    3  A    between atoms: S1_8  and  C3_13 
REMARK    4  A    between atoms: C3_13  and  C4_14 
REMARK    5  A    between atoms: C4_14  and  C5_15 
REMARK    6  A    between atoms: C6_16  and  C7_17 
REMARK    7  A    between atoms: C7_17  and  N4_18 
REMARK    8  A    between atoms: N4_18  and  C8_20 
REMARK    9  A    between atoms: N5_30  and  O5_32 
ROOT
HETATM    1  C7  UNL     1      93.759  15.173  15.391  1.00  0.00     0.142 C 
ENDROOT
BRANCH   1   2
HETATM    2  C6  UNL     1      94.744  15.955  14.600  1.00  0.00    -0.012 C 
HETATM    3  C5  UNL     1      95.562  16.828  15.181  1.00  0.00    -0.028 C 
BRANCH   3   4
HETATM    4  C4  UNL     1      96.571  17.643  14.452  1.00  0.00     0.041 C 
BRANCH   4   5
HETATM    5  C3  UNL     1      97.649  16.763  13.787  1.00  0.00     0.131 C 
BRANCH   5   6
HETATM    6  S1  UNL     1      98.657  15.753  14.851  1.00  0.00     0.105 S 
HETATM    7  O3  UNL     1      97.773  14.259  14.164  1.00  0.00    -0.240 OA
BRANCH   6   8
HETATM    8  C2  UNL     1     100.306  16.213  13.869  1.00  0.00     0.323 C 
HETATM    9  N2  UNL     1     100.995  17.407  14.012  1.00  0.00    -0.270 N 
HETATM   10  C1  UNL     1     100.825  18.557  14.759  1.00  0.00     0.336 C 
ATOM     11  H2  UNL     1     101.828  17.446  13.425  1.00  0.00     0.174 HD
HETATM   12  N1  UNL     1     101.805  19.625  14.626  1.00  0.00    -0.040 NA
HETATM   13  O1  UNL     1      99.916  18.787  15.546  1.00  0.00    -0.251 OA
HETATM   14  O2  UNL     1     100.782  15.374  13.047  1.00  0.00    -0.256 OA
ENDBRANCH   6   8
BRANCH   6  15
HETATM   15  N3  UNL     1      99.467  14.664  15.864  1.00  0.00    -0.353 N 
ATOM     16  H32 UNL     1      99.942  13.778  15.695  1.00  0.00     0.166 HD
ATOM     17  H31 UNL     1      99.295  15.232  16.694  1.00  0.00     0.166 HD
ENDBRANCH   6  15
ENDBRANCH   5   6
ENDBRANCH   4   5
ENDBRANCH   3   4
ENDBRANCH   1   2
BRANCH   1  18
HETATM   18  N4  UNL     1      93.962  15.232  16.803  1.00  0.00    -0.407 N 
ATOM     19  H4  UNL     1      94.603  15.902  17.227  1.00  0.00     0.154 HD
BRANCH  18  20
HETATM   20  C8  UNL     1      93.218  14.302  17.588  1.00  0.00     0.157 C 
HETATM   21  C9  UNL     1      93.936  12.952  17.452  1.00  0.00     0.071 C 
HETATM   22  C10 UNL     1      95.039  12.998  18.487  1.00  0.00     0.071 C 
HETATM   23  C11 UNL     1      96.376  13.313  17.849  1.00  0.00     0.038 C 
HETATM   24  C15 UNL     1      95.141  11.729  19.288  1.00  0.00     0.038 C 
HETATM   25  O4  UNL     1      94.634  14.029  19.372  1.00  0.00    -0.325 OA
HETATM   26  C12 UNL     1      97.420  13.390  18.936  1.00  0.00     0.003 C 
HETATM   27  C13 UNL     1      97.637  12.009  19.476  1.00  0.00     0.000 C 
HETATM   28  C14 UNL     1      96.489  11.075  19.232  1.00  0.00     0.003 C 
HETATM   29  C16 UNL     1      93.393  14.526  19.056  1.00  0.00     0.161 C 
HETATM   30  N5  UNL     1      92.487  15.088  19.787  1.00  0.00    -0.249 N 
ATOM     31  H5  UNL     1      91.621  15.390  19.340  1.00  0.00     0.196 HD
BRANCH  30  32
HETATM   32  O5  UNL     1      92.636  15.300  21.133  1.00  0.00    -0.288 OA
ATOM     33  H5  UNL     1      92.662  14.595  21.770  1.00  0.00     0.244 HD
ENDBRANCH  30  32
ENDBRANCH  18  20
ENDBRANCH   1  18
TORSDOF 9
ENDMDL
MODEL 5
REMARK VINA RESULT: -8.069123405      1.378      2.306
REMARK  9 active torsions:
REMARK  status: ('A' for Active; 'I' for Inactive)
REMARK       I    between atoms: C1_2  and  N2_4 
REMARK       I    between atoms: N2_4  and  C2_6 
REMARK    1  A    between atoms: C2_6  and  S1_8 
REMARK    2  A    between atoms: S1_8  and  N3_9 
REMARK    3  A    between atoms: S1_8  and  C3_13 
REMARK    4  A    between atoms: C3_13  and  C4_14 
REMARK    5  A    between atoms: C4_14  and  C5_15 
REMARK    6  A    between atoms: C6_16  and  C7_17 
REMARK    7  A    between atoms: C7_17  and  N4_18 
REMARK    8  A    between atoms: N4_18  and  C8_20 
REMARK    9  A    between atoms: N5_30  and  O5_32 
ROOT
HETATM    1  C7  UNL     1      93.539  16.354  16.589  1.00  0.00     0.142 C 
ENDROOT
BRANCH   1   2
HETATM    2  C6  UNL     1      94.589  17.354  16.261  1.00  0.00    -0.012 C 
HETATM    3  C5  UNL     1      95.835  17.222  16.706  1.00  0.00    -0.028 C 
BRANCH   3   4
HETATM    4  C4  UNL     1      96.933  18.182  16.418  1.00  0.00     0.041 C 
BRANCH   4   5
HETATM    5  C3  UNL     1      98.148  17.488  15.767  1.00  0.00     0.131 C 
BRANCH   5   6
HETATM    6  S1  UNL     1      99.123  16.408  16.793  1.00  0.00     0.105 S 
HETATM    7  O3  UNL     1      98.278  14.964  15.965  1.00  0.00    -0.240 OA
BRANCH   6   8
HETATM    8  C2  UNL     1     100.804  16.947  15.911  1.00  0.00     0.323 C 
HETATM    9  N2  UNL     1     101.179  16.558  14.636  1.00  0.00    -0.270 N 
HETATM   10  C1  UNL     1     100.628  15.763  13.648  1.00  0.00     0.336 C 
ATOM     11  H2  UNL     1     102.078  16.952  14.359  1.00  0.00     0.174 HD
HETATM   12  N1  UNL     1     101.358  15.598  12.400  1.00  0.00    -0.040 NA
HETATM   13  O1  UNL     1      99.562  15.164  13.705  1.00  0.00    -0.251 OA
HETATM   14  O2  UNL     1     101.609  17.699  16.538  1.00  0.00    -0.256 OA
ENDBRANCH   6   8
BRANCH   6  15
HETATM   15  N3  UNL     1      99.902  15.251  17.754  1.00  0.00    -0.353 N 
ATOM     16  H32 UNL     1     100.666  15.306  18.427  1.00  0.00     0.166 HD
ATOM     17  H31 UNL     1      99.318  14.493  17.401  1.00  0.00     0.166 HD
ENDBRANCH   6  15
ENDBRANCH   5   6
ENDBRANCH   4   5
ENDBRANCH   3   4
ENDBRANCH   1   2
BRANCH   1  18
HETATM   18  N4  UNL     1      94.035  15.032  16.796  1.00  0.00    -0.407 N 
ATOM     19  H4  UNL     1      94.919  14.720  16.396  1.00  0.00     0.154 HD
BRANCH  18  20
HETATM   20  C8  UNL     1      93.224  14.171  17.595  1.00  0.00     0.157 C 
HETATM   21  C9  UNL     1      93.868  12.780  17.518  1.00  0.00     0.071 C 
HETATM   22  C10 UNL     1      94.951  12.800  18.575  1.00  0.00     0.071 C 
HETATM   23  C11 UNL     1      96.316  13.018  17.957  1.00  0.00     0.038 C 
HETATM   24  C15 UNL     1      94.965  11.554  19.419  1.00  0.00     0.038 C 
HETATM   25  O4  UNL     1      94.586  13.880  19.417  1.00  0.00    -0.325 OA
HETATM   26  C12 UNL     1      97.340  13.074  19.064  1.00  0.00     0.003 C 
HETATM   27  C13 UNL     1      97.469  11.702  19.653  1.00  0.00     0.000 C 
HETATM   28  C14 UNL     1      96.276  10.825  19.414  1.00  0.00     0.003 C 
HETATM   29  C16 UNL     1      93.382  14.434  19.058  1.00  0.00     0.161 C 
HETATM   30  N5  UNL     1      92.494  15.070  19.750  1.00  0.00    -0.249 N 
ATOM     31  H5  UNL     1      91.656  15.403  19.275  1.00  0.00     0.196 HD
BRANCH  30  32
HETATM   32  O5  UNL     1      92.627  15.318  21.091  1.00  0.00    -0.288 OA
ATOM     33  H5  UNL     1      92.332  16.122  21.502  1.00  0.00     0.244 HD
ENDBRANCH  30  32
ENDBRANCH  18  20
ENDBRANCH   1  18
TORSDOF 9
ENDMDL
