MODEL 1
REMARK VINA RESULT: -7.465620241      0.000      0.000
REMARK  9 active torsions:
REMARK  status: ('A' for Active; 'I' for Inactive)
REMARK    1  A    between atoms: N1_1  and  C1_5 
REMARK    2  A    between atoms: C1_5  and  C2_6 
REMARK    3  A    between atoms: C1_5  and  C3_8 
REMARK       I    between atoms: C3_8  and  N2_10 
REMARK    4  A    between atoms: N2_10  and  C4_12 
REMARK    5  A    between atoms: C4_12  and  C5_13 
REMARK    6  A    between atoms: C4_12  and  C8_30 
REMARK       I    between atoms: C5_13  and  N3_15 
REMARK    7  A    between atoms: N3_15  and  C6_17 
REMARK    8  A    between atoms: C7_20  and  S2_21 
REMARK    9  A    between atoms: S2_21  and  N5_22 
ROOT
HETATM    1  C4  UNL     1      98.577  15.109  18.229  1.00  0.00     0.181 C 
ENDROOT
BRANCH   1   2
HETATM    2  N2  UNL     1      98.068  13.755  18.039  1.00  0.00    -0.346 N 
HETATM    3  C3  UNL     1      96.826  13.340  18.561  1.00  0.00     0.249 C 
HETATM    4  O1  UNL     1      96.122  14.146  19.210  1.00  0.00    -0.271 OA
ATOM      5  H2  UNL     1      98.629  13.087  17.512  1.00  0.00     0.163 HD
BRANCH   3   6
HETATM    6  C1  UNL     1      96.342  11.970  18.351  1.00  0.00     0.284 C 
BRANCH   6   7
HETATM    7  N1  UNL     1      97.110  11.012  19.129  1.00  0.00    -0.066 N 
ATOM      8  H13 UNL     1      96.986  11.118  20.135  1.00  0.00     0.275 HD
ATOM      9  H12 UNL     1      96.756  10.058  19.057  1.00  0.00     0.275 HD
ATOM     10  H11 UNL     1      98.080  11.105  18.830  1.00  0.00     0.275 HD
ENDBRANCH   6   7
BRANCH   6  11
HETATM   11  C2  UNL     1      94.896  11.825  18.790  1.00  0.00     0.128 C 
HETATM   12  S1  UNL     1      93.825  12.338  17.444  1.00  0.00    -0.095 SA
ENDBRANCH   6  11
ENDBRANCH   3   6
ENDBRANCH   1   2
BRANCH   1  13
HETATM   13  C5  UNL     1      98.429  15.919  17.000  1.00  0.00     0.246 C 
HETATM   14  O2  UNL     1      97.714  16.946  17.031  1.00  0.00    -0.271 OA
HETATM   15  N3  UNL     1      99.077  15.540  15.829  1.00  0.00    -0.304 N 
ATOM     16  H3  UNL     1      99.022  14.558  15.562  1.00  0.00     0.171 HD
BRANCH  15  17
HETATM   17  C6  UNL     1      99.740  16.326  15.053  1.00  0.00     0.169 A 
HETATM   18  N4  UNL     1      99.978  17.637  15.134  1.00  0.00    -0.310 N 
HETATM   19  C7  UNL     1     100.693  18.187  14.194  1.00  0.00     0.232 A 
ATOM     20  H4  UNL     1      99.612  18.190  15.908  1.00  0.00     0.170 HD
HETATM   21  N6  UNL     1     101.146  17.413  13.208  1.00  0.00    -0.298 N 
HETATM   22  S3  UNL     1     100.547  15.887  13.623  1.00  0.00     0.025 SA
ATOM     23  H6  UNL     1     101.713  17.675  12.402  1.00  0.00     0.176 HD
BRANCH  19  24
HETATM   24  S2  UNL     1     101.102  19.921  14.154  1.00  0.00     0.289 S 
HETATM   25  O3  UNL     1     100.036  20.709  14.864  1.00  0.00    -0.198 OA
HETATM   26  O4  UNL     1     101.142  20.409  12.737  1.00  0.00    -0.198 OA
BRANCH  24  27
HETATM   27  N5  UNL     1     102.593  20.219  14.960  1.00  0.00    -0.322 N 
ATOM     28  H52 UNL     1     103.187  21.026  14.771  1.00  0.00     0.169 HD
ATOM     29  H51 UNL     1     102.791  19.487  15.642  1.00  0.00     0.169 HD
ENDBRANCH  24  27
ENDBRANCH  19  24
ENDBRANCH  15  17
ENDBRANCH   1  13
BRANCH   1  30
HETATM   30  C8  UNL     1     100.031  14.978  18.643  1.00  0.00     0.018 C 
HETATM   31  C9  UNL     1     100.788  16.279  18.548  1.00  0.00     0.007 C 
HETATM   32  C10 UNL     1     101.941  16.192  19.552  1.00  0.00     0.000 C 
HETATM   33  C11 UNL     1     101.468  16.229  20.967  1.00  0.00     0.000 C 
HETATM   34  C12 UNL     1     100.141  15.519  21.062  1.00  0.00     0.000 C 
HETATM   35  C13 UNL     1     100.142  14.411  20.022  1.00  0.00     0.007 C 
ENDBRANCH   1  30
TORSDOF 9
ENDMDL
MODEL 2
REMARK VINA RESULT: -7.432180622      3.851      6.042
REMARK  9 active torsions:
REMARK  status: ('A' for Active; 'I' for Inactive)
REMARK    1  A    between atoms: N1_1  and  C1_5 
REMARK    2  A    between atoms: C1_5  and  C2_6 
REMARK    3  A    between atoms: C1_5  and  C3_8 
REMARK       I    between atoms: C3_8  and  N2_10 
REMARK    4  A    between atoms: N2_10  and  C4_12 
REMARK    5  A    between atoms: C4_12  and  C5_13 
REMARK    6  A    between atoms: C4_12  and  C8_30 
REMARK       I    between atoms: C5_13  and  N3_15 
REMARK    7  A    between atoms: N3_15  and  C6_17 
REMARK    8  A    between atoms: C7_20  and  S2_21 
REMARK    9  A    between atoms: S2_21  and  N5_22 
ROOT
HETATM    1  C4  UNL     1      97.363  13.669  18.567  1.00  0.00     0.181 C 
ENDROOT
BRANCH   1   2
HETATM    2  N2  UNL     1      97.567  14.032  17.169  1.00  0.00    -0.346 N 
HETATM    3  C3  UNL     1      97.319  15.333  16.686  1.00  0.00     0.249 C 
HETATM    4  O1  UNL     1      96.910  16.220  17.469  1.00  0.00    -0.271 OA
ATOM      5  H2  UNL     1      97.900  13.320  16.519  1.00  0.00     0.163 HD
BRANCH   3   6
HETATM    6  C1  UNL     1      97.536  15.665  15.273  1.00  0.00     0.284 C 
BRANCH   6   7
HETATM    7  N1  UNL     1      98.224  14.591  14.575  1.00  0.00    -0.066 N 
ATOM      8  H13 UNL     1      97.962  14.517  13.593  1.00  0.00     0.275 HD
ATOM      9  H12 UNL     1      99.216  14.776  14.429  1.00  0.00     0.275 HD
ATOM     10  H11 UNL     1      98.046  13.739  15.105  1.00  0.00     0.275 HD
ENDBRANCH   6   7
BRANCH   6  11
HETATM   11  C2  UNL     1      96.218  15.878  14.550  1.00  0.00     0.128 C 
HETATM   12  S1  UNL     1      95.593  14.288  13.999  1.00  0.00    -0.095 SA
ENDBRANCH   6  11
ENDBRANCH   3   6
ENDBRANCH   1   2
BRANCH   1  13
HETATM   13  C5  UNL     1      98.594  13.865  19.362  1.00  0.00     0.246 C 
HETATM   14  O2  UNL     1      99.278  12.867  19.681  1.00  0.00    -0.271 OA
HETATM   15  N3  UNL     1      98.983  15.144  19.746  1.00  0.00    -0.304 N 
ATOM     16  H3  UNL     1      98.263  15.755  20.132  1.00  0.00     0.171 HD
BRANCH  15  17
HETATM   17  C6  UNL     1     100.175  15.624  19.656  1.00  0.00     0.169 A 
HETATM   18  N4  UNL     1     101.153  15.707  20.561  1.00  0.00    -0.310 N 
HETATM   19  C7  UNL     1     102.280  16.249  20.195  1.00  0.00     0.232 A 
ATOM     20  H4  UNL     1     101.022  15.357  21.510  1.00  0.00     0.170 HD
HETATM   21  N6  UNL     1     102.393  16.688  18.941  1.00  0.00    -0.298 N 
HETATM   22  S3  UNL     1     100.880  16.326  18.279  1.00  0.00     0.025 SA
ATOM     23  H6  UNL     1     103.193  17.132  18.493  1.00  0.00     0.176 HD
BRANCH  19  24
HETATM   24  S2  UNL     1     103.682  16.435  21.279  1.00  0.00     0.289 S 
HETATM   25  O3  UNL     1     103.272  16.133  22.694  1.00  0.00    -0.198 OA
HETATM   26  O4  UNL     1     104.168  17.853  21.253  1.00  0.00    -0.198 OA
BRANCH  24  27
HETATM   27  N5  UNL     1     104.936  15.336  20.856  1.00  0.00    -0.322 N 
ATOM     28  H52 UNL     1     105.712  15.097  21.473  1.00  0.00     0.169 HD
ATOM     29  H51 UNL     1     104.793  14.965  19.916  1.00  0.00     0.169 HD
ENDBRANCH  24  27
ENDBRANCH  19  24
ENDBRANCH  15  17
ENDBRANCH   1  13
BRANCH   1  30
HETATM   30  C8  UNL     1      96.908  12.221  18.584  1.00  0.00     0.018 C 
HETATM   31  C9  UNL     1      96.569  11.729  19.968  1.00  0.00     0.007 C 
HETATM   32  C10 UNL     1      95.559  10.591  19.795  1.00  0.00     0.000 C 
HETATM   33  C11 UNL     1      94.229  11.077  19.322  1.00  0.00     0.000 C 
HETATM   34  C12 UNL     1      94.434  12.243  18.388  1.00  0.00     0.000 C 
HETATM   35  C13 UNL     1      95.749  12.017  17.661  1.00  0.00     0.007 C 
ENDBRANCH   1  30
TORSDOF 9
ENDMDL
MODEL 3
REMARK VINA RESULT: -7.390779513      1.346      1.532
REMARK  9 active torsions:
REMARK  status: ('A' for Active; 'I' for Inactive)
REMARK    1  A    between atoms: N1_1  and  C1_5 
REMARK    2  A    between atoms: C1_5  and  C2_6 
REMARK    3  A    between atoms: C1_5  and  C3_8 
REMARK       I    between atoms: C3_8  and  N2_10 
REMARK    4  A    between atoms: N2_10  and  C4_12 
REMARK    5  A    between atoms: C4_12  and  C5_13 
REMARK    6  A    between atoms: C4_12  and  C8_30 
REMARK       I    between atoms: C5_13  and  N3_15 
REMARK    7  A    between atoms: N3_15  and  C6_17 
REMARK    8  A    between atoms: C7_20  and  S2_21 
REMARK    9  A    between atoms: S2_21  and  N5_22 
ROOT
HETATM    1  C4  UNL     1      98.338  15.130  18.194  1.00  0.00     0.181 C 
ENDROOT
BRANCH   1   2
HETATM    2  N2  UNL     1      97.843  13.776  17.974  1.00  0.00    -0.346 N 
HETATM    3  C3  UNL     1      96.662  13.299  18.578  1.00  0.00     0.249 C 
HETATM    4  O1  UNL     1      96.003  14.049  19.333  1.00  0.00    -0.271 OA
ATOM      5  H2  UNL     1      98.369  13.153  17.361  1.00  0.00     0.163 HD
BRANCH   3   6
HETATM    6  C1  UNL     1      96.192  11.930  18.335  1.00  0.00     0.284 C 
BRANCH   6   7
HETATM    7  N1  UNL     1      96.976  10.959  19.080  1.00  0.00    -0.066 N 
ATOM      8  H13 UNL     1      97.442  11.358  19.894  1.00  0.00     0.275 HD
ATOM      9  H12 UNL     1      96.404  10.279  19.580  1.00  0.00     0.275 HD
ATOM     10  H11 UNL     1      97.620  10.533  18.415  1.00  0.00     0.275 HD
ENDBRANCH   6   7
BRANCH   6  11
HETATM   11  C2  UNL     1      94.751  11.757  18.780  1.00  0.00     0.128 C 
HETATM   12  S1  UNL     1      93.664  12.280  17.450  1.00  0.00    -0.095 SA
ENDBRANCH   6  11
ENDBRANCH   3   6
ENDBRANCH   1   2
BRANCH   1  13
HETATM   13  C5  UNL     1      98.013  16.016  17.056  1.00  0.00     0.246 C 
HETATM   14  O2  UNL     1      97.389  17.079  17.270  1.00  0.00    -0.271 OA
HETATM   15  N3  UNL     1      98.398  15.668  15.765  1.00  0.00    -0.304 N 
ATOM     16  H3  UNL     1      98.227  14.707  15.470  1.00  0.00     0.171 HD
BRANCH  15  17
HETATM   17  C6  UNL     1      98.953  16.457  14.911  1.00  0.00     0.169 A 
HETATM   18  N4  UNL     1     100.225  16.563  14.519  1.00  0.00    -0.310 N 
HETATM   19  C7  UNL     1     100.515  17.463  13.623  1.00  0.00     0.232 A 
ATOM     20  H4  UNL     1     100.947  15.957  14.908  1.00  0.00     0.170 HD
HETATM   21  N6  UNL     1      99.528  18.225  13.150  1.00  0.00    -0.298 N 
HETATM   22  S3  UNL     1      98.177  17.654  13.989  1.00  0.00     0.025 SA
ATOM     23  H6  UNL     1      99.577  18.969  12.454  1.00  0.00     0.176 HD
BRANCH  19  24
HETATM   24  S2  UNL     1     102.159  17.733  12.993  1.00  0.00     0.289 S 
HETATM   25  O3  UNL     1     102.315  19.170  12.579  1.00  0.00    -0.198 OA
HETATM   26  O4  UNL     1     102.387  16.895  11.771  1.00  0.00    -0.198 OA
BRANCH  24  27
HETATM   27  N5  UNL     1     103.341  17.410  14.201  1.00  0.00    -0.322 N 
ATOM     28  H52 UNL     1     104.180  17.973  14.337  1.00  0.00     0.169 HD
ATOM     29  H51 UNL     1     103.084  16.591  14.752  1.00  0.00     0.169 HD
ENDBRANCH  24  27
ENDBRANCH  19  24
ENDBRANCH  15  17
ENDBRANCH   1  13
BRANCH   1  30
HETATM   30  C8  UNL     1      99.835  15.021  18.412  1.00  0.00     0.018 C 
HETATM   31  C9  UNL     1     100.541  16.351  18.311  1.00  0.00     0.007 C 
HETATM   32  C10 UNL     1     101.815  16.238  19.153  1.00  0.00     0.000 C 
HETATM   33  C11 UNL     1     101.526  16.170  20.616  1.00  0.00     0.000 C 
HETATM   34  C12 UNL     1     100.240  15.412  20.830  1.00  0.00     0.000 C 
HETATM   35  C13 UNL     1     100.136  14.373  19.726  1.00  0.00     0.007 C 
ENDBRANCH   1  30
TORSDOF 9
ENDMDL
MODEL 4
REMARK VINA RESULT: -7.364275636      1.016      1.016
REMARK  9 active torsions:
REMARK  status: ('A' for Active; 'I' for Inactive)
REMARK    1  A    between atoms: N1_1  and  C1_5 
REMARK    2  A    between atoms: C1_5  and  C2_6 
REMARK    3  A    between atoms: C1_5  and  C3_8 
REMARK       I    between atoms: C3_8  and  N2_10 
REMARK    4  A    between atoms: N2_10  and  C4_12 
REMARK    5  A    between atoms: C4_12  and  C5_13 
REMARK    6  A    between atoms: C4_12  and  C8_30 
REMARK       I    between atoms: C5_13  and  N3_15 
REMARK    7  A    between atoms: N3_15  and  C6_17 
REMARK    8  A    between atoms: C7_20  and  S2_21 
REMARK    9  A    between atoms: S2_21  and  N5_22 
ROOT
HETATM    1  C4  UNL     1      98.868  15.395  18.033  1.00  0.00     0.181 C 
ENDROOT
BRANCH   1   2
HETATM    2  N2  UNL     1      98.258  14.072  17.963  1.00  0.00    -0.346 N 
HETATM    3  C3  UNL     1      96.863  13.883  18.027  1.00  0.00     0.249 C 
HETATM    4  O1  UNL     1      96.106  14.873  18.147  1.00  0.00    -0.271 OA
ATOM      5  H2  UNL     1      98.861  13.256  17.865  1.00  0.00     0.163 HD
BRANCH   3   6
HETATM    6  C1  UNL     1      96.280  12.538  17.953  1.00  0.00     0.284 C 
BRANCH   6   7
HETATM    7  N1  UNL     1      97.150  11.550  18.569  1.00  0.00    -0.066 N 
ATOM      8  H13 UNL     1      96.863  11.294  19.513  1.00  0.00     0.275 HD
ATOM      9  H12 UNL     1      97.064  10.622  18.154  1.00  0.00     0.275 HD
ATOM     10  H11 UNL     1      98.096  11.926  18.524  1.00  0.00     0.275 HD
ENDBRANCH   6   7
BRANCH   6  11
HETATM   11  C2  UNL     1      94.956  12.471  18.691  1.00  0.00     0.128 C 
HETATM   12  S1  UNL     1      94.814  10.870  19.489  1.00  0.00    -0.095 SA
ENDBRANCH   6  11
ENDBRANCH   3   6
ENDBRANCH   1   2
BRANCH   1  13
HETATM   13  C5  UNL     1      98.830  16.077  16.722  1.00  0.00     0.246 C 
HETATM   14  O2  UNL     1      98.188  17.145  16.610  1.00  0.00    -0.271 OA
HETATM   15  N3  UNL     1      99.502  15.536  15.631  1.00  0.00    -0.304 N 
ATOM     16  H3  UNL     1      99.391  14.536  15.464  1.00  0.00     0.171 HD
BRANCH  15  17
HETATM   17  C6  UNL     1     100.252  16.190  14.812  1.00  0.00     0.169 A 
HETATM   18  N4  UNL     1     100.752  17.425  14.884  1.00  0.00    -0.310 N 
HETATM   19  C7  UNL     1     101.493  17.843  13.897  1.00  0.00     0.232 A 
ATOM     20  H4  UNL     1     100.559  18.024  15.687  1.00  0.00     0.170 HD
HETATM   21  N6  UNL     1     101.711  17.014  12.875  1.00  0.00    -0.298 N 
HETATM   22  S3  UNL     1     100.851  15.630  13.324  1.00  0.00     0.025 SA
ATOM     23  H6  UNL     1     102.260  17.176  12.032  1.00  0.00     0.176 HD
BRANCH  19  24
HETATM   24  S2  UNL     1     102.235  19.461  13.838  1.00  0.00     0.289 S 
HETATM   25  O3  UNL     1     102.124  20.120  15.186  1.00  0.00    -0.198 OA
HETATM   26  O4  UNL     1     101.502  20.329  12.861  1.00  0.00    -0.198 OA
BRANCH  24  27
HETATM   27  N5  UNL     1     103.908  19.356  13.448  1.00  0.00    -0.322 N 
ATOM     28  H52 UNL     1     104.332  18.553  12.984  1.00  0.00     0.169 HD
ATOM     29  H51 UNL     1     104.404  20.197  13.743  1.00  0.00     0.169 HD
ENDBRANCH  24  27
ENDBRANCH  19  24
ENDBRANCH  15  17
ENDBRANCH   1  13
BRANCH   1  30
HETATM   30  C8  UNL     1     100.291  15.198  18.523  1.00  0.00     0.018 C 
HETATM   31  C9  UNL     1     101.084  16.481  18.554  1.00  0.00     0.007 C 
HETATM   32  C10 UNL     1     102.172  16.300  19.616  1.00  0.00     0.000 C 
HETATM   33  C11 UNL     1     101.615  16.266  21.001  1.00  0.00     0.000 C 
HETATM   34  C12 UNL     1     100.267  15.589  20.974  1.00  0.00     0.000 C 
HETATM   35  C13 UNL     1     100.304  14.546  19.869  1.00  0.00     0.007 C 
ENDBRANCH   1  30
TORSDOF 9
ENDMDL
MODEL 5
REMARK VINA RESULT: -7.340778674      3.325      4.602
REMARK  9 active torsions:
REMARK  status: ('A' for Active; 'I' for Inactive)
REMARK    1  A    between atoms: N1_1  and  C1_5 
REMARK    2  A    between atoms: C1_5  and  C2_6 
REMARK    3  A    between atoms: C1_5  and  C3_8 
REMARK       I    between atoms: C3_8  and  N2_10 
REMARK    4  A    between atoms: N2_10  and  C4_12 
REMARK    5  A    between atoms: C4_12  and  C5_13 
REMARK    6  A    between atoms: C4_12  and  C8_30 
REMARK       I    between atoms: C5_13  and  N3_15 
REMARK    7  A    between atoms: N3_15  and  C6_17 
REMARK    8  A    between atoms: C7_20  and  S2_21 
REMARK    9  A    between atoms: S2_21  and  N5_22 
ROOT
HETATM    1  C4  UNL     1      98.216  15.109  18.114  1.00  0.00     0.181 C 
ENDROOT
BRANCH   1   2
HETATM    2  N2  UNL     1      97.740  13.743  17.924  1.00  0.00    -0.346 N 
HETATM    3  C3  UNL     1      96.600  13.245  18.586  1.00  0.00     0.249 C 
HETATM    4  O1  UNL     1      95.961  13.986  19.367  1.00  0.00    -0.271 OA
ATOM      5  H2  UNL     1      98.250  13.128  17.290  1.00  0.00     0.163 HD
BRANCH   3   6
HETATM    6  C1  UNL     1      96.148  11.865  18.371  1.00  0.00     0.284 C 
BRANCH   6   7
HETATM    7  N1  UNL     1      96.917  10.925  19.170  1.00  0.00    -0.066 N 
ATOM      8  H13 UNL     1      96.435  10.626  20.016  1.00  0.00     0.275 HD
ATOM      9  H12 UNL     1      97.001  10.005  18.738  1.00  0.00     0.275 HD
ATOM     10  H11 UNL     1      97.817  11.368  19.353  1.00  0.00     0.275 HD
ENDBRANCH   6   7
BRANCH   6  11
HETATM   11  C2  UNL     1      94.696  11.693  18.779  1.00  0.00     0.128 C 
HETATM   12  S1  UNL     1      93.644  12.257  17.438  1.00  0.00    -0.095 SA
ENDBRANCH   6  11
ENDBRANCH   3   6
ENDBRANCH   1   2
BRANCH   1  13
HETATM   13  C5  UNL     1      97.816  15.982  16.989  1.00  0.00     0.246 C 
HETATM   14  O2  UNL     1      98.075  15.624  15.818  1.00  0.00    -0.271 OA
HETATM   15  N3  UNL     1      97.160  17.183  17.235  1.00  0.00    -0.304 N 
ATOM     16  H3  UNL     1      97.537  17.779  17.972  1.00  0.00     0.171 HD
BRANCH  15  17
HETATM   17  C6  UNL     1      96.116  17.609  16.610  1.00  0.00     0.169 A 
HETATM   18  N4  UNL     1      95.233  16.963  15.846  1.00  0.00    -0.310 N 
HETATM   19  C7  UNL     1      94.254  17.650  15.328  1.00  0.00     0.232 A 
ATOM     20  H4  UNL     1      95.321  15.961  15.673  1.00  0.00     0.170 HD
HETATM   21  N6  UNL     1      94.191  18.956  15.591  1.00  0.00    -0.298 N 
HETATM   22  S3  UNL     1      95.537  19.206  16.583  1.00  0.00     0.025 SA
ATOM     23  H6  UNL     1      93.501  19.636  15.271  1.00  0.00     0.176 HD
BRANCH  19  24
HETATM   24  S2  UNL     1      92.993  16.941  14.288  1.00  0.00     0.289 S 
HETATM   25  O3  UNL     1      91.703  17.692  14.471  1.00  0.00    -0.198 OA
HETATM   26  O4  UNL     1      92.737  15.519  14.687  1.00  0.00    -0.198 OA
BRANCH  24  27
HETATM   27  N5  UNL     1      93.430  17.056  12.628  1.00  0.00    -0.322 N 
ATOM     28  H52 UNL     1      93.307  17.899  12.067  1.00  0.00     0.169 HD
ATOM     29  H51 UNL     1      93.822  16.176  12.293  1.00  0.00     0.169 HD
ENDBRANCH  24  27
ENDBRANCH  19  24
ENDBRANCH  15  17
ENDBRANCH   1  13
BRANCH   1  30
HETATM   30  C8  UNL     1      99.725  15.034  18.257  1.00  0.00     0.018 C 
HETATM   31  C9  UNL     1     100.391  16.384  18.162  1.00  0.00     0.007 C 
HETATM   32  C10 UNL     1     101.706  16.280  18.939  1.00  0.00     0.000 C 
HETATM   33  C11 UNL     1     101.490  16.163  20.411  1.00  0.00     0.000 C 
HETATM   34  C12 UNL     1     100.235  15.365  20.663  1.00  0.00     0.000 C 
HETATM   35  C13 UNL     1     100.104  14.356  19.535  1.00  0.00     0.007 C 
ENDBRANCH   1  30
TORSDOF 9
ENDMDL
