MODEL 1
REMARK VINA RESULT: -7.002981502      0.000      0.000
REMARK  13 active torsions:
REMARK  status: ('A' for Active; 'I' for Inactive)
REMARK    1  A    between atoms: O1_2  and  C2_3 
REMARK    2  A    between atoms: C2_3  and  C3_5 
REMARK    3  A    between atoms: C3_5  and  N1_6 
REMARK    4  A    between atoms: C3_5  and  C4_10 
REMARK    5  A    between atoms: C4_10  and  O3_11 
REMARK    6  A    between atoms: C4_10  and  C5_13 
REMARK    7  A    between atoms: C5_13  and  O4_14 
REMARK    8  A    between atoms: C5_13  and  C6_16 
REMARK    9  A    between atoms: C7_17  and  C8_18 
REMARK   10  A    between atoms: C10_22  and  O7_23 
REMARK   11  A    between atoms: C17_31  and  N2_32 
REMARK   12  A    between atoms: N2_32  and  N3_34 
REMARK   13  A    between atoms: N3_34  and  N4_35 
ROOT
HETATM    1  C6  UNL     1      98.134  14.814  17.021  1.00  0.00     0.041 C 
HETATM    2  C7  UNL     1      99.448  15.478  17.251  1.00  0.00     0.097 C 
HETATM    3  C9  UNL     1      99.182  16.978  16.846  1.00  0.00     0.054 C 
HETATM    4  C10 UNL     1      98.399  16.781  15.653  1.00  0.00     0.066 C 
HETATM    5  C11 UNL     1      97.164  17.614  15.454  1.00  0.00     0.045 C 
HETATM    6  C12 UNL     1      96.596  16.773  14.314  1.00  0.00     0.020 C 
HETATM    7  C13 UNL     1      95.415  17.280  13.680  1.00  0.00     0.007 C 
HETATM    8  C14 UNL     1      94.088  16.931  14.293  1.00  0.00     0.001 C 
HETATM    9  C15 UNL     1      94.150  15.436  14.524  1.00  0.00     0.002 C 
HETATM   10  C16 UNL     1      95.222  15.254  15.619  1.00  0.00     0.034 C 
HETATM   11  C17 UNL     1      96.539  15.409  15.019  1.00  0.00     0.070 C 
HETATM   12  C18 UNL     1      97.794  15.375  15.697  1.00  0.00     0.058 C 
ENDROOT
BRANCH   1  13
HETATM   13  C5  UNL     1      97.224  14.697  18.102  1.00  0.00     0.155 C 
BRANCH  13  14
HETATM   14  C4  UNL     1      96.546  13.395  18.386  1.00  0.00     0.187 C 
BRANCH  14  15
HETATM   15  C3  UNL     1      97.212  12.520  19.445  1.00  0.00     0.313 C 
BRANCH  15  16
HETATM   16  C2  UNL     1      96.556  11.192  19.546  1.00  0.00     0.291 C 
HETATM   17  O2  UNL     1      97.137  10.196  19.085  1.00  0.00    -0.263 OA
BRANCH  16  18
HETATM   18  O1  UNL     1      95.335  11.058  20.131  1.00  0.00    -0.325 OA
HETATM   19  C1  UNL     1      94.148  10.663  19.477  1.00  0.00     0.213 C 
ENDBRANCH  16  18
ENDBRANCH  15  16
BRANCH  15  20
HETATM   20  N1  UNL     1      98.618  12.452  19.379  1.00  0.00    -0.063 N 
ATOM     21  H13 UNL     1      98.938  11.491  19.495  1.00  0.00     0.275 HD
ATOM     22  H12 UNL     1      98.943  12.627  18.429  1.00  0.00     0.275 HD
ATOM     23  H11 UNL     1      99.088  13.070  20.039  1.00  0.00     0.275 HD
ENDBRANCH  15  20
ENDBRANCH  14  15
BRANCH  14  24
HETATM   24  O3  UNL     1      96.697  12.587  17.177  1.00  0.00    -0.390 OA
ATOM     25  H3  UNL     1      97.019  13.223  16.549  1.00  0.00     0.210 HD
ENDBRANCH  14  24
ENDBRANCH  13  14
BRANCH  13  26
HETATM   26  O4  UNL     1      97.888  14.982  19.378  1.00  0.00    -0.393 OA
ATOM     27  H4  UNL     1      98.309  14.152  19.572  1.00  0.00     0.210 HD
ENDBRANCH  13  26
ENDBRANCH   1  13
BRANCH   2  28
HETATM   28  C8  UNL     1     100.161  15.481  18.477  1.00  0.00     0.177 C 
HETATM   29  O5  UNL     1     100.382  16.531  19.112  1.00  0.00    -0.648 OA
HETATM   30  O6  UNL     1     100.663  14.329  19.057  1.00  0.00    -0.648 OA
ENDBRANCH   2  28
BRANCH   4  31
HETATM   31  O7  UNL     1      99.187  17.006  14.524  1.00  0.00    -0.389 OA
ATOM     32  H7  UNL     1      99.888  17.612  14.733  1.00  0.00     0.210 HD
ENDBRANCH   4  31
BRANCH  11  33
HETATM   33  N2  UNL     1      96.507  14.473  13.860  1.00  0.00    -0.242 N 
ATOM     34  H2  UNL     1      96.164  14.787  12.952  1.00  0.00     0.198 HD
BRANCH  33  35
HETATM   35  N3  UNL     1      96.891  13.332  14.009  1.00  0.00    -0.248 NA
BRANCH  35  36
HETATM   36  N4  UNL     1      97.051  12.132  14.140  1.00  0.00    -0.261 N 
ATOM     37  H42 UNL     1      97.687  12.307  14.918  1.00  0.00     0.193 HD
ATOM     38  H41 UNL     1      97.060  11.112  14.098  1.00  0.00     0.193 HD
ENDBRANCH  35  36
ENDBRANCH  33  35
ENDBRANCH  11  33
TORSDOF 13
ENDMDL
MODEL 2
REMARK VINA RESULT: -6.944959258      2.634      5.706
REMARK  13 active torsions:
REMARK  status: ('A' for Active; 'I' for Inactive)
REMARK    1  A    between atoms: O1_2  and  C2_3 
REMARK    2  A    between atoms: C2_3  and  C3_5 
REMARK    3  A    between atoms: C3_5  and  N1_6 
REMARK    4  A    between atoms: C3_5  and  C4_10 
REMARK    5  A    between atoms: C4_10  and  O3_11 
REMARK    6  A    between atoms: C4_10  and  C5_13 
REMARK    7  A    between atoms: C5_13  and  O4_14 
REMARK    8  A    between atoms: C5_13  and  C6_16 
REMARK    9  A    between atoms: C7_17  and  C8_18 
REMARK   10  A    between atoms: C10_22  and  O7_23 
REMARK   11  A    between atoms: C17_31  and  N2_32 
REMARK   12  A    between atoms: N2_32  and  N3_34 
REMARK   13  A    between atoms: N3_34  and  N4_35 
ROOT
HETATM    1  C6  UNL     1      96.964  14.639  18.356  1.00  0.00     0.041 C 
HETATM    2  C7  UNL     1      97.627  13.782  19.379  1.00  0.00     0.097 C 
HETATM    3  C9  UNL     1      97.177  12.323  18.989  1.00  0.00     0.054 C 
HETATM    4  C10 UNL     1      95.788  12.560  18.687  1.00  0.00     0.066 C 
HETATM    5  C11 UNL     1      95.200  11.935  17.454  1.00  0.00     0.045 C 
HETATM    6  C12 UNL     1      93.925  12.774  17.452  1.00  0.00     0.020 C 
HETATM    7  C13 UNL     1      92.940  12.427  16.470  1.00  0.00     0.007 C 
HETATM    8  C14 UNL     1      93.070  13.039  15.104  1.00  0.00     0.001 C 
HETATM    9  C15 UNL     1      93.289  14.515  15.360  1.00  0.00     0.002 C 
HETATM   10  C16 UNL     1      94.677  14.593  16.031  1.00  0.00     0.034 C 
HETATM   11  C17 UNL     1      94.552  14.175  17.420  1.00  0.00     0.070 C 
HETATM   12  C18 UNL     1      95.609  14.048  18.369  1.00  0.00     0.058 C 
ENDROOT
BRANCH   1  13
HETATM   13  C5  UNL     1      97.678  14.987  17.182  1.00  0.00     0.155 C 
BRANCH  13  14
HETATM   14  C4  UNL     1      98.043  16.410  16.909  1.00  0.00     0.187 C 
BRANCH  14  15
HETATM   15  C3  UNL     1      98.400  16.736  15.461  1.00  0.00     0.313 C 
BRANCH  15  16
HETATM   16  C2  UNL     1      99.697  17.451  15.367  1.00  0.00     0.291 C 
HETATM   17  O2  UNL     1      99.711  18.689  15.471  1.00  0.00    -0.263 OA
BRANCH  16  18
HETATM   18  O1  UNL     1     100.858  16.772  15.168  1.00  0.00    -0.325 OA
HETATM   19  C1  UNL     1     102.156  17.319  15.252  1.00  0.00     0.213 C 
ENDBRANCH  16  18
ENDBRANCH  15  16
BRANCH  15  20
HETATM   20  N1  UNL     1      98.277  15.666  14.551  1.00  0.00    -0.063 N 
ATOM     21  H13 UNL     1      99.029  14.991  14.685  1.00  0.00     0.275 HD
ATOM     22  H12 UNL     1      97.478  15.080  14.791  1.00  0.00     0.275 HD
ATOM     23  H11 UNL     1      98.227  15.961  13.577  1.00  0.00     0.275 HD
ENDBRANCH  15  20
ENDBRANCH  14  15
BRANCH  14  24
HETATM   24  O3  UNL     1      99.309  16.645  17.600  1.00  0.00    -0.390 OA
ATOM     25  H3  UNL     1      99.488  15.795  17.986  1.00  0.00     0.210 HD
ENDBRANCH  14  24
ENDBRANCH  13  14
BRANCH  13  26
HETATM   26  O4  UNL     1      98.984  14.323  17.148  1.00  0.00    -0.393 OA
ATOM     27  H4  UNL     1      98.823  13.540  17.663  1.00  0.00     0.210 HD
ENDBRANCH  13  26
ENDBRANCH   1  13
BRANCH   2  28
HETATM   28  C8  UNL     1      99.021  13.749  19.641  1.00  0.00     0.177 C 
HETATM   29  O5  UNL     1      99.674  12.687  19.618  1.00  0.00    -0.648 OA
HETATM   30  O6  UNL     1      99.757  14.883  19.939  1.00  0.00    -0.648 OA
ENDBRANCH   2  28
BRANCH   4  31
HETATM   31  O7  UNL     1      94.990  12.124  19.745  1.00  0.00    -0.389 OA
ATOM     32  H7  UNL     1      94.475  11.372  19.474  1.00  0.00     0.210 HD
ENDBRANCH   4  31
BRANCH  11  33
HETATM   33  N2  UNL     1      93.437  15.016  17.938  1.00  0.00    -0.242 N 
ATOM     34  H2  UNL     1      92.913  15.624  17.308  1.00  0.00     0.198 HD
BRANCH  33  35
HETATM   35  N3  UNL     1      93.159  14.970  19.118  1.00  0.00    -0.248 NA
BRANCH  35  36
HETATM   36  N4  UNL     1      92.666  14.871  20.227  1.00  0.00    -0.261 N 
ATOM     37  H42 UNL     1      93.255  14.059  20.410  1.00  0.00     0.193 HD
ATOM     38  H41 UNL     1      92.147  14.945  21.103  1.00  0.00     0.193 HD
ENDBRANCH  35  36
ENDBRANCH  33  35
ENDBRANCH  11  33
TORSDOF 13
ENDMDL
MODEL 3
REMARK VINA RESULT: -6.932873412      2.803      5.722
REMARK  13 active torsions:
REMARK  status: ('A' for Active; 'I' for Inactive)
REMARK    1  A    between atoms: O1_2  and  C2_3 
REMARK    2  A    between atoms: C2_3  and  C3_5 
REMARK    3  A    between atoms: C3_5  and  N1_6 
REMARK    4  A    between atoms: C3_5  and  C4_10 
REMARK    5  A    between atoms: C4_10  and  O3_11 
REMARK    6  A    between atoms: C4_10  and  C5_13 
REMARK    7  A    between atoms: C5_13  and  O4_14 
REMARK    8  A    between atoms: C5_13  and  C6_16 
REMARK    9  A    between atoms: C7_17  and  C8_18 
REMARK   10  A    between atoms: C10_22  and  O7_23 
REMARK   11  A    between atoms: C17_31  and  N2_32 
REMARK   12  A    between atoms: N2_32  and  N3_34 
REMARK   13  A    between atoms: N3_34  and  N4_35 
ROOT
HETATM    1  C6  UNL     1      97.530  15.380  17.407  1.00  0.00     0.041 C 
HETATM    2  C7  UNL     1      98.368  15.060  18.596  1.00  0.00     0.097 C 
HETATM    3  C9  UNL     1      98.091  13.528  18.843  1.00  0.00     0.054 C 
HETATM    4  C10 UNL     1      96.666  13.492  18.633  1.00  0.00     0.066 C 
HETATM    5  C11 UNL     1      96.086  12.381  17.804  1.00  0.00     0.045 C 
HETATM    6  C12 UNL     1      94.713  13.025  17.628  1.00  0.00     0.020 C 
HETATM    7  C13 UNL     1      93.721  12.228  16.968  1.00  0.00     0.007 C 
HETATM    8  C14 UNL     1      93.677  12.268  15.467  1.00  0.00     0.001 C 
HETATM    9  C15 UNL     1      93.714  13.740  15.117  1.00  0.00     0.002 C 
HETATM   10  C16 UNL     1      95.120  14.209  15.547  1.00  0.00     0.034 C 
HETATM   11  C17 UNL     1      95.145  14.356  16.995  1.00  0.00     0.070 C 
HETATM   12  C18 UNL     1      96.270  14.712  17.796  1.00  0.00     0.058 C 
ENDROOT
BRANCH   1  13
HETATM   13  C5  UNL     1      98.112  15.309  16.116  1.00  0.00     0.155 C 
BRANCH  13  14
HETATM   14  C4  UNL     1      98.512  16.556  15.394  1.00  0.00     0.187 C 
BRANCH  14  15
HETATM   15  C3  UNL     1     100.010  16.728  15.153  1.00  0.00     0.313 C 
BRANCH  15  16
HETATM   16  C2  UNL     1     100.363  16.498  13.730  1.00  0.00     0.291 C 
HETATM   17  O2  UNL     1     100.236  15.358  13.254  1.00  0.00    -0.263 OA
BRANCH  16  18
HETATM   18  O1  UNL     1     100.820  17.514  12.950  1.00  0.00    -0.325 OA
HETATM   19  C1  UNL     1     101.993  17.485  12.165  1.00  0.00     0.213 C 
ENDBRANCH  16  18
ENDBRANCH  15  16
BRANCH  15  20
HETATM   20  N1  UNL     1     100.581  17.896  15.696  1.00  0.00    -0.063 N 
ATOM     21  H13 UNL     1     100.682  18.614  14.979  1.00  0.00     0.275 HD
ATOM     22  H12 UNL     1      99.921  18.366  16.316  1.00  0.00     0.275 HD
ATOM     23  H11 UNL     1     101.468  17.735  16.172  1.00  0.00     0.275 HD
ENDBRANCH  15  20
ENDBRANCH  14  15
BRANCH  14  24
HETATM   24  O3  UNL     1      98.215  17.663  16.301  1.00  0.00    -0.390 OA
ATOM     25  H3  UNL     1      97.986  17.210  17.104  1.00  0.00     0.210 HD
ENDBRANCH  14  24
ENDBRANCH  13  14
BRANCH  13  26
HETATM   26  O4  UNL     1      99.369  14.556  16.149  1.00  0.00    -0.393 OA
ATOM     27  H4  UNL     1      99.827  14.966  16.874  1.00  0.00     0.210 HD
ENDBRANCH  13  26
ENDBRANCH   1  13
BRANCH   2  28
HETATM   28  C8  UNL     1      99.768  15.266  18.692  1.00  0.00     0.177 C 
HETATM   29  O5  UNL     1     100.555  14.345  18.986  1.00  0.00    -0.648 OA
HETATM   30  O6  UNL     1     100.363  16.496  18.469  1.00  0.00    -0.648 OA
ENDBRANCH   2  28
BRANCH   4  31
HETATM   31  O7  UNL     1      96.005  13.428  19.859  1.00  0.00    -0.389 OA
ATOM     32  H7  UNL     1      95.975  14.290  20.257  1.00  0.00     0.210 HD
ENDBRANCH   4  31
BRANCH  11  33
HETATM   33  N2  UNL     1      93.965  15.220  17.278  1.00  0.00    -0.242 N 
ATOM     34  H2  UNL     1      93.562  15.801  16.542  1.00  0.00     0.198 HD
BRANCH  33  35
HETATM   35  N3  UNL     1      93.487  15.225  18.393  1.00  0.00    -0.248 NA
BRANCH  35  36
HETATM   36  N4  UNL     1      92.808  15.184  19.403  1.00  0.00    -0.261 N 
ATOM     37  H42 UNL     1      92.389  14.312  19.077  1.00  0.00     0.193 HD
ATOM     38  H41 UNL     1      92.329  15.316  20.294  1.00  0.00     0.193 HD
ENDBRANCH  35  36
ENDBRANCH  33  35
ENDBRANCH  11  33
TORSDOF 13
ENDMDL
MODEL 4
REMARK VINA RESULT: -6.895795365      3.082      5.210
REMARK  13 active torsions:
REMARK  status: ('A' for Active; 'I' for Inactive)
REMARK    1  A    between atoms: O1_2  and  C2_3 
REMARK    2  A    between atoms: C2_3  and  C3_5 
REMARK    3  A    between atoms: C3_5  and  N1_6 
REMARK    4  A    between atoms: C3_5  and  C4_10 
REMARK    5  A    between atoms: C4_10  and  O3_11 
REMARK    6  A    between atoms: C4_10  and  C5_13 
REMARK    7  A    between atoms: C5_13  and  O4_14 
REMARK    8  A    between atoms: C5_13  and  C6_16 
REMARK    9  A    between atoms: C7_17  and  C8_18 
REMARK   10  A    between atoms: C10_22  and  O7_23 
REMARK   11  A    between atoms: C17_31  and  N2_32 
REMARK   12  A    between atoms: N2_32  and  N3_34 
REMARK   13  A    between atoms: N3_34  and  N4_35 
ROOT
HETATM    1  C6  UNL     1      98.423  15.959  17.461  1.00  0.00     0.041 C 
HETATM    2  C7  UNL     1      97.245  15.084  17.200  1.00  0.00     0.097 C 
HETATM    3  C9  UNL     1      97.560  14.450  15.792  1.00  0.00     0.054 C 
HETATM    4  C10 UNL     1      98.069  15.608  15.102  1.00  0.00     0.066 C 
HETATM    5  C11 UNL     1      99.308  15.464  14.267  1.00  0.00     0.045 C 
HETATM    6  C12 UNL     1      99.561  16.961  14.110  1.00  0.00     0.020 C 
HETATM    7  C13 UNL     1     100.633  17.335  13.236  1.00  0.00     0.007 C 
HETATM    8  C14 UNL     1     102.018  17.396  13.815  1.00  0.00     0.001 C 
HETATM    9  C15 UNL     1     101.869  18.195  15.092  1.00  0.00     0.002 C 
HETATM   10  C16 UNL     1     101.025  17.295  16.019  1.00  0.00     0.034 C 
HETATM   11  C17 UNL     1      99.634  17.355  15.593  1.00  0.00     0.070 C 
HETATM   12  C18 UNL     1      98.541  16.624  16.147  1.00  0.00     0.058 C 
ENDROOT
BRANCH   1  13
HETATM   13  C5  UNL     1      99.515  15.441  18.202  1.00  0.00     0.155 C 
BRANCH  13  14
HETATM   14  C4  UNL     1      99.651  15.737  19.661  1.00  0.00     0.187 C 
BRANCH  14  15
HETATM   15  C3  UNL     1     101.026  16.224  20.111  1.00  0.00     0.313 C 
BRANCH  15  16
HETATM   16  C2  UNL     1     101.229  16.015  21.566  1.00  0.00     0.291 C 
HETATM   17  O2  UNL     1     102.378  15.813  21.992  1.00  0.00    -0.263 OA
BRANCH  16  18
HETATM   18  O1  UNL     1     100.178  16.042  22.429  1.00  0.00    -0.325 OA
HETATM   19  C1  UNL     1     100.267  15.983  23.837  1.00  0.00     0.213 C 
ENDBRANCH  16  18
ENDBRANCH  15  16
BRANCH  15  20
HETATM   20  N1  UNL     1     102.110  15.792  19.321  1.00  0.00    -0.063 N 
ATOM     21  H13 UNL     1     102.738  16.569  19.116  1.00  0.00     0.275 HD
ATOM     22  H12 UNL     1     102.741  15.204  19.865  1.00  0.00     0.275 HD
ATOM     23  H11 UNL     1     101.829  15.320  18.463  1.00  0.00     0.275 HD
ENDBRANCH  15  20
ENDBRANCH  14  15
BRANCH  14  24
HETATM   24  O3  UNL     1      99.537  14.452  20.348  1.00  0.00    -0.390 OA
ATOM     25  H3  UNL     1     100.370  14.042  20.148  1.00  0.00     0.210 HD
ENDBRANCH  14  24
ENDBRANCH  13  14
BRANCH  13  26
HETATM   26  O4  UNL     1      99.510  13.975  18.185  1.00  0.00    -0.393 OA
ATOM     27  H4  UNL     1      98.580  13.780  18.175  1.00  0.00     0.210 HD
ENDBRANCH  13  26
ENDBRANCH   1  13
BRANCH   2  28
HETATM   28  C8  UNL     1      96.793  14.043  18.051  1.00  0.00     0.177 C 
HETATM   29  O5  UNL     1      96.574  14.227  19.265  1.00  0.00    -0.648 OA
HETATM   30  O6  UNL     1      96.564  12.754  17.604  1.00  0.00    -0.648 OA
ENDBRANCH   2  28
BRANCH   4  31
HETATM   31  O7  UNL     1      97.095  16.116  14.242  1.00  0.00    -0.389 OA
ATOM     32  H7  UNL     1      97.505  16.624  13.551  1.00  0.00     0.210 HD
ENDBRANCH   4  31
BRANCH  11  33
HETATM   33  N2  UNL     1      99.351  18.816  15.530  1.00  0.00    -0.242 N 
ATOM     34  H2  UNL     1     100.074  19.493  15.778  1.00  0.00     0.198 HD
BRANCH  33  35
HETATM   35  N3  UNL     1      98.252  19.193  15.181  1.00  0.00    -0.248 NA
BRANCH  35  36
HETATM   36  N4  UNL     1      97.170  19.406  14.666  1.00  0.00    -0.261 N 
ATOM     37  H42 UNL     1      96.906  19.976  15.470  1.00  0.00     0.193 HD
ATOM     38  H41 UNL     1      96.330  19.472  14.089  1.00  0.00     0.193 HD
ENDBRANCH  35  36
ENDBRANCH  33  35
ENDBRANCH  11  33
TORSDOF 13
ENDMDL
MODEL 5
REMARK VINA RESULT: -6.866423338      2.547      5.659
REMARK  13 active torsions:
REMARK  status: ('A' for Active; 'I' for Inactive)
REMARK    1  A    between atoms: O1_2  and  C2_3 
REMARK    2  A    between atoms: C2_3  and  C3_5 
REMARK    3  A    between atoms: C3_5  and  N1_6 
REMARK    4  A    between atoms: C3_5  and  C4_10 
REMARK    5  A    between atoms: C4_10  and  O3_11 
REMARK    6  A    between atoms: C4_10  and  C5_13 
REMARK    7  A    between atoms: C5_13  and  O4_14 
REMARK    8  A    between atoms: C5_13  and  C6_16 
REMARK    9  A    between atoms: C7_17  and  C8_18 
REMARK   10  A    between atoms: C10_22  and  O7_23 
REMARK   11  A    between atoms: C17_31  and  N2_32 
REMARK   12  A    between atoms: N2_32  and  N3_34 
REMARK   13  A    between atoms: N3_34  and  N4_35 
ROOT
HETATM    1  C6  UNL     1      97.057  15.192  17.853  1.00  0.00     0.041 C 
HETATM    2  C7  UNL     1      97.951  14.609  18.893  1.00  0.00     0.097 C 
HETATM    3  C9  UNL     1      97.708  13.057  18.761  1.00  0.00     0.054 C 
HETATM    4  C10 UNL     1      96.276  13.038  18.604  1.00  0.00     0.066 C 
HETATM    5  C11 UNL     1      95.677  12.152  17.549  1.00  0.00     0.045 C 
HETATM    6  C12 UNL     1      94.288  12.784  17.590  1.00  0.00     0.020 C 
HETATM    7  C13 UNL     1      93.280  12.150  16.793  1.00  0.00     0.007 C 
HETATM    8  C14 UNL     1      93.171  12.560  15.351  1.00  0.00     0.001 C 
HETATM    9  C15 UNL     1      93.170  14.073  15.377  1.00  0.00     0.002 C 
HETATM   10  C16 UNL     1      94.586  14.456  15.855  1.00  0.00     0.034 C 
HETATM   11  C17 UNL     1      94.672  14.241  17.292  1.00  0.00     0.070 C 
HETATM   12  C18 UNL     1      95.825  14.417  18.113  1.00  0.00     0.058 C 
ENDROOT
BRANCH   1  13
HETATM   13  C5  UNL     1      97.583  15.458  16.564  1.00  0.00     0.155 C 
BRANCH  13  14
HETATM   14  C4  UNL     1      97.953  16.851  16.168  1.00  0.00     0.187 C 
BRANCH  14  15
HETATM   15  C3  UNL     1      97.738  17.199  14.697  1.00  0.00     0.313 C 
BRANCH  15  16
HETATM   16  C2  UNL     1      99.003  17.109  13.926  1.00  0.00     0.291 C 
HETATM   17  O2  UNL     1      99.536  18.154  13.517  1.00  0.00    -0.263 OA
BRANCH  16  18
HETATM   18  O1  UNL     1      99.578  15.905  13.663  1.00  0.00    -0.325 OA
HETATM   19  C1  UNL     1     100.922  15.699  13.285  1.00  0.00     0.213 C 
ENDBRANCH  16  18
ENDBRANCH  15  16
BRANCH  15  20
HETATM   20  N1  UNL     1      96.649  16.557  14.074  1.00  0.00    -0.063 N 
ATOM     21  H13 UNL     1      96.177  17.192  13.431  1.00  0.00     0.275 HD
ATOM     22  H12 UNL     1      96.976  15.855  13.412  1.00  0.00     0.275 HD
ATOM     23  H11 UNL     1      95.984  16.151  14.731  1.00  0.00     0.275 HD
ENDBRANCH  15  20
ENDBRANCH  14  15
BRANCH  14  24
HETATM   24  O3  UNL     1      99.406  16.937  16.298  1.00  0.00    -0.390 OA
ATOM     25  H3  UNL     1      99.651  16.029  16.431  1.00  0.00     0.210 HD
ENDBRANCH  14  24
ENDBRANCH  13  14
BRANCH  13  26
HETATM   26  O4  UNL     1      98.839  14.734  16.352  1.00  0.00    -0.393 OA
ATOM     27  H4  UNL     1      99.216  14.731  17.224  1.00  0.00     0.210 HD
ENDBRANCH  13  26
ENDBRANCH   1  13
BRANCH   2  28
HETATM   28  C8  UNL     1      99.350  14.821  18.983  1.00  0.00     0.177 C 
HETATM   29  O5  UNL     1     100.165  13.877  18.974  1.00  0.00    -0.648 OA
HETATM   30  O6  UNL     1      99.914  16.081  19.087  1.00  0.00    -0.648 OA
ENDBRANCH   2  28
BRANCH   4  31
HETATM   31  O7  UNL     1      95.671  12.655  19.801  1.00  0.00    -0.389 OA
ATOM     32  H7  UNL     1      95.976  13.209  20.510  1.00  0.00     0.210 HD
ENDBRANCH   4  31
BRANCH  11  33
HETATM   33  N2  UNL     1      93.492  14.978  17.826  1.00  0.00    -0.242 N 
ATOM     34  H2  UNL     1      92.908  15.537  17.204  1.00  0.00     0.198 HD
BRANCH  33  35
HETATM   35  N3  UNL     1      93.233  14.905  19.009  1.00  0.00    -0.248 NA
BRANCH  35  36
HETATM   36  N4  UNL     1      92.757  14.893  20.130  1.00  0.00    -0.261 N 
ATOM     37  H42 UNL     1      91.829  14.763  19.728  1.00  0.00     0.193 HD
ATOM     38  H41 UNL     1      92.544  14.908  21.128  1.00  0.00     0.193 HD
ENDBRANCH  35  36
ENDBRANCH  33  35
ENDBRANCH  11  33
TORSDOF 13
ENDMDL
