MODEL 1
REMARK VINA RESULT: -8.197699397      0.000      0.000
REMARK  10 active torsions:
REMARK  status: ('A' for Active; 'I' for Inactive)
REMARK       I    between atoms: C1_2  and  N2_3 
REMARK    1  A    between atoms: N2_3  and  O1_5 
REMARK    2  A    between atoms: N3_7  and  C2_9 
REMARK    3  A    between atoms: C2_9  and  C3_10 
REMARK    4  A    between atoms: C3_10  and  C4_11 
REMARK    5  A    between atoms: C4_11  and  C5_12 
REMARK    6  A    between atoms: C5_12  and  C6_13 
REMARK    7  A    between atoms: C6_13  and  C7_14 
REMARK    8  A    between atoms: C7_14  and  C8_15 
REMARK    9  A    between atoms: C8_15  and  C9_16 
REMARK   10  A    between atoms: C9_16  and  N4_17 
REMARK       I    between atoms: C10_19  and  N6_21 
ROOT
HETATM    1  C7  UNL     1     -12.467  40.517  45.332  1.00  0.00     0.002 C 
ENDROOT
BRANCH   1   2
HETATM    2  C6  UNL     1     -12.618  41.861  45.986  1.00  0.00     0.000 C 
BRANCH   2   3
HETATM    3  C5  UNL     1     -13.384  42.840  45.146  1.00  0.00     0.000 C 
BRANCH   3   4
HETATM    4  C4  UNL     1     -14.064  43.866  46.004  1.00  0.00     0.002 C 
BRANCH   4   5
HETATM    5  C3  UNL     1     -15.452  43.459  46.355  1.00  0.00     0.020 C 
BRANCH   5   6
HETATM    6  C2  UNL     1     -16.017  44.212  47.531  1.00  0.00     0.122 C 
BRANCH   6   7
HETATM    7  N3  UNL     1     -17.438  44.132  47.623  1.00  0.00    -0.363 N 
HETATM    8  C1  UNL     1     -18.182  44.819  48.404  1.00  0.00     0.208 C 
HETATM    9  N1  UNL     1     -19.570  44.644  48.397  1.00  0.00    -0.062 NA
HETATM   10  N2  UNL     1     -17.593  45.760  49.275  1.00  0.00    -0.241 N 
ATOM     11  H2  UNL     1     -17.088  46.573  48.922  1.00  0.00     0.197 HD
ATOM     12  H3  UNL     1     -17.905  43.465  47.009  1.00  0.00     0.162 HD
BRANCH  10  13
HETATM   13  O1  UNL     1     -17.723  45.545  50.511  1.00  0.00    -0.287 OA
ATOM     14  H1  UNL     1     -17.151  46.032  51.091  1.00  0.00     0.244 HD
ENDBRANCH  10  13
ENDBRANCH   6   7
ENDBRANCH   5   6
ENDBRANCH   4   5
ENDBRANCH   3   4
ENDBRANCH   2   3
ENDBRANCH   1   2
BRANCH   1  15
HETATM   15  C8  UNL     1     -12.498  40.580  43.840  1.00  0.00     0.020 C 
BRANCH  15  16
HETATM   16  C9  UNL     1     -11.922  39.322  43.271  1.00  0.00     0.122 C 
BRANCH  16  17
HETATM   17  N4  UNL     1     -12.235  39.237  41.868  1.00  0.00    -0.365 N 
HETATM   18  C10 UNL     1     -11.481  38.577  41.060  1.00  0.00     0.186 C 
HETATM   19  N5  UNL     1     -10.303  37.906  41.530  1.00  0.00    -0.064 NA
HETATM   20  N6  UNL     1     -11.861  38.542  39.690  1.00  0.00    -0.353 N 
HETATM   21  C11 UNL     1     -12.633  39.646  39.126  1.00  0.00     0.144 C 
HETATM   22  C14 UNL     1     -11.521  37.454  38.809  1.00  0.00     0.144 C 
HETATM   23  C12 UNL     1     -12.921  39.428  37.676  1.00  0.00     0.133 C 
HETATM   24  N7  UNL     1     -11.805  38.989  36.906  1.00  0.00    -0.418 N 
HETATM   25  C13 UNL     1     -11.078  37.890  37.453  1.00  0.00     0.133 C 
ATOM     26  H7  UNL     1     -11.543  39.431  36.025  1.00  0.00     0.153 HD
ATOM     27  H4  UNL     1     -13.066  39.706  41.509  1.00  0.00     0.162 HD
ENDBRANCH  16  17
ENDBRANCH  15  16
ENDBRANCH   1  15
TORSDOF 10
ENDMDL
MODEL 2
REMARK VINA RESULT: -8.056210672      3.615     11.341
REMARK  10 active torsions:
REMARK  status: ('A' for Active; 'I' for Inactive)
REMARK       I    between atoms: C1_2  and  N2_3 
REMARK    1  A    between atoms: N2_3  and  O1_5 
REMARK    2  A    between atoms: N3_7  and  C2_9 
REMARK    3  A    between atoms: C2_9  and  C3_10 
REMARK    4  A    between atoms: C3_10  and  C4_11 
REMARK    5  A    between atoms: C4_11  and  C5_12 
REMARK    6  A    between atoms: C5_12  and  C6_13 
REMARK    7  A    between atoms: C6_13  and  C7_14 
REMARK    8  A    between atoms: C7_14  and  C8_15 
REMARK    9  A    between atoms: C8_15  and  C9_16 
REMARK   10  A    between atoms: C9_16  and  N4_17 
REMARK       I    between atoms: C10_19  and  N6_21 
ROOT
HETATM    1  C7  UNL     1     -14.057  43.811  45.770  1.00  0.00     0.002 C 
ENDROOT
BRANCH   1   2
HETATM    2  C6  UNL     1     -13.627  42.730  44.820  1.00  0.00     0.000 C 
BRANCH   2   3
HETATM    3  C5  UNL     1     -13.657  41.362  45.435  1.00  0.00     0.000 C 
BRANCH   3   4
HETATM    4  C4  UNL     1     -12.276  40.782  45.523  1.00  0.00     0.002 C 
BRANCH   4   5
HETATM    5  C3  UNL     1     -11.685  40.558  44.176  1.00  0.00     0.020 C 
BRANCH   5   6
HETATM    6  C2  UNL     1     -12.272  39.373  43.455  1.00  0.00     0.122 C 
BRANCH   6   7
HETATM    7  N3  UNL     1     -11.738  39.187  42.145  1.00  0.00    -0.363 N 
HETATM    8  C1  UNL     1     -10.989  38.223  41.767  1.00  0.00     0.208 C 
HETATM    9  N1  UNL     1     -10.529  38.157  40.447  1.00  0.00    -0.062 NA
HETATM   10  N2  UNL     1     -10.628  37.220  42.691  1.00  0.00    -0.241 N 
ATOM     11  H2  UNL     1     -11.325  36.609  43.117  1.00  0.00     0.197 HD
ATOM     12  H3  UNL     1     -11.975  39.890  41.444  1.00  0.00     0.162 HD
BRANCH  10  13
HETATM   13  O1  UNL     1      -9.401  37.119  42.965  1.00  0.00    -0.287 OA
ATOM     14  H1  UNL     1      -8.960  36.335  42.660  1.00  0.00     0.244 HD
ENDBRANCH  10  13
ENDBRANCH   6   7
ENDBRANCH   5   6
ENDBRANCH   4   5
ENDBRANCH   3   4
ENDBRANCH   2   3
ENDBRANCH   1   2
BRANCH   1  15
HETATM   15  C8  UNL     1     -15.159  43.387  46.687  1.00  0.00     0.020 C 
BRANCH  15  16
HETATM   16  C9  UNL     1     -16.374  44.223  46.433  1.00  0.00     0.122 C 
BRANCH  16  17
HETATM   17  N4  UNL     1     -17.045  44.492  47.679  1.00  0.00    -0.365 N 
HETATM   18  C10 UNL     1     -18.317  44.687  47.716  1.00  0.00     0.186 C 
HETATM   19  N5  UNL     1     -19.107  44.645  46.519  1.00  0.00    -0.064 NA
HETATM   20  N6  UNL     1     -18.902  44.947  48.986  1.00  0.00    -0.353 N 
HETATM   21  C11 UNL     1     -18.102  45.573  50.036  1.00  0.00     0.144 C 
HETATM   22  C14 UNL     1     -20.269  44.619  49.301  1.00  0.00     0.144 C 
HETATM   23  C12 UNL     1     -18.898  45.772  51.285  1.00  0.00     0.133 C 
HETATM   24  N7  UNL     1     -20.199  46.317  51.082  1.00  0.00    -0.418 N 
HETATM   25  C13 UNL     1     -20.982  45.677  50.076  1.00  0.00     0.133 C 
ATOM     26  H7  UNL     1     -20.547  47.111  51.620  1.00  0.00     0.153 HD
ATOM     27  H4  UNL     1     -16.505  44.529  48.543  1.00  0.00     0.162 HD
ENDBRANCH  16  17
ENDBRANCH  15  16
ENDBRANCH   1  15
TORSDOF 10
ENDMDL
MODEL 3
REMARK VINA RESULT: -8.014597420      1.743      1.978
REMARK  10 active torsions:
REMARK  status: ('A' for Active; 'I' for Inactive)
REMARK       I    between atoms: C1_2  and  N2_3 
REMARK    1  A    between atoms: N2_3  and  O1_5 
REMARK    2  A    between atoms: N3_7  and  C2_9 
REMARK    3  A    between atoms: C2_9  and  C3_10 
REMARK    4  A    between atoms: C3_10  and  C4_11 
REMARK    5  A    between atoms: C4_11  and  C5_12 
REMARK    6  A    between atoms: C5_12  and  C6_13 
REMARK    7  A    between atoms: C6_13  and  C7_14 
REMARK    8  A    between atoms: C7_14  and  C8_15 
REMARK    9  A    between atoms: C8_15  and  C9_16 
REMARK   10  A    between atoms: C9_16  and  N4_17 
REMARK       I    between atoms: C10_19  and  N6_21 
ROOT
HETATM    1  C7  UNL     1     -12.498  40.718  44.336  1.00  0.00     0.002 C 
ENDROOT
BRANCH   1   2
HETATM    2  C6  UNL     1     -12.833  41.039  45.764  1.00  0.00     0.000 C 
BRANCH   2   3
HETATM    3  C5  UNL     1     -12.765  42.507  46.068  1.00  0.00     0.000 C 
BRANCH   3   4
HETATM    4  C4  UNL     1     -13.864  43.251  45.372  1.00  0.00     0.002 C 
BRANCH   4   5
HETATM    5  C3  UNL     1     -14.772  43.928  46.338  1.00  0.00     0.020 C 
BRANCH   5   6
HETATM    6  C2  UNL     1     -16.226  43.596  46.127  1.00  0.00     0.122 C 
BRANCH   6   7
HETATM    7  N3  UNL     1     -17.083  44.155  47.121  1.00  0.00    -0.363 N 
HETATM    8  C1  UNL     1     -18.339  44.360  47.002  1.00  0.00     0.208 C 
HETATM    9  N1  UNL     1     -19.069  44.920  48.057  1.00  0.00    -0.062 NA
HETATM   10  N2  UNL     1     -18.988  44.018  45.798  1.00  0.00    -0.241 N 
ATOM     11  H2  UNL     1     -19.042  43.052  45.475  1.00  0.00     0.197 HD
ATOM     12  H3  UNL     1     -16.654  44.417  48.008  1.00  0.00     0.162 HD
BRANCH  10  13
HETATM   13  O1  UNL     1     -19.499  44.966  45.141  1.00  0.00    -0.287 OA
ATOM     14  H1  UNL     1     -19.313  45.846  45.447  1.00  0.00     0.244 HD
ENDBRANCH  10  13
ENDBRANCH   6   7
ENDBRANCH   5   6
ENDBRANCH   4   5
ENDBRANCH   3   4
ENDBRANCH   2   3
ENDBRANCH   1   2
BRANCH   1  15
HETATM   15  C8  UNL     1     -11.117  40.176  44.161  1.00  0.00     0.020 C 
BRANCH  15  16
HETATM   16  C9  UNL     1     -11.189  38.785  43.613  1.00  0.00     0.122 C 
BRANCH  16  17
HETATM   17  N4  UNL     1     -12.118  38.746  42.512  1.00  0.00    -0.365 N 
HETATM   18  C10 UNL     1     -11.717  38.483  41.318  1.00  0.00     0.186 C 
HETATM   19  N5  UNL     1     -10.333  38.223  41.042  1.00  0.00    -0.064 NA
HETATM   20  N6  UNL     1     -12.698  38.464  40.288  1.00  0.00    -0.353 N 
HETATM   21  C11 UNL     1     -13.902  39.281  40.421  1.00  0.00     0.144 C 
HETATM   22  C14 UNL     1     -12.568  37.666  39.096  1.00  0.00     0.144 C 
HETATM   23  C12 UNL     1     -14.798  39.132  39.235  1.00  0.00     0.133 C 
HETATM   24  N7  UNL     1     -14.135  39.198  37.975  1.00  0.00    -0.418 N 
HETATM   25  C13 UNL     1     -12.979  38.372  37.847  1.00  0.00     0.133 C 
ATOM     26  H7  UNL     1     -14.465  39.795  37.217  1.00  0.00     0.153 HD
ATOM     27  H4  UNL     1     -13.106  38.929  42.682  1.00  0.00     0.162 HD
ENDBRANCH  16  17
ENDBRANCH  15  16
ENDBRANCH   1  15
TORSDOF 10
ENDMDL
MODEL 4
REMARK VINA RESULT: -8.011098001      0.857      1.014
REMARK  10 active torsions:
REMARK  status: ('A' for Active; 'I' for Inactive)
REMARK       I    between atoms: C1_2  and  N2_3 
REMARK    1  A    between atoms: N2_3  and  O1_5 
REMARK    2  A    between atoms: N3_7  and  C2_9 
REMARK    3  A    between atoms: C2_9  and  C3_10 
REMARK    4  A    between atoms: C3_10  and  C4_11 
REMARK    5  A    between atoms: C4_11  and  C5_12 
REMARK    6  A    between atoms: C5_12  and  C6_13 
REMARK    7  A    between atoms: C6_13  and  C7_14 
REMARK    8  A    between atoms: C7_14  and  C8_15 
REMARK    9  A    between atoms: C8_15  and  C9_16 
REMARK   10  A    between atoms: C9_16  and  N4_17 
REMARK       I    between atoms: C10_19  and  N6_21 
ROOT
HETATM    1  C7  UNL     1     -13.123  41.197  43.609  1.00  0.00     0.002 C 
ENDROOT
BRANCH   1   2
HETATM    2  C6  UNL     1     -13.496  42.567  44.101  1.00  0.00     0.000 C 
BRANCH   2   3
HETATM    3  C5  UNL     1     -13.267  42.744  45.573  1.00  0.00     0.000 C 
BRANCH   3   4
HETATM    4  C4  UNL     1     -14.156  43.817  46.130  1.00  0.00     0.002 C 
BRANCH   4   5
HETATM    5  C3  UNL     1     -15.456  43.266  46.600  1.00  0.00     0.020 C 
BRANCH   5   6
HETATM    6  C2  UNL     1     -16.640  44.112  46.208  1.00  0.00     0.122 C 
BRANCH   6   7
HETATM    7  N3  UNL     1     -17.685  44.105  47.179  1.00  0.00    -0.363 N 
HETATM    8  C1  UNL     1     -17.919  45.021  48.039  1.00  0.00     0.208 C 
HETATM    9  N1  UNL     1     -18.981  44.893  48.942  1.00  0.00    -0.062 NA
HETATM   10  N2  UNL     1     -17.098  46.168  48.074  1.00  0.00    -0.241 N 
ATOM     11  H2  UNL     1     -17.051  46.817  47.288  1.00  0.00     0.197 HD
ATOM     12  H3  UNL     1     -18.304  43.294  47.188  1.00  0.00     0.162 HD
BRANCH  10  13
HETATM   13  O1  UNL     1     -16.425  46.350  49.125  1.00  0.00    -0.287 OA
ATOM     14  H1  UNL     1     -15.488  46.212  49.060  1.00  0.00     0.244 HD
ENDBRANCH  10  13
ENDBRANCH   6   7
ENDBRANCH   5   6
ENDBRANCH   4   5
ENDBRANCH   3   4
ENDBRANCH   2   3
ENDBRANCH   1   2
BRANCH   1  15
HETATM   15  C8  UNL     1     -12.089  40.528  44.455  1.00  0.00     0.020 C 
BRANCH  15  16
HETATM   16  C9  UNL     1     -11.754  39.190  43.875  1.00  0.00     0.122 C 
BRANCH  16  17
HETATM   17  N4  UNL     1     -12.145  39.151  42.489  1.00  0.00    -0.365 N 
HETATM   18  C10 UNL     1     -11.437  38.519  41.619  1.00  0.00     0.186 C 
HETATM   19  N5  UNL     1     -10.235  37.834  42.001  1.00  0.00    -0.064 NA
HETATM   20  N6  UNL     1     -11.892  38.529  40.272  1.00  0.00    -0.353 N 
HETATM   21  C11 UNL     1     -12.693  39.652  39.789  1.00  0.00     0.144 C 
HETATM   22  C14 UNL     1     -11.603  37.472  39.338  1.00  0.00     0.144 C 
HETATM   23  C12 UNL     1     -13.061  39.482  38.350  1.00  0.00     0.133 C 
HETATM   24  N7  UNL     1     -11.989  39.070  37.506  1.00  0.00    -0.418 N 
HETATM   25  C13 UNL     1     -11.235  37.953  37.974  1.00  0.00     0.133 C 
ATOM     26  H7  UNL     1     -11.776  39.541  36.627  1.00  0.00     0.153 HD
ATOM     27  H4  UNL     1     -12.994  39.632  42.193  1.00  0.00     0.162 HD
ENDBRANCH  16  17
ENDBRANCH  15  16
ENDBRANCH   1  15
TORSDOF 10
ENDMDL
MODEL 5
REMARK VINA RESULT: -8.001032684      5.165      6.617
REMARK  10 active torsions:
REMARK  status: ('A' for Active; 'I' for Inactive)
REMARK       I    between atoms: C1_2  and  N2_3 
REMARK    1  A    between atoms: N2_3  and  O1_5 
REMARK    2  A    between atoms: N3_7  and  C2_9 
REMARK    3  A    between atoms: C2_9  and  C3_10 
REMARK    4  A    between atoms: C3_10  and  C4_11 
REMARK    5  A    between atoms: C4_11  and  C5_12 
REMARK    6  A    between atoms: C5_12  and  C6_13 
REMARK    7  A    between atoms: C6_13  and  C7_14 
REMARK    8  A    between atoms: C7_14  and  C8_15 
REMARK    9  A    between atoms: C8_15  and  C9_16 
REMARK   10  A    between atoms: C9_16  and  N4_17 
REMARK       I    between atoms: C10_19  and  N6_21 
ROOT
HETATM    1  C7  UNL     1     -14.000  42.716  44.135  1.00  0.00     0.002 C 
ENDROOT
BRANCH   1   2
HETATM    2  C6  UNL     1     -13.268  42.697  45.447  1.00  0.00     0.000 C 
BRANCH   2   3
HETATM    3  C5  UNL     1     -12.357  41.515  45.594  1.00  0.00     0.000 C 
BRANCH   3   4
HETATM    4  C4  UNL     1     -13.142  40.254  45.805  1.00  0.00     0.002 C 
BRANCH   4   5
HETATM    5  C3  UNL     1     -12.735  39.184  44.855  1.00  0.00     0.020 C 
BRANCH   5   6
HETATM    6  C2  UNL     1     -11.309  39.312  44.387  1.00  0.00     0.122 C 
BRANCH   6   7
HETATM    7  N3  UNL     1     -11.177  39.292  42.966  1.00  0.00    -0.363 N 
HETATM    8  C1  UNL     1     -10.792  38.299  42.260  1.00  0.00     0.208 C 
HETATM    9  N1  UNL     1     -10.704  38.410  40.867  1.00  0.00    -0.062 NA
HETATM   10  N2  UNL     1     -10.455  37.084  42.893  1.00  0.00    -0.241 N 
ATOM     11  H2  UNL     1     -11.145  36.541  43.411  1.00  0.00     0.197 HD
ATOM     12  H3  UNL     1     -11.412  40.150  42.467  1.00  0.00     0.162 HD
BRANCH  10  13
HETATM   13  O1  UNL     1      -9.256  36.705  42.787  1.00  0.00    -0.287 OA
ATOM     14  H1  UNL     1      -8.750  36.664  43.589  1.00  0.00     0.244 HD
ENDBRANCH  10  13
ENDBRANCH   6   7
ENDBRANCH   5   6
ENDBRANCH   4   5
ENDBRANCH   3   4
ENDBRANCH   2   3
ENDBRANCH   1   2
BRANCH   1  15
HETATM   15  C8  UNL     1     -13.170  42.233  42.990  1.00  0.00     0.020 C 
BRANCH  15  16
HETATM   16  C9  UNL     1     -13.872  41.104  42.302  1.00  0.00     0.122 C 
BRANCH  16  17
HETATM   17  N4  UNL     1     -13.637  41.181  40.883  1.00  0.00    -0.365 N 
HETATM   18  C10 UNL     1     -13.838  40.162  40.123  1.00  0.00     0.186 C 
HETATM   19  N5  UNL     1     -14.301  38.916  40.663  1.00  0.00    -0.064 NA
HETATM   20  N6  UNL     1     -13.582  40.322  38.733  1.00  0.00    -0.353 N 
HETATM   21  C11 UNL     1     -12.590  41.297  38.288  1.00  0.00     0.144 C 
HETATM   22  C14 UNL     1     -14.262  39.559  37.718  1.00  0.00     0.144 C 
HETATM   23  C12 UNL     1     -12.459  41.305  36.799  1.00  0.00     0.133 C 
HETATM   24  N7  UNL     1     -12.376  40.014  36.202  1.00  0.00    -0.418 N 
HETATM   25  C13 UNL     1     -13.370  39.080  36.622  1.00  0.00     0.133 C 
ATOM     26  H7  UNL     1     -11.656  39.773  35.521  1.00  0.00     0.153 HD
ATOM     27  H4  UNL     1     -13.306  42.055  40.475  1.00  0.00     0.162 HD
ENDBRANCH  16  17
ENDBRANCH  15  16
ENDBRANCH   1  15
TORSDOF 10
ENDMDL
