MODEL 1
REMARK VINA RESULT: -8.271684597      0.000      0.000
REMARK  5 active torsions:
REMARK  status: ('A' for Active; 'I' for Inactive)
REMARK    1  A    between atoms: C4_7  and  C5_8 
REMARK    2  A    between atoms: C5_8  and  N3_12 
REMARK    3  A    between atoms: C9_17  and  C10_18 
REMARK    4  A    between atoms: C9_17  and  N4_21 
REMARK    5  A    between atoms: C12_23  and  C13_24 
ROOT
HETATM    1  N3  UNL     1      -3.386  13.267   1.405  1.00  0.00    -0.331 N 
HETATM    2  C6  UNL     1      -2.354  13.874   2.216  1.00  0.00     0.164 C 
HETATM    3  C7  UNL     1      -2.976  14.439   3.447  1.00  0.00     0.192 C 
HETATM    4  F1  UNL     1      -2.435  13.878   4.590  1.00  0.00    -0.248 F 
HETATM    5  C8  UNL     1      -4.445  14.170   3.328  1.00  0.00     0.100 C 
HETATM    6  C9  UNL     1      -4.666  13.668   1.905  1.00  0.00     0.189 C 
ENDROOT
BRANCH   6   7
HETATM    7  C10 UNL     1      -5.151  14.858   1.089  1.00  0.00     0.403 C 
HETATM    8  F2  UNL     1      -5.688  15.830   1.949  1.00  0.00    -0.210 F 
HETATM    9  F3  UNL     1      -4.141  15.475   0.409  1.00  0.00    -0.210 F 
ENDBRANCH   6   7
BRANCH   6  10
HETATM   10  N4  UNL     1      -5.675  12.663   1.957  1.00  0.00    -0.250 N 
HETATM   11  C11 UNL     1      -6.978  12.736   1.665  1.00  0.00     0.137 A 
HETATM   12  C12 UNL     1      -7.542  11.478   1.894  1.00  0.00     0.045 A 
HETATM   13  N5  UNL     1      -6.550  10.694   2.316  1.00  0.00    -0.286 N 
HETATM   14  N6  UNL     1      -5.438  11.409   2.352  1.00  0.00    -0.018 NA
ATOM     15  H5  UNL     1      -6.635   9.710   2.568  1.00  0.00     0.184 HD
BRANCH  12  16
HETATM   16  C13 UNL     1      -8.957  11.134   1.700  1.00  0.00     0.038 C 
HETATM   17  C14 UNL     1      -9.424   9.952   2.495  1.00  0.00     0.011 C 
HETATM   18  C15 UNL     1     -10.916   9.869   2.380  1.00  0.00     0.001 C 
HETATM   19  C16 UNL     1     -11.502  10.588   1.218  1.00  0.00     0.000 C 
HETATM   20  C17 UNL     1     -10.674  10.579  -0.031  1.00  0.00     0.001 C 
HETATM   21  C18 UNL     1      -9.202  10.791   0.236  1.00  0.00     0.011 C 
ENDBRANCH  12  16
ENDBRANCH   6  10
BRANCH   1  22
HETATM   22  C5  UNL     1      -3.106  12.422   0.288  1.00  0.00     0.118 C 
HETATM   23  N2  UNL     1      -3.633  11.288   0.071  1.00  0.00    -0.384 N 
ATOM     24  H22 UNL     1      -3.433  10.685  -0.727  1.00  0.00     0.157 HD
ATOM     25  H21 UNL     1      -4.313  10.974   0.764  1.00  0.00     0.157 HD
BRANCH  22  26
HETATM   26  C4  UNL     1      -2.122  12.877  -0.717  1.00  0.00     0.071 A 
HETATM   27  C2  UNL     1      -0.786  12.592  -0.830  1.00  0.00     0.026 A 
HETATM   28  C1  UNL     1      -0.114  11.661   0.163  1.00  0.00     0.070 C 
HETATM   29  N1  UNL     1      -0.134  13.140  -1.806  1.00  0.00    -0.362 N 
HETATM   30  C3  UNL     1      -0.751  13.943  -2.653  1.00  0.00     0.139 A 
ATOM     31  H1  UNL     1       0.861  12.949  -1.921  1.00  0.00     0.165 HD
HETATM   32  S1  UNL     1      -2.349  13.939  -2.054  1.00  0.00    -0.079 SA
ENDBRANCH  22  26
ENDBRANCH   1  22
TORSDOF 5
ENDMDL
MODEL 2
REMARK VINA RESULT: -8.106508798      2.261      3.377
REMARK  5 active torsions:
REMARK  status: ('A' for Active; 'I' for Inactive)
REMARK    1  A    between atoms: C4_7  and  C5_8 
REMARK    2  A    between atoms: C5_8  and  N3_12 
REMARK    3  A    between atoms: C9_17  and  C10_18 
REMARK    4  A    between atoms: C9_17  and  N4_21 
REMARK    5  A    between atoms: C12_23  and  C13_24 
ROOT
HETATM    1  N3  UNL     1      -5.696  14.622   1.021  1.00  0.00    -0.331 N 
HETATM    2  C6  UNL     1      -5.553  16.061   0.991  1.00  0.00     0.164 C 
HETATM    3  C7  UNL     1      -6.837  16.664   0.532  1.00  0.00     0.192 C 
HETATM    4  F1  UNL     1      -7.355  17.531   1.478  1.00  0.00    -0.248 F 
HETATM    5  C8  UNL     1      -7.758  15.516   0.257  1.00  0.00     0.100 C 
HETATM    6  C9  UNL     1      -6.897  14.259   0.331  1.00  0.00     0.189 C 
ENDROOT
BRANCH   6   7
HETATM    7  C10 UNL     1      -6.537  13.888  -1.101  1.00  0.00     0.403 C 
HETATM    8  F2  UNL     1      -7.511  14.392  -1.976  1.00  0.00    -0.210 F 
HETATM    9  F3  UNL     1      -5.352  14.434  -1.502  1.00  0.00    -0.210 F 
ENDBRANCH   6   7
BRANCH   6  10
HETATM   10  N4  UNL     1      -7.689  13.232   0.922  1.00  0.00    -0.250 N 
HETATM   11  C11 UNL     1      -8.491  12.328   0.351  1.00  0.00     0.137 A 
HETATM   12  C12 UNL     1      -9.055  11.550   1.365  1.00  0.00     0.045 A 
HETATM   13  N5  UNL     1      -8.566  12.019   2.512  1.00  0.00    -0.286 N 
HETATM   14  N6  UNL     1      -7.750  13.024   2.240  1.00  0.00    -0.018 NA
ATOM     15  H5  UNL     1      -8.784  11.663   3.443  1.00  0.00     0.184 HD
BRANCH  12  16
HETATM   16  C13 UNL     1     -10.003  10.447   1.161  1.00  0.00     0.038 C 
HETATM   17  C14 UNL     1     -10.299  10.140  -0.277  1.00  0.00     0.011 C 
HETATM   18  C15 UNL     1     -11.080   8.862  -0.334  1.00  0.00     0.001 C 
HETATM   19  C16 UNL     1     -11.762   8.481   0.931  1.00  0.00     0.000 C 
HETATM   20  C17 UNL     1     -12.289   9.622   1.749  1.00  0.00     0.001 C 
HETATM   21  C18 UNL     1     -11.338  10.793   1.808  1.00  0.00     0.011 C 
ENDBRANCH  12  16
ENDBRANCH   6  10
BRANCH   1  22
HETATM   22  C5  UNL     1      -4.748  13.756   1.645  1.00  0.00     0.118 C 
HETATM   23  N2  UNL     1      -4.597  13.606   2.897  1.00  0.00    -0.384 N 
ATOM     24  H22 UNL     1      -3.920  12.988   3.342  1.00  0.00     0.157 HD
ATOM     25  H21 UNL     1      -5.218  14.159   3.488  1.00  0.00     0.157 HD
BRANCH  22  26
HETATM   26  C4  UNL     1      -3.849  12.954   0.789  1.00  0.00     0.071 A 
HETATM   27  C2  UNL     1      -3.923  11.633   0.431  1.00  0.00     0.026 A 
HETATM   28  C1  UNL     1      -5.076  10.771   0.915  1.00  0.00     0.070 C 
HETATM   29  N1  UNL     1      -2.985  11.161  -0.326  1.00  0.00    -0.362 N 
HETATM   30  C3  UNL     1      -1.998  11.939  -0.730  1.00  0.00     0.139 A 
ATOM     31  H1  UNL     1      -3.009  10.182  -0.612  1.00  0.00     0.165 HD
HETATM   32  S1  UNL     1      -2.399  13.432  -0.009  1.00  0.00    -0.079 SA
ENDBRANCH  22  26
ENDBRANCH   1  22
TORSDOF 5
ENDMDL
MODEL 3
REMARK VINA RESULT: -7.956667628      2.459      4.325
REMARK  5 active torsions:
REMARK  status: ('A' for Active; 'I' for Inactive)
REMARK    1  A    between atoms: C4_7  and  C5_8 
REMARK    2  A    between atoms: C5_8  and  N3_12 
REMARK    3  A    between atoms: C9_17  and  C10_18 
REMARK    4  A    between atoms: C9_17  and  N4_21 
REMARK    5  A    between atoms: C12_23  and  C13_24 
ROOT
HETATM    1  N3  UNL     1      -5.229  13.479  -0.039  1.00  0.00    -0.331 N 
HETATM    2  C6  UNL     1      -3.939  13.147  -0.602  1.00  0.00     0.164 C 
HETATM    3  C7  UNL     1      -3.318  12.067   0.218  1.00  0.00     0.192 C 
HETATM    4  F1  UNL     1      -3.052  10.944  -0.544  1.00  0.00    -0.248 F 
HETATM    5  C8  UNL     1      -4.285  11.782   1.326  1.00  0.00     0.100 C 
HETATM    6  C9  UNL     1      -5.339  12.882   1.258  1.00  0.00     0.189 C 
ENDROOT
BRANCH   6   7
HETATM    7  C10 UNL     1      -4.956  13.922   2.302  1.00  0.00     0.403 C 
HETATM    8  F2  UNL     1      -4.245  13.304   3.342  1.00  0.00    -0.210 F 
HETATM    9  F3  UNL     1      -4.129  14.887   1.803  1.00  0.00    -0.210 F 
ENDBRANCH   6   7
BRANCH   6  10
HETATM   10  N4  UNL     1      -6.594  12.293   1.586  1.00  0.00    -0.250 N 
HETATM   11  C11 UNL     1      -7.353  11.441   0.891  1.00  0.00     0.137 A 
HETATM   12  C12 UNL     1      -8.501  11.174   1.642  1.00  0.00     0.045 A 
HETATM   13  N5  UNL     1      -8.385  11.879   2.766  1.00  0.00    -0.286 N 
HETATM   14  N6  UNL     1      -7.244  12.546   2.727  1.00  0.00    -0.018 NA
ATOM     15  H5  UNL     1      -9.062  11.900   3.528  1.00  0.00     0.184 HD
BRANCH  12  16
HETATM   16  C13 UNL     1      -9.597  10.287   1.229  1.00  0.00     0.038 C 
HETATM   17  C14 UNL     1      -9.982  10.405  -0.215  1.00  0.00     0.011 C 
HETATM   18  C15 UNL     1     -10.932   9.292  -0.540  1.00  0.00     0.001 C 
HETATM   19  C16 UNL     1     -11.616   8.682   0.630  1.00  0.00     0.000 C 
HETATM   20  C17 UNL     1     -11.954   9.627   1.745  1.00  0.00     0.001 C 
HETATM   21  C18 UNL     1     -10.849  10.615   2.034  1.00  0.00     0.011 C 
ENDBRANCH  12  16
ENDBRANCH   6  10
BRANCH   1  22
HETATM   22  C5  UNL     1      -6.190  14.290  -0.715  1.00  0.00     0.118 C 
HETATM   23  N2  UNL     1      -6.786  13.984  -1.793  1.00  0.00    -0.384 N 
ATOM     24  H22 UNL     1      -7.472  14.564  -2.276  1.00  0.00     0.157 HD
ATOM     25  H21 UNL     1      -6.544  13.077  -2.191  1.00  0.00     0.157 HD
BRANCH  22  26
HETATM   26  C4  UNL     1      -6.541  15.605  -0.137  1.00  0.00     0.071 A 
HETATM   27  C2  UNL     1      -7.692  16.012   0.486  1.00  0.00     0.026 A 
HETATM   28  C1  UNL     1      -8.841  15.039   0.686  1.00  0.00     0.070 C 
HETATM   29  N1  UNL     1      -7.755  17.240   0.891  1.00  0.00    -0.362 N 
HETATM   30  C3  UNL     1      -6.737  18.058   0.702  1.00  0.00     0.139 A 
ATOM     31  H1  UNL     1      -8.596  17.577   1.359  1.00  0.00     0.165 HD
HETATM   32  S1  UNL     1      -5.611  17.054  -0.094  1.00  0.00    -0.079 SA
ENDBRANCH  22  26
ENDBRANCH   1  22
TORSDOF 5
ENDMDL
MODEL 4
REMARK VINA RESULT: -7.906403192      2.245      3.189
REMARK  5 active torsions:
REMARK  status: ('A' for Active; 'I' for Inactive)
REMARK    1  A    between atoms: C4_7  and  C5_8 
REMARK    2  A    between atoms: C5_8  and  N3_12 
REMARK    3  A    between atoms: C9_17  and  C10_18 
REMARK    4  A    between atoms: C9_17  and  N4_21 
REMARK    5  A    between atoms: C12_23  and  C13_24 
ROOT
HETATM    1  N3  UNL     1      -5.584  14.715   1.069  1.00  0.00    -0.331 N 
HETATM    2  C6  UNL     1      -5.362  16.143   1.045  1.00  0.00     0.164 C 
HETATM    3  C7  UNL     1      -6.614  16.820   0.600  1.00  0.00     0.192 C 
HETATM    4  F1  UNL     1      -7.075  17.709   1.554  1.00  0.00    -0.248 F 
HETATM    5  C8  UNL     1      -7.600  15.726   0.325  1.00  0.00     0.100 C 
HETATM    6  C9  UNL     1      -6.809  14.423   0.386  1.00  0.00     0.189 C 
ENDROOT
BRANCH   6   7
HETATM    7  C10 UNL     1      -6.481  14.040  -1.050  1.00  0.00     0.403 C 
HETATM    8  F2  UNL     1      -7.438  14.595  -1.915  1.00  0.00    -0.210 F 
HETATM    9  F3  UNL     1      -5.275  14.529  -1.461  1.00  0.00    -0.210 F 
ENDBRANCH   6   7
BRANCH   6  10
HETATM   10  N4  UNL     1      -7.652  13.438   0.978  1.00  0.00    -0.250 N 
HETATM   11  C11 UNL     1      -8.660  12.737   0.449  1.00  0.00     0.137 A 
HETATM   12  C12 UNL     1      -9.179  11.908   1.446  1.00  0.00     0.045 A 
HETATM   13  N5  UNL     1      -8.458  12.142   2.541  1.00  0.00    -0.286 N 
HETATM   14  N6  UNL     1      -7.547  13.058   2.255  1.00  0.00    -0.018 NA
ATOM     15  H5  UNL     1      -8.586  11.692   3.447  1.00  0.00     0.184 HD
BRANCH  12  16
HETATM   16  C13 UNL     1     -10.305  10.979   1.277  1.00  0.00     0.038 C 
HETATM   17  C14 UNL     1     -10.630  10.167   2.495  1.00  0.00     0.011 C 
HETATM   18  C15 UNL     1     -11.925   9.453   2.251  1.00  0.00     0.001 C 
HETATM   19  C16 UNL     1     -12.310   9.311   0.822  1.00  0.00     0.000 C 
HETATM   20  C17 UNL     1     -11.174   9.107  -0.135  1.00  0.00     0.001 C 
HETATM   21  C18 UNL     1      -9.982   9.982   0.171  1.00  0.00     0.011 C 
ENDBRANCH  12  16
ENDBRANCH   6  10
BRANCH   1  22
HETATM   22  C5  UNL     1      -4.681  13.793   1.680  1.00  0.00     0.118 C 
HETATM   23  N2  UNL     1      -4.557  13.600   2.929  1.00  0.00    -0.384 N 
ATOM     24  H22 UNL     1      -3.912  12.943   3.365  1.00  0.00     0.157 HD
ATOM     25  H21 UNL     1      -5.166  14.159   3.527  1.00  0.00     0.157 HD
BRANCH  22  26
HETATM   26  C4  UNL     1      -3.799  12.983   0.814  1.00  0.00     0.071 A 
HETATM   27  C2  UNL     1      -3.913  11.673   0.425  1.00  0.00     0.026 A 
HETATM   28  C1  UNL     1      -5.097  10.838   0.878  1.00  0.00     0.070 C 
HETATM   29  N1  UNL     1      -2.983  11.188  -0.334  1.00  0.00    -0.362 N 
HETATM   30  C3  UNL     1      -1.967  11.944  -0.712  1.00  0.00     0.139 A 
ATOM     31  H1  UNL     1      -3.034  10.218  -0.643  1.00  0.00     0.165 HD
HETATM   32  S1  UNL     1      -2.328  13.432   0.040  1.00  0.00    -0.079 SA
ENDBRANCH  22  26
ENDBRANCH   1  22
TORSDOF 5
ENDMDL
MODEL 5
REMARK VINA RESULT: -7.856338715      0.937      1.330
REMARK  5 active torsions:
REMARK  status: ('A' for Active; 'I' for Inactive)
REMARK    1  A    between atoms: C4_7  and  C5_8 
REMARK    2  A    between atoms: C5_8  and  N3_12 
REMARK    3  A    between atoms: C9_17  and  C10_18 
REMARK    4  A    between atoms: C9_17  and  N4_21 
REMARK    5  A    between atoms: C12_23  and  C13_24 
ROOT
HETATM    1  N3  UNL     1      -3.306  13.485   1.346  1.00  0.00    -0.331 N 
HETATM    2  C6  UNL     1      -2.238  14.026   2.157  1.00  0.00     0.164 C 
HETATM    3  C7  UNL     1      -2.799  14.458   3.470  1.00  0.00     0.192 C 
HETATM    4  F1  UNL     1      -2.189  13.796   4.521  1.00  0.00    -0.248 F 
HETATM    5  C8  UNL     1      -4.269  14.177   3.403  1.00  0.00     0.100 C 
HETATM    6  C9  UNL     1      -4.562  13.813   1.951  1.00  0.00     0.189 C 
ENDROOT
BRANCH   6   7
HETATM    7  C10 UNL     1      -5.104  15.070   1.284  1.00  0.00     0.403 C 
HETATM    8  F2  UNL     1      -5.700  15.895   2.251  1.00  0.00    -0.210 F 
HETATM    9  F3  UNL     1      -4.123  15.820   0.702  1.00  0.00    -0.210 F 
ENDBRANCH   6   7
BRANCH   6  10
HETATM   10  N4  UNL     1      -5.555  12.792   1.958  1.00  0.00    -0.250 N 
HETATM   11  C11 UNL     1      -6.858  12.856   1.665  1.00  0.00     0.137 A 
HETATM   12  C12 UNL     1      -7.403  11.581   1.839  1.00  0.00     0.045 A 
HETATM   13  N5  UNL     1      -6.400  10.796   2.230  1.00  0.00    -0.286 N 
HETATM   14  N6  UNL     1      -5.299  11.525   2.299  1.00  0.00    -0.018 NA
ATOM     15  H5  UNL     1      -6.470   9.800   2.440  1.00  0.00     0.184 HD
BRANCH  12  16
HETATM   16  C13 UNL     1      -8.812  11.224   1.626  1.00  0.00     0.038 C 
HETATM   17  C14 UNL     1      -9.286  10.056   2.438  1.00  0.00     0.011 C 
HETATM   18  C15 UNL     1     -10.775   9.961   2.297  1.00  0.00     0.001 C 
HETATM   19  C16 UNL     1     -11.345  10.651   1.109  1.00  0.00     0.000 C 
HETATM   20  C17 UNL     1     -10.493  10.620  -0.124  1.00  0.00     0.001 C 
HETATM   21  C18 UNL     1      -9.028  10.847   0.166  1.00  0.00     0.011 C 
ENDBRANCH  12  16
ENDBRANCH   6  10
BRANCH   1  22
HETATM   22  C5  UNL     1      -3.079  12.759   0.138  1.00  0.00     0.118 C 
HETATM   23  N2  UNL     1      -3.496  11.585  -0.107  1.00  0.00    -0.384 N 
ATOM     24  H22 UNL     1      -3.334  11.067  -0.969  1.00  0.00     0.157 HD
ATOM     25  H21 UNL     1      -4.040  11.144   0.635  1.00  0.00     0.157 HD
BRANCH  22  26
HETATM   26  C4  UNL     1      -2.292  13.398  -0.937  1.00  0.00     0.071 A 
HETATM   27  C2  UNL     1      -2.706  14.182  -1.983  1.00  0.00     0.026 A 
HETATM   28  C1  UNL     1      -4.176  14.526  -2.147  1.00  0.00     0.070 C 
HETATM   29  N1  UNL     1      -1.805  14.609  -2.808  1.00  0.00    -0.362 N 
HETATM   30  C3  UNL     1      -0.536  14.292  -2.634  1.00  0.00     0.139 A 
ATOM     31  H1  UNL     1      -2.078  15.195  -3.598  1.00  0.00     0.165 HD
HETATM   32  S1  UNL     1      -0.595  13.332  -1.225  1.00  0.00    -0.079 SA
ENDBRANCH  22  26
ENDBRANCH   1  22
TORSDOF 5
ENDMDL
