MODEL 1
REMARK VINA RESULT: -7.783641725      0.000      0.000
REMARK  4 active torsions:
REMARK  status: ('A' for Active; 'I' for Inactive)
REMARK       I    between atoms: C1_2  and  N1_3 
REMARK    1  A    between atoms: C1_2  and  C10_15 
REMARK    2  A    between atoms: N1_3  and  C2_5 
REMARK    3  A    between atoms: C12_20  and  S1_21 
REMARK    4  A    between atoms: S1_21  and  C13_22 
ROOT
HETATM    1  C10 UNL     1      -8.804  13.804   0.237  1.00  0.00     0.077 A 
HETATM    2  C11 UNL     1     -10.047  13.753  -0.397  1.00  0.00     0.127 A 
HETATM    3  N2  UNL     1     -10.625  12.621   0.054  1.00  0.00    -0.303 N 
ATOM      4  H2  UNL     1     -11.552  12.306  -0.232  1.00  0.00     0.186 HD
HETATM    5  N3  UNL     1      -9.864  11.974   0.900  1.00  0.00    -0.247 N 
HETATM    6  C12 UNL     1     -10.089  10.841   1.567  1.00  0.00     0.120 A 
HETATM    7  C14 UNL     1      -9.115  10.374   2.438  1.00  0.00     0.069 A 
HETATM    8 CL1  UNL     1      -9.411   8.895   3.329  1.00  0.00    -0.081 Cl
HETATM    9  C15 UNL     1      -7.914  11.061   2.622  1.00  0.00     0.029 A 
HETATM   10  C16 UNL     1      -7.743  12.217   1.907  1.00  0.00     0.034 A 
HETATM   11  C17 UNL     1      -8.716  12.689   1.035  1.00  0.00     0.074 A 
ENDROOT
BRANCH   1  12
HETATM   12  C1  UNL     1      -7.767  14.803   0.063  1.00  0.00     0.255 C 
HETATM   13  O1  UNL     1      -6.819  14.528  -0.708  1.00  0.00    -0.268 OA
HETATM   14  N1  UNL     1      -7.831  16.035   0.748  1.00  0.00    -0.352 N 
ATOM     15  H1  UNL     1      -8.605  16.240   1.380  1.00  0.00     0.163 HD
BRANCH  14  16
HETATM   16  C2  UNL     1      -6.763  17.010   0.530  1.00  0.00     0.085 C 
HETATM   17  C3  UNL     1      -5.829  16.888   1.737  1.00  0.00     0.030 C 
HETATM   18  C4  UNL     1      -4.645  17.823   1.621  1.00  0.00     0.070 C 
HETATM   19  C5  UNL     1      -5.189  19.236   1.431  1.00  0.00     0.164 C 
HETATM   20  C6  UNL     1      -6.691  19.233   1.580  1.00  0.00     0.070 C 
HETATM   21  O2  UNL     1      -4.921  19.685   0.144  1.00  0.00    -0.353 OA
HETATM   22  O3  UNL     1      -4.551  20.092   2.332  1.00  0.00    -0.353 OA
HETATM   23  C7  UNL     1      -7.247  18.413   0.404  1.00  0.00     0.030 C 
HETATM   24  C8  UNL     1      -4.492  21.006   0.303  1.00  0.00     0.197 C 
HETATM   25  C9  UNL     1      -3.616  20.813   1.548  1.00  0.00     0.197 C 
ENDBRANCH  14  16
ENDBRANCH   1  12
BRANCH   6  26
HETATM   26  S1  UNL     1     -11.543   9.849   1.408  1.00  0.00    -0.039 SA
BRANCH  26  27
HETATM   27  C13 UNL     1     -11.440   8.559   0.171  1.00  0.00     0.422 C 
HETATM   28  F1  UNL     1     -12.682   8.153  -0.322  1.00  0.00    -0.202 F 
HETATM   29  F2  UNL     1     -10.823   7.457   0.700  1.00  0.00    -0.202 F 
ENDBRANCH  26  27
ENDBRANCH   6  26
TORSDOF 4
ENDMDL
MODEL 2
REMARK VINA RESULT: -7.585929191      6.728      9.536
REMARK  4 active torsions:
REMARK  status: ('A' for Active; 'I' for Inactive)
REMARK       I    between atoms: C1_2  and  N1_3 
REMARK    1  A    between atoms: C1_2  and  C10_15 
REMARK    2  A    between atoms: N1_3  and  C2_5 
REMARK    3  A    between atoms: C12_20  and  S1_21 
REMARK    4  A    between atoms: S1_21  and  C13_22 
ROOT
HETATM    1  C10 UNL     1      -3.370  12.087   0.486  1.00  0.00     0.077 A 
HETATM    2  C11 UNL     1      -2.488  11.855  -0.570  1.00  0.00     0.127 A 
HETATM    3  N2  UNL     1      -1.577  12.846  -0.491  1.00  0.00    -0.303 N 
ATOM      4  H2  UNL     1      -0.794  12.949  -1.137  1.00  0.00     0.186 HD
HETATM    5  N3  UNL     1      -1.811  13.662   0.506  1.00  0.00    -0.247 N 
HETATM    6  C12 UNL     1      -1.134  14.735   0.917  1.00  0.00     0.120 A 
HETATM    7  C14 UNL     1      -1.584  15.421   2.036  1.00  0.00     0.069 A 
HETATM    8 CL1  UNL     1      -0.690  16.822   2.590  1.00  0.00    -0.081 Cl
HETATM    9  C15 UNL     1      -2.724  15.012   2.730  1.00  0.00     0.029 A 
HETATM   10  C16 UNL     1      -3.376  13.904   2.257  1.00  0.00     0.034 A 
HETATM   11  C17 UNL     1      -2.929  13.214   1.137  1.00  0.00     0.074 A 
ENDROOT
BRANCH   1  12
HETATM   12  C1  UNL     1      -4.561  11.330   0.822  1.00  0.00     0.255 C 
HETATM   13  O1  UNL     1      -4.409  10.251   1.439  1.00  0.00    -0.268 OA
HETATM   14  N1  UNL     1      -5.840  11.800   0.456  1.00  0.00    -0.352 N 
ATOM     15  H1  UNL     1      -5.948  12.676  -0.055  1.00  0.00     0.163 HD
BRANCH  14  16
HETATM   16  C2  UNL     1      -7.009  11.001   0.827  1.00  0.00     0.085 C 
HETATM   17  C3  UNL     1      -8.048  11.239  -0.273  1.00  0.00     0.030 C 
HETATM   18  C4  UNL     1      -9.306  10.433  -0.033  1.00  0.00     0.070 C 
HETATM   19  C5  UNL     1      -9.822  10.786   1.359  1.00  0.00     0.164 C 
HETATM   20  C6  UNL     1      -9.004  11.913   1.941  1.00  0.00     0.070 C 
HETATM   21  O2  UNL     1      -9.670   9.704   2.216  1.00  0.00    -0.353 OA
HETATM   22  O3  UNL     1     -11.184  11.086   1.274  1.00  0.00    -0.353 OA
HETATM   23  C7  UNL     1      -7.585  11.360   2.153  1.00  0.00     0.030 C 
HETATM   24  C8  UNL     1     -10.866   9.644   2.940  1.00  0.00     0.197 C 
HETATM   25  C9  UNL     1     -11.841   9.942   1.793  1.00  0.00     0.197 C 
ENDBRANCH  14  16
ENDBRANCH   1  12
BRANCH   6  26
HETATM   26  S1  UNL     1       0.301  15.388   0.118  1.00  0.00    -0.039 SA
BRANCH  26  27
HETATM   27  C13 UNL     1       0.107  15.709  -1.633  1.00  0.00     0.422 C 
HETATM   28  F1  UNL     1      -1.215  15.941  -2.018  1.00  0.00    -0.202 F 
HETATM   29  F2  UNL     1       0.568  14.640  -2.354  1.00  0.00    -0.202 F 
ENDBRANCH  26  27
ENDBRANCH   6  26
TORSDOF 4
ENDMDL
MODEL 3
REMARK VINA RESULT: -7.504423349      6.758      9.661
REMARK  4 active torsions:
REMARK  status: ('A' for Active; 'I' for Inactive)
REMARK       I    between atoms: C1_2  and  N1_3 
REMARK    1  A    between atoms: C1_2  and  C10_15 
REMARK    2  A    between atoms: N1_3  and  C2_5 
REMARK    3  A    between atoms: C12_20  and  S1_21 
REMARK    4  A    between atoms: S1_21  and  C13_22 
ROOT
HETATM    1  C10 UNL     1      -3.831  13.006   1.762  1.00  0.00     0.077 A 
HETATM    2  C11 UNL     1      -3.341  13.721   2.857  1.00  0.00     0.127 A 
HETATM    3  N2  UNL     1      -2.261  14.380   2.390  1.00  0.00    -0.303 N 
ATOM      4  H2  UNL     1      -1.681  14.994   2.963  1.00  0.00     0.186 HD
HETATM    5  N3  UNL     1      -2.039  14.143   1.121  1.00  0.00    -0.247 N 
HETATM    6  C12 UNL     1      -1.093  14.618   0.310  1.00  0.00     0.120 A 
HETATM    7  C14 UNL     1      -1.095  14.224  -1.021  1.00  0.00     0.069 A 
HETATM    8 CL1  UNL     1       0.135  14.856  -2.095  1.00  0.00    -0.081 Cl
HETATM    9  C15 UNL     1      -2.060  13.347  -1.517  1.00  0.00     0.029 A 
HETATM   10  C16 UNL     1      -3.004  12.894  -0.634  1.00  0.00     0.034 A 
HETATM   11  C17 UNL     1      -3.006  13.285   0.699  1.00  0.00     0.074 A 
ENDROOT
BRANCH   1  12
HETATM   12  C1  UNL     1      -4.960  12.097   1.738  1.00  0.00     0.255 C 
HETATM   13  O1  UNL     1      -4.798  10.956   2.228  1.00  0.00    -0.268 OA
HETATM   14  N1  UNL     1      -6.192  12.492   1.174  1.00  0.00    -0.352 N 
ATOM     15  H1  UNL     1      -6.305  13.422   0.769  1.00  0.00     0.163 HD
BRANCH  14  16
HETATM   16  C2  UNL     1      -7.302  11.538   1.184  1.00  0.00     0.085 C 
HETATM   17  C3  UNL     1      -7.969  11.655  -0.190  1.00  0.00     0.030 C 
HETATM   18  C4  UNL     1      -9.120  10.685  -0.333  1.00  0.00     0.070 C 
HETATM   19  C5  UNL     1     -10.086  10.941   0.821  1.00  0.00     0.164 C 
HETATM   20  C6  UNL     1      -9.646  12.156   1.600  1.00  0.00     0.070 C 
HETATM   21  O2  UNL     1     -10.066   9.874   1.709  1.00  0.00    -0.353 OA
HETATM   22  O3  UNL     1     -11.381  11.058   0.310  1.00  0.00    -0.353 OA
HETATM   23  C7  UNL     1      -8.303  11.794   2.256  1.00  0.00     0.030 C 
HETATM   24  C8  UNL     1     -11.409   9.642   2.028  1.00  0.00     0.197 C 
HETATM   25  C9  UNL     1     -12.009   9.828   0.628  1.00  0.00     0.197 C 
ENDBRANCH  14  16
ENDBRANCH   1  12
BRANCH   6  26
HETATM   26  S1  UNL     1       0.209  15.704   0.807  1.00  0.00    -0.039 SA
BRANCH  26  27
HETATM   27  C13 UNL     1      -0.310  17.084   1.824  1.00  0.00     0.422 C 
HETATM   28  F1  UNL     1      -0.235  16.831   3.195  1.00  0.00    -0.202 F 
HETATM   29  F2  UNL     1      -1.606  17.414   1.532  1.00  0.00    -0.202 F 
ENDBRANCH  26  27
ENDBRANCH   6  26
TORSDOF 4
ENDMDL
MODEL 4
REMARK VINA RESULT: -7.487588071      2.800      3.319
REMARK  4 active torsions:
REMARK  status: ('A' for Active; 'I' for Inactive)
REMARK       I    between atoms: C1_2  and  N1_3 
REMARK    1  A    between atoms: C1_2  and  C10_15 
REMARK    2  A    between atoms: N1_3  and  C2_5 
REMARK    3  A    between atoms: C12_20  and  S1_21 
REMARK    4  A    between atoms: S1_21  and  C13_22 
ROOT
HETATM    1  C10 UNL     1      -8.066  14.046   0.860  1.00  0.00     0.077 A 
HETATM    2  C11 UNL     1      -9.275  14.333   0.224  1.00  0.00     0.127 A 
HETATM    3  N2  UNL     1     -10.071  13.276   0.488  1.00  0.00    -0.303 N 
ATOM      4  H2  UNL     1     -11.031  13.192   0.154  1.00  0.00     0.186 HD
HETATM    5  N3  UNL     1      -9.472  12.371   1.222  1.00  0.00    -0.247 N 
HETATM    6  C12 UNL     1      -9.928  11.213   1.700  1.00  0.00     0.120 A 
HETATM    7  C14 UNL     1      -9.088  10.438   2.487  1.00  0.00     0.069 A 
HETATM    8 CL1  UNL     1      -9.686   8.922   3.131  1.00  0.00    -0.081 Cl
HETATM    9  C15 UNL     1      -7.786  10.846   2.780  1.00  0.00     0.029 A 
HETATM   10  C16 UNL     1      -7.377  12.045   2.259  1.00  0.00     0.034 A 
HETATM   11  C17 UNL     1      -8.215  12.824   1.471  1.00  0.00     0.074 A 
ENDROOT
BRANCH   1  12
HETATM   12  C1  UNL     1      -6.855  14.843   0.850  1.00  0.00     0.255 C 
HETATM   13  O1  UNL     1      -6.979  16.089   0.845  1.00  0.00    -0.268 OA
HETATM   14  N1  UNL     1      -5.586  14.226   0.839  1.00  0.00    -0.352 N 
ATOM     15  H1  UNL     1      -5.501  13.209   0.833  1.00  0.00     0.163 HD
BRANCH  14  16
HETATM   16  C2  UNL     1      -4.396  15.078   0.838  1.00  0.00     0.085 C 
HETATM   17  C3  UNL     1      -3.388  14.390  -0.087  1.00  0.00     0.030 C 
HETATM   18  C4  UNL     1      -2.111  15.192  -0.214  1.00  0.00     0.070 C 
HETATM   19  C5  UNL     1      -1.568  15.420   1.194  1.00  0.00     0.164 C 
HETATM   20  C6  UNL     1      -2.391  14.645   2.195  1.00  0.00     0.070 C 
HETATM   21  O2  UNL     1      -1.682  16.759   1.542  1.00  0.00    -0.353 OA
HETATM   22  O3  UNL     1      -0.214  15.078   1.218  1.00  0.00    -0.353 OA
HETATM   23  C7  UNL     1      -3.795  15.272   2.186  1.00  0.00     0.030 C 
HETATM   24  C8  UNL     1      -0.469  17.078   2.162  1.00  0.00     0.197 C 
HETATM   25  C9  UNL     1       0.474  16.318   1.220  1.00  0.00     0.197 C 
ENDBRANCH  14  16
ENDBRANCH   1  12
BRANCH   6  26
HETATM   26  S1  UNL     1     -11.537  10.554   1.382  1.00  0.00    -0.039 SA
BRANCH  26  27
HETATM   27  C13 UNL     1     -11.602   9.323   0.083  1.00  0.00     0.422 C 
HETATM   28  F1  UNL     1     -12.261   8.149   0.454  1.00  0.00    -0.202 F 
HETATM   29  F2  UNL     1     -10.332   8.983  -0.298  1.00  0.00    -0.202 F 
ENDBRANCH  26  27
ENDBRANCH   6  26
TORSDOF 4
ENDMDL
MODEL 5
REMARK VINA RESULT: -7.356947080      6.155      9.601
REMARK  4 active torsions:
REMARK  status: ('A' for Active; 'I' for Inactive)
REMARK       I    between atoms: C1_2  and  N1_3 
REMARK    1  A    between atoms: C1_2  and  C10_15 
REMARK    2  A    between atoms: N1_3  and  C2_5 
REMARK    3  A    between atoms: C12_20  and  S1_21 
REMARK    4  A    between atoms: S1_21  and  C13_22 
ROOT
HETATM    1  C10 UNL     1      -4.108  13.659   1.376  1.00  0.00     0.077 A 
HETATM    2  C11 UNL     1      -2.761  13.382   1.132  1.00  0.00     0.127 A 
HETATM    3  N2  UNL     1      -2.168  14.589   1.033  1.00  0.00    -0.303 N 
ATOM      4  H2  UNL     1      -1.172  14.717   0.854  1.00  0.00     0.186 HD
HETATM    5  N3  UNL     1      -3.013  15.577   1.192  1.00  0.00    -0.247 N 
HETATM    6  C12 UNL     1      -2.807  16.894   1.183  1.00  0.00     0.120 A 
HETATM    7  C14 UNL     1      -3.885  17.740   1.407  1.00  0.00     0.069 A 
HETATM    8 CL1  UNL     1      -3.618  19.471   1.413  1.00  0.00    -0.081 Cl
HETATM    9  C15 UNL     1      -5.167  17.238   1.636  1.00  0.00     0.029 A 
HETATM   10  C16 UNL     1      -5.313  15.876   1.631  1.00  0.00     0.034 A 
HETATM   11  C17 UNL     1      -4.237  15.026   1.408  1.00  0.00     0.074 A 
ENDROOT
BRANCH   1  12
HETATM   12  C1  UNL     1      -5.191  12.705   1.519  1.00  0.00     0.255 C 
HETATM   13  O1  UNL     1      -5.008  11.729   2.284  1.00  0.00    -0.268 OA
HETATM   14  N1  UNL     1      -6.400  12.876   0.814  1.00  0.00    -0.352 N 
ATOM     15  H1  UNL     1      -6.530  13.670   0.187  1.00  0.00     0.163 HD
BRANCH  14  16
HETATM   16  C2  UNL     1      -7.464  11.888   1.003  1.00  0.00     0.085 C 
HETATM   17  C3  UNL     1      -8.141  11.733  -0.362  1.00  0.00     0.030 C 
HETATM   18  C4  UNL     1      -9.246  10.701  -0.321  1.00  0.00     0.070 C 
HETATM   19  C5  UNL     1     -10.218  11.109   0.783  1.00  0.00     0.164 C 
HETATM   20  C6  UNL     1      -9.833  12.461   1.334  1.00  0.00     0.070 C 
HETATM   21  O2  UNL     1     -10.144  10.215   1.842  1.00  0.00    -0.353 OA
HETATM   22  O3  UNL     1     -11.519  11.076   0.275  1.00  0.00    -0.353 OA
HETATM   23  C7  UNL     1      -8.472  12.279   2.026  1.00  0.00     0.030 C 
HETATM   24  C8  UNL     1     -11.473   9.980   2.212  1.00  0.00     0.197 C 
HETATM   25  C9  UNL     1     -12.087   9.892   0.809  1.00  0.00     0.197 C 
ENDBRANCH  14  16
ENDBRANCH   1  12
BRANCH   6  26
HETATM   26  S1  UNL     1      -1.250  17.670   0.873  1.00  0.00    -0.039 SA
BRANCH  26  27
HETATM   27  C13 UNL     1      -0.024  17.435   2.156  1.00  0.00     0.422 C 
HETATM   28  F1  UNL     1      -0.453  16.614   3.200  1.00  0.00    -0.202 F 
HETATM   29  F2  UNL     1       0.323  18.645   2.694  1.00  0.00    -0.202 F 
ENDBRANCH  26  27
ENDBRANCH   6  26
TORSDOF 4
ENDMDL
