MODEL 1
REMARK VINA RESULT: -5.581118736      0.000      0.000
REMARK  6 active torsions:
REMARK  status: ('A' for Active; 'I' for Inactive)
REMARK    1  A    between atoms: N1_1  and  C1_5 
REMARK    2  A    between atoms: C1_5  and  C2_6 
REMARK    3  A    between atoms: C2_6  and  N2_7 
REMARK    4  A    between atoms: N2_7  and  C3_10 
REMARK    5  A    between atoms: C3_10  and  C4_11 
REMARK    6  A    between atoms: C4_11  and  N3_12 
ROOT
HETATM    1  C4  UNL     1      79.525   6.213  26.775  1.00  0.00     0.052 C 
HETATM    2  C10 UNL     1      78.701   6.806  25.639  1.00  0.00     0.032 C 
HETATM    3  C11 UNL     1      77.467   6.100  25.293  1.00  0.00     0.002 C 
HETATM    4  C12 UNL     1      77.456   4.611  25.387  1.00  0.00     0.000 C 
HETATM    5  C13 UNL     1      78.908   4.163  25.461  1.00  0.00     0.002 C 
HETATM    6  C14 UNL     1      79.370   4.699  26.811  1.00  0.00     0.032 C 
ENDROOT
BRANCH   1   7
HETATM    7  C3  UNL     1      80.956   6.521  26.380  1.00  0.00     0.263 C 
BRANCH   7   8
HETATM    8  N2  UNL     1      81.924   5.553  26.756  1.00  0.00    -0.071 N 
ATOM      9  H22 UNL     1      81.504   4.633  26.880  1.00  0.00     0.277 HD
ATOM     10  H21 UNL     1      82.255   5.705  27.709  1.00  0.00     0.277 HD
BRANCH   8  11
HETATM   11  C2  UNL     1      83.046   5.511  25.794  1.00  0.00     0.259 C 
BRANCH  11  12
HETATM   12  C1  UNL     1      82.514   4.637  24.653  1.00  0.00     0.257 C 
BRANCH  12  13
HETATM   13  N1  UNL     1      83.637   4.393  23.770  1.00  0.00    -0.078 N 
ATOM     14  H13 UNL     1      84.125   5.244  23.492  1.00  0.00     0.274 HD
ATOM     15  H12 UNL     1      84.426   3.942  24.233  1.00  0.00     0.274 HD
ATOM     16  H11 UNL     1      83.270   3.861  22.981  1.00  0.00     0.274 HD
ENDBRANCH  12  13
ENDBRANCH  11  12
ENDBRANCH   8  11
ENDBRANCH   7   8
ENDBRANCH   1   7
BRANCH   1  17
HETATM   17  N3  UNL     1      79.216   6.695  28.013  1.00  0.00    -0.397 N 
HETATM   18  C5  UNL     1      79.317   5.956  29.204  1.00  0.00     0.122 C 
HETATM   19  C6  UNL     1      78.499   6.903  30.103  1.00  0.00     0.007 C 
HETATM   20  C7  UNL     1      79.220   8.206  29.756  1.00  0.00     0.031 C 
HETATM   21  C9  UNL     1      77.422   7.412  29.185  1.00  0.00     0.031 C 
HETATM   22  C8  UNL     1      78.641   7.890  28.360  1.00  0.00     0.081 C 
ENDBRANCH   1  17
TORSDOF 6
ENDMDL
MODEL 2
REMARK VINA RESULT: -5.558442967      2.148      5.202
REMARK  6 active torsions:
REMARK  status: ('A' for Active; 'I' for Inactive)
REMARK    1  A    between atoms: N1_1  and  C1_5 
REMARK    2  A    between atoms: C1_5  and  C2_6 
REMARK    3  A    between atoms: C2_6  and  N2_7 
REMARK    4  A    between atoms: N2_7  and  C3_10 
REMARK    5  A    between atoms: C3_10  and  C4_11 
REMARK    6  A    between atoms: C4_11  and  N3_12 
ROOT
HETATM    1  C4  UNL     1      79.408   6.218  27.966  1.00  0.00     0.052 C 
HETATM    2  C10 UNL     1      78.636   7.488  28.301  1.00  0.00     0.032 C 
HETATM    3  C11 UNL     1      79.221   8.746  27.834  1.00  0.00     0.002 C 
HETATM    4  C12 UNL     1      80.707   8.876  27.835  1.00  0.00     0.000 C 
HETATM    5  C13 UNL     1      81.248   7.756  28.712  1.00  0.00     0.002 C 
HETATM    6  C14 UNL     1      80.903   6.499  27.922  1.00  0.00     0.032 C 
ENDROOT
BRANCH   1   7
HETATM    7  C3  UNL     1      79.142   5.312  29.153  1.00  0.00     0.263 C 
BRANCH   7   8
HETATM    8  N2  UNL     1      78.198   5.793  30.099  1.00  0.00    -0.071 N 
ATOM      9  H22 UNL     1      77.278   5.918  29.678  1.00  0.00     0.277 HD
ATOM     10  H21 UNL     1      78.387   6.762  30.356  1.00  0.00     0.277 HD
BRANCH   8  11
HETATM   11  C2  UNL     1      78.135   4.919  31.289  1.00  0.00     0.259 C 
BRANCH  11  12
HETATM   12  C1  UNL     1      79.446   5.211  32.026  1.00  0.00     0.257 C 
BRANCH  12  13
HETATM   13  N1  UNL     1      79.932   3.935  32.511  1.00  0.00    -0.078 N 
ATOM     14  H13 UNL     1      79.312   3.497  33.191  1.00  0.00     0.274 HD
ATOM     15  H12 UNL     1      79.894   3.193  31.811  1.00  0.00     0.274 HD
ATOM     16  H11 UNL     1      80.871   4.104  32.871  1.00  0.00     0.274 HD
ENDBRANCH  12  13
ENDBRANCH  11  12
ENDBRANCH   8  11
ENDBRANCH   7   8
ENDBRANCH   1   7
BRANCH   1  17
HETATM   17  N3  UNL     1      79.057   5.634  26.784  1.00  0.00    -0.397 N 
HETATM   18  C5  UNL     1      79.970   5.179  25.818  1.00  0.00     0.122 C 
HETATM   19  C6  UNL     1      78.972   5.010  24.656  1.00  0.00     0.007 C 
HETATM   20  C7  UNL     1      77.917   4.187  25.396  1.00  0.00     0.031 C 
HETATM   21  C9  UNL     1      78.017   6.156  24.847  1.00  0.00     0.031 C 
HETATM   22  C8  UNL     1      77.813   5.485  26.226  1.00  0.00     0.081 C 
ENDBRANCH   1  17
TORSDOF 6
ENDMDL
MODEL 3
REMARK VINA RESULT: -5.513088050      2.606      4.780
REMARK  6 active torsions:
REMARK  status: ('A' for Active; 'I' for Inactive)
REMARK    1  A    between atoms: N1_1  and  C1_5 
REMARK    2  A    between atoms: C1_5  and  C2_6 
REMARK    3  A    between atoms: C2_6  and  N2_7 
REMARK    4  A    between atoms: N2_7  and  C3_10 
REMARK    5  A    between atoms: C3_10  and  C4_11 
REMARK    6  A    between atoms: C4_11  and  N3_12 
ROOT
HETATM    1  C4  UNL     1      80.212   6.255  30.039  1.00  0.00     0.052 C 
HETATM    2  C10 UNL     1      81.340   7.234  29.736  1.00  0.00     0.032 C 
HETATM    3  C11 UNL     1      81.088   8.637  30.067  1.00  0.00     0.002 C 
HETATM    4  C12 UNL     1      79.705   9.169  29.881  1.00  0.00     0.000 C 
HETATM    5  C13 UNL     1      78.963   8.172  29.003  1.00  0.00     0.002 C 
HETATM    6  C14 UNL     1      78.860   6.936  29.890  1.00  0.00     0.032 C 
ENDROOT
BRANCH   1   7
HETATM    7  C3  UNL     1      80.332   5.218  28.939  1.00  0.00     0.263 C 
BRANCH   7   8
HETATM    8  N2  UNL     1      79.107   4.741  28.402  1.00  0.00    -0.071 N 
ATOM      9  H22 UNL     1      78.321   5.322  28.692  1.00  0.00     0.277 HD
ATOM     10  H21 UNL     1      78.823   3.864  28.840  1.00  0.00     0.277 HD
BRANCH   8  11
HETATM   11  C2  UNL     1      79.175   4.615  26.932  1.00  0.00     0.259 C 
BRANCH  11  12
HETATM   12  C1  UNL     1      78.140   5.629  26.431  1.00  0.00     0.257 C 
BRANCH  12  13
HETATM   13  N1  UNL     1      77.127   4.864  25.732  1.00  0.00    -0.078 N 
ATOM     14  H13 UNL     1      77.512   4.151  25.114  1.00  0.00     0.274 HD
ATOM     15  H12 UNL     1      76.604   4.234  26.340  1.00  0.00     0.274 HD
ATOM     16  H11 UNL     1      76.538   5.543  25.249  1.00  0.00     0.274 HD
ENDBRANCH  12  13
ENDBRANCH  11  12
ENDBRANCH   8  11
ENDBRANCH   7   8
ENDBRANCH   1   7
BRANCH   1  17
HETATM   17  N3  UNL     1      80.265   5.695  31.282  1.00  0.00    -0.397 N 
HETATM   18  C5  UNL     1      81.435   5.204  31.886  1.00  0.00     0.122 C 
HETATM   19  C6  UNL     1      80.761   4.414  33.025  1.00  0.00     0.007 C 
HETATM   20  C7  UNL     1      79.844   5.523  33.543  1.00  0.00     0.031 C 
HETATM   21  C9  UNL     1      79.515   3.869  32.383  1.00  0.00     0.031 C 
HETATM   22  C8  UNL     1      79.238   5.371  32.131  1.00  0.00     0.081 C 
ENDBRANCH   1  17
TORSDOF 6
ENDMDL
MODEL 4
REMARK VINA RESULT: -5.510221824      1.687      4.142
REMARK  6 active torsions:
REMARK  status: ('A' for Active; 'I' for Inactive)
REMARK    1  A    between atoms: N1_1  and  C1_5 
REMARK    2  A    between atoms: C1_5  and  C2_6 
REMARK    3  A    between atoms: C2_6  and  N2_7 
REMARK    4  A    between atoms: N2_7  and  C3_10 
REMARK    5  A    between atoms: C3_10  and  C4_11 
REMARK    6  A    between atoms: C4_11  and  N3_12 
ROOT
HETATM    1  C4  UNL     1      79.654   6.098  27.959  1.00  0.00     0.052 C 
HETATM    2  C10 UNL     1      78.906   7.328  27.460  1.00  0.00     0.032 C 
HETATM    3  C11 UNL     1      78.810   8.453  28.391  1.00  0.00     0.002 C 
HETATM    4  C12 UNL     1      78.661   8.154  29.846  1.00  0.00     0.000 C 
HETATM    5  C13 UNL     1      78.252   6.692  29.957  1.00  0.00     0.002 C 
HETATM    6  C14 UNL     1      79.488   5.947  29.464  1.00  0.00     0.032 C 
ENDROOT
BRANCH   1   7
HETATM    7  C3  UNL     1      78.930   4.943  27.295  1.00  0.00     0.263 C 
BRANCH   7   8
HETATM    8  N2  UNL     1      77.794   5.289  26.518  1.00  0.00    -0.071 N 
ATOM      9  H22 UNL     1      77.799   6.278  26.269  1.00  0.00     0.277 HD
ATOM     10  H21 UNL     1      76.940   5.272  27.076  1.00  0.00     0.277 HD
BRANCH   8  11
HETATM   11  C2  UNL     1      77.676   4.429  25.322  1.00  0.00     0.259 C 
BRANCH  11  12
HETATM   12  C1  UNL     1      79.042   4.564  24.641  1.00  0.00     0.257 C 
BRANCH  12  13
HETATM   13  N1  UNL     1      79.448   3.222  24.274  1.00  0.00    -0.078 N 
ATOM     14  H13 UNL     1      80.216   2.862  24.839  1.00  0.00     0.274 HD
ATOM     15  H12 UNL     1      78.763   2.509  24.526  1.00  0.00     0.274 HD
ATOM     16  H11 UNL     1      79.657   3.249  23.277  1.00  0.00     0.274 HD
ENDBRANCH  12  13
ENDBRANCH  11  12
ENDBRANCH   8  11
ENDBRANCH   7   8
ENDBRANCH   1   7
BRANCH   1  17
HETATM   17  N3  UNL     1      80.991   6.096  27.683  1.00  0.00    -0.397 N 
HETATM   18  C5  UNL     1      81.979   5.578  28.537  1.00  0.00     0.122 C 
HETATM   19  C6  UNL     1      83.201   6.209  27.842  1.00  0.00     0.007 C 
HETATM   20  C7  UNL     1      82.887   5.769  26.412  1.00  0.00     0.031 C 
HETATM   21  C9  UNL     1      82.693   7.553  27.397  1.00  0.00     0.031 C 
HETATM   22  C8  UNL     1      81.662   6.681  26.641  1.00  0.00     0.081 C 
ENDBRANCH   1  17
TORSDOF 6
ENDMDL
MODEL 5
REMARK VINA RESULT: -5.456996997      1.488      2.371
REMARK  6 active torsions:
REMARK  status: ('A' for Active; 'I' for Inactive)
REMARK    1  A    between atoms: N1_1  and  C1_5 
REMARK    2  A    between atoms: C1_5  and  C2_6 
REMARK    3  A    between atoms: C2_6  and  N2_7 
REMARK    4  A    between atoms: N2_7  and  C3_10 
REMARK    5  A    between atoms: C3_10  and  C4_11 
REMARK    6  A    between atoms: C4_11  and  N3_12 
ROOT
HETATM    1  C4  UNL     1      79.431   6.326  26.823  1.00  0.00     0.052 C 
HETATM    2  C10 UNL     1      78.845   6.811  25.502  1.00  0.00     0.032 C 
HETATM    3  C11 UNL     1      77.607   6.167  25.064  1.00  0.00     0.002 C 
HETATM    4  C12 UNL     1      77.427   4.714  25.352  1.00  0.00     0.000 C 
HETATM    5  C13 UNL     1      78.799   4.162  25.713  1.00  0.00     0.002 C 
HETATM    6  C14 UNL     1      79.114   4.852  27.036  1.00  0.00     0.032 C 
ENDROOT
BRANCH   1   7
HETATM    7  C3  UNL     1      80.928   6.452  26.621  1.00  0.00     0.263 C 
BRANCH   7   8
HETATM    8  N2  UNL     1      81.732   5.554  27.369  1.00  0.00    -0.071 N 
ATOM      9  H22 UNL     1      82.287   4.953  26.760  1.00  0.00     0.277 HD
ATOM     10  H21 UNL     1      81.167   4.837  27.825  1.00  0.00     0.277 HD
BRANCH   8  11
HETATM   11  C2  UNL     1      82.582   6.272  28.342  1.00  0.00     0.259 C 
BRANCH  11  12
HETATM   12  C1  UNL     1      83.137   5.156  29.234  1.00  0.00     0.257 C 
BRANCH  12  13
HETATM   13  N1  UNL     1      82.215   5.028  30.345  1.00  0.00    -0.078 N 
ATOM     14  H13 UNL     1      82.523   5.516  31.185  1.00  0.00     0.274 HD
ATOM     15  H12 UNL     1      81.345   5.544  30.211  1.00  0.00     0.274 HD
ATOM     16  H11 UNL     1      82.075   4.028  30.487  1.00  0.00     0.274 HD
ENDBRANCH  12  13
ENDBRANCH  11  12
ENDBRANCH   8  11
ENDBRANCH   7   8
ENDBRANCH   1   7
BRANCH   1  17
HETATM   17  N3  UNL     1      78.999   7.010  27.921  1.00  0.00    -0.397 N 
HETATM   18  C5  UNL     1      79.227   8.377  28.148  1.00  0.00     0.122 C 
HETATM   19  C6  UNL     1      78.846   8.404  29.641  1.00  0.00     0.007 C 
HETATM   20  C7  UNL     1      77.496   7.694  29.531  1.00  0.00     0.031 C 
HETATM   21  C9  UNL     1      79.348   7.082  30.153  1.00  0.00     0.031 C 
HETATM   22  C8  UNL     1      78.400   6.534  29.059  1.00  0.00     0.081 C 
ENDBRANCH   1  17
TORSDOF 6
ENDMDL
