MODEL 1
REMARK VINA RESULT: -6.019808761      0.000      0.000
REMARK  3 active torsions:
REMARK  status: ('A' for Active; 'I' for Inactive)
REMARK    1  A    between atoms: C2_2  and  C3_3 
REMARK    2  A    between atoms: C2_2  and  N1_11 
REMARK    3  A    between atoms: C4_4  and  C5_5 
ROOT
HETATM    1  C1  UNL     1      26.646   7.659  15.339  1.00  0.00     0.048 C 
HETATM    2  C2  UNL     1      25.164   7.418  15.528  1.00  0.00     0.184 C 
ENDROOT
BRANCH   2   3
HETATM    3  C3  UNL     1      24.583   6.763  14.361  1.00  0.00    -0.074 C 
HETATM    4  C4  UNL     1      24.082   6.231  13.393  1.00  0.00    -0.065 C 
BRANCH   4   5
HETATM    5  C5  UNL     1      23.467   5.611  12.242  1.00  0.00     0.017 A 
HETATM    6  C6  UNL     1      22.905   4.384  12.380  1.00  0.00     0.020 A 
HETATM    7  C7  UNL     1      22.310   3.772  11.292  1.00  0.00     0.001 A 
HETATM    8  C8  UNL     1      22.287   4.410  10.059  1.00  0.00     0.000 A 
HETATM    9  C9  UNL     1      22.852   5.658   9.898  1.00  0.00     0.001 A 
HETATM   10  C10 UNL     1      23.435   6.231  11.010  1.00  0.00     0.020 A 
ENDBRANCH   4   5
ENDBRANCH   2   3
BRANCH   2  11
HETATM   11  N1  UNL     1      24.879   6.601  16.680  1.00  0.00    -0.271 N 
HETATM   12  C11 UNL     1      23.742   6.100  17.151  1.00  0.00     0.202 A 
HETATM   13  N2  UNL     1      24.008   5.402  18.259  1.00  0.00    -0.346 N 
HETATM   14  C12 UNL     1      25.333   5.458  18.498  1.00  0.00     0.198 A 
ATOM     15  H2  UNL     1      23.321   4.909  18.830  1.00  0.00     0.167 HD
HETATM   16  N3  UNL     1      25.847   6.198  17.518  1.00  0.00    -0.292 N 
ATOM     17  H3  UNL     1      26.836   6.426  17.418  1.00  0.00     0.188 HD
ENDBRANCH   2  11
TORSDOF 3
ENDMDL
MODEL 2
REMARK VINA RESULT: -5.998940378      0.071      1.232
REMARK  3 active torsions:
REMARK  status: ('A' for Active; 'I' for Inactive)
REMARK    1  A    between atoms: C2_2  and  C3_3 
REMARK    2  A    between atoms: C2_2  and  N1_11 
REMARK    3  A    between atoms: C4_4  and  C5_5 
ROOT
HETATM    1  C1  UNL     1      26.672   7.735  15.352  1.00  0.00     0.048 C 
HETATM    2  C2  UNL     1      25.191   7.486  15.538  1.00  0.00     0.184 C 
ENDROOT
BRANCH   2   3
HETATM    3  C3  UNL     1      24.614   6.832  14.368  1.00  0.00    -0.074 C 
HETATM    4  C4  UNL     1      24.116   6.288  13.405  1.00  0.00    -0.065 C 
BRANCH   4   5
HETATM    5  C5  UNL     1      23.501   5.644  12.268  1.00  0.00     0.017 A 
HETATM    6  C6  UNL     1      23.500   6.285  11.072  1.00  0.00     0.020 A 
HETATM    7  C7  UNL     1      22.918   5.687   9.969  1.00  0.00     0.001 A 
HETATM    8  C8  UNL     1      22.333   4.433  10.083  1.00  0.00     0.000 A 
HETATM    9  C9  UNL     1      22.323   3.765  11.290  1.00  0.00     0.001 A 
HETATM   10  C10 UNL     1      22.915   4.398  12.363  1.00  0.00     0.020 A 
ENDBRANCH   4   5
ENDBRANCH   2   3
BRANCH   2  11
HETATM   11  N1  UNL     1      24.908   6.663  16.687  1.00  0.00    -0.271 N 
HETATM   12  C11 UNL     1      23.769   6.186  17.176  1.00  0.00     0.202 A 
HETATM   13  N2  UNL     1      24.040   5.470  18.272  1.00  0.00    -0.346 N 
HETATM   14  C12 UNL     1      25.371   5.489  18.483  1.00  0.00     0.198 A 
ATOM     15  H2  UNL     1      23.353   4.988  18.851  1.00  0.00     0.167 HD
HETATM   16  N3  UNL     1      25.883   6.226  17.501  1.00  0.00    -0.292 N 
ATOM     17  H3  UNL     1      26.875   6.431  17.383  1.00  0.00     0.188 HD
ENDBRANCH   2  11
TORSDOF 3
ENDMDL
MODEL 3
REMARK VINA RESULT: -5.895878071      3.992      5.340
REMARK  3 active torsions:
REMARK  status: ('A' for Active; 'I' for Inactive)
REMARK    1  A    between atoms: C2_2  and  C3_3 
REMARK    2  A    between atoms: C2_2  and  N1_11 
REMARK    3  A    between atoms: C4_4  and  C5_5 
ROOT
HETATM    1  C1  UNL     1      25.236   5.250  20.319  1.00  0.00     0.048 C 
HETATM    2  C2  UNL     1      26.447   5.726  19.546  1.00  0.00     0.184 C 
ENDROOT
BRANCH   2   3
HETATM    3  C3  UNL     1      26.053   6.483  18.362  1.00  0.00    -0.074 C 
HETATM    4  C4  UNL     1      25.707   7.102  17.378  1.00  0.00    -0.065 C 
BRANCH   4   5
HETATM    5  C5  UNL     1      25.274   7.829  16.207  1.00  0.00     0.017 A 
HETATM    6  C6  UNL     1      26.021   7.756  15.077  1.00  0.00     0.020 A 
HETATM    7  C7  UNL     1      25.625   8.443  13.943  1.00  0.00     0.001 A 
HETATM    8  C8  UNL     1      24.466   9.207  13.961  1.00  0.00     0.000 A 
HETATM    9  C9  UNL     1      23.693   9.294  15.100  1.00  0.00     0.001 A 
HETATM   10  C10 UNL     1      24.125   8.593  16.206  1.00  0.00     0.020 A 
ENDBRANCH   4   5
ENDBRANCH   2   3
BRANCH   2  11
HETATM   11  N1  UNL     1      27.315   6.562  20.336  1.00  0.00    -0.271 N 
HETATM   12  C11 UNL     1      27.385   7.882  20.477  1.00  0.00     0.202 A 
HETATM   13  N2  UNL     1      28.371   8.168  21.333  1.00  0.00    -0.346 N 
HETATM   14  C12 UNL     1      28.937   7.016  21.743  1.00  0.00     0.198 A 
ATOM     15  H2  UNL     1      28.649   9.105  21.627  1.00  0.00     0.167 HD
HETATM   16  N3  UNL     1      28.274   6.045  21.119  1.00  0.00    -0.292 N 
ATOM     17  H3  UNL     1      28.468   5.049  21.221  1.00  0.00     0.188 HD
ENDBRANCH   2  11
TORSDOF 3
ENDMDL
MODEL 4
REMARK VINA RESULT: -5.856230237      3.856      4.837
REMARK  3 active torsions:
REMARK  status: ('A' for Active; 'I' for Inactive)
REMARK    1  A    between atoms: C2_2  and  C3_3 
REMARK    2  A    between atoms: C2_2  and  N1_11 
REMARK    3  A    between atoms: C4_4  and  C5_5 
ROOT
HETATM    1  C1  UNL     1      27.054   6.919  20.030  1.00  0.00     0.048 C 
HETATM    2  C2  UNL     1      25.620   7.387  19.907  1.00  0.00     0.184 C 
ENDROOT
BRANCH   2   3
HETATM    3  C3  UNL     1      25.333   7.857  18.556  1.00  0.00    -0.074 C 
HETATM    4  C4  UNL     1      25.077   8.236  17.433  1.00  0.00    -0.065 C 
BRANCH   4   5
HETATM    5  C5  UNL     1      24.752   8.673  16.094  1.00  0.00     0.017 A 
HETATM    6  C6  UNL     1      23.626   9.405  15.900  1.00  0.00     0.020 A 
HETATM    7  C7  UNL     1      23.294   9.835  14.628  1.00  0.00     0.001 A 
HETATM    8  C8  UNL     1      24.111   9.519  13.550  1.00  0.00     0.000 A 
HETATM    9  C9  UNL     1      25.260   8.776  13.727  1.00  0.00     0.001 A 
HETATM   10  C10 UNL     1      25.552   8.369  15.013  1.00  0.00     0.020 A 
ENDBRANCH   4   5
ENDBRANCH   2   3
BRANCH   2  11
HETATM   11  N1  UNL     1      24.671   6.350  20.225  1.00  0.00    -0.271 N 
HETATM   12  C11 UNL     1      24.832   5.084  20.593  1.00  0.00     0.202 A 
HETATM   13  N2  UNL     1      23.627   4.534  20.771  1.00  0.00    -0.346 N 
HETATM   14  C12 UNL     1      22.684   5.462  20.514  1.00  0.00     0.198 A 
ATOM     15  H2  UNL     1      23.449   3.570  21.056  1.00  0.00     0.167 HD
HETATM   16  N3  UNL     1      23.346   6.568  20.180  1.00  0.00    -0.292 N 
ATOM     17  H3  UNL     1      22.910   7.454  19.926  1.00  0.00     0.188 HD
ENDBRANCH   2  11
TORSDOF 3
ENDMDL
MODEL 5
REMARK VINA RESULT: -5.852047002      5.632      9.561
REMARK  3 active torsions:
REMARK  status: ('A' for Active; 'I' for Inactive)
REMARK    1  A    between atoms: C2_2  and  C3_3 
REMARK    2  A    between atoms: C2_2  and  N1_11 
REMARK    3  A    between atoms: C4_4  and  C5_5 
ROOT
HETATM    1  C1  UNL     1      25.777   7.713  18.053  1.00  0.00     0.048 C 
HETATM    2  C2  UNL     1      25.994   6.514  18.950  1.00  0.00     0.184 C 
ENDROOT
BRANCH   2   3
HETATM    3  C3  UNL     1      26.955   6.813  20.006  1.00  0.00    -0.074 C 
HETATM    4  C4  UNL     1      27.739   7.058  20.899  1.00  0.00    -0.065 C 
BRANCH   4   5
HETATM    5  C5  UNL     1      28.656   7.342  21.979  1.00  0.00     0.017 A 
HETATM    6  C6  UNL     1      29.633   8.264  21.783  1.00  0.00     0.020 A 
HETATM    7  C7  UNL     1      30.523   8.553  22.802  1.00  0.00     0.001 A 
HETATM    8  C8  UNL     1      30.418   7.902  24.024  1.00  0.00     0.000 A 
HETATM    9  C9  UNL     1      29.432   6.962  24.243  1.00  0.00     0.001 A 
HETATM   10  C10 UNL     1      28.567   6.705  23.199  1.00  0.00     0.020 A 
ENDBRANCH   4   5
ENDBRANCH   2   3
BRANCH   2  11
HETATM   11  N1  UNL     1      24.777   6.063  19.576  1.00  0.00    -0.271 N 
HETATM   12  C11 UNL     1      24.498   4.977  20.288  1.00  0.00     0.202 A 
HETATM   13  N2  UNL     1      23.211   5.021  20.648  1.00  0.00    -0.346 N 
HETATM   14  C12 UNL     1      22.663   6.151  20.159  1.00  0.00     0.198 A 
ATOM     15  H2  UNL     1      22.724   4.315  21.201  1.00  0.00     0.167 HD
HETATM   16  N3  UNL     1      23.640   6.774  19.505  1.00  0.00    -0.292 N 
ATOM     17  H3  UNL     1      23.540   7.665  19.019  1.00  0.00     0.188 HD
ENDBRANCH   2  11
TORSDOF 3
ENDMDL
