MODEL 1
REMARK VINA RESULT: -6.350489577      0.000      0.000
REMARK  4 active torsions:
REMARK  status: ('A' for Active; 'I' for Inactive)
REMARK    1  A    between atoms: O1_2  and  C2_3 
REMARK    2  A    between atoms: C2_3  and  O2_4 
REMARK    3  A    between atoms: C2_3  and  C3_6 
REMARK    4  A    between atoms: C4_7  and  C5_8 
ROOT
HETATM    1  C3  UNL     1      -7.645  37.812  -6.088  1.00  0.00     0.011 C 
HETATM    2  C4  UNL     1      -6.619  38.502  -5.683  1.00  0.00    -0.055 C 
HETATM    3  C9  UNL     1      -5.763  39.182  -6.806  1.00  0.00     0.087 C 
HETATM    4  C10 UNL     1      -6.631  39.725  -7.850  1.00  0.00    -0.015 C 
HETATM    5  N1  UNL     1      -6.237  40.697  -8.553  1.00  0.00    -0.405 N 
ATOM      6  H11 UNL     1      -6.843  41.076  -9.281  1.00  0.00     0.155 HD
ATOM      7  H12 UNL     1      -5.313  41.093  -8.381  1.00  0.00     0.155 HD
HETATM    8  C11 UNL     1      -7.979  39.146  -8.099  1.00  0.00     0.066 C 
HETATM    9  C12 UNL     1      -7.862  37.705  -7.609  1.00  0.00    -0.011 C 
HETATM   10  C13 UNL     1      -6.724  36.989  -8.270  1.00  0.00     0.020 C 
HETATM   11  C14 UNL     1      -9.112  37.040  -8.017  1.00  0.00     0.020 C 
ENDROOT
BRANCH   1  12
HETATM   12  C2  UNL     1      -8.532  37.162  -5.202  1.00  0.00     0.185 C 
BRANCH  12  13
HETATM   13  O1  UNL     1      -8.676  35.898  -4.746  1.00  0.00    -0.335 OA
HETATM   14  C1  UNL     1      -9.015  35.506  -3.429  1.00  0.00     0.212 C 
ENDBRANCH  12  13
BRANCH  12  15
HETATM   15  O2  UNL     1      -9.458  37.912  -4.658  1.00  0.00    -0.341 OA
ATOM     16  H2  UNL     1      -9.095  38.775  -4.497  1.00  0.00     0.220 HD
ENDBRANCH  12  15
ENDBRANCH   1  12
BRANCH   2  17
HETATM   17  C5  UNL     1      -6.089  38.808  -4.414  1.00  0.00    -0.027 C 
HETATM   18  C6  UNL     1      -5.393  40.205  -4.566  1.00  0.00     0.019 C 
HETATM   19  C7  UNL     1      -4.822  37.839  -4.249  1.00  0.00     0.019 C 
HETATM   20  C8  UNL     1      -6.626  38.836  -3.074  1.00  0.00     0.019 C 
ENDBRANCH   2  17
TORSDOF 4
ENDMDL
MODEL 2
REMARK VINA RESULT: -5.656921715      2.277      3.632
REMARK  4 active torsions:
REMARK  status: ('A' for Active; 'I' for Inactive)
REMARK    1  A    between atoms: O1_2  and  C2_3 
REMARK    2  A    between atoms: C2_3  and  O2_4 
REMARK    3  A    between atoms: C2_3  and  C3_6 
REMARK    4  A    between atoms: C4_7  and  C5_8 
ROOT
HETATM    1  C3  UNL     1      -6.435  38.272  -5.526  1.00  0.00     0.011 C 
HETATM    2  C4  UNL     1      -7.600  37.974  -5.027  1.00  0.00    -0.055 C 
HETATM    3  C9  UNL     1      -8.800  37.983  -6.034  1.00  0.00     0.087 C 
HETATM    4  C10 UNL     1      -8.395  37.405  -7.314  1.00  0.00    -0.015 C 
HETATM    5  N1  UNL     1      -9.258  36.870  -8.064  1.00  0.00    -0.405 N 
ATOM      6  H11 UNL     1      -8.975  36.466  -8.958  1.00  0.00     0.155 HD
ATOM      7  H12 UNL     1     -10.233  36.848  -7.765  1.00  0.00     0.155 HD
HETATM    8  C11 UNL     1      -6.973  37.438  -7.751  1.00  0.00     0.066 C 
HETATM    9  C12 UNL     1      -6.386  38.643  -7.019  1.00  0.00    -0.011 C 
HETATM   10  C13 UNL     1      -7.171  39.889  -7.295  1.00  0.00     0.020 C 
HETATM   11  C14 UNL     1      -5.034  38.829  -7.574  1.00  0.00     0.020 C 
ENDROOT
BRANCH   1  12
HETATM   12  C2  UNL     1      -5.251  38.280  -4.758  1.00  0.00     0.185 C 
BRANCH  12  13
HETATM   13  O1  UNL     1      -4.346  37.349  -4.380  1.00  0.00    -0.335 OA
HETATM   14  C1  UNL     1      -4.025  36.968  -3.056  1.00  0.00     0.212 C 
ENDBRANCH  12  13
BRANCH  12  15
HETATM   15  O2  UNL     1      -4.886  39.440  -4.270  1.00  0.00    -0.341 OA
ATOM     16  H2  UNL     1      -3.963  39.570  -4.453  1.00  0.00     0.220 HD
ENDBRANCH  12  15
ENDBRANCH   1  12
BRANCH   2  17
HETATM   17  C5  UNL     1      -8.046  37.612  -3.740  1.00  0.00    -0.027 C 
HETATM   18  C6  UNL     1      -7.883  36.055  -3.652  1.00  0.00     0.019 C 
HETATM   19  C7  UNL     1      -9.642  37.762  -3.798  1.00  0.00     0.019 C 
HETATM   20  C8  UNL     1      -7.748  38.065  -2.402  1.00  0.00     0.019 C 
ENDBRANCH   2  17
TORSDOF 4
ENDMDL
MODEL 3
REMARK VINA RESULT: -5.484407030      1.960      4.165
REMARK  4 active torsions:
REMARK  status: ('A' for Active; 'I' for Inactive)
REMARK    1  A    between atoms: O1_2  and  C2_3 
REMARK    2  A    between atoms: C2_3  and  O2_4 
REMARK    3  A    between atoms: C2_3  and  C3_6 
REMARK    4  A    between atoms: C4_7  and  C5_8 
ROOT
HETATM    1  C3  UNL     1      -7.556  37.603  -4.019  1.00  0.00     0.011 C 
HETATM    2  C4  UNL     1      -6.997  37.970  -5.136  1.00  0.00    -0.055 C 
HETATM    3  C9  UNL     1      -5.534  38.520  -5.022  1.00  0.00     0.087 C 
HETATM    4  C10 UNL     1      -4.768  37.735  -4.055  1.00  0.00    -0.015 C 
HETATM    5  N1  UNL     1      -3.512  37.664  -4.157  1.00  0.00    -0.405 N 
ATOM      6  H11 UNL     1      -2.978  37.116  -3.482  1.00  0.00     0.155 HD
ATOM      7  H12 UNL     1      -3.045  38.158  -4.917  1.00  0.00     0.155 HD
HETATM    8  C11 UNL     1      -5.450  37.014  -2.945  1.00  0.00     0.066 C 
HETATM    9  C12 UNL     1      -6.741  37.801  -2.728  1.00  0.00    -0.011 C 
HETATM   10  C13 UNL     1      -6.466  39.252  -2.477  1.00  0.00     0.020 C 
HETATM   11  C14 UNL     1      -7.352  37.239  -1.510  1.00  0.00     0.020 C 
ENDROOT
BRANCH   1  12
HETATM   12  C2  UNL     1      -8.857  37.060  -3.955  1.00  0.00     0.185 C 
BRANCH  12  13
HETATM   13  O1  UNL     1     -10.089  37.550  -3.690  1.00  0.00    -0.335 OA
HETATM   14  C1  UNL     1     -10.936  37.184  -2.617  1.00  0.00     0.212 C 
ENDBRANCH  12  13
BRANCH  12  15
HETATM   15  O2  UNL     1      -8.963  35.778  -4.204  1.00  0.00    -0.341 OA
ATOM     16  H2  UNL     1      -9.576  35.398  -3.586  1.00  0.00     0.220 HD
ENDBRANCH  12  15
ENDBRANCH   1  12
BRANCH   2  17
HETATM   17  C5  UNL     1      -7.413  37.968  -6.482  1.00  0.00    -0.027 C 
HETATM   18  C6  UNL     1      -6.119  37.709  -7.330  1.00  0.00     0.019 C 
HETATM   19  C7  UNL     1      -7.715  39.505  -6.825  1.00  0.00     0.019 C 
HETATM   20  C8  UNL     1      -8.449  37.284  -7.219  1.00  0.00     0.019 C 
ENDBRANCH   2  17
TORSDOF 4
ENDMDL
MODEL 4
REMARK VINA RESULT: -5.303228105      1.955      4.135
REMARK  4 active torsions:
REMARK  status: ('A' for Active; 'I' for Inactive)
REMARK    1  A    between atoms: O1_2  and  C2_3 
REMARK    2  A    between atoms: C2_3  and  O2_4 
REMARK    3  A    between atoms: C2_3  and  C3_6 
REMARK    4  A    between atoms: C4_7  and  C5_8 
ROOT
HETATM    1  C3  UNL     1      -7.228  37.896  -3.810  1.00  0.00     0.011 C 
HETATM    2  C4  UNL     1      -6.592  38.512  -4.763  1.00  0.00    -0.055 C 
HETATM    3  C9  UNL     1      -5.234  39.183  -4.360  1.00  0.00     0.087 C 
HETATM    4  C10 UNL     1      -4.495  38.323  -3.437  1.00  0.00    -0.015 C 
HETATM    5  N1  UNL     1      -3.237  38.402  -3.374  1.00  0.00    -0.405 N 
ATOM      6  H11 UNL     1      -2.721  37.802  -2.730  1.00  0.00     0.155 HD
ATOM      7  H12 UNL     1      -2.749  39.070  -3.972  1.00  0.00     0.155 HD
HETATM    8  C11 UNL     1      -5.206  37.349  -2.565  1.00  0.00     0.066 C 
HETATM    9  C12 UNL     1      -6.603  37.945  -2.404  1.00  0.00    -0.011 C 
HETATM   10  C13 UNL     1      -6.546  39.349  -1.884  1.00  0.00     0.020 C 
HETATM   11  C14 UNL     1      -7.278  37.115  -1.390  1.00  0.00     0.020 C 
ENDROOT
BRANCH   1  12
HETATM   12  C2  UNL     1      -8.449  37.217  -4.015  1.00  0.00     0.185 C 
BRANCH  12  13
HETATM   13  O1  UNL     1      -8.799  35.958  -4.360  1.00  0.00    -0.335 OA
HETATM   14  C1  UNL     1      -9.181  34.914  -3.483  1.00  0.00     0.212 C 
ENDBRANCH  12  13
BRANCH  12  15
HETATM   15  O2  UNL     1      -9.539  37.922  -3.844  1.00  0.00    -0.341 OA
ATOM     16  H2  UNL     1      -9.413  38.777  -4.239  1.00  0.00     0.220 HD
ENDBRANCH  12  15
ENDBRANCH   1  12
BRANCH   2  17
HETATM   17  C5  UNL     1      -6.841  38.706  -6.137  1.00  0.00    -0.027 C 
HETATM   18  C6  UNL     1      -5.745  37.879  -6.893  1.00  0.00     0.019 C 
HETATM   19  C7  UNL     1      -6.368  40.209  -6.435  1.00  0.00     0.019 C 
HETATM   20  C8  UNL     1      -8.007  38.582  -6.979  1.00  0.00     0.019 C 
ENDBRANCH   2  17
TORSDOF 4
ENDMDL
MODEL 5
REMARK VINA RESULT: -5.262535691      2.051      3.650
REMARK  4 active torsions:
REMARK  status: ('A' for Active; 'I' for Inactive)
REMARK    1  A    between atoms: O1_2  and  C2_3 
REMARK    2  A    between atoms: C2_3  and  O2_4 
REMARK    3  A    between atoms: C2_3  and  C3_6 
REMARK    4  A    between atoms: C4_7  and  C5_8 
ROOT
HETATM    1  C3  UNL     1      -7.152  38.304  -5.300  1.00  0.00     0.011 C 
HETATM    2  C4  UNL     1      -7.315  38.059  -4.033  1.00  0.00    -0.055 C 
HETATM    3  C9  UNL     1      -6.079  38.347  -3.114  1.00  0.00     0.087 C 
HETATM    4  C10 UNL     1      -5.411  39.579  -3.530  1.00  0.00    -0.015 C 
HETATM    5  N1  UNL     1      -4.744  40.247  -2.692  1.00  0.00    -0.405 N 
ATOM      6  H11 UNL     1      -4.278  41.107  -2.983  1.00  0.00     0.155 HD
ATOM      7  H12 UNL     1      -4.680  39.917  -1.729  1.00  0.00     0.155 HD
HETATM    8  C11 UNL     1      -5.503  40.060  -4.935  1.00  0.00     0.066 C 
HETATM    9  C12 UNL     1      -5.762  38.793  -5.747  1.00  0.00    -0.011 C 
HETATM   10  C13 UNL     1      -4.714  37.753  -5.493  1.00  0.00     0.020 C 
HETATM   11  C14 UNL     1      -5.666  39.196  -7.161  1.00  0.00     0.020 C 
ENDROOT
BRANCH   1  12
HETATM   12  C2  UNL     1      -8.177  38.125  -6.255  1.00  0.00     0.185 C 
BRANCH  12  13
HETATM   13  O1  UNL     1      -8.723  37.062  -6.886  1.00  0.00    -0.335 OA
HETATM   14  C1  UNL     1      -8.766  36.835  -8.283  1.00  0.00     0.212 C 
ENDBRANCH  12  13
BRANCH  12  15
HETATM   15  O2  UNL     1      -8.784  39.211  -6.663  1.00  0.00    -0.341 OA
ATOM     16  H2  UNL     1      -8.173  39.724  -7.180  1.00  0.00     0.220 HD
ENDBRANCH  12  15
ENDBRANCH   1  12
BRANCH   2  17
HETATM   17  C5  UNL     1      -8.398  37.594  -3.260  1.00  0.00    -0.027 C 
HETATM   18  C6  UNL     1      -8.106  38.057  -1.790  1.00  0.00     0.019 C 
HETATM   19  C7  UNL     1      -8.174  36.010  -3.144  1.00  0.00     0.019 C 
HETATM   20  C8  UNL     1      -9.834  37.689  -3.371  1.00  0.00     0.019 C 
ENDBRANCH   2  17
TORSDOF 4
ENDMDL
