MODEL 1
REMARK VINA RESULT: -7.716670916      0.000      0.000
REMARK  1 active torsions:
REMARK  status: ('A' for Active; 'I' for Inactive)
REMARK    1  A    between atoms: C7_7  and  C9_9 
ROOT
HETATM    1  C9  UNL     1      -6.567  37.727  -9.931  1.00  0.00     0.035 C 
HETATM    2  C10 UNL     1      -6.764  36.392  -9.265  1.00  0.00     0.021 C 
HETATM    3  C11 UNL     1      -7.260  36.693  -7.856  1.00  0.00    -0.013 C 
HETATM    4  C12 UNL     1      -8.706  37.093  -7.989  1.00  0.00     0.008 C 
HETATM    5  C13 UNL     1      -8.904  38.135  -9.033  1.00  0.00     0.053 C 
HETATM    6  C14 UNL     1      -7.636  38.717  -9.601  1.00  0.00     0.174 C 
HETATM    7  F1  UNL     1      -7.985  39.564 -10.611  1.00  0.00    -0.234 F 
HETATM    8  C15 UNL     1      -7.085  39.591  -8.495  1.00  0.00     0.171 C 
HETATM    9  O1  UNL     1      -7.502  40.656  -8.132  1.00  0.00    -0.294 OA
HETATM   10  C16 UNL     1      -5.921  38.822  -7.974  1.00  0.00     0.060 C 
HETATM   11  C17 UNL     1      -6.438  37.690  -7.125  1.00  0.00     0.017 C 
HETATM   12  C18 UNL     1      -5.325  38.315  -9.283  1.00  0.00     0.028 C 
ENDROOT
BRANCH   1  13
HETATM   13  C7  UNL     1      -6.255  37.608 -11.408  1.00  0.00     0.069 C 
HETATM   14  C6  UNL     1      -5.470  36.365 -11.744  1.00  0.00     0.038 C 
HETATM   15  C5  UNL     1      -5.761  35.843 -13.118  1.00  0.00     0.006 C 
HETATM   16  C4  UNL     1      -6.423  36.798 -14.040  1.00  0.00     0.037 C 
HETATM   17  C2  UNL     1      -7.437  37.705 -13.423  1.00  0.00     0.055 C 
HETATM   18  C1  UNL     1      -8.827  37.164 -13.814  1.00  0.00     0.045 C 
HETATM   19  C3  UNL     1      -7.353  39.041 -14.128  1.00  0.00     0.045 C 
HETATM   20  O2  UNL     1      -7.431  37.762 -12.062  1.00  0.00    -0.369 OA
HETATM   21  C8  UNL     1      -5.264  38.752 -11.698  1.00  0.00     0.047 C 
ENDBRANCH   1  13
TORSDOF 1
ENDMDL
MODEL 2
REMARK VINA RESULT: -6.612807361      1.462      2.293
REMARK  1 active torsions:
REMARK  status: ('A' for Active; 'I' for Inactive)
REMARK    1  A    between atoms: C7_7  and  C9_9 
ROOT
HETATM    1  C9  UNL     1      -6.797  38.269  -9.854  1.00  0.00     0.035 C 
HETATM    2  C10 UNL     1      -5.983  39.371  -9.233  1.00  0.00     0.021 C 
HETATM    3  C11 UNL     1      -6.431  39.460  -7.779  1.00  0.00    -0.013 C 
HETATM    4  C12 UNL     1      -5.803  38.290  -7.067  1.00  0.00     0.008 C 
HETATM    5  C13 UNL     1      -6.031  37.009  -7.790  1.00  0.00     0.053 C 
HETATM    6  C14 UNL     1      -6.986  37.094  -8.951  1.00  0.00     0.174 C 
HETATM    7  F1  UNL     1      -7.000  35.876  -9.566  1.00  0.00    -0.234 F 
HETATM    8  C15 UNL     1      -8.351  37.255  -8.316  1.00  0.00     0.171 C 
HETATM    9  O1  UNL     1      -8.994  36.415  -7.750  1.00  0.00    -0.294 OA
HETATM   10  C16 UNL     1      -8.695  38.683  -8.560  1.00  0.00     0.060 C 
HETATM   11  C17 UNL     1      -7.904  39.534  -7.602  1.00  0.00     0.017 C 
HETATM   12  C18 UNL     1      -8.198  38.839  -9.993  1.00  0.00     0.028 C 
ENDROOT
BRANCH   1  13
HETATM   13  C7  UNL     1      -6.343  37.919 -11.255  1.00  0.00     0.069 C 
HETATM   14  C6  UNL     1      -5.564  36.629 -11.313  1.00  0.00     0.038 C 
HETATM   15  C5  UNL     1      -5.732  35.903 -12.615  1.00  0.00     0.006 C 
HETATM   16  C4  UNL     1      -6.271  36.713 -13.735  1.00  0.00     0.037 C 
HETATM   17  C2  UNL     1      -7.315  37.717 -13.371  1.00  0.00     0.055 C 
HETATM   18  C1  UNL     1      -8.674  37.139 -13.816  1.00  0.00     0.045 C 
HETATM   19  C3  UNL     1      -7.124  38.926 -14.260  1.00  0.00     0.045 C 
HETATM   20  O2  UNL     1      -7.444  37.984 -12.042  1.00  0.00    -0.369 OA
HETATM   21  C8  UNL     1      -5.296  38.991 -11.613  1.00  0.00     0.047 C 
ENDBRANCH   1  13
TORSDOF 1
ENDMDL
MODEL 3
REMARK VINA RESULT: -5.954128824      3.658      6.915
REMARK  1 active torsions:
REMARK  status: ('A' for Active; 'I' for Inactive)
REMARK    1  A    between atoms: C7_7  and  C9_9 
ROOT
HETATM    1  C9  UNL     1      -6.670  38.320  -5.972  1.00  0.00     0.035 C 
HETATM    2  C10 UNL     1      -8.163  38.143  -5.933  1.00  0.00     0.021 C 
HETATM    3  C11 UNL     1      -8.644  38.288  -7.372  1.00  0.00    -0.013 C 
HETATM    4  C12 UNL     1      -8.285  37.004  -8.072  1.00  0.00     0.008 C 
HETATM    5  C13 UNL     1      -6.864  36.623  -7.848  1.00  0.00     0.053 C 
HETATM    6  C14 UNL     1      -6.028  37.665  -7.152  1.00  0.00     0.174 C 
HETATM    7  F1  UNL     1      -4.796  37.123  -6.925  1.00  0.00    -0.234 F 
HETATM    8  C15 UNL     1      -5.823  38.749  -8.187  1.00  0.00     0.171 C 
HETATM    9  O1  UNL     1      -5.110  38.711  -9.151  1.00  0.00    -0.294 OA
HETATM   10  C16 UNL     1      -6.708  39.856  -7.729  1.00  0.00     0.060 C 
HETATM   11  C17 UNL     1      -8.132  39.498  -8.062  1.00  0.00     0.017 C 
HETATM   12  C18 UNL     1      -6.451  39.801  -6.227  1.00  0.00     0.028 C 
ENDROOT
BRANCH   1  13
HETATM   13  C7  UNL     1      -6.005  38.017  -4.646  1.00  0.00     0.069 C 
HETATM   14  C6  UNL     1      -4.988  36.908  -4.740  1.00  0.00     0.038 C 
HETATM   15  C5  UNL     1      -3.864  37.061  -3.759  1.00  0.00     0.006 C 
HETATM   16  C4  UNL     1      -4.118  37.993  -2.633  1.00  0.00     0.037 C 
HETATM   17  C2  UNL     1      -4.910  39.216  -2.965  1.00  0.00     0.055 C 
HETATM   18  C1  UNL     1      -3.915  40.393  -3.037  1.00  0.00     0.045 C 
HETATM   19  C3  UNL     1      -5.777  39.543  -1.770  1.00  0.00     0.045 C 
HETATM   20  O2  UNL     1      -5.551  39.200  -4.166  1.00  0.00    -0.369 OA
HETATM   21  C8  UNL     1      -7.120  37.413  -3.772  1.00  0.00     0.047 C 
ENDBRANCH   1  13
TORSDOF 1
ENDMDL
MODEL 4
REMARK VINA RESULT: -5.471559482      3.082      6.641
REMARK  1 active torsions:
REMARK  status: ('A' for Active; 'I' for Inactive)
REMARK    1  A    between atoms: C7_7  and  C9_9 
ROOT
HETATM    1  C9  UNL     1      -6.423  38.113  -6.685  1.00  0.00     0.035 C 
HETATM    2  C10 UNL     1      -5.591  39.062  -7.506  1.00  0.00     0.021 C 
HETATM    3  C11 UNL     1      -6.131  38.973  -8.929  1.00  0.00    -0.013 C 
HETATM    4  C12 UNL     1      -7.426  39.742  -8.942  1.00  0.00     0.008 C 
HETATM    5  C13 UNL     1      -8.328  39.337  -7.829  1.00  0.00     0.053 C 
HETATM    6  C14 UNL     1      -7.872  38.134  -7.046  1.00  0.00     0.174 C 
HETATM    7  F1  UNL     1      -8.739  37.964  -6.006  1.00  0.00    -0.234 F 
HETATM    8  C15 UNL     1      -8.100  36.961  -7.975  1.00  0.00     0.171 C 
HETATM    9  O1  UNL     1      -9.149  36.463  -8.276  1.00  0.00    -0.294 OA
HETATM   10  C16 UNL     1      -6.730  36.582  -8.419  1.00  0.00     0.060 C 
HETATM   11  C17 UNL     1      -6.264  37.586  -9.440  1.00  0.00     0.017 C 
HETATM   12  C18 UNL     1      -5.972  36.725  -7.104  1.00  0.00     0.028 C 
ENDROOT
BRANCH   1  13
HETATM   13  C7  UNL     1      -6.143  38.218  -5.201  1.00  0.00     0.069 C 
HETATM   14  C6  UNL     1      -7.339  37.866  -4.353  1.00  0.00     0.038 C 
HETATM   15  C5  UNL     1      -6.962  37.262  -3.033  1.00  0.00     0.006 C 
HETATM   16  C4  UNL     1      -5.555  37.471  -2.611  1.00  0.00     0.037 C 
HETATM   17  C2  UNL     1      -4.534  37.428  -3.700  1.00  0.00     0.055 C 
HETATM   18  C1  UNL     1      -3.820  36.064  -3.598  1.00  0.00     0.045 C 
HETATM   19  C3  UNL     1      -3.454  38.432  -3.362  1.00  0.00     0.045 C 
HETATM   20  O2  UNL     1      -5.019  37.497  -4.971  1.00  0.00    -0.369 OA
HETATM   21  C8  UNL     1      -5.944  39.723  -4.939  1.00  0.00     0.047 C 
ENDBRANCH   1  13
TORSDOF 1
ENDMDL
MODEL 5
REMARK VINA RESULT: -5.371153813      7.208      8.856
REMARK  1 active torsions:
REMARK  status: ('A' for Active; 'I' for Inactive)
REMARK    1  A    between atoms: C7_7  and  C9_9 
ROOT
HETATM    1  C9  UNL     1      -6.330  37.583  -2.285  1.00  0.00     0.035 C 
HETATM    2  C10 UNL     1      -6.134  38.650  -1.241  1.00  0.00     0.021 C 
HETATM    3  C11 UNL     1      -4.671  39.067  -1.335  1.00  0.00    -0.013 C 
HETATM    4  C12 UNL     1      -4.553  39.932  -2.563  1.00  0.00     0.008 C 
HETATM    5  C13 UNL     1      -5.173  39.295  -3.757  1.00  0.00     0.053 C 
HETATM    6  C14 UNL     1      -5.609  37.867  -3.562  1.00  0.00     0.174 C 
HETATM    7  F1  UNL     1      -6.250  37.471  -4.699  1.00  0.00    -0.234 F 
HETATM    8  C15 UNL     1      -4.320  37.075  -3.512  1.00  0.00     0.171 C 
HETATM    9  O1  UNL     1      -3.593  36.808  -4.429  1.00  0.00    -0.294 OA
HETATM   10  C16 UNL     1      -4.175  36.713  -2.075  1.00  0.00     0.060 C 
HETATM   11  C17 UNL     1      -3.715  37.932  -1.321  1.00  0.00     0.017 C 
HETATM   12  C18 UNL     1      -5.620  36.357  -1.740  1.00  0.00     0.028 C 
ENDROOT
BRANCH   1  13
HETATM   13  C7  UNL     1      -7.781  37.188  -2.457  1.00  0.00     0.069 C 
HETATM   14  C6  UNL     1      -8.369  37.665  -3.761  1.00  0.00     0.038 C 
HETATM   15  C5  UNL     1      -9.437  36.756  -4.289  1.00  0.00     0.006 C 
HETATM   16  C4  UNL     1     -10.012  35.804  -3.307  1.00  0.00     0.037 C 
HETATM   17  C2  UNL     1      -9.053  35.232  -2.314  1.00  0.00     0.055 C 
HETATM   18  C1  UNL     1      -8.751  33.786  -2.759  1.00  0.00     0.045 C 
HETATM   19  C3  UNL     1      -9.789  35.064  -1.003  1.00  0.00     0.045 C 
HETATM   20  O2  UNL     1      -7.845  35.854  -2.230  1.00  0.00    -0.369 OA
HETATM   21  C8  UNL     1      -8.544  38.005  -1.396  1.00  0.00     0.047 C 
ENDBRANCH   1  13
TORSDOF 1
ENDMDL
