MODEL 1
REMARK VINA RESULT: -4.752379214      0.000      0.000
REMARK  3 active torsions:
REMARK  status: ('A' for Active; 'I' for Inactive)
REMARK       I    between atoms: C2_2  and  N1_4 
REMARK    1  A    between atoms: N1_4  and  C3_5 
REMARK    2  A    between atoms: N1_4  and  C9_14 
REMARK    3  A    between atoms: C7_10  and  C8_11 
ROOT
HETATM    1  C3  UNL     1     -11.203  -8.868  11.092  1.00  0.00     0.093 A 
HETATM    2  S1  UNL     1      -9.918  -7.764  10.910  1.00  0.00    -0.083 SA
HETATM    3  C4  UNL     1     -10.771  -6.304  11.097  1.00  0.00     0.059 A 
HETATM    4  C5  UNL     1     -12.058  -6.724  11.300  1.00  0.00    -0.040 A 
HETATM    5  C6  UNL     1     -13.140  -5.673  11.513  1.00  0.00     0.049 C 
HETATM    6  C7  UNL     1     -12.284  -8.049  11.298  1.00  0.00     0.040 A 
ENDROOT
BRANCH   1   7
HETATM    7  N1  UNL     1     -11.105 -10.297  11.033  1.00  0.00    -0.303 N 
HETATM    8  C2  UNL     1     -10.776 -11.000  12.218  1.00  0.00     0.221 C 
HETATM    9  C1  UNL     1     -10.489 -10.338  13.516  1.00  0.00     0.117 C 
HETATM   10  O1  UNL     1     -10.713 -12.258  12.211  1.00  0.00    -0.273 OA
BRANCH   7  11
HETATM   11  C9  UNL     1     -11.332 -10.967   9.795  1.00  0.00     0.030 C 
HETATM   12  C10 UNL     1     -10.138 -11.767   9.322  1.00  0.00     0.038 C 
HETATM   13  C11 UNL     1     -12.543 -11.870   9.794  1.00  0.00     0.038 C 
HETATM   14  C12 UNL     1     -11.583  -9.964   8.650  1.00  0.00     0.038 C 
ENDBRANCH   7  11
ENDBRANCH   1   7
BRANCH   6  15
HETATM   15  C8  UNL     1     -13.653  -8.596  11.510  1.00  0.00     0.126 C 
HETATM   16  N2  UNL     1     -14.041  -8.961  12.813  1.00  0.00    -0.089 NA
HETATM   17  S2  UNL     1     -14.697  -8.790  10.293  1.00  0.00    -0.063 SA
ENDBRANCH   6  15
TORSDOF 3
ENDMDL
MODEL 2
REMARK VINA RESULT: -4.267527100     11.808     13.499
REMARK  3 active torsions:
REMARK  status: ('A' for Active; 'I' for Inactive)
REMARK       I    between atoms: C2_2  and  N1_4 
REMARK    1  A    between atoms: N1_4  and  C3_5 
REMARK    2  A    between atoms: N1_4  and  C9_14 
REMARK    3  A    between atoms: C7_10  and  C8_11 
ROOT
HETATM    1  C3  UNL     1     -23.959 -13.800  14.283  1.00  0.00     0.093 A 
HETATM    2  S1  UNL     1     -24.691 -12.929  15.551  1.00  0.00    -0.083 SA
HETATM    3  C4  UNL     1     -26.328 -13.232  15.195  1.00  0.00     0.059 A 
HETATM    4  C5  UNL     1     -26.257 -14.019  14.077  1.00  0.00    -0.040 A 
HETATM    5  C6  UNL     1     -27.557 -14.503  13.447  1.00  0.00     0.049 C 
HETATM    6  C7  UNL     1     -25.034 -14.313  13.603  1.00  0.00     0.040 A 
ENDROOT
BRANCH   1   7
HETATM    7  N1  UNL     1     -22.551 -13.924  14.046  1.00  0.00    -0.303 N 
HETATM    8  C2  UNL     1     -21.838 -14.936  14.733  1.00  0.00     0.221 C 
HETATM    9  C1  UNL     1     -22.457 -15.856  15.719  1.00  0.00     0.117 C 
HETATM   10  O1  UNL     1     -20.605 -15.094  14.525  1.00  0.00    -0.273 OA
BRANCH   7  11
HETATM   11  C9  UNL     1     -21.910 -13.031  13.137  1.00  0.00     0.030 C 
HETATM   12  C10 UNL     1     -22.851 -12.003  12.547  1.00  0.00     0.038 C 
HETATM   13  C11 UNL     1     -20.717 -12.309  13.718  1.00  0.00     0.038 C 
HETATM   14  C12 UNL     1     -21.361 -13.781  11.906  1.00  0.00     0.038 C 
ENDBRANCH   7  11
ENDBRANCH   1   7
BRANCH   6  15
HETATM   15  C8  UNL     1     -24.863 -15.162  12.391  1.00  0.00     0.126 C 
HETATM   16  N2  UNL     1     -24.151 -16.370  12.506  1.00  0.00    -0.089 NA
HETATM   17  S2  UNL     1     -25.461 -14.732  10.953  1.00  0.00    -0.063 SA
ENDBRANCH   6  15
TORSDOF 3
ENDMDL
MODEL 3
REMARK VINA RESULT: -4.266606650      2.588      3.391
REMARK  3 active torsions:
REMARK  status: ('A' for Active; 'I' for Inactive)
REMARK       I    between atoms: C2_2  and  N1_4 
REMARK    1  A    between atoms: N1_4  and  C3_5 
REMARK    2  A    between atoms: N1_4  and  C9_14 
REMARK    3  A    between atoms: C7_10  and  C8_11 
ROOT
HETATM    1  C3  UNL     1     -13.563  -9.543   9.647  1.00  0.00     0.093 A 
HETATM    2  S1  UNL     1     -13.510  -8.162   8.650  1.00  0.00    -0.083 SA
HETATM    3  C4  UNL     1     -15.166  -8.015   8.283  1.00  0.00     0.059 A 
HETATM    4  C5  UNL     1     -15.724  -9.066   8.961  1.00  0.00    -0.040 A 
HETATM    5  C6  UNL     1     -17.231  -9.268   8.871  1.00  0.00     0.049 C 
HETATM    6  C7  UNL     1     -14.898  -9.857   9.666  1.00  0.00     0.040 A 
ENDROOT
BRANCH   1   7
HETATM    7  N1  UNL     1     -12.441 -10.170  10.282  1.00  0.00    -0.303 N 
HETATM    8  C2  UNL     1     -12.139  -9.818  11.619  1.00  0.00     0.221 C 
HETATM    9  C1  UNL     1     -12.896  -8.804  12.396  1.00  0.00     0.117 C 
HETATM   10  O1  UNL     1     -11.179 -10.373  12.219  1.00  0.00    -0.273 OA
BRANCH   7  11
HETATM   11  C9  UNL     1     -11.663 -11.119   9.556  1.00  0.00     0.030 C 
HETATM   12  C10 UNL     1     -10.336 -10.565   9.082  1.00  0.00     0.038 C 
HETATM   13  C11 UNL     1     -11.404 -12.407  10.301  1.00  0.00     0.038 C 
HETATM   14  C12 UNL     1     -12.371 -11.548   8.253  1.00  0.00     0.038 C 
ENDBRANCH   7  11
ENDBRANCH   1   7
BRANCH   6  15
HETATM   15  C8  UNL     1     -15.419 -11.023  10.434  1.00  0.00     0.126 C 
HETATM   16  N2  UNL     1     -15.033 -12.317  10.040  1.00  0.00    -0.089 NA
HETATM   17  S2  UNL     1     -16.415 -10.844  11.693  1.00  0.00    -0.063 SA
ENDBRANCH   6  15
TORSDOF 3
ENDMDL
MODEL 4
REMARK VINA RESULT: -4.195552499      2.559      3.738
REMARK  3 active torsions:
REMARK  status: ('A' for Active; 'I' for Inactive)
REMARK       I    between atoms: C2_2  and  N1_4 
REMARK    1  A    between atoms: N1_4  and  C3_5 
REMARK    2  A    between atoms: N1_4  and  C9_14 
REMARK    3  A    between atoms: C7_10  and  C8_11 
ROOT
HETATM    1  C3  UNL     1     -13.121  -9.526   9.712  1.00  0.00     0.093 A 
HETATM    2  S1  UNL     1     -12.587  -8.782   8.275  1.00  0.00    -0.083 SA
HETATM    3  C4  UNL     1     -11.362  -7.786   8.911  1.00  0.00     0.059 A 
HETATM    4  C5  UNL     1     -11.403  -8.066  10.250  1.00  0.00    -0.040 A 
HETATM    5  C6  UNL     1     -10.427  -7.347  11.172  1.00  0.00     0.049 C 
HETATM    6  C7  UNL     1     -12.311  -8.965  10.667  1.00  0.00     0.040 A 
ENDROOT
BRANCH   1   7
HETATM    7  N1  UNL     1     -14.168 -10.498   9.822  1.00  0.00    -0.303 N 
HETATM    8  C2  UNL     1     -13.834 -11.868   9.692  1.00  0.00     0.221 C 
HETATM    9  C1  UNL     1     -12.462 -12.358   9.409  1.00  0.00     0.117 C 
HETATM   10  O1  UNL     1     -14.724 -12.751   9.815  1.00  0.00    -0.273 OA
BRANCH   7  11
HETATM   11  C9  UNL     1     -15.507 -10.065  10.051  1.00  0.00     0.030 C 
HETATM   12  C10 UNL     1     -16.476 -10.534   8.987  1.00  0.00     0.038 C 
HETATM   13  C11 UNL     1     -16.059 -10.451  11.403  1.00  0.00     0.038 C 
HETATM   14  C12 UNL     1     -15.618  -8.527  10.000  1.00  0.00     0.038 C 
ENDBRANCH   7  11
ENDBRANCH   1   7
BRANCH   6  15
HETATM   15  C8  UNL     1     -12.427  -9.330  12.107  1.00  0.00     0.126 C 
HETATM   16  N2  UNL     1     -13.545  -8.875  12.831  1.00  0.00    -0.089 NA
HETATM   17  S2  UNL     1     -11.309 -10.221  12.858  1.00  0.00    -0.063 SA
ENDBRANCH   6  15
TORSDOF 3
ENDMDL
MODEL 5
REMARK VINA RESULT: -4.188472712     13.580     15.246
REMARK  3 active torsions:
REMARK  status: ('A' for Active; 'I' for Inactive)
REMARK       I    between atoms: C2_2  and  N1_4 
REMARK    1  A    between atoms: N1_4  and  C3_5 
REMARK    2  A    between atoms: N1_4  and  C9_14 
REMARK    3  A    between atoms: C7_10  and  C8_11 
ROOT
HETATM    1  C3  UNL     1     -24.694 -14.556  14.569  1.00  0.00     0.093 A 
HETATM    2  S1  UNL     1     -23.503 -13.680  15.416  1.00  0.00    -0.083 SA
HETATM    3  C4  UNL     1     -22.749 -12.892  14.110  1.00  0.00     0.059 A 
HETATM    4  C5  UNL     1     -23.459 -13.341  13.029  1.00  0.00    -0.040 A 
HETATM    5  C6  UNL     1     -23.066 -12.843  11.645  1.00  0.00     0.049 C 
HETATM    6  C7  UNL     1     -24.464 -14.202  13.263  1.00  0.00     0.040 A 
ENDROOT
BRANCH   1   7
HETATM    7  N1  UNL     1     -25.670 -15.433  15.146  1.00  0.00    -0.303 N 
HETATM    8  C2  UNL     1     -25.370 -16.814  15.231  1.00  0.00     0.221 C 
HETATM    9  C1  UNL     1     -24.114 -17.418  14.719  1.00  0.00     0.117 C 
HETATM   10  O1  UNL     1     -26.192 -17.609  15.761  1.00  0.00    -0.273 OA
BRANCH   7  11
HETATM   11  C9  UNL     1     -26.907 -14.898  15.611  1.00  0.00     0.030 C 
HETATM   12  C10 UNL     1     -28.103 -15.392  14.827  1.00  0.00     0.038 C 
HETATM   13  C11 UNL     1     -27.170 -15.133  17.081  1.00  0.00     0.038 C 
HETATM   14  C12 UNL     1     -26.958 -13.366  15.438  1.00  0.00     0.038 C 
ENDBRANCH   7  11
ENDBRANCH   1   7
BRANCH   6  15
HETATM   15  C8  UNL     1     -25.289 -14.743  12.147  1.00  0.00     0.126 C 
HETATM   16  N2  UNL     1     -24.831 -15.880  11.458  1.00  0.00    -0.089 NA
HETATM   17  S2  UNL     1     -26.684 -14.059  11.703  1.00  0.00    -0.063 SA
ENDBRANCH   6  15
TORSDOF 3
ENDMDL
