MODEL 1
REMARK VINA RESULT: -7.654764856      0.000      0.000
REMARK  18 active torsions:
REMARK  status: ('A' for Active; 'I' for Inactive)
REMARK    1  A    between atoms: C2_2  and  C3_3 
REMARK    2  A    between atoms: C3_3  and  N1_4 
REMARK    3  A    between atoms: C3_3  and  C27_40 
REMARK    4  A    between atoms: N1_4  and  C4_6 
REMARK    5  A    between atoms: C4_6  and  O1_7 
REMARK    6  A    between atoms: C4_6  and  C5_9 
REMARK       I    between atoms: N2_10  and  C6_11 
REMARK    7  A    between atoms: C6_11  and  C7_13 
REMARK    8  A    between atoms: C7_13  and  N3_14 
REMARK    9  A    between atoms: C7_13  and  C19_31 
REMARK       I    between atoms: N3_14  and  C8_16 
REMARK   10  A    between atoms: C8_16  and  C9_18 
REMARK   11  A    between atoms: C9_18  and  C10_19 
REMARK   12  A    between atoms: C9_18  and  N4_26 
REMARK   13  A    between atoms: C10_19  and  C11_20 
REMARK       I    between atoms: N4_26  and  C17_28 
REMARK   14  A    between atoms: C19_31  and  C21_33 
REMARK       I    between atoms: C27_40  and  N5_42 
REMARK   15  A    between atoms: N5_42  and  C28_44 
REMARK   16  A    between atoms: C28_44  and  C29_45 
REMARK   17  A    between atoms: C29_45  and  C30_46 
REMARK   18  A    between atoms: C30_46  and  C31_47 
ROOT
HETATM    1  C5  UNL     1      -7.872  14.612   0.544  1.00  0.00     0.180 C 
HETATM    2  N2  UNL     1      -8.542  14.233  -0.625  1.00  0.00    -0.328 N 
HETATM    3  C6  UNL     1      -8.624  14.848  -1.858  1.00  0.00     0.244 C 
HETATM    4  O2  UNL     1      -7.876  15.877  -2.038  1.00  0.00    -0.271 OA
HETATM    5  C23 UNL     1      -9.088  12.866  -0.395  1.00  0.00     0.201 C 
HETATM    6  S1  UNL     1      -7.513  12.086   0.226  1.00  0.00    -0.137 SA
HETATM    7  C24 UNL     1      -6.701  13.686   0.711  1.00  0.00     0.030 C 
HETATM    8  C25 UNL     1      -6.396  13.557   2.179  1.00  0.00     0.029 C 
HETATM    9  C26 UNL     1      -5.540  13.924  -0.163  1.00  0.00     0.029 C 
ENDROOT
BRANCH   1  10
HETATM   10  C4  UNL     1      -7.579  15.980   0.793  1.00  0.00     0.137 C 
BRANCH  10  11
HETATM   11  N1  UNL     1      -8.301  16.936   1.572  1.00  0.00    -0.359 N 
ATOM     12  H1  UNL     1      -7.898  17.863   1.709  1.00  0.00     0.162 HD
BRANCH  11  13
HETATM   13  C3  UNL     1      -9.605  16.634   2.184  1.00  0.00     0.175 C 
BRANCH  13  14
HETATM   14  C2  UNL     1     -10.487  17.781   1.682  1.00  0.00     0.030 C 
HETATM   15  C1  UNL     1     -10.900  17.663   0.263  1.00  0.00     0.007 C 
ENDBRANCH  13  14
BRANCH  13  16
HETATM   16  C27 UNL     1      -9.469  16.597   3.631  1.00  0.00     0.240 C 
HETATM   17  O5  UNL     1     -10.230  17.325   4.364  1.00  0.00    -0.271 OA
HETATM   18  N5  UNL     1      -8.546  15.812   4.363  1.00  0.00    -0.359 N 
ATOM     19  H5  UNL     1      -7.904  15.210   3.846  1.00  0.00     0.162 HD
BRANCH  18  20
HETATM   20  C28 UNL     1      -8.467  15.820   5.817  1.00  0.00     0.122 C 
BRANCH  20  21
HETATM   21  C29 UNL     1      -8.513  14.433   6.344  1.00  0.00     0.020 C 
BRANCH  21  22
HETATM   22  C30 UNL     1      -9.815  13.907   6.785  1.00  0.00     0.005 C 
BRANCH  22  23
HETATM   23  C31 UNL     1     -10.726  13.264   5.829  1.00  0.00    -0.023 C 
HETATM   24  C32 UNL     1     -10.071  12.474   4.733  1.00  0.00     0.009 C 
HETATM   25  C33 UNL     1     -11.796  14.169   5.283  1.00  0.00     0.009 C 
ENDBRANCH  22  23
ENDBRANCH  21  22
ENDBRANCH  20  21
ENDBRANCH  18  20
ENDBRANCH  13  16
ENDBRANCH  11  13
ENDBRANCH  10  11
BRANCH  10  26
HETATM   26  O1  UNL     1      -6.498  16.520   0.280  1.00  0.00    -0.348 OA
ATOM     27  H1  UNL     1      -6.116  15.950  -0.378  1.00  0.00     0.219 HD
ENDBRANCH  10  26
ENDBRANCH   1  10
BRANCH   3  28
HETATM   28  C7  UNL     1      -9.507  14.425  -3.006  1.00  0.00     0.180 C 
BRANCH  28  29
HETATM   29  N3  UNL     1      -8.854  13.566  -3.946  1.00  0.00    -0.346 N 
HETATM   30  C8  UNL     1      -9.173  12.194  -4.141  1.00  0.00     0.241 C 
HETATM   31  O3  UNL     1     -10.115  11.644  -3.453  1.00  0.00    -0.271 OA
ATOM     32  H3  UNL     1      -8.108  13.966  -4.515  1.00  0.00     0.163 HD
BRANCH  30  33
HETATM   33  C9  UNL     1      -8.483  11.320  -5.105  1.00  0.00     0.177 C 
BRANCH  33  34
HETATM   34  C10 UNL     1      -7.235  10.669  -4.629  1.00  0.00     0.039 C 
BRANCH  34  35
HETATM   35  C11 UNL     1      -5.923  11.038  -5.135  1.00  0.00    -0.012 C 
HETATM   36  C12 UNL     1      -5.513   9.830  -6.028  1.00  0.00     0.005 C 
HETATM   37  C13 UNL     1      -4.231  10.113  -6.730  1.00  0.00     0.000 C 
HETATM   38  C14 UNL     1      -3.450  11.235  -6.101  1.00  0.00     0.000 C 
HETATM   39  C15 UNL     1      -4.254  12.486  -6.169  1.00  0.00     0.000 C 
HETATM   40  C16 UNL     1      -5.765  12.203  -6.027  1.00  0.00     0.005 C 
ENDBRANCH  34  35
ENDBRANCH  33  34
BRANCH  33  41
HETATM   41  N4  UNL     1      -9.418  10.362  -5.684  1.00  0.00    -0.348 N 
HETATM   42  C17 UNL     1     -10.065  10.559  -6.921  1.00  0.00     0.214 C 
HETATM   43  C18 UNL     1     -11.017   9.582  -7.491  1.00  0.00     0.117 C 
HETATM   44  O4  UNL     1      -9.816  11.606  -7.555  1.00  0.00    -0.274 OA
ATOM     45  H4  UNL     1      -9.614   9.505  -5.167  1.00  0.00     0.163 HD
ENDBRANCH  33  41
ENDBRANCH  30  33
ENDBRANCH  28  29
BRANCH  28  46
HETATM   46  C19 UNL     1     -10.150  15.645  -3.635  1.00  0.00     0.013 C 
HETATM   47  C20 UNL     1     -10.255  15.576  -5.124  1.00  0.00     0.012 C 
BRANCH  46  48
HETATM   48  C21 UNL     1     -11.499  15.844  -2.980  1.00  0.00     0.002 C 
HETATM   49  C22 UNL     1     -12.040  14.509  -2.453  1.00  0.00     0.005 C 
ENDBRANCH  46  48
ENDBRANCH  28  46
ENDBRANCH   3  28
TORSDOF 18
ENDMDL
MODEL 2
REMARK VINA RESULT: -7.494332417      3.900      6.151
REMARK  18 active torsions:
REMARK  status: ('A' for Active; 'I' for Inactive)
REMARK    1  A    between atoms: C2_2  and  C3_3 
REMARK    2  A    between atoms: C3_3  and  N1_4 
REMARK    3  A    between atoms: C3_3  and  C27_40 
REMARK    4  A    between atoms: N1_4  and  C4_6 
REMARK    5  A    between atoms: C4_6  and  O1_7 
REMARK    6  A    between atoms: C4_6  and  C5_9 
REMARK       I    between atoms: N2_10  and  C6_11 
REMARK    7  A    between atoms: C6_11  and  C7_13 
REMARK    8  A    between atoms: C7_13  and  N3_14 
REMARK    9  A    between atoms: C7_13  and  C19_31 
REMARK       I    between atoms: N3_14  and  C8_16 
REMARK   10  A    between atoms: C8_16  and  C9_18 
REMARK   11  A    between atoms: C9_18  and  C10_19 
REMARK   12  A    between atoms: C9_18  and  N4_26 
REMARK   13  A    between atoms: C10_19  and  C11_20 
REMARK       I    between atoms: N4_26  and  C17_28 
REMARK   14  A    between atoms: C19_31  and  C21_33 
REMARK       I    between atoms: C27_40  and  N5_42 
REMARK   15  A    between atoms: N5_42  and  C28_44 
REMARK   16  A    between atoms: C28_44  and  C29_45 
REMARK   17  A    between atoms: C29_45  and  C30_46 
REMARK   18  A    between atoms: C30_46  and  C31_47 
ROOT
HETATM    1  C5  UNL     1      -5.783  11.262   0.120  1.00  0.00     0.180 C 
HETATM    2  N2  UNL     1      -5.128  10.177  -0.473  1.00  0.00    -0.328 N 
HETATM    3  C6  UNL     1      -3.789   9.966  -0.737  1.00  0.00     0.244 C 
HETATM    4  O2  UNL     1      -2.967  10.832  -0.264  1.00  0.00    -0.271 OA
HETATM    5  C23 UNL     1      -6.141   9.103  -0.666  1.00  0.00     0.201 C 
HETATM    6  S1  UNL     1      -6.825   9.111   1.068  1.00  0.00    -0.137 SA
HETATM    7  C24 UNL     1      -6.235  10.824   1.484  1.00  0.00     0.030 C 
HETATM    8  C25 UNL     1      -7.469  11.599   1.854  1.00  0.00     0.029 C 
HETATM    9  C26 UNL     1      -5.199  10.738   2.527  1.00  0.00     0.029 C 
ENDROOT
BRANCH   1  10
HETATM   10  C4  UNL     1      -5.205  12.560   0.081  1.00  0.00     0.137 C 
BRANCH  10  11
HETATM   11  N1  UNL     1      -5.497  13.658  -0.784  1.00  0.00    -0.359 N 
ATOM     12  H1  UNL     1      -4.726  14.123  -1.264  1.00  0.00     0.162 HD
BRANCH  11  13
HETATM   13  C3  UNL     1      -6.867  14.145  -1.010  1.00  0.00     0.175 C 
BRANCH  13  14
HETATM   14  C2  UNL     1      -6.842  14.553  -2.486  1.00  0.00     0.030 C 
HETATM   15  C1  UNL     1      -8.180  14.674  -3.113  1.00  0.00     0.007 C 
ENDBRANCH  13  14
BRANCH  13  16
HETATM   16  C27 UNL     1      -7.148  15.250  -0.107  1.00  0.00     0.240 C 
HETATM   17  O5  UNL     1      -6.312  16.218  -0.001  1.00  0.00    -0.271 OA
HETATM   18  N5  UNL     1      -8.296  15.388   0.710  1.00  0.00    -0.359 N 
ATOM     19  H5  UNL     1      -9.003  14.653   0.682  1.00  0.00     0.162 HD
BRANCH  18  20
HETATM   20  C28 UNL     1      -8.516  16.528   1.590  1.00  0.00     0.122 C 
BRANCH  20  21
HETATM   21  C29 UNL     1      -9.027  16.070   2.907  1.00  0.00     0.020 C 
BRANCH  21  22
HETATM   22  C30 UNL     1      -8.057  15.515   3.865  1.00  0.00     0.005 C 
BRANCH  22  23
HETATM   23  C31 UNL     1      -8.234  15.715   5.310  1.00  0.00    -0.023 C 
HETATM   24  C32 UNL     1      -8.510  14.477   6.112  1.00  0.00     0.009 C 
HETATM   25  C33 UNL     1      -9.184  16.823   5.674  1.00  0.00     0.009 C 
ENDBRANCH  22  23
ENDBRANCH  21  22
ENDBRANCH  20  21
ENDBRANCH  18  20
ENDBRANCH  13  16
ENDBRANCH  11  13
ENDBRANCH  10  11
BRANCH  10  26
HETATM   26  O1  UNL     1      -4.267  12.882   0.942  1.00  0.00    -0.348 OA
ATOM     27  H1  UNL     1      -3.581  13.386   0.520  1.00  0.00     0.219 HD
ENDBRANCH  10  26
ENDBRANCH   1  10
BRANCH   3  28
HETATM   28  C7  UNL     1      -3.208   8.817  -1.525  1.00  0.00     0.180 C 
BRANCH  28  29
HETATM   29  N3  UNL     1      -3.606   8.807  -2.899  1.00  0.00    -0.346 N 
HETATM   30  C8  UNL     1      -3.096   9.687  -3.893  1.00  0.00     0.241 C 
HETATM   31  O3  UNL     1      -2.204  10.566  -3.583  1.00  0.00    -0.271 OA
ATOM     32  H3  UNL     1      -4.303   8.121  -3.187  1.00  0.00     0.163 HD
BRANCH  30  33
HETATM   33  C9  UNL     1      -3.523   9.671  -5.303  1.00  0.00     0.177 C 
BRANCH  33  34
HETATM   34  C10 UNL     1      -3.636  10.994  -5.972  1.00  0.00     0.039 C 
BRANCH  34  35
HETATM   35  C11 UNL     1      -4.919  11.610  -6.264  1.00  0.00    -0.012 C 
HETATM   36  C12 UNL     1      -5.952  10.480  -5.977  1.00  0.00     0.005 C 
HETATM   37  C13 UNL     1      -7.341  10.997  -6.109  1.00  0.00     0.000 C 
HETATM   38  C14 UNL     1      -7.419  12.283  -6.886  1.00  0.00     0.000 C 
HETATM   39  C15 UNL     1      -6.645  13.333  -6.169  1.00  0.00     0.000 C 
HETATM   40  C16 UNL     1      -5.409  12.744  -5.456  1.00  0.00     0.005 C 
ENDBRANCH  34  35
ENDBRANCH  33  34
BRANCH  33  41
HETATM   41  N4  UNL     1      -2.714   8.732  -6.070  1.00  0.00    -0.348 N 
HETATM   42  C17 UNL     1      -2.863   7.333  -5.990  1.00  0.00     0.214 C 
HETATM   43  C18 UNL     1      -2.028   6.392  -6.768  1.00  0.00     0.117 C 
HETATM   44  O4  UNL     1      -3.738   6.877  -5.224  1.00  0.00    -0.274 OA
ATOM     45  H4  UNL     1      -2.004   9.107  -6.699  1.00  0.00     0.163 HD
ENDBRANCH  33  41
ENDBRANCH  30  33
ENDBRANCH  28  29
BRANCH  28  46
HETATM   46  C19 UNL     1      -3.473   7.513  -0.801  1.00  0.00     0.013 C 
HETATM   47  C20 UNL     1      -3.190   6.296  -1.620  1.00  0.00     0.012 C 
BRANCH  46  48
HETATM   48  C21 UNL     1      -2.675   7.529   0.484  1.00  0.00     0.002 C 
HETATM   49  C22 UNL     1      -3.560   7.123   1.669  1.00  0.00     0.005 C 
ENDBRANCH  46  48
ENDBRANCH  28  46
ENDBRANCH   3  28
TORSDOF 18
ENDMDL
MODEL 3
REMARK VINA RESULT: -7.442894299      3.105      4.923
REMARK  18 active torsions:
REMARK  status: ('A' for Active; 'I' for Inactive)
REMARK    1  A    between atoms: C2_2  and  C3_3 
REMARK    2  A    between atoms: C3_3  and  N1_4 
REMARK    3  A    between atoms: C3_3  and  C27_40 
REMARK    4  A    between atoms: N1_4  and  C4_6 
REMARK    5  A    between atoms: C4_6  and  O1_7 
REMARK    6  A    between atoms: C4_6  and  C5_9 
REMARK       I    between atoms: N2_10  and  C6_11 
REMARK    7  A    between atoms: C6_11  and  C7_13 
REMARK    8  A    between atoms: C7_13  and  N3_14 
REMARK    9  A    between atoms: C7_13  and  C19_31 
REMARK       I    between atoms: N3_14  and  C8_16 
REMARK   10  A    between atoms: C8_16  and  C9_18 
REMARK   11  A    between atoms: C9_18  and  C10_19 
REMARK   12  A    between atoms: C9_18  and  N4_26 
REMARK   13  A    between atoms: C10_19  and  C11_20 
REMARK       I    between atoms: N4_26  and  C17_28 
REMARK   14  A    between atoms: C19_31  and  C21_33 
REMARK       I    between atoms: C27_40  and  N5_42 
REMARK   15  A    between atoms: N5_42  and  C28_44 
REMARK   16  A    between atoms: C28_44  and  C29_45 
REMARK   17  A    between atoms: C29_45  and  C30_46 
REMARK   18  A    between atoms: C30_46  and  C31_47 
ROOT
HETATM    1  C5  UNL     1      -7.809  14.393  -0.378  1.00  0.00     0.180 C 
HETATM    2  N2  UNL     1      -7.393  13.591  -1.446  1.00  0.00    -0.328 N 
HETATM    3  C6  UNL     1      -6.307  13.707  -2.292  1.00  0.00     0.244 C 
HETATM    4  O2  UNL     1      -5.448  14.617  -2.003  1.00  0.00    -0.271 OA
HETATM    5  C23 UNL     1      -8.274  12.391  -1.466  1.00  0.00     0.201 C 
HETATM    6  S1  UNL     1      -8.092  11.939   0.334  1.00  0.00    -0.137 SA
HETATM    7  C24 UNL     1      -7.546  13.627   0.887  1.00  0.00     0.030 C 
HETATM    8  C25 UNL     1      -8.547  14.057   1.926  1.00  0.00     0.029 C 
HETATM    9  C26 UNL     1      -6.146  13.559   1.340  1.00  0.00     0.029 C 
ENDROOT
BRANCH   1  10
HETATM   10  C4  UNL     1      -7.441  15.765  -0.321  1.00  0.00     0.137 C 
BRANCH  10  11
HETATM   11  N1  UNL     1      -8.207  16.925  -0.652  1.00  0.00    -0.359 N 
ATOM     12  H1  UNL     1      -7.748  17.836  -0.635  1.00  0.00     0.162 HD
BRANCH  11  13
HETATM   13  C3  UNL     1      -9.630  16.855  -1.016  1.00  0.00     0.175 C 
BRANCH  13  14
HETATM   14  C2  UNL     1      -9.659  17.519  -2.396  1.00  0.00     0.030 C 
HETATM   15  C1  UNL     1      -9.146  16.670  -3.497  1.00  0.00     0.007 C 
ENDBRANCH  13  14
BRANCH  13  16
HETATM   16  C27 UNL     1     -10.424  17.555  -0.018  1.00  0.00     0.240 C 
HETATM   17  O5  UNL     1     -11.564  18.051  -0.340  1.00  0.00    -0.271 OA
HETATM   18  N5  UNL     1     -10.068  17.763   1.336  1.00  0.00    -0.359 N 
ATOM     19  H5  UNL     1      -9.173  17.399   1.663  1.00  0.00     0.162 HD
BRANCH  18  20
HETATM   20  C28 UNL     1     -10.917  18.470   2.284  1.00  0.00     0.122 C 
BRANCH  20  21
HETATM   21  C29 UNL     1     -10.493  18.173   3.676  1.00  0.00     0.020 C 
BRANCH  21  22
HETATM   22  C30 UNL     1     -10.053  16.803   3.983  1.00  0.00     0.005 C 
BRANCH  22  23
HETATM   23  C31 UNL     1      -9.825  16.383   5.372  1.00  0.00    -0.023 C 
HETATM   24  C32 UNL     1      -8.417  15.987   5.712  1.00  0.00     0.009 C 
HETATM   25  C33 UNL     1     -10.814  15.374   5.887  1.00  0.00     0.009 C 
ENDBRANCH  22  23
ENDBRANCH  21  22
ENDBRANCH  20  21
ENDBRANCH  18  20
ENDBRANCH  13  16
ENDBRANCH  11  13
ENDBRANCH  10  11
BRANCH  10  26
HETATM   26  O1  UNL     1      -6.243  16.102   0.097  1.00  0.00    -0.348 OA
ATOM     27  H1  UNL     1      -6.059  17.012  -0.104  1.00  0.00     0.219 HD
ENDBRANCH  10  26
ENDBRANCH   1  10
BRANCH   3  28
HETATM   28  C7  UNL     1      -6.040  12.866  -3.516  1.00  0.00     0.180 C 
BRANCH  28  29
HETATM   29  N3  UNL     1      -4.782  12.185  -3.481  1.00  0.00    -0.346 N 
HETATM   30  C8  UNL     1      -4.506  11.042  -2.682  1.00  0.00     0.241 C 
HETATM   31  O3  UNL     1      -5.426  10.541  -1.928  1.00  0.00    -0.271 OA
ATOM     32  H3  UNL     1      -4.031  12.545  -4.069  1.00  0.00     0.163 HD
BRANCH  30  33
HETATM   33  C9  UNL     1      -3.202  10.358  -2.648  1.00  0.00     0.177 C 
BRANCH  33  34
HETATM   34  C10 UNL     1      -2.505  10.203  -3.952  1.00  0.00     0.039 C 
BRANCH  34  35
HETATM   35  C11 UNL     1      -2.353   8.913  -4.603  1.00  0.00    -0.012 C 
HETATM   36  C12 UNL     1      -2.820   7.891  -3.524  1.00  0.00     0.005 C 
HETATM   37  C13 UNL     1      -2.844   6.514  -4.087  1.00  0.00     0.000 C 
HETATM   38  C14 UNL     1      -2.028   6.376  -5.343  1.00  0.00     0.000 C 
HETATM   39  C15 UNL     1      -2.593   7.270  -6.391  1.00  0.00     0.000 C 
HETATM   40  C16 UNL     1      -3.167   8.569  -5.786  1.00  0.00     0.005 C 
ENDBRANCH  34  35
ENDBRANCH  33  34
BRANCH  33  41
HETATM   41  N4  UNL     1      -2.342  10.951  -1.630  1.00  0.00    -0.348 N 
HETATM   42  C17 UNL     1      -2.084  10.347  -0.383  1.00  0.00     0.214 C 
HETATM   43  C18 UNL     1      -1.217  10.965   0.643  1.00  0.00     0.117 C 
HETATM   44  O4  UNL     1      -2.618   9.243  -0.143  1.00  0.00    -0.274 OA
ATOM     45  H4  UNL     1      -1.903  11.849  -1.832  1.00  0.00     0.163 HD
ENDBRANCH  33  41
ENDBRANCH  30  33
ENDBRANCH  28  29
BRANCH  28  46
HETATM   46  C19 UNL     1      -6.252  13.697  -4.765  1.00  0.00     0.013 C 
HETATM   47  C20 UNL     1      -5.376  13.306  -5.910  1.00  0.00     0.012 C 
BRANCH  46  48
HETATM   48  C21 UNL     1      -7.719  13.624  -5.124  1.00  0.00     0.002 C 
HETATM   49  C22 UNL     1      -7.903  12.965  -6.497  1.00  0.00     0.005 C 
ENDBRANCH  46  48
ENDBRANCH  28  46
ENDBRANCH   3  28
TORSDOF 18
ENDMDL
MODEL 4
REMARK VINA RESULT: -7.442783020      3.023      5.096
REMARK  18 active torsions:
REMARK  status: ('A' for Active; 'I' for Inactive)
REMARK    1  A    between atoms: C2_2  and  C3_3 
REMARK    2  A    between atoms: C3_3  and  N1_4 
REMARK    3  A    between atoms: C3_3  and  C27_40 
REMARK    4  A    between atoms: N1_4  and  C4_6 
REMARK    5  A    between atoms: C4_6  and  O1_7 
REMARK    6  A    between atoms: C4_6  and  C5_9 
REMARK       I    between atoms: N2_10  and  C6_11 
REMARK    7  A    between atoms: C6_11  and  C7_13 
REMARK    8  A    between atoms: C7_13  and  N3_14 
REMARK    9  A    between atoms: C7_13  and  C19_31 
REMARK       I    between atoms: N3_14  and  C8_16 
REMARK   10  A    between atoms: C8_16  and  C9_18 
REMARK   11  A    between atoms: C9_18  and  C10_19 
REMARK   12  A    between atoms: C9_18  and  N4_26 
REMARK   13  A    between atoms: C10_19  and  C11_20 
REMARK       I    between atoms: N4_26  and  C17_28 
REMARK   14  A    between atoms: C19_31  and  C21_33 
REMARK       I    between atoms: C27_40  and  N5_42 
REMARK   15  A    between atoms: N5_42  and  C28_44 
REMARK   16  A    between atoms: C28_44  and  C29_45 
REMARK   17  A    between atoms: C29_45  and  C30_46 
REMARK   18  A    between atoms: C30_46  and  C31_47 
ROOT
HETATM    1  C5  UNL     1      -8.568  14.839   0.301  1.00  0.00     0.180 C 
HETATM    2  N2  UNL     1      -8.141  13.837  -0.576  1.00  0.00    -0.328 N 
HETATM    3  C6  UNL     1      -6.991  13.731  -1.334  1.00  0.00     0.244 C 
HETATM    4  O2  UNL     1      -6.086  14.620  -1.134  1.00  0.00    -0.271 OA
HETATM    5  C23 UNL     1      -9.109  12.711  -0.464  1.00  0.00     0.201 C 
HETATM    6  S1  UNL     1      -9.092  12.572   1.395  1.00  0.00    -0.137 SA
HETATM    7  C24 UNL     1      -8.457  14.293   1.696  1.00  0.00     0.030 C 
HETATM    8  C25 UNL     1      -9.492  14.962   2.558  1.00  0.00     0.029 C 
HETATM    9  C26 UNL     1      -7.103  14.215   2.270  1.00  0.00     0.029 C 
ENDROOT
BRANCH   1  10
HETATM   10  C4  UNL     1      -8.098  16.173   0.153  1.00  0.00     0.137 C 
BRANCH  10  11
HETATM   11  N1  UNL     1      -8.672  17.262  -0.570  1.00  0.00    -0.359 N 
ATOM     12  H1  UNL     1      -8.103  18.091  -0.743  1.00  0.00     0.162 HD
BRANCH  11  13
HETATM   13  C3  UNL     1     -10.053  17.236  -1.076  1.00  0.00     0.175 C 
BRANCH  13  14
HETATM   14  C2  UNL     1      -9.878  17.585  -2.557  1.00  0.00     0.030 C 
HETATM   15  C1  UNL     1      -9.224  16.528  -3.365  1.00  0.00     0.007 C 
ENDBRANCH  13  14
BRANCH  13  16
HETATM   16  C27 UNL     1     -10.861  18.199  -0.344  1.00  0.00     0.240 C 
HETATM   17  O5  UNL     1     -11.840  18.788  -0.929  1.00  0.00    -0.271 OA
HETATM   18  N5  UNL     1     -10.683  18.580   1.007  1.00  0.00    -0.359 N 
ATOM     19  H5  UNL     1      -9.921  18.155   1.535  1.00  0.00     0.162 HD
BRANCH  18  20
HETATM   20  C28 UNL     1     -11.535  19.551   1.680  1.00  0.00     0.122 C 
BRANCH  20  21
HETATM   21  C29 UNL     1     -11.677  19.202   3.117  1.00  0.00     0.020 C 
BRANCH  21  22
HETATM   22  C30 UNL     1     -10.671  18.307   3.710  1.00  0.00     0.005 C 
BRANCH  22  23
HETATM   23  C31 UNL     1     -10.400  18.336   5.153  1.00  0.00    -0.023 C 
HETATM   24  C32 UNL     1      -9.494  17.256   5.669  1.00  0.00     0.009 C 
HETATM   25  C33 UNL     1     -11.625  18.478   6.014  1.00  0.00     0.009 C 
ENDBRANCH  22  23
ENDBRANCH  21  22
ENDBRANCH  20  21
ENDBRANCH  18  20
ENDBRANCH  13  16
ENDBRANCH  11  13
ENDBRANCH  10  11
BRANCH  10  26
HETATM   26  O1  UNL     1      -6.987  16.542   0.748  1.00  0.00    -0.348 OA
ATOM     27  H1  UNL     1      -7.016  16.335   1.675  1.00  0.00     0.219 HD
ENDBRANCH  10  26
ENDBRANCH   1  10
BRANCH   3  28
HETATM   28  C7  UNL     1      -6.704  12.671  -2.371  1.00  0.00     0.180 C 
BRANCH  28  29
HETATM   29  N3  UNL     1      -5.345  12.223  -2.370  1.00  0.00    -0.346 N 
HETATM   30  C8  UNL     1      -4.896  11.014  -1.771  1.00  0.00     0.241 C 
HETATM   31  O3  UNL     1      -5.736  10.230  -1.185  1.00  0.00    -0.271 OA
ATOM     32  H3  UNL     1      -4.651  12.811  -2.831  1.00  0.00     0.163 HD
BRANCH  30  33
HETATM   33  C9  UNL     1      -3.491  10.571  -1.770  1.00  0.00     0.177 C 
BRANCH  33  34
HETATM   34  C10 UNL     1      -2.730  10.786  -3.029  1.00  0.00     0.039 C 
BRANCH  34  35
HETATM   35  C11 UNL     1      -3.234  10.359  -4.323  1.00  0.00    -0.012 C 
HETATM   36  C12 UNL     1      -3.362  11.684  -5.132  1.00  0.00     0.005 C 
HETATM   37  C13 UNL     1      -3.751  11.399  -6.540  1.00  0.00     0.000 C 
HETATM   38  C14 UNL     1      -4.337  10.026  -6.723  1.00  0.00     0.000 C 
HETATM   39  C15 UNL     1      -3.317   9.007  -6.353  1.00  0.00     0.000 C 
HETATM   40  C16 UNL     1      -2.416   9.494  -5.197  1.00  0.00     0.005 C 
ENDBRANCH  34  35
ENDBRANCH  33  34
BRANCH  33  41
HETATM   41  N4  UNL     1      -2.790  11.100  -0.605  1.00  0.00    -0.348 N 
HETATM   42  C17 UNL     1      -1.952  10.321   0.218  1.00  0.00     0.214 C 
HETATM   43  C18 UNL     1      -1.256  10.870   1.401  1.00  0.00     0.117 C 
HETATM   44  O4  UNL     1      -1.799   9.115  -0.073  1.00  0.00    -0.274 OA
ATOM     45  H4  UNL     1      -2.913  12.086  -0.374  1.00  0.00     0.163 HD
ENDBRANCH  33  41
ENDBRANCH  30  33
ENDBRANCH  28  29
BRANCH  28  46
HETATM   46  C19 UNL     1      -7.196  13.135  -3.727  1.00  0.00     0.013 C 
HETATM   47  C20 UNL     1      -6.373  14.226  -4.330  1.00  0.00     0.012 C 
BRANCH  46  48
HETATM   48  C21 UNL     1      -7.276  11.922  -4.627  1.00  0.00     0.002 C 
HETATM   49  C22 UNL     1      -7.317  12.350  -6.100  1.00  0.00     0.005 C 
ENDBRANCH  46  48
ENDBRANCH  28  46
ENDBRANCH   3  28
TORSDOF 18
ENDMDL
MODEL 5
REMARK VINA RESULT: -7.430296997      2.782     10.099
REMARK  18 active torsions:
REMARK  status: ('A' for Active; 'I' for Inactive)
REMARK    1  A    between atoms: C2_2  and  C3_3 
REMARK    2  A    between atoms: C3_3  and  N1_4 
REMARK    3  A    between atoms: C3_3  and  C27_40 
REMARK    4  A    between atoms: N1_4  and  C4_6 
REMARK    5  A    between atoms: C4_6  and  O1_7 
REMARK    6  A    between atoms: C4_6  and  C5_9 
REMARK       I    between atoms: N2_10  and  C6_11 
REMARK    7  A    between atoms: C6_11  and  C7_13 
REMARK    8  A    between atoms: C7_13  and  N3_14 
REMARK    9  A    between atoms: C7_13  and  C19_31 
REMARK       I    between atoms: N3_14  and  C8_16 
REMARK   10  A    between atoms: C8_16  and  C9_18 
REMARK   11  A    between atoms: C9_18  and  C10_19 
REMARK   12  A    between atoms: C9_18  and  N4_26 
REMARK   13  A    between atoms: C10_19  and  C11_20 
REMARK       I    between atoms: N4_26  and  C17_28 
REMARK   14  A    between atoms: C19_31  and  C21_33 
REMARK       I    between atoms: C27_40  and  N5_42 
REMARK   15  A    between atoms: N5_42  and  C28_44 
REMARK   16  A    between atoms: C28_44  and  C29_45 
REMARK   17  A    between atoms: C29_45  and  C30_46 
REMARK   18  A    between atoms: C30_46  and  C31_47 
ROOT
HETATM    1  C5  UNL     1      -7.311  13.981  -1.015  1.00  0.00     0.180 C 
HETATM    2  N2  UNL     1      -7.738  13.308   0.135  1.00  0.00    -0.328 N 
HETATM    3  C6  UNL     1      -7.170  13.218   1.391  1.00  0.00     0.244 C 
HETATM    4  O2  UNL     1      -6.146  13.961   1.614  1.00  0.00    -0.271 OA
HETATM    5  C23 UNL     1      -9.096  12.768  -0.149  1.00  0.00     0.201 C 
HETATM    6  S1  UNL     1      -9.846  14.350  -0.792  1.00  0.00    -0.137 SA
HETATM    7  C24 UNL     1      -8.225  15.157  -1.212  1.00  0.00     0.030 C 
HETATM    8  C25 UNL     1      -8.297  15.469  -2.682  1.00  0.00     0.029 C 
HETATM    9  C26 UNL     1      -8.017  16.313  -0.324  1.00  0.00     0.029 C 
ENDROOT
BRANCH   1  10
HETATM   10  C4  UNL     1      -5.933  14.270  -1.210  1.00  0.00     0.137 C 
BRANCH  10  11
HETATM   11  N1  UNL     1      -4.950  13.543  -1.949  1.00  0.00    -0.359 N 
ATOM     12  H1  UNL     1      -4.011  13.935  -2.034  1.00  0.00     0.162 HD
BRANCH  11  13
HETATM   13  C3  UNL     1      -5.238  12.252  -2.592  1.00  0.00     0.175 C 
BRANCH  13  14
HETATM   14  C2  UNL     1      -4.099  11.361  -2.087  1.00  0.00     0.030 C 
HETATM   15  C1  UNL     1      -4.195  10.994  -0.654  1.00  0.00     0.007 C 
ENDBRANCH  13  14
BRANCH  13  16
HETATM   16  C27 UNL     1      -5.249  12.417  -4.037  1.00  0.00     0.240 C 
HETATM   17  O5  UNL     1      -4.546  11.637  -4.775  1.00  0.00    -0.271 OA
HETATM   18  N5  UNL     1      -5.981  13.388  -4.760  1.00  0.00    -0.359 N 
ATOM     19  H5  UNL     1      -6.560  14.047  -4.239  1.00  0.00     0.162 HD
BRANCH  18  20
HETATM   20  C28 UNL     1      -5.949  13.494  -6.213  1.00  0.00     0.122 C 
BRANCH  20  21
HETATM   21  C29 UNL     1      -7.326  13.416  -6.765  1.00  0.00     0.020 C 
BRANCH  21  22
HETATM   22  C30 UNL     1      -7.869  12.084  -7.073  1.00  0.00     0.005 C 
BRANCH  22  23
HETATM   23  C31 UNL     1      -9.034  11.564  -6.345  1.00  0.00    -0.023 C 
HETATM   24  C32 UNL     1     -10.144  11.018  -7.195  1.00  0.00     0.009 C 
HETATM   25  C33 UNL     1      -9.565  12.485  -5.280  1.00  0.00     0.009 C 
ENDBRANCH  22  23
ENDBRANCH  21  22
ENDBRANCH  20  21
ENDBRANCH  18  20
ENDBRANCH  13  16
ENDBRANCH  11  13
ENDBRANCH  10  11
BRANCH  10  26
HETATM   26  O1  UNL     1      -5.411  15.351  -0.678  1.00  0.00    -0.348 OA
ATOM     27  H1  UNL     1      -4.980  15.147   0.144  1.00  0.00     0.219 HD
ENDBRANCH  10  26
ENDBRANCH   1  10
BRANCH   3  28
HETATM   28  C7  UNL     1      -7.641  12.331   2.518  1.00  0.00     0.180 C 
BRANCH  28  29
HETATM   29  N3  UNL     1      -8.483  13.000   3.461  1.00  0.00    -0.346 N 
HETATM   30  C8  UNL     1      -9.853  12.689   3.681  1.00  0.00     0.241 C 
HETATM   31  O3  UNL     1     -10.416  11.739   3.015  1.00  0.00    -0.271 OA
ATOM     32  H3  UNL     1      -8.072  13.753   4.014  1.00  0.00     0.163 HD
BRANCH  30  33
HETATM   33  C9  UNL     1     -10.710  13.396   4.648  1.00  0.00     0.177 C 
BRANCH  33  34
HETATM   34  C10 UNL     1     -11.312  14.674   4.185  1.00  0.00     0.039 C 
BRANCH  34  35
HETATM   35  C11 UNL     1     -10.910  15.962   4.726  1.00  0.00    -0.012 C 
HETATM   36  C12 UNL     1     -12.092  16.362   5.658  1.00  0.00     0.005 C 
HETATM   37  C13 UNL     1     -11.774  17.616   6.395  1.00  0.00     0.000 C 
HETATM   38  C14 UNL     1     -10.654  18.399   5.767  1.00  0.00     0.000 C 
HETATM   39  C15 UNL     1      -9.415  17.575   5.782  1.00  0.00     0.000 C 
HETATM   40  C16 UNL     1      -9.725  16.073   5.598  1.00  0.00     0.005 C 
ENDBRANCH  34  35
ENDBRANCH  33  34
BRANCH  33  41
HETATM   41  N4  UNL     1     -11.706  12.488   5.205  1.00  0.00    -0.348 N 
HETATM   42  C17 UNL     1     -11.566  11.854   6.456  1.00  0.00     0.214 C 
HETATM   43  C18 UNL     1     -12.581  10.928   7.003  1.00  0.00     0.117 C 
HETATM   44  O4  UNL     1     -10.536  12.089   7.123  1.00  0.00    -0.274 OA
ATOM     45  H4  UNL     1     -12.548  12.301   4.661  1.00  0.00     0.163 HD
ENDBRANCH  33  41
ENDBRANCH  30  33
ENDBRANCH  28  29
BRANCH  28  46
HETATM   46  C19 UNL     1      -6.454  11.628   3.147  1.00  0.00     0.013 C 
HETATM   47  C20 UNL     1      -6.422  11.709   4.638  1.00  0.00     0.012 C 
BRANCH  46  48
HETATM   48  C21 UNL     1      -6.452  10.198   2.656  1.00  0.00     0.002 C 
HETATM   49  C22 UNL     1      -5.030   9.623   2.684  1.00  0.00     0.005 C 
ENDBRANCH  46  48
ENDBRANCH  28  46
ENDBRANCH   3  28
TORSDOF 18
ENDMDL
