MODEL 1
REMARK VINA RESULT: -5.215883000      0.000      0.000
REMARK  8 active torsions:
REMARK  status: ('A' for Active; 'I' for Inactive)
REMARK    1  A    between atoms: C2_2  and  S1_5 
REMARK    2  A    between atoms: S1_5  and  C5_6 
REMARK    3  A    between atoms: C5_6  and  N1_8 
REMARK    4  A    between atoms: N1_8  and  C6_9 
REMARK    5  A    between atoms: N1_8  and  C9_16 
REMARK    6  A    between atoms: C6_9  and  C7_10 
REMARK    7  A    between atoms: C7_10  and  C8_11 
REMARK    8  A    between atoms: C8_11  and  N2_12 
ROOT
HETATM    1  N1  UNL     1       7.020  -5.604  10.845  1.00  0.00    -0.358 N 
ENDROOT
BRANCH   1   2
HETATM    2  C5  UNL     1       5.948  -4.675  10.952  1.00  0.00     0.138 C 
HETATM    3  S2  UNL     1       5.673  -3.512   9.842  1.00  0.00    -0.053 SA
BRANCH   2   4
HETATM    4  S1  UNL     1       4.867  -4.786  12.341  1.00  0.00    -0.092 SA
BRANCH   4   5
HETATM    5  C2  UNL     1       3.297  -5.553  12.002  1.00  0.00     0.004 C 
HETATM    6  C1  UNL     1       3.332  -7.063  12.134  1.00  0.00     0.026 C 
HETATM    7  C3  UNL     1       2.759  -5.275  10.608  1.00  0.00     0.026 C 
HETATM    8  C4  UNL     1       2.281  -5.021  12.988  1.00  0.00     0.026 C 
ENDBRANCH   4   5
ENDBRANCH   2   4
ENDBRANCH   1   2
BRANCH   1   9
HETATM    9  C6  UNL     1       8.289  -5.349  11.476  1.00  0.00     0.127 C 
BRANCH   9  10
HETATM   10  C7  UNL     1       8.319  -4.175  12.393  1.00  0.00     0.047 C 
BRANCH  10  11
HETATM   11  C8  UNL     1       9.688  -3.980  13.030  1.00  0.00     0.231 C 
BRANCH  11  12
HETATM   12  N2  UNL     1      10.602  -5.013  12.597  1.00  0.00    -0.079 N 
ATOM     13  H23 UNL     1      10.838  -5.652  13.355  1.00  0.00     0.274 HD
ATOM     14  H22 UNL     1      10.151  -5.679  11.970  1.00  0.00     0.274 HD
ATOM     15  H21 UNL     1      11.435  -4.601  12.175  1.00  0.00     0.274 HD
ENDBRANCH  11  12
ENDBRANCH  10  11
ENDBRANCH   9  10
ENDBRANCH   1   9
BRANCH   1  16
HETATM   16  C9  UNL     1       6.786  -6.811  10.109  1.00  0.00     0.023 C 
HETATM   17  C10 UNL     1       7.993  -7.142   9.222  1.00  0.00     0.037 C 
HETATM   18  C11 UNL     1       5.585  -6.829   9.235  1.00  0.00     0.037 C 
HETATM   19  C12 UNL     1       6.652  -7.991  11.091  1.00  0.00     0.037 C 
ENDBRANCH   1  16
TORSDOF 8
ENDMDL
MODEL 2
REMARK VINA RESULT: -5.184476530     11.837     13.567
REMARK  8 active torsions:
REMARK  status: ('A' for Active; 'I' for Inactive)
REMARK    1  A    between atoms: C2_2  and  S1_5 
REMARK    2  A    between atoms: S1_5  and  C5_6 
REMARK    3  A    between atoms: C5_6  and  N1_8 
REMARK    4  A    between atoms: N1_8  and  C6_9 
REMARK    5  A    between atoms: N1_8  and  C9_16 
REMARK    6  A    between atoms: C6_9  and  C7_10 
REMARK    7  A    between atoms: C7_10  and  C8_11 
REMARK    8  A    between atoms: C8_11  and  N2_12 
ROOT
HETATM    1  N1  UNL     1       9.683 -16.468  16.960  1.00  0.00    -0.358 N 
ENDROOT
BRANCH   1   2
HETATM    2  C5  UNL     1      11.060 -16.139  17.092  1.00  0.00     0.138 C 
HETATM    3  S2  UNL     1      12.095 -17.011  18.001  1.00  0.00    -0.053 SA
BRANCH   2   4
HETATM    4  S1  UNL     1      11.678 -14.727  16.233  1.00  0.00    -0.092 SA
BRANCH   4   5
HETATM    5  C2  UNL     1      13.357 -14.289  16.633  1.00  0.00     0.004 C 
HETATM    6  C1  UNL     1      14.343 -15.409  16.370  1.00  0.00     0.026 C 
HETATM    7  C3  UNL     1      13.564 -13.892  18.085  1.00  0.00     0.026 C 
HETATM    8  C4  UNL     1      13.757 -13.104  15.784  1.00  0.00     0.026 C 
ENDBRANCH   4   5
ENDBRANCH   2   4
ENDBRANCH   1   2
BRANCH   1   9
HETATM    9  C6  UNL     1       8.748 -16.190  18.019  1.00  0.00     0.127 C 
BRANCH   9  10
HETATM   10  C7  UNL     1       9.155 -15.106  18.957  1.00  0.00     0.047 C 
BRANCH  10  11
HETATM   11  C8  UNL     1       9.425 -15.634  20.360  1.00  0.00     0.231 C 
BRANCH  11  12
HETATM   12  N2  UNL     1       9.267 -17.070  20.402  1.00  0.00    -0.079 N 
ATOM     13  H23 UNL     1       8.294 -17.348  20.270  1.00  0.00     0.274 HD
ATOM     14  H22 UNL     1       9.667 -17.520  19.578  1.00  0.00     0.274 HD
ATOM     15  H21 UNL     1       9.654 -17.449  21.266  1.00  0.00     0.274 HD
ENDBRANCH  11  12
ENDBRANCH  10  11
ENDBRANCH   9  10
ENDBRANCH   1   9
BRANCH   1  16
HETATM   16  C9  UNL     1       9.255 -17.065  15.729  1.00  0.00     0.023 C 
HETATM   17  C10 UNL     1      10.112 -18.294  15.402  1.00  0.00     0.037 C 
HETATM   18  C11 UNL     1       9.272 -16.191  14.529  1.00  0.00     0.037 C 
HETATM   19  C12 UNL     1       7.814 -17.590  15.890  1.00  0.00     0.037 C 
ENDBRANCH   1  16
TORSDOF 8
ENDMDL
MODEL 3
REMARK VINA RESULT: -5.133502003     11.846     13.616
REMARK  8 active torsions:
REMARK  status: ('A' for Active; 'I' for Inactive)
REMARK    1  A    between atoms: C2_2  and  S1_5 
REMARK    2  A    between atoms: S1_5  and  C5_6 
REMARK    3  A    between atoms: C5_6  and  N1_8 
REMARK    4  A    between atoms: N1_8  and  C6_9 
REMARK    5  A    between atoms: N1_8  and  C9_16 
REMARK    6  A    between atoms: C6_9  and  C7_10 
REMARK    7  A    between atoms: C7_10  and  C8_11 
REMARK    8  A    between atoms: C8_11  and  N2_12 
ROOT
HETATM    1  N1  UNL     1       9.705 -16.477  16.994  1.00  0.00    -0.358 N 
ENDROOT
BRANCH   1   2
HETATM    2  C5  UNL     1      11.074 -16.120  17.148  1.00  0.00     0.138 C 
HETATM    3  S2  UNL     1      12.113 -16.977  18.067  1.00  0.00    -0.053 SA
BRANCH   2   4
HETATM    4  S1  UNL     1      11.674 -14.692  16.305  1.00  0.00    -0.092 SA
BRANCH   4   5
HETATM    5  C2  UNL     1      13.372 -14.282  16.653  1.00  0.00     0.004 C 
HETATM    6  C1  UNL     1      14.328 -15.425  16.378  1.00  0.00     0.026 C 
HETATM    7  C3  UNL     1      13.627 -13.870  18.094  1.00  0.00     0.026 C 
HETATM    8  C4  UNL     1      13.772 -13.116  15.777  1.00  0.00     0.026 C 
ENDBRANCH   4   5
ENDBRANCH   2   4
ENDBRANCH   1   2
BRANCH   1   9
HETATM    9  C6  UNL     1       8.740 -16.175  18.019  1.00  0.00     0.127 C 
BRANCH   9  10
HETATM   10  C7  UNL     1       9.138 -15.098  18.969  1.00  0.00     0.047 C 
BRANCH  10  11
HETATM   11  C8  UNL     1       9.385 -15.635  20.373  1.00  0.00     0.231 C 
BRANCH  11  12
HETATM   12  N2  UNL     1       9.265 -17.075  20.395  1.00  0.00    -0.079 N 
ATOM     13  H23 UNL     1       8.334 -17.373  20.688  1.00  0.00     0.274 HD
ATOM     14  H22 UNL     1       9.261 -17.470  19.454  1.00  0.00     0.274 HD
ATOM     15  H21 UNL     1       9.995 -17.488  20.976  1.00  0.00     0.274 HD
ENDBRANCH  11  12
ENDBRANCH  10  11
ENDBRANCH   9  10
ENDBRANCH   1   9
BRANCH   1  16
HETATM   16  C9  UNL     1       9.318 -17.127  15.778  1.00  0.00     0.023 C 
HETATM   17  C10 UNL     1       7.857 -17.587  15.856  1.00  0.00     0.037 C 
HETATM   18  C11 UNL     1      10.124 -18.307  15.373  1.00  0.00     0.037 C 
HETATM   19  C12 UNL     1       9.377 -16.116  14.616  1.00  0.00     0.037 C 
ENDBRANCH   1  16
TORSDOF 8
ENDMDL
MODEL 4
REMARK VINA RESULT: -4.728499431      1.485      2.464
REMARK  8 active torsions:
REMARK  status: ('A' for Active; 'I' for Inactive)
REMARK    1  A    between atoms: C2_2  and  S1_5 
REMARK    2  A    between atoms: S1_5  and  C5_6 
REMARK    3  A    between atoms: C5_6  and  N1_8 
REMARK    4  A    between atoms: N1_8  and  C6_9 
REMARK    5  A    between atoms: N1_8  and  C9_16 
REMARK    6  A    between atoms: C6_9  and  C7_10 
REMARK    7  A    between atoms: C7_10  and  C8_11 
REMARK    8  A    between atoms: C8_11  and  N2_12 
ROOT
HETATM    1  N1  UNL     1       5.663  -5.585  11.164  1.00  0.00    -0.358 N 
ENDROOT
BRANCH   1   2
HETATM    2  C5  UNL     1       4.438  -4.943  11.497  1.00  0.00     0.138 C 
HETATM    3  S2  UNL     1       3.721  -5.106  12.953  1.00  0.00    -0.053 SA
BRANCH   2   4
HETATM    4  S1  UNL     1       3.662  -3.922  10.286  1.00  0.00    -0.092 SA
BRANCH   4   5
HETATM    5  C2  UNL     1       2.024  -4.440   9.816  1.00  0.00     0.004 C 
HETATM    6  C1  UNL     1       1.888  -5.944   9.692  1.00  0.00     0.026 C 
HETATM    7  C3  UNL     1       1.552  -3.873   8.487  1.00  0.00     0.026 C 
HETATM    8  C4  UNL     1       1.052  -3.969  10.874  1.00  0.00     0.026 C 
ENDBRANCH   4   5
ENDBRANCH   2   4
ENDBRANCH   1   2
BRANCH   1   9
HETATM    9  C6  UNL     1       6.916  -4.881  11.248  1.00  0.00     0.127 C 
BRANCH   9  10
HETATM   10  C7  UNL     1       7.108  -4.070  12.483  1.00  0.00     0.047 C 
BRANCH  10  11
HETATM   11  C8  UNL     1       8.568  -4.021  12.915  1.00  0.00     0.231 C 
BRANCH  11  12
HETATM   12  N2  UNL     1       9.309  -5.112  12.325  1.00  0.00    -0.079 N 
ATOM     13  H23 UNL     1       9.964  -5.527  12.988  1.00  0.00     0.274 HD
ATOM     14  H22 UNL     1       8.719  -5.928  12.163  1.00  0.00     0.274 HD
ATOM     15  H21 UNL     1       9.777  -4.808  11.471  1.00  0.00     0.274 HD
ENDBRANCH  11  12
ENDBRANCH  10  11
ENDBRANCH   9  10
ENDBRANCH   1   9
BRANCH   1  16
HETATM   16  C9  UNL     1       5.608  -6.959  10.763  1.00  0.00     0.023 C 
HETATM   17  C10 UNL     1       4.405  -7.659  11.407  1.00  0.00     0.037 C 
HETATM   18  C11 UNL     1       6.806  -7.785  11.068  1.00  0.00     0.037 C 
HETATM   19  C12 UNL     1       5.375  -7.040   9.242  1.00  0.00     0.037 C 
ENDBRANCH   1  16
TORSDOF 8
ENDMDL
MODEL 5
REMARK VINA RESULT: -4.701842572      1.029      1.749
REMARK  8 active torsions:
REMARK  status: ('A' for Active; 'I' for Inactive)
REMARK    1  A    between atoms: C2_2  and  S1_5 
REMARK    2  A    between atoms: S1_5  and  C5_6 
REMARK    3  A    between atoms: C5_6  and  N1_8 
REMARK    4  A    between atoms: N1_8  and  C6_9 
REMARK    5  A    between atoms: N1_8  and  C9_16 
REMARK    6  A    between atoms: C6_9  and  C7_10 
REMARK    7  A    between atoms: C7_10  and  C8_11 
REMARK    8  A    between atoms: C8_11  and  N2_12 
ROOT
HETATM    1  N1  UNL     1       7.047  -6.045  10.290  1.00  0.00    -0.358 N 
ENDROOT
BRANCH   1   2
HETATM    2  C5  UNL     1       5.763  -5.433  10.236  1.00  0.00     0.138 C 
HETATM    3  S2  UNL     1       5.480  -4.040   9.438  1.00  0.00    -0.053 SA
BRANCH   2   4
HETATM    4  S1  UNL     1       4.418  -6.217  11.065  1.00  0.00    -0.092 SA
BRANCH   4   5
HETATM    5  C2  UNL     1       3.527  -5.168  12.195  1.00  0.00     0.004 C 
HETATM    6  C1  UNL     1       4.419  -4.175  12.913  1.00  0.00     0.026 C 
HETATM    7  C3  UNL     1       2.787  -5.921  13.288  1.00  0.00     0.026 C 
HETATM    8  C4  UNL     1       2.496  -4.388  11.411  1.00  0.00     0.026 C 
ENDBRANCH   4   5
ENDBRANCH   2   4
ENDBRANCH   1   2
BRANCH   1   9
HETATM    9  C6  UNL     1       8.155  -5.388  10.934  1.00  0.00     0.127 C 
BRANCH   9  10
HETATM   10  C7  UNL     1       7.820  -4.658  12.189  1.00  0.00     0.047 C 
BRANCH  10  11
HETATM   11  C8  UNL     1       9.066  -4.197  12.933  1.00  0.00     0.231 C 
BRANCH  11  12
HETATM   12  N2  UNL     1      10.196  -5.033  12.599  1.00  0.00    -0.079 N 
ATOM     13  H23 UNL     1      10.997  -4.847  13.203  1.00  0.00     0.274 HD
ATOM     14  H22 UNL     1      10.036  -6.008  12.856  1.00  0.00     0.274 HD
ATOM     15  H21 UNL     1      10.436  -4.937  11.612  1.00  0.00     0.274 HD
ENDBRANCH  11  12
ENDBRANCH  10  11
ENDBRANCH   9  10
ENDBRANCH   1   9
BRANCH   1  16
HETATM   16  C9  UNL     1       7.192  -7.343   9.702  1.00  0.00     0.023 C 
HETATM   17  C10 UNL     1       7.074  -8.434  10.773  1.00  0.00     0.037 C 
HETATM   18  C11 UNL     1       8.455  -7.595   8.962  1.00  0.00     0.037 C 
HETATM   19  C12 UNL     1       6.032  -7.592   8.719  1.00  0.00     0.037 C 
ENDBRANCH   1  16
TORSDOF 8
ENDMDL
