MODEL 1
REMARK VINA RESULT: -7.736908986      0.000      0.000
REMARK  11 active torsions:
REMARK  status: ('A' for Active; 'I' for Inactive)
REMARK    1  A    between atoms: C3_4  and  C4_5 
REMARK    2  A    between atoms: C4_5  and  O1_6 
REMARK    3  A    between atoms: C5_9  and  O3_10 
REMARK    4  A    between atoms: O3_10  and  C6_11 
REMARK    5  A    between atoms: C7_13  and  C8_14 
REMARK    6  A    between atoms: C8_14  and  C9_15 
REMARK    7  A    between atoms: C9_15  and  O5_16 
REMARK    8  A    between atoms: C10_18  and  O6_19 
REMARK    9  A    between atoms: C11_21  and  O7_22 
REMARK   10  A    between atoms: C12_24  and  N2_25 
REMARK   11  A    between atoms: C13_29  and  N3_30 
ROOT
HETATM    1  N1  UNL     1     -91.179  68.064  93.403  1.00  0.00    -0.197 NA
HETATM    2  C1  UNL     1     -90.624  67.373  94.140  1.00  0.00     0.069 C 
HETATM    3  C2  UNL     1     -89.910  66.496  95.063  1.00  0.00     0.156 C 
HETATM    4  C3  UNL     1     -88.447  66.387  94.722  1.00  0.00     0.168 C 
HETATM    5  O2  UNL     1     -87.863  65.615  95.713  1.00  0.00    -0.350 OA
HETATM    6  C5  UNL     1     -88.244  64.302  95.723  1.00  0.00     0.296 C 
HETATM    7  C12 UNL     1     -89.704  64.044  95.569  1.00  0.00     0.270 C 
HETATM    8  C13 UNL     1     -90.489  65.103  94.906  1.00  0.00     0.238 C 
ENDROOT
BRANCH   4   9
HETATM    9  C4  UNL     1     -87.743  67.727  94.750  1.00  0.00     0.197 C 
BRANCH   9  10
HETATM   10  O1  UNL     1     -86.486  67.651  95.324  1.00  0.00    -0.398 OA
ATOM     11  H1  UNL     1     -85.790  67.695  94.679  1.00  0.00     0.209 HD
ENDBRANCH   9  10
ENDBRANCH   4   9
BRANCH   8  12
HETATM   12  N3  UNL     1     -91.874  65.173  95.343  1.00  0.00    -0.071 N 
ATOM     13  H33 UNL     1     -92.343  66.031  95.053  1.00  0.00     0.274 HD
ATOM     14  H32 UNL     1     -92.484  64.520  94.851  1.00  0.00     0.274 HD
ATOM     15  H31 UNL     1     -91.869  65.037  96.354  1.00  0.00     0.274 HD
ENDBRANCH   8  12
BRANCH   7  16
HETATM   16  N2  UNL     1     -90.314  63.715  96.867  1.00  0.00    -0.068 N 
ATOM     17  H23 UNL     1     -91.025  62.989  96.778  1.00  0.00     0.275 HD
ATOM     18  H22 UNL     1     -89.663  63.218  97.475  1.00  0.00     0.275 HD
ATOM     19  H21 UNL     1     -90.684  64.554  97.314  1.00  0.00     0.275 HD
ENDBRANCH   7  16
BRANCH   6  20
HETATM   20  O3  UNL     1     -87.498  63.627  94.757  1.00  0.00    -0.327 OA
BRANCH  20  21
HETATM   21  C6  UNL     1     -87.593  62.245  94.891  1.00  0.00     0.294 C 
HETATM   22  O4  UNL     1     -87.795  61.592  93.692  1.00  0.00    -0.350 OA
HETATM   23  C7  UNL     1     -87.567  60.252  94.038  1.00  0.00     0.158 C 
HETATM   24  C10 UNL     1     -86.252  60.314  94.735  1.00  0.00     0.180 C 
HETATM   25  C11 UNL     1     -86.374  61.630  95.519  1.00  0.00     0.204 C 
BRANCH  23  26
HETATM   26  C8  UNL     1     -87.655  59.350  92.860  1.00  0.00     0.061 C 
BRANCH  26  27
HETATM   27  C9  UNL     1     -87.873  57.930  93.292  1.00  0.00     0.166 C 
BRANCH  27  28
HETATM   28  O5  UNL     1     -89.014  57.777  94.031  1.00  0.00    -0.401 OA
ATOM     29  H5  UNL     1     -89.439  56.941  93.875  1.00  0.00     0.209 HD
ENDBRANCH  27  28
ENDBRANCH  26  27
ENDBRANCH  23  26
BRANCH  24  30
HETATM   30  O6  UNL     1     -85.160  60.432  93.888  1.00  0.00    -0.390 OA
ATOM     31  H6  UNL     1     -84.354  60.690  94.320  1.00  0.00     0.210 HD
ENDBRANCH  24  30
BRANCH  25  32
HETATM   32  O7  UNL     1     -86.587  61.270  96.846  1.00  0.00    -0.388 OA
ATOM     33  H7  UNL     1     -85.981  60.601  97.141  1.00  0.00     0.210 HD
ENDBRANCH  25  32
ENDBRANCH  20  21
ENDBRANCH   6  20
TORSDOF 11
ENDMDL
MODEL 2
REMARK VINA RESULT: -6.978870438      1.605      1.972
REMARK  11 active torsions:
REMARK  status: ('A' for Active; 'I' for Inactive)
REMARK    1  A    between atoms: C3_4  and  C4_5 
REMARK    2  A    between atoms: C4_5  and  O1_6 
REMARK    3  A    between atoms: C5_9  and  O3_10 
REMARK    4  A    between atoms: O3_10  and  C6_11 
REMARK    5  A    between atoms: C7_13  and  C8_14 
REMARK    6  A    between atoms: C8_14  and  C9_15 
REMARK    7  A    between atoms: C9_15  and  O5_16 
REMARK    8  A    between atoms: C10_18  and  O6_19 
REMARK    9  A    between atoms: C11_21  and  O7_22 
REMARK   10  A    between atoms: C12_24  and  N2_25 
REMARK   11  A    between atoms: C13_29  and  N3_30 
ROOT
HETATM    1  N1  UNL     1     -90.542  69.844  93.596  1.00  0.00    -0.197 NA
HETATM    2  C1  UNL     1     -90.268  68.934  94.249  1.00  0.00     0.069 C 
HETATM    3  C2  UNL     1     -89.906  67.781  95.067  1.00  0.00     0.156 C 
HETATM    4  C3  UNL     1     -88.425  67.510  95.040  1.00  0.00     0.168 C 
HETATM    5  O2  UNL     1     -88.194  66.465  95.919  1.00  0.00    -0.350 OA
HETATM    6  C5  UNL     1     -88.704  65.257  95.529  1.00  0.00     0.296 C 
HETATM    7  C12 UNL     1     -90.098  65.276  95.000  1.00  0.00     0.270 C 
HETATM    8  C13 UNL     1     -90.573  66.563  94.456  1.00  0.00     0.238 C 
ENDROOT
BRANCH   4   9
HETATM    9  C4  UNL     1     -87.611  68.683  95.544  1.00  0.00     0.197 C 
BRANCH   9  10
HETATM   10  O1  UNL     1     -86.250  68.478  95.408  1.00  0.00    -0.398 OA
ATOM     11  H1  UNL     1     -85.876  68.017  96.151  1.00  0.00     0.209 HD
ENDBRANCH   9  10
ENDBRANCH   4   9
BRANCH   8  12
HETATM   12  N3  UNL     1     -92.007  66.763  94.581  1.00  0.00    -0.071 N 
ATOM     13  H33 UNL     1     -92.491  65.962  94.986  1.00  0.00     0.274 HD
ATOM     14  H32 UNL     1     -92.256  67.441  95.301  1.00  0.00     0.274 HD
ATOM     15  H31 UNL     1     -92.350  67.016  93.654  1.00  0.00     0.274 HD
ENDBRANCH   8  12
BRANCH   7  16
HETATM   16  N2  UNL     1     -91.045  64.787  96.014  1.00  0.00    -0.068 N 
ATOM     17  H23 UNL     1     -91.834  65.423  96.133  1.00  0.00     0.275 HD
ATOM     18  H22 UNL     1     -91.557  63.967  95.688  1.00  0.00     0.275 HD
ATOM     19  H21 UNL     1     -90.567  64.609  96.897  1.00  0.00     0.275 HD
ENDBRANCH   7  16
BRANCH   6  20
HETATM   20  O3  UNL     1     -87.816  64.687  94.616  1.00  0.00    -0.327 OA
BRANCH  20  21
HETATM   21  C6  UNL     1     -87.797  63.298  94.701  1.00  0.00     0.294 C 
HETATM   22  O4  UNL     1     -86.652  62.735  94.174  1.00  0.00    -0.350 OA
HETATM   23  C7  UNL     1     -86.732  61.410  94.628  1.00  0.00     0.158 C 
HETATM   24  C10 UNL     1     -86.975  61.579  96.088  1.00  0.00     0.180 C 
HETATM   25  C11 UNL     1     -87.918  62.792  96.111  1.00  0.00     0.204 C 
BRANCH  23  26
HETATM   26  C8  UNL     1     -85.540  60.614  94.238  1.00  0.00     0.061 C 
BRANCH  26  27
HETATM   27  C9  UNL     1     -85.875  59.153  94.163  1.00  0.00     0.166 C 
BRANCH  27  28
HETATM   28  O5  UNL     1     -85.068  58.390  94.961  1.00  0.00    -0.401 OA
ATOM     29  H5  UNL     1     -84.865  58.815  95.786  1.00  0.00     0.209 HD
ENDBRANCH  27  28
ENDBRANCH  26  27
ENDBRANCH  23  26
BRANCH  24  30
HETATM   30  O6  UNL     1     -85.845  61.914  96.821  1.00  0.00    -0.390 OA
ATOM     31  H6  UNL     1     -85.537  62.802  96.682  1.00  0.00     0.210 HD
ENDBRANCH  24  30
BRANCH  25  32
HETATM   32  O7  UNL     1     -89.186  62.290  96.386  1.00  0.00    -0.388 OA
ATOM     33  H7  UNL     1     -89.805  62.470  95.689  1.00  0.00     0.210 HD
ENDBRANCH  25  32
ENDBRANCH  20  21
ENDBRANCH   6  20
TORSDOF 11
ENDMDL
MODEL 3
REMARK VINA RESULT: -6.756930439      1.087      1.192
REMARK  11 active torsions:
REMARK  status: ('A' for Active; 'I' for Inactive)
REMARK    1  A    between atoms: C3_4  and  C4_5 
REMARK    2  A    between atoms: C4_5  and  O1_6 
REMARK    3  A    between atoms: C5_9  and  O3_10 
REMARK    4  A    between atoms: O3_10  and  C6_11 
REMARK    5  A    between atoms: C7_13  and  C8_14 
REMARK    6  A    between atoms: C8_14  and  C9_15 
REMARK    7  A    between atoms: C9_15  and  O5_16 
REMARK    8  A    between atoms: C10_18  and  O6_19 
REMARK    9  A    between atoms: C11_21  and  O7_22 
REMARK   10  A    between atoms: C12_24  and  N2_25 
REMARK   11  A    between atoms: C13_29  and  N3_30 
ROOT
HETATM    1  N1  UNL     1     -91.333  68.360  93.426  1.00  0.00    -0.197 NA
HETATM    2  C1  UNL     1     -91.018  67.496  94.121  1.00  0.00     0.069 C 
HETATM    3  C2  UNL     1     -90.606  66.400  94.993  1.00  0.00     0.156 C 
HETATM    4  C3  UNL     1     -89.120  66.159  94.934  1.00  0.00     0.168 C 
HETATM    5  O2  UNL     1     -88.839  65.172  95.864  1.00  0.00    -0.350 OA
HETATM    6  C5  UNL     1     -89.334  63.934  95.562  1.00  0.00     0.296 C 
HETATM    7  C12 UNL     1     -90.744  63.893  95.078  1.00  0.00     0.270 C 
HETATM    8  C13 UNL     1     -91.264  65.135  94.476  1.00  0.00     0.238 C 
ENDROOT
BRANCH   4   9
HETATM    9  C4  UNL     1     -88.317  67.375  95.342  1.00  0.00     0.197 C 
BRANCH   9  10
HETATM   10  O1  UNL     1     -86.953  67.160  95.259  1.00  0.00    -0.398 OA
ATOM     11  H1  UNL     1     -86.449  67.896  95.588  1.00  0.00     0.209 HD
ENDBRANCH   9  10
ENDBRANCH   4   9
BRANCH   8  12
HETATM   12  N3  UNL     1     -92.698  65.314  94.636  1.00  0.00    -0.071 N 
ATOM     13  H33 UNL     1     -93.089  66.013  94.005  1.00  0.00     0.274 HD
ATOM     14  H32 UNL     1     -93.242  64.519  94.301  1.00  0.00     0.274 HD
ATOM     15  H31 UNL     1     -92.859  65.526  95.621  1.00  0.00     0.274 HD
ENDBRANCH   8  12
BRANCH   7  16
HETATM   16  N2  UNL     1     -91.648  63.446  96.150  1.00  0.00    -0.068 N 
ATOM     17  H23 UNL     1     -92.553  63.915  96.102  1.00  0.00     0.275 HD
ATOM     18  H22 UNL     1     -91.964  62.487  96.001  1.00  0.00     0.275 HD
ATOM     19  H21 UNL     1     -91.209  63.563  97.063  1.00  0.00     0.275 HD
ENDBRANCH   7  16
BRANCH   6  20
HETATM   20  O3  UNL     1     -88.463  63.329  94.656  1.00  0.00    -0.327 OA
BRANCH  20  21
HETATM   21  C6  UNL     1     -88.012  62.092  95.108  1.00  0.00     0.294 C 
HETATM   22  O4  UNL     1     -88.126  61.091  94.163  1.00  0.00    -0.350 OA
HETATM   23  C7  UNL     1     -87.366  60.057  94.728  1.00  0.00     0.158 C 
HETATM   24  C10 UNL     1     -86.083  60.739  95.061  1.00  0.00     0.180 C 
HETATM   25  C11 UNL     1     -86.575  62.113  95.546  1.00  0.00     0.204 C 
BRANCH  23  26
HETATM   26  C8  UNL     1     -87.279  58.875  93.832  1.00  0.00     0.061 C 
BRANCH  26  27
HETATM   27  C9  UNL     1     -87.685  59.237  92.433  1.00  0.00     0.166 C 
BRANCH  27  28
HETATM   28  O5  UNL     1     -86.618  59.303  91.579  1.00  0.00    -0.401 OA
ATOM     29  H5  UNL     1     -86.082  58.519  91.606  1.00  0.00     0.209 HD
ENDBRANCH  27  28
ENDBRANCH  26  27
ENDBRANCH  23  26
BRANCH  24  30
HETATM   30  O6  UNL     1     -85.250  60.953  93.973  1.00  0.00    -0.390 OA
ATOM     31  H6  UNL     1     -84.454  61.430  94.177  1.00  0.00     0.210 HD
ENDBRANCH  24  30
BRANCH  25  32
HETATM   32  O7  UNL     1     -86.443  62.103  96.930  1.00  0.00    -0.388 OA
ATOM     33  H7  UNL     1     -85.609  62.457  97.216  1.00  0.00     0.210 HD
ENDBRANCH  25  32
ENDBRANCH  20  21
ENDBRANCH   6  20
TORSDOF 11
ENDMDL
MODEL 4
REMARK VINA RESULT: -6.444306999      1.710      2.631
REMARK  11 active torsions:
REMARK  status: ('A' for Active; 'I' for Inactive)
REMARK    1  A    between atoms: C3_4  and  C4_5 
REMARK    2  A    between atoms: C4_5  and  O1_6 
REMARK    3  A    between atoms: C5_9  and  O3_10 
REMARK    4  A    between atoms: O3_10  and  C6_11 
REMARK    5  A    between atoms: C7_13  and  C8_14 
REMARK    6  A    between atoms: C8_14  and  C9_15 
REMARK    7  A    between atoms: C9_15  and  O5_16 
REMARK    8  A    between atoms: C10_18  and  O6_19 
REMARK    9  A    between atoms: C11_21  and  O7_22 
REMARK   10  A    between atoms: C12_24  and  N2_25 
REMARK   11  A    between atoms: C13_29  and  N3_30 
ROOT
HETATM    1  N1  UNL     1     -90.427  70.616  93.535  1.00  0.00    -0.197 NA
HETATM    2  C1  UNL     1     -90.440  69.622  94.120  1.00  0.00     0.069 C 
HETATM    3  C2  UNL     1     -90.441  68.364  94.859  1.00  0.00     0.156 C 
HETATM    4  C3  UNL     1     -89.067  67.998  95.356  1.00  0.00     0.168 C 
HETATM    5  O2  UNL     1     -89.209  66.849  96.115  1.00  0.00    -0.350 OA
HETATM    6  C5  UNL     1     -89.557  65.729  95.411  1.00  0.00     0.296 C 
HETATM    7  C12 UNL     1     -90.645  65.901  94.405  1.00  0.00     0.270 C 
HETATM    8  C13 UNL     1     -90.850  67.269  93.892  1.00  0.00     0.238 C 
ENDROOT
BRANCH   4   9
HETATM    9  C4  UNL     1     -88.482  69.050  96.274  1.00  0.00     0.197 C 
BRANCH   9  10
HETATM   10  O1  UNL     1     -89.307  70.153  96.406  1.00  0.00    -0.398 OA
ATOM     11  H1  UNL     1     -89.309  70.501  97.291  1.00  0.00     0.209 HD
ENDBRANCH   9  10
ENDBRANCH   4   9
BRANCH   8  12
HETATM   12  N3  UNL     1     -92.220  67.551  93.495  1.00  0.00    -0.071 N 
ATOM     13  H33 UNL     1     -92.296  67.919  92.547  1.00  0.00     0.274 HD
ATOM     14  H32 UNL     1     -92.778  66.710  93.352  1.00  0.00     0.274 HD
ATOM     15  H31 UNL     1     -92.607  68.176  94.203  1.00  0.00     0.274 HD
ENDBRANCH   8  12
BRANCH   7  16
HETATM   16  N2  UNL     1     -91.916  65.368  94.918  1.00  0.00    -0.068 N 
ATOM     17  H23 UNL     1     -92.354  66.007  95.582  1.00  0.00     0.275 HD
ATOM     18  H22 UNL     1     -92.643  65.369  94.202  1.00  0.00     0.275 HD
ATOM     19  H21 UNL     1     -91.782  64.440  95.319  1.00  0.00     0.275 HD
ENDBRANCH   7  16
BRANCH   6  20
HETATM   20  O3  UNL     1     -88.401  65.205  94.833  1.00  0.00    -0.327 OA
BRANCH  20  21
HETATM   21  C6  UNL     1     -88.289  63.833  95.037  1.00  0.00     0.294 C 
HETATM   22  O4  UNL     1     -87.194  63.275  94.408  1.00  0.00    -0.350 OA
HETATM   23  C7  UNL     1     -87.136  61.997  94.983  1.00  0.00     0.158 C 
HETATM   24  C10 UNL     1     -87.191  62.293  96.442  1.00  0.00     0.180 C 
HETATM   25  C11 UNL     1     -88.192  63.458  96.488  1.00  0.00     0.204 C 
BRANCH  23  26
HETATM   26  C8  UNL     1     -85.961  61.224  94.504  1.00  0.00     0.061 C 
BRANCH  26  27
HETATM   27  C9  UNL     1     -86.328  59.788  94.269  1.00  0.00     0.166 C 
BRANCH  27  28
HETATM   28  O5  UNL     1     -86.255  59.036  95.410  1.00  0.00    -0.401 OA
ATOM     29  H5  UNL     1     -85.430  58.572  95.487  1.00  0.00     0.209 HD
ENDBRANCH  27  28
ENDBRANCH  26  27
ENDBRANCH  23  26
BRANCH  24  30
HETATM   30  O6  UNL     1     -85.995  62.748  96.980  1.00  0.00    -0.390 OA
ATOM     31  H6  UNL     1     -86.097  63.368  97.692  1.00  0.00     0.210 HD
ENDBRANCH  24  30
BRANCH  25  32
HETATM   32  O7  UNL     1     -89.381  62.926  96.979  1.00  0.00    -0.388 OA
ATOM     33  H7  UNL     1     -90.007  63.599  97.216  1.00  0.00     0.210 HD
ENDBRANCH  25  32
ENDBRANCH  20  21
ENDBRANCH   6  20
TORSDOF 11
ENDMDL
MODEL 5
REMARK VINA RESULT: -6.424620825      1.633      2.003
REMARK  11 active torsions:
REMARK  status: ('A' for Active; 'I' for Inactive)
REMARK    1  A    between atoms: C3_4  and  C4_5 
REMARK    2  A    between atoms: C4_5  and  O1_6 
REMARK    3  A    between atoms: C5_9  and  O3_10 
REMARK    4  A    between atoms: O3_10  and  C6_11 
REMARK    5  A    between atoms: C7_13  and  C8_14 
REMARK    6  A    between atoms: C8_14  and  C9_15 
REMARK    7  A    between atoms: C9_15  and  O5_16 
REMARK    8  A    between atoms: C10_18  and  O6_19 
REMARK    9  A    between atoms: C11_21  and  O7_22 
REMARK   10  A    between atoms: C12_24  and  N2_25 
REMARK   11  A    between atoms: C13_29  and  N3_30 
ROOT
HETATM    1  N1  UNL     1     -92.189  68.005  92.448  1.00  0.00    -0.197 NA
HETATM    2  C1  UNL     1     -91.697  67.519  93.371  1.00  0.00     0.069 C 
HETATM    3  C2  UNL     1     -91.060  66.907  94.532  1.00  0.00     0.156 C 
HETATM    4  C3  UNL     1     -89.582  67.191  94.582  1.00  0.00     0.168 C 
HETATM    5  O2  UNL     1     -89.110  66.646  95.765  1.00  0.00    -0.350 OA
HETATM    6  C5  UNL     1     -89.133  65.280  95.822  1.00  0.00     0.296 C 
HETATM    7  C12 UNL     1     -90.381  64.625  95.336  1.00  0.00     0.270 C 
HETATM    8  C13 UNL     1     -91.200  65.403  94.387  1.00  0.00     0.238 C 
ENDROOT
BRANCH   4   9
HETATM    9  C4  UNL     1     -89.277  68.672  94.641  1.00  0.00     0.197 C 
BRANCH   9  10
HETATM   10  O1  UNL     1     -87.989  68.929  95.075  1.00  0.00    -0.398 OA
ATOM     11  H1  UNL     1     -87.822  69.859  95.187  1.00  0.00     0.209 HD
ENDBRANCH   9  10
ENDBRANCH   4   9
BRANCH   8  12
HETATM   12  N3  UNL     1     -92.622  65.107  94.453  1.00  0.00    -0.071 N 
ATOM     13  H33 UNL     1     -92.864  64.462  95.205  1.00  0.00     0.274 HD
ATOM     14  H32 UNL     1     -93.182  65.896  94.775  1.00  0.00     0.274 HD
ATOM     15  H31 UNL     1     -92.895  64.770  93.530  1.00  0.00     0.274 HD
ENDBRANCH   8  12
BRANCH   7  16
HETATM   16  N2  UNL     1     -91.215  64.190  96.468  1.00  0.00    -0.068 N 
ATOM     17  H23 UNL     1     -90.671  64.107  97.328  1.00  0.00     0.275 HD
ATOM     18  H22 UNL     1     -91.861  64.921  96.765  1.00  0.00     0.275 HD
ATOM     19  H21 UNL     1     -91.702  63.322  96.244  1.00  0.00     0.275 HD
ENDBRANCH   7  16
BRANCH   6  20
HETATM   20  O3  UNL     1     -88.008  64.800  95.152  1.00  0.00    -0.327 OA
BRANCH  20  21
HETATM   21  C6  UNL     1     -87.933  63.410  95.180  1.00  0.00     0.294 C 
HETATM   22  O4  UNL     1     -86.862  62.907  94.468  1.00  0.00    -0.350 OA
HETATM   23  C7  UNL     1     -86.834  61.566  94.877  1.00  0.00     0.158 C 
HETATM   24  C10 UNL     1     -86.861  61.677  96.363  1.00  0.00     0.180 C 
HETATM   25  C11 UNL     1     -87.828  62.854  96.571  1.00  0.00     0.204 C 
BRANCH  23  26
HETATM   26  C8  UNL     1     -85.689  60.827  94.285  1.00  0.00     0.061 C 
BRANCH  26  27
HETATM   27  C9  UNL     1     -85.995  59.361  94.184  1.00  0.00     0.166 C 
BRANCH  27  28
HETATM   28  O5  UNL     1     -85.173  58.600  94.969  1.00  0.00    -0.401 OA
ATOM     29  H5  UNL     1     -84.770  59.102  95.667  1.00  0.00     0.209 HD
ENDBRANCH  27  28
ENDBRANCH  26  27
ENDBRANCH  23  26
BRANCH  24  30
HETATM   30  O6  UNL     1     -85.646  62.028  96.933  1.00  0.00    -0.390 OA
ATOM     31  H6  UNL     1     -85.481  62.963  96.960  1.00  0.00     0.210 HD
ENDBRANCH  24  30
BRANCH  25  32
HETATM   32  O7  UNL     1     -89.025  62.297  97.011  1.00  0.00    -0.388 OA
ATOM     33  H7  UNL     1     -88.905  61.434  97.388  1.00  0.00     0.210 HD
ENDBRANCH  25  32
ENDBRANCH  20  21
ENDBRANCH   6  20
TORSDOF 11
ENDMDL
