MODEL 1
REMARK VINA RESULT: -7.720754301      0.000      0.000
REMARK  10 active torsions:
REMARK  status: ('A' for Active; 'I' for Inactive)
REMARK    1  A    between atoms: N1_1  and  C1_4 
REMARK    2  A    between atoms: C4_11  and  N5_12 
REMARK    3  A    between atoms: N5_12  and  C5_13 
REMARK    4  A    between atoms: N5_12  and  C7_19 
REMARK    5  A    between atoms: C5_13  and  C6_14 
REMARK    6  A    between atoms: C6_14  and  N6_15 
REMARK    7  A    between atoms: C7_19  and  C8_20 
REMARK    8  A    between atoms: C8_20  and  C9_21 
REMARK    9  A    between atoms: C9_21  and  C10_22 
REMARK   10  A    between atoms: C10_22  and  N7_23 
ROOT
HETATM    1  C1  UNL     1     -40.629 -13.456  13.144  1.00  0.00     0.123 C 
HETATM    2  C2  UNL     1     -41.563 -12.452  13.341  1.00  0.00     0.119 C 
HETATM    3  N2  UNL     1     -42.929 -12.791  13.224  1.00  0.00    -0.096 NA
HETATM    4  C3  UNL     1     -41.239 -11.136  13.643  1.00  0.00     0.158 C 
HETATM    5  N3  UNL     1     -42.288 -10.408  14.267  1.00  0.00    -0.080 NA
HETATM    6  N4  UNL     1     -40.078 -10.486  13.415  1.00  0.00    -0.177 N 
ATOM      7  H4  UNL     1     -40.144  -9.474  13.524  1.00  0.00     0.185 HD
HETATM    8  C4  UNL     1     -38.869 -10.910  13.078  1.00  0.00     0.684 C 
HETATM    9  N8  UNL     1     -38.633 -12.160  12.586  1.00  0.00    -0.154 N 
ATOM     10  H8  UNL     1     -37.787 -12.238  12.021  1.00  0.00     0.187 HD
HETATM   11  C11 UNL     1     -39.322 -13.308  12.717  1.00  0.00     0.287 C 
HETATM   12  O1  UNL     1     -38.757 -14.400  12.429  1.00  0.00    -0.265 OA
ENDROOT
BRANCH   8  13
HETATM   13  N5  UNL     1     -37.731 -10.074  13.216  1.00  0.00    -0.216 N 
BRANCH  13  14
HETATM   14  C5  UNL     1     -37.843  -8.891  14.047  1.00  0.00     0.168 C 
BRANCH  14  15
HETATM   15  C6  UNL     1     -38.192  -9.186  15.482  1.00  0.00     0.250 C 
BRANCH  15  16
HETATM   16  N6  UNL     1     -39.132  -8.139  15.905  1.00  0.00    -0.078 N 
ATOM     17  H63 UNL     1     -40.088  -8.303  15.590  1.00  0.00     0.274 HD
ATOM     18  H62 UNL     1     -39.324  -8.149  16.907  1.00  0.00     0.274 HD
ATOM     19  H61 UNL     1     -38.745  -7.254  15.578  1.00  0.00     0.274 HD
ENDBRANCH  15  16
ENDBRANCH  14  15
ENDBRANCH  13  14
BRANCH  13  20
HETATM   20  C7  UNL     1     -36.452 -10.286  12.597  1.00  0.00     0.141 C 
BRANCH  20  21
HETATM   21  C8  UNL     1     -36.418  -9.850  11.158  1.00  0.00     0.022 C 
BRANCH  21  22
HETATM   22  C9  UNL     1     -35.384  -8.847  10.821  1.00  0.00     0.029 C 
BRANCH  22  23
HETATM   23  C10 UNL     1     -34.624  -8.207  11.913  1.00  0.00     0.229 C 
BRANCH  23  24
HETATM   24  N7  UNL     1     -35.158  -7.011  12.470  1.00  0.00    -0.079 N 
ATOM     25  H73 UNL     1     -34.825  -6.211  11.933  1.00  0.00     0.274 HD
ATOM     26  H72 UNL     1     -36.159  -6.967  12.279  1.00  0.00     0.274 HD
ATOM     27  H71 UNL     1     -34.997  -6.842  13.463  1.00  0.00     0.274 HD
ENDBRANCH  23  24
ENDBRANCH  22  23
ENDBRANCH  21  22
ENDBRANCH  20  21
ENDBRANCH  13  20
ENDBRANCH   8  13
BRANCH   1  28
HETATM   28  N1  UNL     1     -41.042 -14.647  13.388  1.00  0.00    -0.393 N 
ATOM     29  H12 UNL     1     -41.434 -15.179  12.611  1.00  0.00     0.156 HD
ATOM     30  H11 UNL     1     -40.939 -14.955  14.355  1.00  0.00     0.156 HD
ENDBRANCH   1  28
TORSDOF 10
ENDMDL
MODEL 2
REMARK VINA RESULT: -7.411611175      1.824      2.714
REMARK  10 active torsions:
REMARK  status: ('A' for Active; 'I' for Inactive)
REMARK    1  A    between atoms: N1_1  and  C1_4 
REMARK    2  A    between atoms: C4_11  and  N5_12 
REMARK    3  A    between atoms: N5_12  and  C5_13 
REMARK    4  A    between atoms: N5_12  and  C7_19 
REMARK    5  A    between atoms: C5_13  and  C6_14 
REMARK    6  A    between atoms: C6_14  and  N6_15 
REMARK    7  A    between atoms: C7_19  and  C8_20 
REMARK    8  A    between atoms: C8_20  and  C9_21 
REMARK    9  A    between atoms: C9_21  and  C10_22 
REMARK   10  A    between atoms: C10_22  and  N7_23 
ROOT
HETATM    1  C1  UNL     1     -42.482 -12.066  13.394  1.00  0.00     0.123 C 
HETATM    2  C2  UNL     1     -41.580 -13.110  13.280  1.00  0.00     0.119 C 
HETATM    3  N2  UNL     1     -42.098 -14.418  13.155  1.00  0.00    -0.096 NA
HETATM    4  C3  UNL     1     -40.200 -12.951  13.284  1.00  0.00     0.158 C 
HETATM    5  N3  UNL     1     -39.490 -14.026  12.686  1.00  0.00    -0.080 NA
HETATM    6  N4  UNL     1     -39.477 -11.924  13.778  1.00  0.00    -0.177 N 
ATOM      7  H4  UNL     1     -38.481 -12.124  13.862  1.00  0.00     0.185 HD
HETATM    8  C4  UNL     1     -39.814 -10.706  14.176  1.00  0.00     0.684 C 
HETATM    9  N8  UNL     1     -41.101 -10.342  14.441  1.00  0.00    -0.154 N 
ATOM     10  H8  UNL     1     -41.193  -9.554  15.083  1.00  0.00     0.187 HD
HETATM   11  C11 UNL     1     -42.271 -10.843  14.003  1.00  0.00     0.287 C 
HETATM   12  O1  UNL     1     -43.322 -10.158  14.141  1.00  0.00    -0.265 OA
ENDROOT
BRANCH   8  13
HETATM   13  N5  UNL     1     -38.836  -9.692  14.349  1.00  0.00    -0.216 N 
BRANCH  13  14
HETATM   14  C5  UNL     1     -38.603  -9.182  15.686  1.00  0.00     0.168 C 
BRANCH  14  15
HETATM   15  C6  UNL     1     -38.752  -7.688  15.802  1.00  0.00     0.250 C 
BRANCH  15  16
HETATM   16  N6  UNL     1     -38.695  -7.373  17.236  1.00  0.00    -0.078 N 
ATOM     17  H63 UNL     1     -39.482  -6.809  17.558  1.00  0.00     0.274 HD
ATOM     18  H62 UNL     1     -38.866  -8.182  17.834  1.00  0.00     0.274 HD
ATOM     19  H61 UNL     1     -37.790  -6.934  17.400  1.00  0.00     0.274 HD
ENDBRANCH  15  16
ENDBRANCH  14  15
ENDBRANCH  13  14
BRANCH  13  20
HETATM   20  C7  UNL     1     -38.041  -9.104  13.307  1.00  0.00     0.141 C 
BRANCH  20  21
HETATM   21  C8  UNL     1     -36.703  -9.770  13.145  1.00  0.00     0.022 C 
BRANCH  21  22
HETATM   22  C9  UNL     1     -36.009  -9.502  11.867  1.00  0.00     0.029 C 
BRANCH  22  23
HETATM   23  C10 UNL     1     -34.851  -8.586  11.859  1.00  0.00     0.229 C 
BRANCH  23  24
HETATM   24  N7  UNL     1     -35.036  -7.292  12.420  1.00  0.00    -0.079 N 
ATOM     25  H73 UNL     1     -35.978  -6.963  12.209  1.00  0.00     0.274 HD
ATOM     26  H72 UNL     1     -35.082  -7.367  13.437  1.00  0.00     0.274 HD
ATOM     27  H71 UNL     1     -34.362  -6.569  12.167  1.00  0.00     0.274 HD
ENDBRANCH  23  24
ENDBRANCH  22  23
ENDBRANCH  21  22
ENDBRANCH  20  21
ENDBRANCH  13  20
ENDBRANCH   8  13
BRANCH   1  28
HETATM   28  N1  UNL     1     -43.636 -12.277  12.871  1.00  0.00    -0.393 N 
ATOM     29  H12 UNL     1     -44.242 -12.960  13.327  1.00  0.00     0.156 HD
ATOM     30  H11 UNL     1     -43.843 -11.733  12.034  1.00  0.00     0.156 HD
ENDBRANCH   1  28
TORSDOF 10
ENDMDL
MODEL 3
REMARK VINA RESULT: -6.675817897      1.016      3.142
REMARK  10 active torsions:
REMARK  status: ('A' for Active; 'I' for Inactive)
REMARK    1  A    between atoms: N1_1  and  C1_4 
REMARK    2  A    between atoms: C4_11  and  N5_12 
REMARK    3  A    between atoms: N5_12  and  C5_13 
REMARK    4  A    between atoms: N5_12  and  C7_19 
REMARK    5  A    between atoms: C5_13  and  C6_14 
REMARK    6  A    between atoms: C6_14  and  N6_15 
REMARK    7  A    between atoms: C7_19  and  C8_20 
REMARK    8  A    between atoms: C8_20  and  C9_21 
REMARK    9  A    between atoms: C9_21  and  C10_22 
REMARK   10  A    between atoms: C10_22  and  N7_23 
ROOT
HETATM    1  C1  UNL     1     -40.417 -13.548  13.161  1.00  0.00     0.123 C 
HETATM    2  C2  UNL     1     -41.308 -12.500  13.328  1.00  0.00     0.119 C 
HETATM    3  N2  UNL     1     -42.686 -12.807  13.362  1.00  0.00    -0.096 NA
HETATM    4  C3  UNL     1     -40.931 -11.171  13.460  1.00  0.00     0.158 C 
HETATM    5  N3  UNL     1     -41.905 -10.350  14.089  1.00  0.00    -0.080 NA
HETATM    6  N4  UNL     1     -39.780 -10.584  13.068  1.00  0.00    -0.177 N 
ATOM      7  H4  UNL     1     -39.814  -9.565  13.074  1.00  0.00     0.185 HD
HETATM    8  C4  UNL     1     -38.614 -11.078  12.679  1.00  0.00     0.684 C 
HETATM    9  N8  UNL     1     -38.449 -12.379  12.304  1.00  0.00    -0.154 N 
ATOM     10  H8  UNL     1     -37.657 -12.542  11.682  1.00  0.00     0.187 HD
HETATM   11  C11 UNL     1     -39.149 -13.485  12.613  1.00  0.00     0.287 C 
HETATM   12  O1  UNL     1     -38.635 -14.619  12.397  1.00  0.00    -0.265 OA
ENDROOT
BRANCH   8  13
HETATM   13  N5  UNL     1     -37.450 -10.268  12.631  1.00  0.00    -0.216 N 
BRANCH  13  14
HETATM   14  C5  UNL     1     -36.701 -10.212  11.390  1.00  0.00     0.168 C 
BRANCH  14  15
HETATM   15  C6  UNL     1     -35.429  -9.412  11.484  1.00  0.00     0.250 C 
BRANCH  15  16
HETATM   16  N6  UNL     1     -35.451  -8.461  10.364  1.00  0.00    -0.078 N 
ATOM     17  H63 UNL     1     -34.538  -8.053  10.162  1.00  0.00     0.274 HD
ATOM     18  H62 UNL     1     -35.594  -8.907   9.458  1.00  0.00     0.274 HD
ATOM     19  H61 UNL     1     -36.163  -7.766  10.588  1.00  0.00     0.274 HD
ENDBRANCH  15  16
ENDBRANCH  14  15
ENDBRANCH  13  14
BRANCH  13  20
HETATM   20  C7  UNL     1     -36.926  -9.485  13.715  1.00  0.00     0.141 C 
BRANCH  20  21
HETATM   21  C8  UNL     1     -37.744  -8.256  14.000  1.00  0.00     0.022 C 
BRANCH  21  22
HETATM   22  C9  UNL     1     -38.243  -8.130  15.387  1.00  0.00     0.029 C 
BRANCH  22  23
HETATM   23  C10 UNL     1     -39.005  -9.248  15.977  1.00  0.00     0.229 C 
BRANCH  23  24
HETATM   24  N7  UNL     1     -38.268 -10.382  16.420  1.00  0.00    -0.079 N 
ATOM     25  H73 UNL     1     -37.371 -10.076  16.797  1.00  0.00     0.274 HD
ATOM     26  H72 UNL     1     -38.707 -10.765  17.257  1.00  0.00     0.274 HD
ATOM     27  H71 UNL     1     -38.112 -11.134  15.748  1.00  0.00     0.274 HD
ENDBRANCH  23  24
ENDBRANCH  22  23
ENDBRANCH  21  22
ENDBRANCH  20  21
ENDBRANCH  13  20
ENDBRANCH   8  13
BRANCH   1  28
HETATM   28  N1  UNL     1     -40.834 -14.693  13.565  1.00  0.00    -0.393 N 
ATOM     29  H12 UNL     1     -41.317 -15.285  12.888  1.00  0.00     0.156 HD
ATOM     30  H11 UNL     1     -40.640 -14.909  14.542  1.00  0.00     0.156 HD
ENDBRANCH   1  28
TORSDOF 10
ENDMDL
MODEL 4
REMARK VINA RESULT: -6.367215851      2.174      4.113
REMARK  10 active torsions:
REMARK  status: ('A' for Active; 'I' for Inactive)
REMARK    1  A    between atoms: N1_1  and  C1_4 
REMARK    2  A    between atoms: C4_11  and  N5_12 
REMARK    3  A    between atoms: N5_12  and  C5_13 
REMARK    4  A    between atoms: N5_12  and  C7_19 
REMARK    5  A    between atoms: C5_13  and  C6_14 
REMARK    6  A    between atoms: C6_14  and  N6_15 
REMARK    7  A    between atoms: C7_19  and  C8_20 
REMARK    8  A    between atoms: C8_20  and  C9_21 
REMARK    9  A    between atoms: C9_21  and  C10_22 
REMARK   10  A    between atoms: C10_22  and  N7_23 
ROOT
HETATM    1  C1  UNL     1     -42.203 -10.582  14.336  1.00  0.00     0.123 C 
HETATM    2  C2  UNL     1     -42.972 -11.683  14.001  1.00  0.00     0.119 C 
HETATM    3  N2  UNL     1     -44.332 -11.678  14.383  1.00  0.00    -0.096 NA
HETATM    4  C3  UNL     1     -42.490 -12.791  13.317  1.00  0.00     0.158 C 
HETATM    5  N3  UNL     1     -43.495 -13.554  12.664  1.00  0.00    -0.080 NA
HETATM    6  N4  UNL     1     -41.213 -13.217  13.207  1.00  0.00    -0.177 N 
ATOM      7  H4  UNL     1     -41.125 -14.164  12.840  1.00  0.00     0.185 HD
HETATM    8  C4  UNL     1     -40.053 -12.639  13.483  1.00  0.00     0.684 C 
HETATM    9  N8  UNL     1     -39.948 -11.522  14.258  1.00  0.00    -0.154 N 
ATOM     10  H8  UNL     1     -39.039 -11.404  14.707  1.00  0.00     0.187 HD
HETATM   11  C11 UNL     1     -40.835 -10.548  14.532  1.00  0.00     0.287 C 
HETATM   12  O1  UNL     1     -40.421  -9.461  15.025  1.00  0.00    -0.265 OA
ENDROOT
BRANCH   8  13
HETATM   13  N5  UNL     1     -38.833 -13.159  12.978  1.00  0.00    -0.216 N 
BRANCH  13  14
HETATM   14  C5  UNL     1     -38.779 -14.564  12.622  1.00  0.00     0.168 C 
BRANCH  14  15
HETATM   15  C6  UNL     1     -37.474 -15.229  12.971  1.00  0.00     0.250 C 
BRANCH  15  16
HETATM   16  N6  UNL     1     -37.797 -16.620  13.321  1.00  0.00    -0.078 N 
ATOM     17  H63 UNL     1     -37.650 -16.832  14.309  1.00  0.00     0.274 HD
ATOM     18  H62 UNL     1     -38.796 -16.822  13.295  1.00  0.00     0.274 HD
ATOM     19  H61 UNL     1     -37.249 -17.210  12.696  1.00  0.00     0.274 HD
ENDBRANCH  15  16
ENDBRANCH  14  15
ENDBRANCH  13  14
BRANCH  13  20
HETATM   20  C7  UNL     1     -37.620 -12.416  12.783  1.00  0.00     0.141 C 
BRANCH  20  21
HETATM   21  C8  UNL     1     -37.834 -11.125  12.043  1.00  0.00     0.022 C 
BRANCH  21  22
HETATM   22  C9  UNL     1     -36.672 -10.211  12.006  1.00  0.00     0.029 C 
BRANCH  22  23
HETATM   23  C10 UNL     1     -36.570  -9.141  13.018  1.00  0.00     0.229 C 
BRANCH  23  24
HETATM   24  N7  UNL     1     -37.276  -9.324  14.239  1.00  0.00    -0.079 N 
ATOM     25  H73 UNL     1     -38.092  -9.914  14.073  1.00  0.00     0.274 HD
ATOM     26  H72 UNL     1     -36.730  -9.922  14.859  1.00  0.00     0.274 HD
ATOM     27  H71 UNL     1     -37.564  -8.487  14.747  1.00  0.00     0.274 HD
ENDBRANCH  23  24
ENDBRANCH  22  23
ENDBRANCH  21  22
ENDBRANCH  20  21
ENDBRANCH  13  20
ENDBRANCH   8  13
BRANCH   1  28
HETATM   28  N1  UNL     1     -42.850  -9.481  14.477  1.00  0.00    -0.393 N 
ATOM     29  H12 UNL     1     -43.822  -9.463  14.166  1.00  0.00     0.156 HD
ATOM     30  H11 UNL     1     -42.323  -8.715  14.894  1.00  0.00     0.156 HD
ENDBRANCH   1  28
TORSDOF 10
ENDMDL
MODEL 5
REMARK VINA RESULT: -6.356427826      3.985      8.202
REMARK  10 active torsions:
REMARK  status: ('A' for Active; 'I' for Inactive)
REMARK    1  A    between atoms: N1_1  and  C1_4 
REMARK    2  A    between atoms: C4_11  and  N5_12 
REMARK    3  A    between atoms: N5_12  and  C5_13 
REMARK    4  A    between atoms: N5_12  and  C7_19 
REMARK    5  A    between atoms: C5_13  and  C6_14 
REMARK    6  A    between atoms: C6_14  and  N6_15 
REMARK    7  A    between atoms: C7_19  and  C8_20 
REMARK    8  A    between atoms: C8_20  and  C9_21 
REMARK    9  A    between atoms: C9_21  and  C10_22 
REMARK   10  A    between atoms: C10_22  and  N7_23 
ROOT
HETATM    1  C1  UNL     1     -40.798 -12.870  13.428  1.00  0.00     0.123 C 
HETATM    2  C2  UNL     1     -41.682 -11.932  13.935  1.00  0.00     0.119 C 
HETATM    3  N2  UNL     1     -41.174 -10.963  14.828  1.00  0.00    -0.096 NA
HETATM    4  C3  UNL     1     -43.034 -11.887  13.623  1.00  0.00     0.158 C 
HETATM    5  N3  UNL     1     -43.639 -10.619  13.837  1.00  0.00    -0.080 NA
HETATM    6  N4  UNL     1     -43.818 -12.881  13.154  1.00  0.00    -0.177 N 
ATOM      7  H4  UNL     1     -44.816 -12.676  13.203  1.00  0.00     0.185 HD
HETATM    8  C4  UNL     1     -43.540 -14.071  12.643  1.00  0.00     0.684 C 
HETATM    9  N8  UNL     1     -42.320 -14.666  12.771  1.00  0.00    -0.154 N 
ATOM     10  H8  UNL     1     -42.336 -15.683  12.693  1.00  0.00     0.187 HD
HETATM   11  C11 UNL     1     -41.098 -14.143  12.982  1.00  0.00     0.287 C 
HETATM   12  O1  UNL     1     -40.079 -14.856  12.762  1.00  0.00    -0.265 OA
ENDROOT
BRANCH   8  13
HETATM   13  N5  UNL     1     -44.514 -14.806  11.918  1.00  0.00    -0.216 N 
BRANCH  13  14
HETATM   14  C5  UNL     1     -44.062 -15.695  10.865  1.00  0.00     0.168 C 
BRANCH  14  15
HETATM   15  C6  UNL     1     -44.744 -15.465   9.542  1.00  0.00     0.250 C 
BRANCH  15  16
HETATM   16  N6  UNL     1     -43.689 -15.092   8.589  1.00  0.00    -0.078 N 
ATOM     17  H63 UNL     1     -42.750 -15.331   8.911  1.00  0.00     0.274 HD
ATOM     18  H62 UNL     1     -43.684 -15.666   7.745  1.00  0.00     0.274 HD
ATOM     19  H61 UNL     1     -43.809 -14.097   8.400  1.00  0.00     0.274 HD
ENDBRANCH  15  16
ENDBRANCH  14  15
ENDBRANCH  13  14
BRANCH  13  20
HETATM   20  C7  UNL     1     -45.934 -14.753  12.126  1.00  0.00     0.141 C 
BRANCH  20  21
HETATM   21  C8  UNL     1     -46.370 -15.458  13.381  1.00  0.00     0.022 C 
BRANCH  21  22
HETATM   22  C9  UNL     1     -47.047 -14.609  14.385  1.00  0.00     0.029 C 
BRANCH  22  23
HETATM   23  C10 UNL     1     -47.363 -13.208  14.042  1.00  0.00     0.229 C 
BRANCH  23  24
HETATM   24  N7  UNL     1     -48.727 -12.808  14.110  1.00  0.00    -0.079 N 
ATOM     25  H73 UNL     1     -49.312 -13.628  14.272  1.00  0.00     0.274 HD
ATOM     26  H72 UNL     1     -48.884 -12.287  14.973  1.00  0.00     0.274 HD
ATOM     27  H71 UNL     1     -49.101 -12.278  13.323  1.00  0.00     0.274 HD
ENDBRANCH  23  24
ENDBRANCH  22  23
ENDBRANCH  21  22
ENDBRANCH  20  21
ENDBRANCH  13  20
ENDBRANCH   8  13
BRANCH   1  28
HETATM   28  N1  UNL     1     -39.570 -12.497  13.377  1.00  0.00    -0.393 N 
ATOM     29  H12 UNL     1     -38.854 -13.218  13.464  1.00  0.00     0.156 HD
ATOM     30  H11 UNL     1     -39.423 -11.495  13.253  1.00  0.00     0.156 HD
ENDBRANCH   1  28
TORSDOF 10
ENDMDL
