MODEL 1
REMARK VINA RESULT: -7.285892723      0.000      0.000
REMARK  9 active torsions:
REMARK  status: ('A' for Active; 'I' for Inactive)
REMARK    1  A    between atoms: C2_2  and  N1_3 
REMARK    2  A    between atoms: N1_3  and  C3_4 
REMARK    3  A    between atoms: N1_3  and  N9_26 
REMARK    4  A    between atoms: C3_4  and  C4_5 
REMARK    5  A    between atoms: C4_5  and  C5_6 
REMARK    6  A    between atoms: C5_6  and  N2_7 
REMARK    7  A    between atoms: C7_11  and  N4_12 
REMARK    8  A    between atoms: C8_17  and  N6_18 
REMARK    9  A    between atoms: N9_26  and  N10_27 
ROOT
HETATM    1  N2  UNL     1     -39.497 -10.432  14.839  1.00  0.00    -0.232 N 
HETATM    2  N3  UNL     1     -39.465 -11.667  14.365  1.00  0.00    -0.277 N 
ATOM      3  H3  UNL     1     -38.621 -12.237  14.302  1.00  0.00     0.189 HD
HETATM    4  C6  UNL     1     -40.681 -12.072  13.977  1.00  0.00     0.140 A 
HETATM    5  C7  UNL     1     -41.187 -13.235  13.430  1.00  0.00     0.147 A 
HETATM    6  N5  UNL     1     -42.510 -13.264  13.171  1.00  0.00    -0.175 N 
ATOM      7  H5  UNL     1     -42.920 -14.107  12.767  1.00  0.00     0.186 HD
HETATM    8  C8  UNL     1     -43.303 -12.208  13.431  1.00  0.00     0.679 A 
HETATM    9  N7  UNL     1     -42.849 -11.052  13.966  1.00  0.00    -0.173 N 
ATOM     10  H7  UNL     1     -43.496 -10.284  14.144  1.00  0.00     0.186 HD
HETATM   11  C9  UNL     1     -41.556 -10.916  14.261  1.00  0.00     0.169 A 
HETATM   12  N8  UNL     1     -40.756  -9.974  14.780  1.00  0.00    -0.266 N 
ATOM     13  H8  UNL     1     -41.058  -9.049  15.084  1.00  0.00     0.190 HD
ENDROOT
BRANCH   1  14
HETATM   14  C5  UNL     1     -38.343  -9.717  15.344  1.00  0.00     0.171 C 
BRANCH  14  15
HETATM   15  C4  UNL     1     -37.967  -8.525  14.483  1.00  0.00     0.039 C 
BRANCH  15  16
HETATM   16  C3  UNL     1     -37.476  -9.049  13.142  1.00  0.00     0.113 C 
BRANCH  16  17
HETATM   17  N1  UNL     1     -36.032  -9.040  13.182  1.00  0.00    -0.215 NA
BRANCH  17  18
HETATM   18  C2  UNL     1     -35.565  -8.033  12.212  1.00  0.00     0.107 C 
HETATM   19  C1  UNL     1     -35.390  -8.621  10.846  1.00  0.00     0.022 C 
ENDBRANCH  17  18
BRANCH  17  20
HETATM   20  N9  UNL     1     -35.490 -10.250  12.726  1.00  0.00    -0.056 NA
BRANCH  20  21
HETATM   21  N10 UNL     1     -36.303 -11.346  12.912  1.00  0.00    -0.333 N 
ATOM     22 2H10 UNL     1     -37.128 -11.509  12.335  1.00  0.00     0.173 HD
ATOM     23 1H10 UNL     1     -36.009 -11.967  13.667  1.00  0.00     0.173 HD
ENDBRANCH  20  21
ENDBRANCH  17  20
ENDBRANCH  16  17
ENDBRANCH  15  16
ENDBRANCH  14  15
ENDBRANCH   1  14
BRANCH   5  24
HETATM   24  N4  UNL     1     -40.440 -14.254  13.176  1.00  0.00    -0.383 N 
ATOM     25  H42 UNL     1     -39.436 -14.224  13.352  1.00  0.00     0.157 HD
ATOM     26  H41 UNL     1     -40.817 -15.121  12.791  1.00  0.00     0.157 HD
ENDBRANCH   5  24
BRANCH   8  27
HETATM   27  N6  UNL     1     -44.557 -12.288  13.166  1.00  0.00    -0.234 N 
ATOM     28  H62 UNL     1     -44.956 -13.218  13.045  1.00  0.00     0.174 HD
ATOM     29  H61 UNL     1     -45.103 -11.430  13.085  1.00  0.00     0.174 HD
ENDBRANCH   8  27
TORSDOF 9
ENDMDL
MODEL 2
REMARK VINA RESULT: -7.150797207      0.742      1.968
REMARK  9 active torsions:
REMARK  status: ('A' for Active; 'I' for Inactive)
REMARK    1  A    between atoms: C2_2  and  N1_3 
REMARK    2  A    between atoms: N1_3  and  C3_4 
REMARK    3  A    between atoms: N1_3  and  N9_26 
REMARK    4  A    between atoms: C3_4  and  C4_5 
REMARK    5  A    between atoms: C4_5  and  C5_6 
REMARK    6  A    between atoms: C5_6  and  N2_7 
REMARK    7  A    between atoms: C7_11  and  N4_12 
REMARK    8  A    between atoms: C8_17  and  N6_18 
REMARK    9  A    between atoms: N9_26  and  N10_27 
ROOT
HETATM    1  N2  UNL     1     -39.470 -10.437  14.863  1.00  0.00    -0.232 N 
HETATM    2  N3  UNL     1     -40.642  -9.826  14.907  1.00  0.00    -0.277 N 
ATOM      3  H3  UNL     1     -40.791  -8.894  15.295  1.00  0.00     0.189 HD
HETATM    4  C6  UNL     1     -41.609 -10.587  14.377  1.00  0.00     0.140 A 
HETATM    5  C7  UNL     1     -42.966 -10.431  14.179  1.00  0.00     0.147 A 
HETATM    6  N5  UNL     1     -43.620 -11.453  13.591  1.00  0.00    -0.175 N 
ATOM      7  H5  UNL     1     -44.624 -11.374  13.428  1.00  0.00     0.186 HD
HETATM    8  C8  UNL     1     -42.981 -12.576  13.215  1.00  0.00     0.679 A 
HETATM    9  N7  UNL     1     -41.654 -12.769  13.389  1.00  0.00    -0.173 N 
ATOM     10  H7  UNL     1     -41.220 -13.640  13.083  1.00  0.00     0.186 HD
HETATM   11  C9  UNL     1     -40.911 -11.821  13.961  1.00  0.00     0.169 A 
HETATM   12  N8  UNL     1     -39.625 -11.640  14.293  1.00  0.00    -0.266 N 
ATOM     13  H8  UNL     1     -38.878 -12.316  14.136  1.00  0.00     0.190 HD
ENDROOT
BRANCH   1  14
HETATM   14  C5  UNL     1     -38.230  -9.869  15.352  1.00  0.00     0.171 C 
BRANCH  14  15
HETATM   15  C4  UNL     1     -37.824  -8.612  14.604  1.00  0.00     0.039 C 
BRANCH  15  16
HETATM   16  C3  UNL     1     -37.413  -9.014  13.196  1.00  0.00     0.113 C 
BRANCH  16  17
HETATM   17  N1  UNL     1     -35.969  -9.035  13.162  1.00  0.00    -0.215 NA
BRANCH  17  18
HETATM   18  C2  UNL     1     -35.532  -8.028  12.177  1.00  0.00     0.107 C 
HETATM   19  C1  UNL     1     -35.393  -8.617  10.808  1.00  0.00     0.022 C 
ENDBRANCH  17  18
BRANCH  17  20
HETATM   20  N9  UNL     1     -35.477 -10.252  12.667  1.00  0.00    -0.056 NA
BRANCH  20  21
HETATM   21  N10 UNL     1     -36.285 -11.339  12.917  1.00  0.00    -0.333 N 
ATOM     22 2H10 UNL     1     -36.248 -11.846  13.801  1.00  0.00     0.173 HD
ATOM     23 1H10 UNL     1     -36.913 -11.584  12.151  1.00  0.00     0.173 HD
ENDBRANCH  20  21
ENDBRANCH  17  20
ENDBRANCH  16  17
ENDBRANCH  15  16
ENDBRANCH  14  15
ENDBRANCH   1  14
BRANCH   5  24
HETATM   24  N4  UNL     1     -43.593  -9.362  14.535  1.00  0.00    -0.383 N 
ATOM     25  H42 UNL     1     -44.425  -9.414  15.122  1.00  0.00     0.157 HD
ATOM     26  H41 UNL     1     -43.288  -8.432  14.246  1.00  0.00     0.157 HD
ENDBRANCH   5  24
BRANCH   8  27
HETATM   27  N6  UNL     1     -43.650 -13.521  12.658  1.00  0.00    -0.234 N 
ATOM     28  H62 UNL     1     -44.595 -13.305  12.341  1.00  0.00     0.174 HD
ATOM     29  H61 UNL     1     -43.221 -14.440  12.555  1.00  0.00     0.174 HD
ENDBRANCH   8  27
TORSDOF 9
ENDMDL
MODEL 3
REMARK VINA RESULT: -6.917686045      0.985      1.403
REMARK  9 active torsions:
REMARK  status: ('A' for Active; 'I' for Inactive)
REMARK    1  A    between atoms: C2_2  and  N1_3 
REMARK    2  A    between atoms: N1_3  and  C3_4 
REMARK    3  A    between atoms: N1_3  and  N9_26 
REMARK    4  A    between atoms: C3_4  and  C4_5 
REMARK    5  A    between atoms: C4_5  and  C5_6 
REMARK    6  A    between atoms: C5_6  and  N2_7 
REMARK    7  A    between atoms: C7_11  and  N4_12 
REMARK    8  A    between atoms: C8_17  and  N6_18 
REMARK    9  A    between atoms: N9_26  and  N10_27 
ROOT
HETATM    1  N2  UNL     1     -39.455 -10.278  14.753  1.00  0.00    -0.232 N 
HETATM    2  N3  UNL     1     -39.414 -11.492  14.230  1.00  0.00    -0.277 N 
ATOM      3  H3  UNL     1     -38.560 -12.034  14.099  1.00  0.00     0.189 HD
HETATM    4  C6  UNL     1     -40.638 -11.920  13.894  1.00  0.00     0.140 A 
HETATM    5  C7  UNL     1     -41.140 -13.076  13.331  1.00  0.00     0.147 A 
HETATM    6  N5  UNL     1     -42.474 -13.136  13.144  1.00  0.00    -0.175 N 
ATOM      7  H5  UNL     1     -42.882 -13.976  12.731  1.00  0.00     0.186 HD
HETATM    8  C8  UNL     1     -43.282 -12.115  13.488  1.00  0.00     0.679 A 
HETATM    9  N7  UNL     1     -42.832 -10.967  14.042  1.00  0.00    -0.173 N 
ATOM     10  H7  UNL     1     -43.489 -10.226  14.285  1.00  0.00     0.186 HD
HETATM   11  C9  UNL     1     -41.528 -10.803  14.271  1.00  0.00     0.169 A 
HETATM   12  N8  UNL     1     -40.728  -9.856  14.781  1.00  0.00    -0.266 N 
ATOM     13  H8  UNL     1     -41.039  -8.953  15.136  1.00  0.00     0.190 HD
ENDROOT
BRANCH   1  14
HETATM   14  C5  UNL     1     -38.295  -9.547  15.221  1.00  0.00     0.171 C 
BRANCH  14  15
HETATM   15  C4  UNL     1     -37.726  -8.611  14.171  1.00  0.00     0.039 C 
BRANCH  15  16
HETATM   16  C3  UNL     1     -36.504  -9.278  13.558  1.00  0.00     0.113 C 
BRANCH  16  17
HETATM   17  N1  UNL     1     -36.224  -8.597  12.315  1.00  0.00    -0.215 NA
BRANCH  17  18
HETATM   18  C2  UNL     1     -36.007  -9.627  11.282  1.00  0.00     0.107 C 
HETATM   19  C1  UNL     1     -35.262  -9.081  10.104  1.00  0.00     0.022 C 
ENDBRANCH  17  18
BRANCH  17  20
HETATM   20  N9  UNL     1     -35.014  -7.889  12.369  1.00  0.00    -0.056 NA
BRANCH  20  21
HETATM   21  N10 UNL     1     -35.150  -6.549  12.659  1.00  0.00    -0.333 N 
ATOM     22 2H10 UNL     1     -34.846  -6.156  13.549  1.00  0.00     0.173 HD
ATOM     23 1H10 UNL     1     -35.576  -5.997  11.914  1.00  0.00     0.173 HD
ENDBRANCH  20  21
ENDBRANCH  17  20
ENDBRANCH  16  17
ENDBRANCH  15  16
ENDBRANCH  14  15
ENDBRANCH   1  14
BRANCH   5  24
HETATM   24  N4  UNL     1     -40.380 -14.062  12.996  1.00  0.00    -0.383 N 
ATOM     25  H42 UNL     1     -39.897 -14.068  12.098  1.00  0.00     0.157 HD
ATOM     26  H41 UNL     1     -40.233 -14.866  13.607  1.00  0.00     0.157 HD
ENDBRANCH   5  24
BRANCH   8  27
HETATM   27  N6  UNL     1     -44.546 -12.223  13.289  1.00  0.00    -0.234 N 
ATOM     28  H62 UNL     1     -44.978 -11.571  12.634  1.00  0.00     0.174 HD
ATOM     29  H61 UNL     1     -45.067 -12.946  13.785  1.00  0.00     0.174 HD
ENDBRANCH   8  27
TORSDOF 9
ENDMDL
MODEL 4
REMARK VINA RESULT: -6.900426694      1.202      2.408
REMARK  9 active torsions:
REMARK  status: ('A' for Active; 'I' for Inactive)
REMARK    1  A    between atoms: C2_2  and  N1_3 
REMARK    2  A    between atoms: N1_3  and  C3_4 
REMARK    3  A    between atoms: N1_3  and  N9_26 
REMARK    4  A    between atoms: C3_4  and  C4_5 
REMARK    5  A    between atoms: C4_5  and  C5_6 
REMARK    6  A    between atoms: C5_6  and  N2_7 
REMARK    7  A    between atoms: C7_11  and  N4_12 
REMARK    8  A    between atoms: C8_17  and  N6_18 
REMARK    9  A    between atoms: N9_26  and  N10_27 
ROOT
HETATM    1  N2  UNL     1     -39.292 -10.161  14.782  1.00  0.00    -0.232 N 
HETATM    2  N3  UNL     1     -40.605 -10.032  14.688  1.00  0.00    -0.277 N 
ATOM      3  H3  UNL     1     -41.121  -9.194  14.956  1.00  0.00     0.189 HD
HETATM    4  C6  UNL     1     -41.170 -11.142  14.196  1.00  0.00     0.140 A 
HETATM    5  C7  UNL     1     -42.465 -11.524  13.906  1.00  0.00     0.147 A 
HETATM    6  N5  UNL     1     -42.639 -12.763  13.404  1.00  0.00    -0.175 N 
ATOM      7  H5  UNL     1     -43.582 -13.080  13.176  1.00  0.00     0.186 HD
HETATM    8  C8  UNL     1     -41.600 -13.593  13.197  1.00  0.00     0.679 A 
HETATM    9  N7  UNL     1     -40.318 -13.260  13.467  1.00  0.00    -0.173 N 
ATOM     10  H7  UNL     1     -39.568 -13.928  13.289  1.00  0.00     0.186 HD
HETATM   11  C9  UNL     1     -40.033 -12.057  13.967  1.00  0.00     0.169 A 
HETATM   12  N8  UNL     1     -38.940 -11.380  14.348  1.00  0.00    -0.266 N 
ATOM     13  H8  UNL     1     -37.986 -11.738  14.313  1.00  0.00     0.190 HD
ENDROOT
BRANCH   1  14
HETATM   14  C5  UNL     1     -38.399  -9.130  15.271  1.00  0.00     0.171 C 
BRANCH  14  15
HETATM   15  C4  UNL     1     -37.765  -8.323  14.153  1.00  0.00     0.039 C 
BRANCH  15  16
HETATM   16  C3  UNL     1     -36.586  -9.116  13.610  1.00  0.00     0.113 C 
BRANCH  16  17
HETATM   17  N1  UNL     1     -36.220  -8.523  12.344  1.00  0.00    -0.215 NA
BRANCH  17  18
HETATM   18  C2  UNL     1     -35.979  -9.622  11.390  1.00  0.00     0.107 C 
HETATM   19  C1  UNL     1     -35.385  -9.123  10.110  1.00  0.00     0.022 C 
ENDBRANCH  17  18
BRANCH  17  20
HETATM   20  N9  UNL     1     -34.995  -7.845  12.421  1.00  0.00    -0.056 NA
BRANCH  20  21
HETATM   21  N10 UNL     1     -35.106  -6.488  12.636  1.00  0.00    -0.333 N 
ATOM     22 2H10 UNL     1     -34.459  -5.822  12.215  1.00  0.00     0.173 HD
ATOM     23 1H10 UNL     1     -35.880  -6.219  13.243  1.00  0.00     0.173 HD
ENDBRANCH  20  21
ENDBRANCH  17  20
ENDBRANCH  16  17
ENDBRANCH  15  16
ENDBRANCH  14  15
ENDBRANCH   1  14
BRANCH   5  24
HETATM   24  N4  UNL     1     -43.470 -10.740  14.099  1.00  0.00    -0.383 N 
ATOM     25  H42 UNL     1     -43.930 -10.277  13.315  1.00  0.00     0.157 HD
ATOM     26  H41 UNL     1     -43.841 -10.552  15.030  1.00  0.00     0.157 HD
ENDBRANCH   5  24
BRANCH   8  27
HETATM   27  N6  UNL     1     -41.821 -14.764  12.717  1.00  0.00    -0.234 N 
ATOM     28  H62 UNL     1     -41.261 -15.536  13.079  1.00  0.00     0.174 HD
ATOM     29  H61 UNL     1     -42.537 -14.879  12.000  1.00  0.00     0.174 HD
ENDBRANCH   8  27
TORSDOF 9
ENDMDL
MODEL 5
REMARK VINA RESULT: -6.862286801      1.585      2.225
REMARK  9 active torsions:
REMARK  status: ('A' for Active; 'I' for Inactive)
REMARK    1  A    between atoms: C2_2  and  N1_3 
REMARK    2  A    between atoms: N1_3  and  C3_4 
REMARK    3  A    between atoms: N1_3  and  N9_26 
REMARK    4  A    between atoms: C3_4  and  C4_5 
REMARK    5  A    between atoms: C4_5  and  C5_6 
REMARK    6  A    between atoms: C5_6  and  N2_7 
REMARK    7  A    between atoms: C7_11  and  N4_12 
REMARK    8  A    between atoms: C8_17  and  N6_18 
REMARK    9  A    between atoms: N9_26  and  N10_27 
ROOT
HETATM    1  N2  UNL     1     -38.968 -10.727  14.560  1.00  0.00    -0.232 N 
HETATM    2  N3  UNL     1     -38.298 -11.768  14.092  1.00  0.00    -0.277 N 
ATOM      3  H3  UNL     1     -37.280 -11.834  14.072  1.00  0.00     0.189 HD
HETATM    4  C6  UNL     1     -39.127 -12.722  13.649  1.00  0.00     0.140 A 
HETATM    5  C7  UNL     1     -38.954 -13.970  13.084  1.00  0.00     0.147 A 
HETATM    6  N5  UNL     1     -40.069 -14.656  12.762  1.00  0.00    -0.175 N 
ATOM      7  H5  UNL     1     -39.981 -15.582  12.343  1.00  0.00     0.186 HD
HETATM    8  C8  UNL     1     -41.297 -14.149  12.981  1.00  0.00     0.679 A 
HETATM    9  N7  UNL     1     -41.511 -12.933  13.532  1.00  0.00    -0.173 N 
ATOM     10  H7  UNL     1     -42.463 -12.598  13.677  1.00  0.00     0.186 HD
HETATM   11  C9  UNL     1     -40.476 -12.170  13.888  1.00  0.00     0.169 A 
HETATM   12  N8  UNL     1     -40.283 -10.964  14.440  1.00  0.00    -0.266 N 
ATOM     13  H8  UNL     1     -41.023 -10.324  14.726  1.00  0.00     0.190 HD
ENDROOT
BRANCH   1  14
HETATM   14  C5  UNL     1     -38.355  -9.539  15.116  1.00  0.00     0.171 C 
BRANCH  14  15
HETATM   15  C4  UNL     1     -37.825  -8.597  14.050  1.00  0.00     0.039 C 
BRANCH  15  16
HETATM   16  C3  UNL     1     -36.464  -9.110  13.603  1.00  0.00     0.113 C 
BRANCH  16  17
HETATM   17  N1  UNL     1     -36.177  -8.499  12.325  1.00  0.00    -0.215 NA
BRANCH  17  18
HETATM   18  C2  UNL     1     -35.898  -9.584  11.366  1.00  0.00     0.107 C 
HETATM   19  C1  UNL     1     -35.372  -9.053  10.069  1.00  0.00     0.022 C 
ENDBRANCH  17  18
BRANCH  17  20
HETATM   20  N9  UNL     1     -34.995  -7.745  12.361  1.00  0.00    -0.056 NA
BRANCH  20  21
HETATM   21  N10 UNL     1     -35.172  -6.423  12.709  1.00  0.00    -0.333 N 
ATOM     22 2H10 UNL     1     -36.099  -6.002  12.770  1.00  0.00     0.173 HD
ATOM     23 1H10 UNL     1     -34.307  -5.916  12.895  1.00  0.00     0.173 HD
ENDBRANCH  20  21
ENDBRANCH  17  20
ENDBRANCH  16  17
ENDBRANCH  15  16
ENDBRANCH  14  15
ENDBRANCH   1  14
BRANCH   5  24
HETATM   24  N4  UNL     1     -37.785 -14.469  12.868  1.00  0.00    -0.383 N 
ATOM     25  H42 UNL     1     -36.950 -13.886  12.920  1.00  0.00     0.157 HD
ATOM     26  H41 UNL     1     -37.649 -15.454  12.638  1.00  0.00     0.157 HD
ENDBRANCH   5  24
BRANCH   8  27
HETATM   27  N6  UNL     1     -42.328 -14.844  12.657  1.00  0.00    -0.234 N 
ATOM     28  H62 UNL     1     -43.184 -14.339  12.430  1.00  0.00     0.174 HD
ATOM     29  H61 UNL     1     -42.255 -15.861  12.640  1.00  0.00     0.174 HD
ENDBRANCH   8  27
TORSDOF 9
ENDMDL
