MODEL 1
REMARK VINA RESULT: -7.444940676      0.000      0.000
REMARK  4 active torsions:
REMARK  status: ('A' for Active; 'I' for Inactive)
REMARK    1  A    between atoms: C2_7  and  N3_8 
REMARK    2  A    between atoms: N3_8  and  C3_10 
REMARK    3  A    between atoms: C3_10  and  O1_11 
REMARK    4  A    between atoms: C3_10  and  C4_13 
ROOT
HETATM    1  N1  UNL     1     -37.153 -24.337  -4.920  1.00  0.00    -0.233 N 
ATOM      2  H11 UNL     1     -37.805 -25.113  -4.800  1.00  0.00     0.174 HD
ATOM      3  H12 UNL     1     -36.229 -24.509  -5.316  1.00  0.00     0.174 HD
HETATM    4  C1  UNL     1     -37.444 -23.124  -4.590  1.00  0.00     0.692 A 
HETATM    5  N2  UNL     1     -36.533 -22.040  -4.758  1.00  0.00    -0.172 N 
ATOM      6  H2  UNL     1     -35.610 -22.219  -5.154  1.00  0.00     0.186 HD
HETATM    7  C2  UNL     1     -36.879 -20.732  -4.389  1.00  0.00     0.165 A 
HETATM    8  C5  UNL     1     -38.076 -20.523  -3.879  1.00  0.00     0.174 A 
HETATM    9  N5  UNL     1     -38.468 -19.194  -3.489  1.00  0.00    -0.334 N 
ATOM     10  H5  UNL     1     -37.813 -18.422  -3.611  1.00  0.00     0.168 HD
HETATM   11  C6  UNL     1     -39.633 -18.963  -2.988  1.00  0.00     0.183 A 
HETATM   12  N6  UNL     1     -40.555 -20.023  -2.811  1.00  0.00    -0.347 N 
ATOM     13  H6  UNL     1     -41.467 -19.806  -2.411  1.00  0.00     0.167 HD
HETATM   14  C7  UNL     1     -40.304 -21.241  -3.127  1.00  0.00     0.210 A 
HETATM   15  N7  UNL     1     -39.043 -21.571  -3.683  1.00  0.00    -0.217 N 
HETATM   16  N8  UNL     1     -38.736 -22.884  -4.038  1.00  0.00    -0.123 N 
ATOM     17  H8  UNL     1     -39.407 -23.641  -3.907  1.00  0.00     0.206 HD
ENDROOT
BRANCH   7  18
HETATM   18  N3  UNL     1     -35.959 -19.637  -4.557  1.00  0.00    -0.339 N 
ATOM     19  H3  UNL     1     -36.098 -18.767  -4.043  1.00  0.00     0.164 HD
BRANCH  18  20
HETATM   20  C3  UNL     1     -34.836 -19.775  -5.459  1.00  0.00     0.310 C 
BRANCH  20  21
HETATM   21  O1  UNL     1     -34.686 -18.649  -6.218  1.00  0.00    -0.368 OA
ATOM     22  H1  UNL     1     -34.900 -18.826  -7.126  1.00  0.00     0.212 HD
ENDBRANCH  20  21
BRANCH  20  23
HETATM   23  C4  UNL     1     -33.596 -20.045  -4.704  1.00  0.00     0.279 C 
HETATM   24  N4  UNL     1     -33.157 -21.383  -4.556  1.00  0.00    -0.058 NA
HETATM   25  O2  UNL     1     -32.921 -19.119  -4.192  1.00  0.00    -0.272 OA
ENDBRANCH  20  23
ENDBRANCH  18  20
ENDBRANCH   7  18
TORSDOF 4
ENDMDL
MODEL 2
REMARK VINA RESULT: -7.315938143      2.714      4.577
REMARK  4 active torsions:
REMARK  status: ('A' for Active; 'I' for Inactive)
REMARK    1  A    between atoms: C2_7  and  N3_8 
REMARK    2  A    between atoms: N3_8  and  C3_10 
REMARK    3  A    between atoms: C3_10  and  O1_11 
REMARK    4  A    between atoms: C3_10  and  C4_13 
ROOT
HETATM    1  N1  UNL     1     -33.458 -21.698  -4.677  1.00  0.00    -0.233 N 
ATOM      2  H11 UNL     1     -32.577 -21.311  -4.338  1.00  0.00     0.174 HD
ATOM      3  H12 UNL     1     -33.461 -22.589  -5.175  1.00  0.00     0.174 HD
HETATM    4  C1  UNL     1     -34.592 -21.106  -4.506  1.00  0.00     0.692 A 
HETATM    5  N2  UNL     1     -35.823 -21.647  -4.981  1.00  0.00    -0.172 N 
ATOM      6  H2  UNL     1     -35.819 -22.538  -5.477  1.00  0.00     0.186 HD
HETATM    7  C2  UNL     1     -37.039 -20.979  -4.779  1.00  0.00     0.165 A 
HETATM    8  C5  UNL     1     -37.021 -19.829  -4.134  1.00  0.00     0.174 A 
HETATM    9  N5  UNL     1     -38.250 -19.115  -3.907  1.00  0.00    -0.334 N 
ATOM     10  H5  UNL     1     -39.128 -19.506  -4.249  1.00  0.00     0.168 HD
HETATM   11  C6  UNL     1     -38.259 -17.989  -3.280  1.00  0.00     0.183 A 
HETATM   12  N6  UNL     1     -37.050 -17.431  -2.801  1.00  0.00    -0.347 N 
ATOM     13  H6  UNL     1     -37.091 -16.538  -2.310  1.00  0.00     0.167 HD
HETATM   14  C7  UNL     1     -35.903 -17.988  -2.950  1.00  0.00     0.210 A 
HETATM   15  N7  UNL     1     -35.815 -19.228  -3.630  1.00  0.00    -0.217 N 
HETATM   16  N8  UNL     1     -34.586 -19.862  -3.811  1.00  0.00    -0.123 N 
ATOM     17  H8  UNL     1     -33.720 -19.453  -3.461  1.00  0.00     0.206 HD
ENDROOT
BRANCH   7  18
HETATM   18  N3  UNL     1     -38.283 -21.525  -5.258  1.00  0.00    -0.339 N 
ATOM     19  H3  UNL     1     -38.712 -21.155  -6.107  1.00  0.00     0.164 HD
BRANCH  18  20
HETATM   20  C3  UNL     1     -38.922 -22.599  -4.531  1.00  0.00     0.310 C 
BRANCH  20  21
HETATM   21  O1  UNL     1     -38.024 -23.590  -4.246  1.00  0.00    -0.368 OA
ATOM     22  H1  UNL     1     -37.770 -24.049  -5.037  1.00  0.00     0.212 HD
ENDBRANCH  20  21
BRANCH  20  23
HETATM   23  C4  UNL     1     -39.526 -22.092  -3.283  1.00  0.00     0.279 C 
HETATM   24  N4  UNL     1     -40.633 -21.211  -3.361  1.00  0.00    -0.058 NA
HETATM   25  O2  UNL     1     -39.086 -22.422  -2.155  1.00  0.00    -0.272 OA
ENDBRANCH  20  23
ENDBRANCH  18  20
ENDBRANCH   7  18
TORSDOF 4
ENDMDL
MODEL 3
REMARK VINA RESULT: -7.194560674      2.931      5.836
REMARK  4 active torsions:
REMARK  status: ('A' for Active; 'I' for Inactive)
REMARK    1  A    between atoms: C2_7  and  N3_8 
REMARK    2  A    between atoms: N3_8  and  C3_10 
REMARK    3  A    between atoms: C3_10  and  O1_11 
REMARK    4  A    between atoms: C3_10  and  C4_13 
ROOT
HETATM    1  N1  UNL     1     -37.150 -16.828  -2.851  1.00  0.00    -0.233 N 
ATOM      2  H11 UNL     1     -36.559 -16.044  -2.571  1.00  0.00     0.174 HD
ATOM      3  H12 UNL     1     -38.162 -16.765  -2.738  1.00  0.00     0.174 HD
HETATM    4  C1  UNL     1     -36.672 -17.917  -3.352  1.00  0.00     0.692 A 
HETATM    5  N2  UNL     1     -37.497 -19.012  -3.744  1.00  0.00    -0.172 N 
ATOM      6  H2  UNL     1     -38.508 -18.942  -3.629  1.00  0.00     0.186 HD
HETATM    7  C2  UNL     1     -36.947 -20.182  -4.286  1.00  0.00     0.165 A 
HETATM    8  C5  UNL     1     -35.638 -20.250  -4.427  1.00  0.00     0.174 A 
HETATM    9  N5  UNL     1     -35.037 -21.435  -4.980  1.00  0.00    -0.334 N 
ATOM     10  H5  UNL     1     -35.632 -22.216  -5.259  1.00  0.00     0.168 HD
HETATM   11  C6  UNL     1     -33.760 -21.527  -5.129  1.00  0.00     0.183 A 
HETATM   12  N6  UNL     1     -32.920 -20.454  -4.747  1.00  0.00    -0.347 N 
ATOM     13  H6  UNL     1     -31.914 -20.559  -4.876  1.00  0.00     0.167 HD
HETATM   14  C7  UNL     1     -33.356 -19.356  -4.246  1.00  0.00     0.210 A 
HETATM   15  N7  UNL     1     -34.749 -19.183  -4.053  1.00  0.00    -0.217 N 
HETATM   16  N8  UNL     1     -35.258 -18.004  -3.511  1.00  0.00    -0.123 N 
ATOM     17  H8  UNL     1     -34.645 -17.235  -3.239  1.00  0.00     0.206 HD
ENDROOT
BRANCH   7  18
HETATM   18  N3  UNL     1     -37.780 -21.289  -4.682  1.00  0.00    -0.339 N 
ATOM     19  H3  UNL     1     -37.786 -21.604  -5.652  1.00  0.00     0.164 HD
BRANCH  18  20
HETATM   20  C3  UNL     1     -38.608 -21.951  -3.698  1.00  0.00     0.310 C 
BRANCH  20  21
HETATM   21  O1  UNL     1     -39.254 -21.035  -2.916  1.00  0.00    -0.368 OA
ATOM     22  H1  UNL     1     -40.139 -21.323  -2.725  1.00  0.00     0.212 HD
ENDBRANCH  20  21
BRANCH  20  23
HETATM   23  C4  UNL     1     -39.591 -22.833  -4.358  1.00  0.00     0.279 C 
HETATM   24  N4  UNL     1     -39.665 -22.844  -5.773  1.00  0.00    -0.058 NA
HETATM   25  O2  UNL     1     -40.361 -23.573  -3.700  1.00  0.00    -0.272 OA
ENDBRANCH  20  23
ENDBRANCH  18  20
ENDBRANCH   7  18
TORSDOF 4
ENDMDL
MODEL 4
REMARK VINA RESULT: -7.069446289      1.397      1.834
REMARK  4 active torsions:
REMARK  status: ('A' for Active; 'I' for Inactive)
REMARK    1  A    between atoms: C2_7  and  N3_8 
REMARK    2  A    between atoms: N3_8  and  C3_10 
REMARK    3  A    between atoms: C3_10  and  O1_11 
REMARK    4  A    between atoms: C3_10  and  C4_13 
ROOT
HETATM    1  N1  UNL     1     -37.239 -24.374  -4.970  1.00  0.00    -0.233 N 
ATOM      2  H11 UNL     1     -37.744 -25.243  -4.795  1.00  0.00     0.174 HD
ATOM      3  H12 UNL     1     -36.344 -24.399  -5.459  1.00  0.00     0.174 HD
HETATM    4  C1  UNL     1     -37.684 -23.221  -4.598  1.00  0.00     0.692 A 
HETATM    5  N2  UNL     1     -36.978 -22.007  -4.843  1.00  0.00    -0.172 N 
ATOM      6  H2  UNL     1     -36.084 -22.039  -5.332  1.00  0.00     0.186 HD
HETATM    7  C2  UNL     1     -37.488 -20.769  -4.425  1.00  0.00     0.165 A 
HETATM    8  C5  UNL     1     -38.646 -20.752  -3.795  1.00  0.00     0.174 A 
HETATM    9  N5  UNL     1     -39.202 -19.501  -3.351  1.00  0.00    -0.334 N 
ATOM     10  H5  UNL     1     -38.694 -18.635  -3.529  1.00  0.00     0.168 HD
HETATM   11  C6  UNL     1     -40.332 -19.457  -2.733  1.00  0.00     0.183 A 
HETATM   12  N6  UNL     1     -41.051 -20.649  -2.477  1.00  0.00    -0.347 N 
ATOM     13  H6  UNL     1     -41.941 -20.579  -1.984  1.00  0.00     0.167 HD
HETATM   14  C7  UNL     1     -40.643 -21.813  -2.831  1.00  0.00     0.210 A 
HETATM   15  N7  UNL     1     -39.410 -21.939  -3.515  1.00  0.00    -0.217 N 
HETATM   16  N8  UNL     1     -38.935 -23.188  -3.915  1.00  0.00    -0.123 N 
ATOM     17  H8  UNL     1     -39.460 -24.042  -3.728  1.00  0.00     0.206 HD
ENDROOT
BRANCH   7  18
HETATM   18  N3  UNL     1     -36.776 -19.543  -4.672  1.00  0.00    -0.339 N 
ATOM     19  H3  UNL     1     -37.191 -18.819  -5.260  1.00  0.00     0.164 HD
BRANCH  18  20
HETATM   20  C3  UNL     1     -35.470 -19.340  -4.083  1.00  0.00     0.310 C 
BRANCH  20  21
HETATM   21  O1  UNL     1     -34.684 -18.581  -4.903  1.00  0.00    -0.368 OA
ATOM     22  H1  UNL     1     -35.219 -18.040  -5.473  1.00  0.00     0.212 HD
ENDBRANCH  20  21
BRANCH  20  23
HETATM   23  C4  UNL     1     -35.593 -18.693  -2.762  1.00  0.00     0.279 C 
HETATM   24  N4  UNL     1     -36.627 -17.747  -2.551  1.00  0.00    -0.058 NA
HETATM   25  O2  UNL     1     -34.807 -18.959  -1.821  1.00  0.00    -0.272 OA
ENDBRANCH  20  23
ENDBRANCH  18  20
ENDBRANCH   7  18
TORSDOF 4
ENDMDL
MODEL 5
REMARK VINA RESULT: -7.065604896      1.656      2.258
REMARK  4 active torsions:
REMARK  status: ('A' for Active; 'I' for Inactive)
REMARK    1  A    between atoms: C2_7  and  N3_8 
REMARK    2  A    between atoms: N3_8  and  C3_10 
REMARK    3  A    between atoms: C3_10  and  O1_11 
REMARK    4  A    between atoms: C3_10  and  C4_13 
ROOT
HETATM    1  N1  UNL     1     -38.726 -23.292  -5.044  1.00  0.00    -0.233 N 
ATOM      2  H11 UNL     1     -39.731 -23.248  -5.213  1.00  0.00     0.174 HD
ATOM      3  H12 UNL     1     -38.216 -24.153  -5.243  1.00  0.00     0.174 HD
HETATM    4  C1  UNL     1     -38.052 -22.293  -4.581  1.00  0.00     0.692 A 
HETATM    5  N2  UNL     1     -36.647 -22.354  -4.345  1.00  0.00    -0.172 N 
ATOM      6  H2  UNL     1     -36.144 -23.218  -4.546  1.00  0.00     0.186 HD
HETATM    7  C2  UNL     1     -35.943 -21.251  -3.841  1.00  0.00     0.165 A 
HETATM    8  C5  UNL     1     -36.614 -20.145  -3.589  1.00  0.00     0.174 A 
HETATM    9  N5  UNL     1     -35.925 -18.991  -3.072  1.00  0.00    -0.334 N 
ATOM     10  H5  UNL     1     -34.920 -19.040  -2.904  1.00  0.00     0.168 HD
HETATM   11  C6  UNL     1     -36.557 -17.898  -2.817  1.00  0.00     0.183 A 
HETATM   12  N6  UNL     1     -37.952 -17.812  -3.043  1.00  0.00    -0.347 N 
ATOM     13  H6  UNL     1     -38.423 -16.932  -2.829  1.00  0.00     0.167 HD
HETATM   14  C7  UNL     1     -38.657 -18.781  -3.502  1.00  0.00     0.210 A 
HETATM   15  N7  UNL     1     -38.030 -20.015  -3.805  1.00  0.00    -0.217 N 
HETATM   16  N8  UNL     1     -38.765 -21.090  -4.305  1.00  0.00    -0.123 N 
ATOM     17  H8  UNL     1     -39.769 -21.019  -4.465  1.00  0.00     0.206 HD
ENDROOT
BRANCH   7  18
HETATM   18  N3  UNL     1     -34.525 -21.313  -3.602  1.00  0.00    -0.339 N 
ATOM     19  H3  UNL     1     -34.170 -21.458  -2.656  1.00  0.00     0.164 HD
BRANCH  18  20
HETATM   20  C3  UNL     1     -33.603 -21.167  -4.707  1.00  0.00     0.310 C 
BRANCH  20  21
HETATM   21  O1  UNL     1     -34.005 -21.924  -5.773  1.00  0.00    -0.368 OA
ATOM     22  H1  UNL     1     -33.389 -21.845  -6.491  1.00  0.00     0.212 HD
ENDBRANCH  20  21
BRANCH  20  23
HETATM   23  C4  UNL     1     -33.495 -19.750  -5.107  1.00  0.00     0.279 C 
HETATM   24  N4  UNL     1     -32.851 -18.836  -4.238  1.00  0.00    -0.058 NA
HETATM   25  O2  UNL     1     -33.957 -19.335  -6.198  1.00  0.00    -0.272 OA
ENDBRANCH  20  23
ENDBRANCH  18  20
ENDBRANCH   7  18
TORSDOF 4
ENDMDL
