MODEL 1
REMARK VINA RESULT: -6.951046223      0.000      0.000
REMARK  1 active torsions:
REMARK  status: ('A' for Active; 'I' for Inactive)
REMARK       I    between atoms: N1_5  and  C5_6 
REMARK    1  A    between atoms: C5_6  and  C6_8 
ROOT
HETATM    1  C1  UNL     1      -3.689  -0.965  16.066  1.00  0.00     0.012 C 
HETATM    2  C2  UNL     1      -3.604  -2.128  15.757  1.00  0.00    -0.109 C 
HETATM    3  C3  UNL     1      -3.494  -3.514  15.369  1.00  0.00     0.100 C 
HETATM    4  C4  UNL     1      -4.612  -4.422  15.841  1.00  0.00     0.145 C 
HETATM    5  N1  UNL     1      -3.764  -5.040  16.826  1.00  0.00    -0.346 N 
HETATM    6  C5  UNL     1      -3.993  -5.958  17.868  1.00  0.00     0.242 C 
HETATM    7  O1  UNL     1      -3.041  -6.332  18.588  1.00  0.00    -0.268 OA
HETATM    8  C8  UNL     1      -2.628  -4.344  16.311  1.00  0.00     0.145 C 
ENDROOT
BRANCH   6   9
HETATM    9  C6  UNL     1      -5.319  -6.499  18.142  1.00  0.00     0.064 C 
HETATM   10  C7  UNL     1      -5.854  -7.468  17.428  1.00  0.00     0.017 C 
ENDBRANCH   6   9
TORSDOF 1
ENDMDL
MODEL 2
REMARK VINA RESULT: -6.806198313      1.439      4.639
REMARK  1 active torsions:
REMARK  status: ('A' for Active; 'I' for Inactive)
REMARK       I    between atoms: N1_5  and  C5_6 
REMARK    1  A    between atoms: C5_6  and  C6_8 
ROOT
HETATM    1  C1  UNL     1      -7.638  -8.429  16.555  1.00  0.00     0.012 C 
HETATM    2  C2  UNL     1      -7.006  -7.629  17.201  1.00  0.00    -0.109 C 
HETATM    3  C3  UNL     1      -6.259  -6.681  17.991  1.00  0.00     0.100 C 
HETATM    4  C4  UNL     1      -6.096  -5.300  17.386  1.00  0.00     0.145 C 
HETATM    5  N1  UNL     1      -4.709  -5.542  17.082  1.00  0.00    -0.346 N 
HETATM    6  C5  UNL     1      -3.732  -4.826  16.365  1.00  0.00     0.242 C 
HETATM    7  O1  UNL     1      -2.575  -5.289  16.259  1.00  0.00    -0.268 OA
HETATM    8  C8  UNL     1      -4.749  -6.779  17.794  1.00  0.00     0.145 C 
ENDROOT
BRANCH   6   9
HETATM    9  C6  UNL     1      -4.023  -3.544  15.732  1.00  0.00     0.064 C 
HETATM   10  C7  UNL     1      -4.124  -2.422  16.413  1.00  0.00     0.017 C 
ENDBRANCH   6   9
TORSDOF 1
ENDMDL
MODEL 3
REMARK VINA RESULT: -6.628431916      1.664      4.635
REMARK  1 active torsions:
REMARK  status: ('A' for Active; 'I' for Inactive)
REMARK       I    between atoms: N1_5  and  C5_6 
REMARK    1  A    between atoms: C5_6  and  C6_8 
ROOT
HETATM    1  C1  UNL     1      -6.500  -7.795  17.337  1.00  0.00     0.012 C 
HETATM    2  C2  UNL     1      -5.503  -7.152  17.561  1.00  0.00    -0.109 C 
HETATM    3  C3  UNL     1      -4.306  -6.398  17.841  1.00  0.00     0.100 C 
HETATM    4  C4  UNL     1      -4.480  -4.896  17.950  1.00  0.00     0.145 C 
HETATM    5  N1  UNL     1      -3.845  -4.680  16.676  1.00  0.00    -0.346 N 
HETATM    6  C5  UNL     1      -3.663  -3.546  15.861  1.00  0.00     0.242 C 
HETATM    7  O1  UNL     1      -3.055  -3.654  14.774  1.00  0.00    -0.268 OA
HETATM    8  C8  UNL     1      -3.492  -6.061  16.596  1.00  0.00     0.145 C 
ENDROOT
BRANCH   6   9
HETATM    9  C6  UNL     1      -4.165  -2.231  16.244  1.00  0.00     0.064 C 
HETATM   10  C7  UNL     1      -3.579  -1.111  15.875  1.00  0.00     0.017 C 
ENDBRANCH   6   9
TORSDOF 1
ENDMDL
MODEL 4
REMARK VINA RESULT: -6.518475643      1.704      4.407
REMARK  1 active torsions:
REMARK  status: ('A' for Active; 'I' for Inactive)
REMARK       I    between atoms: N1_5  and  C5_6 
REMARK    1  A    between atoms: C5_6  and  C6_8 
ROOT
HETATM    1  C1  UNL     1      -7.036  -8.009  17.081  1.00  0.00     0.012 C 
HETATM    2  C2  UNL     1      -6.516  -6.977  17.430  1.00  0.00    -0.109 C 
HETATM    3  C3  UNL     1      -5.911  -5.740  17.861  1.00  0.00     0.100 C 
HETATM    4  C4  UNL     1      -5.292  -4.892  16.769  1.00  0.00     0.145 C 
HETATM    5  N1  UNL     1      -3.959  -5.233  17.190  1.00  0.00    -0.346 N 
HETATM    6  C5  UNL     1      -2.678  -4.991  16.655  1.00  0.00     0.242 C 
HETATM    7  O1  UNL     1      -1.665  -5.418  17.251  1.00  0.00    -0.268 OA
HETATM    8  C8  UNL     1      -4.473  -5.901  18.342  1.00  0.00     0.145 C 
ENDROOT
BRANCH   6   9
HETATM    9  C6  UNL     1      -2.487  -4.249  15.414  1.00  0.00     0.064 C 
HETATM   10  C7  UNL     1      -1.302  -3.860  14.993  1.00  0.00     0.017 C 
ENDBRANCH   6   9
TORSDOF 1
ENDMDL
MODEL 5
REMARK VINA RESULT: -5.757563936      2.007      4.691
REMARK  1 active torsions:
REMARK  status: ('A' for Active; 'I' for Inactive)
REMARK       I    between atoms: N1_5  and  C5_6 
REMARK    1  A    between atoms: C5_6  and  C6_8 
ROOT
HETATM    1  C1  UNL     1      -8.996  -7.192  15.282  1.00  0.00     0.012 C 
HETATM    2  C2  UNL     1      -8.395  -7.048  16.319  1.00  0.00    -0.109 C 
HETATM    3  C3  UNL     1      -7.695  -6.884  17.569  1.00  0.00     0.100 C 
HETATM    4  C4  UNL     1      -6.852  -5.630  17.693  1.00  0.00     0.145 C 
HETATM    5  N1  UNL     1      -5.629  -6.378  17.559  1.00  0.00    -0.346 N 
HETATM    6  C5  UNL     1      -4.276  -6.013  17.427  1.00  0.00     0.242 C 
HETATM    7  O1  UNL     1      -3.400  -6.900  17.326  1.00  0.00    -0.268 OA
HETATM    8  C8  UNL     1      -6.353  -7.608  17.615  1.00  0.00     0.145 C 
ENDROOT
BRANCH   6   9
HETATM    9  C6  UNL     1      -3.851  -4.618  17.403  1.00  0.00     0.064 C 
HETATM   10  C7  UNL     1      -2.704  -4.232  16.885  1.00  0.00     0.017 C 
ENDBRANCH   6   9
TORSDOF 1
ENDMDL
