MODEL 1
REMARK VINA RESULT: -6.782058800      0.000      0.000
REMARK  9 active torsions:
REMARK  status: ('A' for Active; 'I' for Inactive)
REMARK    1  A    between atoms: C2_2  and  C3_3 
REMARK    2  A    between atoms: C3_3  and  N1_4 
REMARK    3  A    between atoms: N1_4  and  C4_7 
REMARK    4  A    between atoms: C7_10  and  O1_12 
REMARK    5  A    between atoms: C12_17  and  O2_18 
REMARK    6  A    between atoms: C23_30  and  O3_31 
REMARK    7  A    between atoms: C25_34  and  O4_35 
REMARK    8  A    between atoms: C26_37  and  C27_38 
REMARK    9  A    between atoms: C27_38  and  O5_39 
ROOT
HETATM    1  C4  UNL     1      27.161 -11.227  -9.275  1.00  0.00     0.222 C 
HETATM    2  C5  UNL     1      27.913 -12.511  -9.314  1.00  0.00     0.051 C 
HETATM    3  C6  UNL     1      27.497 -13.553  -8.305  1.00  0.00     0.015 C 
HETATM    4  C7  UNL     1      28.295 -13.065 -10.697  1.00  0.00     0.065 C 
HETATM    5  C8  UNL     1      29.266 -14.124 -10.397  1.00  0.00     0.047 C 
HETATM    6  C9  UNL     1      28.168 -12.172 -11.836  1.00  0.00     0.049 C 
HETATM    7  C10 UNL     1      26.778 -11.630 -11.624  1.00  0.00     0.015 C 
HETATM    8  C11 UNL     1      25.650 -12.413 -11.189  1.00  0.00     0.023 C 
HETATM    9  C12 UNL     1      26.086 -10.997 -12.798  1.00  0.00     0.131 C 
HETATM   10  C13 UNL     1      26.176 -11.691 -14.066  1.00  0.00     0.034 C 
HETATM   11  C14 UNL     1      26.986 -10.770 -14.842  1.00  0.00     0.012 C 
HETATM   12  C15 UNL     1      27.923  -9.787 -14.290  1.00  0.00    -0.035 C 
HETATM   13  C16 UNL     1      27.372  -8.337 -14.285  1.00  0.00     0.016 C 
HETATM   14  C17 UNL     1      28.558  -9.502 -15.716  1.00  0.00     0.016 C 
HETATM   15  C18 UNL     1      28.877 -10.014 -13.169  1.00  0.00     0.002 C 
HETATM   16  C19 UNL     1      28.596  -9.006 -12.015  1.00  0.00     0.042 C 
HETATM   17  C20 UNL     1      27.710  -9.332 -10.912  1.00  0.00    -0.020 C 
HETATM   18  C21 UNL     1      26.960 -10.516 -10.596  1.00  0.00    -0.042 C 
HETATM   19  C22 UNL     1      30.173  -9.531 -13.800  1.00  0.00     0.017 C 
HETATM   20  C23 UNL     1      31.538  -9.899 -13.694  1.00  0.00     0.043 C 
HETATM   21  C24 UNL     1      31.545 -11.365 -13.436  1.00  0.00     0.096 C 
HETATM   22  C25 UNL     1      30.195 -11.999 -13.310  1.00  0.00     0.136 C 
HETATM   23  C26 UNL     1      29.169 -11.227 -12.396  1.00  0.00     0.027 C 
ENDROOT
BRANCH   1  24
HETATM   24  N1  UNL     1      25.942 -11.283  -8.451  1.00  0.00    -0.064 N 
ATOM     25  H12 UNL     1      25.767 -12.218  -8.082  1.00  0.00     0.278 HD
ATOM     26  H11 UNL     1      25.094 -11.186  -9.008  1.00  0.00     0.278 HD
BRANCH  24  27
HETATM   27  C3  UNL     1      26.029 -10.275  -7.391  1.00  0.00     0.259 C 
BRANCH  27  28
HETATM   28  C2  UNL     1      26.212 -10.944  -6.088  1.00  0.00    -0.010 C 
HETATM   29  C1  UNL     1      27.364 -11.060  -5.490  1.00  0.00     0.008 C 
ENDBRANCH  27  28
ENDBRANCH  24  27
ENDBRANCH   1  24
BRANCH   4  30
HETATM   30  O1  UNL     1      27.246 -14.048 -10.964  1.00  0.00    -0.389 OA
ATOM     31  H1  UNL     1      27.397 -14.285 -11.872  1.00  0.00     0.210 HD
ENDBRANCH   4  30
BRANCH   9  32
HETATM   32  O2  UNL     1      24.663 -10.861 -12.639  1.00  0.00    -0.394 OA
ATOM     33  H2  UNL     1      24.169 -10.972 -13.443  1.00  0.00     0.210 HD
ENDBRANCH   9  32
BRANCH  23  34
HETATM   34  C27 UNL     1      30.185 -10.914 -11.341  1.00  0.00     0.177 C 
BRANCH  34  35
HETATM   35  O5  UNL     1      31.070 -11.913 -10.937  1.00  0.00    -0.400 OA
ATOM     36  H5  UNL     1      31.551 -11.802 -10.126  1.00  0.00     0.209 HD
ENDBRANCH  34  35
ENDBRANCH  23  34
BRANCH  22  37
HETATM   37  O4  UNL     1      29.646 -12.550 -14.414  1.00  0.00    -0.394 OA
ATOM     38  H4  UNL     1      29.125 -11.993 -14.979  1.00  0.00     0.210 HD
ENDBRANCH  22  37
BRANCH  20  39
HETATM   39  O3  UNL     1      32.516  -9.085 -13.172  1.00  0.00    -0.365 OA
ATOM     40  H3  UNL     1      33.360  -9.396 -12.866  1.00  0.00     0.217 HD
ENDBRANCH  20  39
TORSDOF 9
ENDMDL
MODEL 2
REMARK VINA RESULT: -6.473799958      2.714      5.344
REMARK  9 active torsions:
REMARK  status: ('A' for Active; 'I' for Inactive)
REMARK    1  A    between atoms: C2_2  and  C3_3 
REMARK    2  A    between atoms: C3_3  and  N1_4 
REMARK    3  A    between atoms: N1_4  and  C4_7 
REMARK    4  A    between atoms: C7_10  and  O1_12 
REMARK    5  A    between atoms: C12_17  and  O2_18 
REMARK    6  A    between atoms: C23_30  and  O3_31 
REMARK    7  A    between atoms: C25_34  and  O4_35 
REMARK    8  A    between atoms: C26_37  and  C27_38 
REMARK    9  A    between atoms: C27_38  and  O5_39 
ROOT
HETATM    1  C4  UNL     1      27.090  -8.970 -12.188  1.00  0.00     0.222 C 
HETATM    2  C5  UNL     1      27.347  -7.587 -12.672  1.00  0.00     0.051 C 
HETATM    3  C6  UNL     1      27.073  -6.479 -11.684  1.00  0.00     0.015 C 
HETATM    4  C7  UNL     1      28.579  -7.367 -13.566  1.00  0.00     0.065 C 
HETATM    5  C8  UNL     1      28.381  -6.022 -14.116  1.00  0.00     0.047 C 
HETATM    6  C9  UNL     1      29.225  -8.546 -14.117  1.00  0.00     0.049 C 
HETATM    7  C10 UNL     1      29.359  -9.405 -12.886  1.00  0.00     0.015 C 
HETATM    8  C11 UNL     1      29.732  -8.917 -11.583  1.00  0.00     0.023 C 
HETATM    9  C12 UNL     1      30.352 -10.532 -12.922  1.00  0.00     0.131 C 
HETATM   10  C13 UNL     1      31.654 -10.243 -13.488  1.00  0.00     0.034 C 
HETATM   11  C14 UNL     1      31.631 -11.053 -14.692  1.00  0.00     0.012 C 
HETATM   12  C15 UNL     1      30.425 -11.494 -15.399  1.00  0.00    -0.035 C 
HETATM   13  C16 UNL     1      30.055 -12.976 -15.131  1.00  0.00     0.016 C 
HETATM   14  C17 UNL     1      31.265 -11.970 -16.659  1.00  0.00     0.016 C 
HETATM   15  C18 UNL     1      29.217 -10.669 -15.677  1.00  0.00     0.002 C 
HETATM   16  C19 UNL     1      27.958 -11.334 -15.045  1.00  0.00     0.042 C 
HETATM   17  C20 UNL     1      27.500 -10.992 -13.710  1.00  0.00    -0.020 C 
HETATM   18  C21 UNL     1      27.988 -10.060 -12.732  1.00  0.00    -0.042 C 
HETATM   19  C22 UNL     1      29.063 -10.889 -17.173  1.00  0.00     0.017 C 
HETATM   20  C23 UNL     1      28.605 -10.103 -18.260  1.00  0.00     0.043 C 
HETATM   21  C24 UNL     1      28.967  -8.699 -17.928  1.00  0.00     0.096 C 
HETATM   22  C25 UNL     1      29.624  -8.504 -16.598  1.00  0.00     0.136 C 
HETATM   23  C26 UNL     1      28.941  -9.256 -15.392  1.00  0.00     0.027 C 
ENDROOT
BRANCH   1  24
HETATM   24  N1  UNL     1      26.883  -9.057 -10.733  1.00  0.00    -0.064 N 
ATOM     25  H12 UNL     1      26.467  -8.208 -10.350  1.00  0.00     0.278 HD
ATOM     26  H11 UNL     1      27.762  -9.033 -10.215  1.00  0.00     0.278 HD
BRANCH  24  27
HETATM   27  C3  UNL     1      26.091 -10.251 -10.427  1.00  0.00     0.259 C 
BRANCH  27  28
HETATM   28  C2  UNL     1      24.795 -10.176 -11.129  1.00  0.00    -0.010 C 
HETATM   29  C1  UNL     1      24.217 -11.199 -11.691  1.00  0.00     0.008 C 
ENDBRANCH  27  28
ENDBRANCH  24  27
ENDBRANCH   1  24
BRANCH   4  30
HETATM   30  O1  UNL     1      29.589  -6.878 -12.628  1.00  0.00    -0.389 OA
ATOM     31  H1  UNL     1      29.188  -7.026 -11.780  1.00  0.00     0.210 HD
ENDBRANCH   4  30
BRANCH   9  32
HETATM   32  O2  UNL     1      30.703 -11.048 -11.627  1.00  0.00    -0.394 OA
ATOM     33  H2  UNL     1      31.306 -11.782 -11.651  1.00  0.00     0.210 HD
ENDBRANCH   9  32
BRANCH  23  34
HETATM   34  C27 UNL     1      27.550  -8.920 -15.834  1.00  0.00     0.177 C 
BRANCH  34  35
HETATM   35  O5  UNL     1      27.253  -7.605 -16.192  1.00  0.00    -0.400 OA
ATOM     36  H5  UNL     1      26.541  -7.442 -16.799  1.00  0.00     0.209 HD
ENDBRANCH  34  35
ENDBRANCH  23  34
BRANCH  22  37
HETATM   37  O4  UNL     1      30.973  -8.495 -16.550  1.00  0.00    -0.394 OA
ATOM     38  H4  UNL     1      31.392  -8.011 -15.849  1.00  0.00     0.210 HD
ENDBRANCH  22  37
BRANCH  20  39
HETATM   39  O3  UNL     1      27.475 -10.388 -18.992  1.00  0.00    -0.365 OA
ATOM     40  H3  UNL     1      27.328 -10.087 -19.881  1.00  0.00     0.217 HD
ENDBRANCH  20  39
TORSDOF 9
ENDMDL
MODEL 3
REMARK VINA RESULT: -6.434809291      2.424      6.260
REMARK  9 active torsions:
REMARK  status: ('A' for Active; 'I' for Inactive)
REMARK    1  A    between atoms: C2_2  and  C3_3 
REMARK    2  A    between atoms: C3_3  and  N1_4 
REMARK    3  A    between atoms: N1_4  and  C4_7 
REMARK    4  A    between atoms: C7_10  and  O1_12 
REMARK    5  A    between atoms: C12_17  and  O2_18 
REMARK    6  A    between atoms: C23_30  and  O3_31 
REMARK    7  A    between atoms: C25_34  and  O4_35 
REMARK    8  A    between atoms: C26_37  and  C27_38 
REMARK    9  A    between atoms: C27_38  and  O5_39 
ROOT
HETATM    1  C4  UNL     1      28.523  -9.984 -16.079  1.00  0.00     0.222 C 
HETATM    2  C5  UNL     1      29.926 -10.189 -15.628  1.00  0.00     0.051 C 
HETATM    3  C6  UNL     1      30.998  -9.619 -16.525  1.00  0.00     0.015 C 
HETATM    4  C7  UNL     1      30.211 -10.068 -14.122  1.00  0.00     0.065 C 
HETATM    5  C8  UNL     1      31.562 -10.619 -13.972  1.00  0.00     0.047 C 
HETATM    6  C9  UNL     1      29.069 -10.063 -13.223  1.00  0.00     0.049 C 
HETATM    7  C10 UNL     1      28.184  -9.039 -13.884  1.00  0.00     0.015 C 
HETATM    8  C11 UNL     1      28.651  -7.807 -14.468  1.00  0.00     0.023 C 
HETATM    9  C12 UNL     1      27.093  -8.418 -13.059  1.00  0.00     0.131 C 
HETATM   10  C13 UNL     1      27.441  -8.002 -11.716  1.00  0.00     0.034 C 
HETATM   11  C14 UNL     1      26.662  -8.930 -10.916  1.00  0.00     0.012 C 
HETATM   12  C15 UNL     1      26.198 -10.250 -11.354  1.00  0.00    -0.035 C 
HETATM   13  C16 UNL     1      24.698 -10.283 -11.745  1.00  0.00     0.016 C 
HETATM   14  C17 UNL     1      25.784 -10.660  -9.877  1.00  0.00     0.016 C 
HETATM   15  C18 UNL     1      26.988 -11.248 -12.126  1.00  0.00     0.002 C 
HETATM   16  C19 UNL     1      26.264 -11.584 -13.463  1.00  0.00     0.042 C 
HETATM   17  C20 UNL     1      26.556 -10.869 -14.693  1.00  0.00    -0.020 C 
HETATM   18  C21 UNL     1      27.479  -9.811 -14.997  1.00  0.00    -0.042 C 
HETATM   19  C22 UNL     1      26.802 -12.485 -11.261  1.00  0.00     0.017 C 
HETATM   20  C23 UNL     1      27.599 -13.611 -10.937  1.00  0.00     0.043 C 
HETATM   21  C24 UNL     1      29.006 -13.128 -10.938  1.00  0.00     0.096 C 
HETATM   22  C25 UNL     1      29.189 -11.690 -11.311  1.00  0.00     0.136 C 
HETATM   23  C26 UNL     1      28.383 -11.215 -12.581  1.00  0.00     0.027 C 
ENDROOT
BRANCH   1  24
HETATM   24  N1  UNL     1      28.391  -9.012 -17.177  1.00  0.00    -0.064 N 
ATOM     25  H12 UNL     1      29.228  -8.440 -17.289  1.00  0.00     0.278 HD
ATOM     26  H11 UNL     1      27.734  -8.265 -16.956  1.00  0.00     0.278 HD
BRANCH  24  27
HETATM   27  C3  UNL     1      28.033  -9.720 -18.409  1.00  0.00     0.259 C 
BRANCH  27  28
HETATM   28  C2  UNL     1      26.750 -10.424 -18.218  1.00  0.00    -0.010 C 
HETATM   29  C1  UNL     1      26.062 -10.948 -19.192  1.00  0.00     0.008 C 
ENDBRANCH  27  28
ENDBRANCH  24  27
ENDBRANCH   1  24
BRANCH   4  30
HETATM   30  O1  UNL     1      30.710  -8.700 -13.985  1.00  0.00    -0.389 OA
ATOM     31  H1  UNL     1      29.915  -8.180 -13.959  1.00  0.00     0.210 HD
ENDBRANCH   4  30
BRANCH   9  32
HETATM   32  O2  UNL     1      26.556  -7.203 -13.611  1.00  0.00    -0.394 OA
ATOM     33  H2  UNL     1      26.810  -6.417 -13.143  1.00  0.00     0.210 HD
ENDBRANCH   9  32
BRANCH  23  34
HETATM   34  C27 UNL     1      28.683 -12.456 -13.364  1.00  0.00     0.177 C 
BRANCH  34  35
HETATM   35  O5  UNL     1      29.931 -13.061 -13.222  1.00  0.00    -0.400 OA
ATOM     36  H5  UNL     1      30.022 -13.798 -12.630  1.00  0.00     0.209 HD
ENDBRANCH  34  35
ENDBRANCH  23  34
BRANCH  22  37
HETATM   37  O4  UNL     1      29.243 -10.777 -10.319  1.00  0.00    -0.394 OA
ATOM     38  H4  UNL     1      30.093 -10.558  -9.958  1.00  0.00     0.210 HD
ENDBRANCH  22  37
BRANCH  20  39
HETATM   39  O3  UNL     1      27.295 -14.902 -11.307  1.00  0.00    -0.365 OA
ATOM     40  H3  UNL     1      27.113 -15.169 -12.200  1.00  0.00     0.217 HD
ENDBRANCH  20  39
TORSDOF 9
ENDMDL
MODEL 4
REMARK VINA RESULT: -6.306614638      3.024      5.326
REMARK  9 active torsions:
REMARK  status: ('A' for Active; 'I' for Inactive)
REMARK    1  A    between atoms: C2_2  and  C3_3 
REMARK    2  A    between atoms: C3_3  and  N1_4 
REMARK    3  A    between atoms: N1_4  and  C4_7 
REMARK    4  A    between atoms: C7_10  and  O1_12 
REMARK    5  A    between atoms: C12_17  and  O2_18 
REMARK    6  A    between atoms: C23_30  and  O3_31 
REMARK    7  A    between atoms: C25_34  and  O4_35 
REMARK    8  A    between atoms: C26_37  and  C27_38 
REMARK    9  A    between atoms: C27_38  and  O5_39 
ROOT
HETATM    1  C4  UNL     1      30.461 -10.511 -11.303  1.00  0.00     0.222 C 
HETATM    2  C5  UNL     1      31.731  -9.813 -10.965  1.00  0.00     0.051 C 
HETATM    3  C6  UNL     1      32.829 -10.678 -10.394  1.00  0.00     0.015 C 
HETATM    4  C7  UNL     1      32.209  -8.708 -11.921  1.00  0.00     0.065 C 
HETATM    5  C8  UNL     1      33.269  -8.026 -11.172  1.00  0.00     0.047 C 
HETATM    6  C9  UNL     1      31.260  -8.218 -12.906  1.00  0.00     0.049 C 
HETATM    7  C10 UNL     1      30.746  -9.513 -13.482  1.00  0.00     0.015 C 
HETATM    8  C11 UNL     1      31.565 -10.662 -13.775  1.00  0.00     0.023 C 
HETATM    9  C12 UNL     1      30.063  -9.463 -14.819  1.00  0.00     0.131 C 
HETATM   10  C13 UNL     1      30.689  -8.659 -15.848  1.00  0.00     0.034 C 
HETATM   11  C14 UNL     1      29.719  -7.591 -16.010  1.00  0.00     0.012 C 
HETATM   12  C15 UNL     1      28.754  -7.156 -14.996  1.00  0.00    -0.035 C 
HETATM   13  C16 UNL     1      27.314  -7.674 -15.246  1.00  0.00     0.016 C 
HETATM   14  C17 UNL     1      28.388  -5.849 -15.819  1.00  0.00     0.016 C 
HETATM   15  C18 UNL     1      29.027  -6.975 -13.543  1.00  0.00     0.002 C 
HETATM   16  C19 UNL     1      28.083  -7.886 -12.704  1.00  0.00     0.042 C 
HETATM   17  C20 UNL     1      28.477  -9.222 -12.291  1.00  0.00    -0.020 C 
HETATM   18  C21 UNL     1      29.685  -9.975 -12.487  1.00  0.00    -0.042 C 
HETATM   19  C22 UNL     1      28.496  -5.565 -13.331  1.00  0.00     0.017 C 
HETATM   20  C23 UNL     1      28.852  -4.475 -12.499  1.00  0.00     0.043 C 
HETATM   21  C24 UNL     1      30.329  -4.555 -12.333  1.00  0.00     0.096 C 
HETATM   22  C25 UNL     1      30.986  -5.722 -13.001  1.00  0.00     0.136 C 
HETATM   23  C26 UNL     1      30.274  -7.112 -12.783  1.00  0.00     0.027 C 
ENDROOT
BRANCH   1  24
HETATM   24  N1  UNL     1      30.574 -11.979 -11.297  1.00  0.00    -0.064 N 
ATOM     25  H12 UNL     1      31.522 -12.293 -11.089  1.00  0.00     0.278 HD
ATOM     26  H11 UNL     1      30.492 -12.377 -12.232  1.00  0.00     0.278 HD
BRANCH  24  27
HETATM   27  C3  UNL     1      29.588 -12.535 -10.367  1.00  0.00     0.259 C 
BRANCH  27  28
HETATM   28  C2  UNL     1      28.726 -13.499 -11.081  1.00  0.00    -0.010 C 
HETATM   29  C1  UNL     1      27.687 -13.153 -11.786  1.00  0.00     0.008 C 
ENDBRANCH  27  28
ENDBRANCH  24  27
ENDBRANCH   1  24
BRANCH   4  30
HETATM   30  O1  UNL     1      33.190  -9.395 -12.761  1.00  0.00    -0.389 OA
ATOM     31  H1  UNL     1      32.709  -9.563 -13.563  1.00  0.00     0.210 HD
ENDBRANCH   4  30
BRANCH   9  32
HETATM   32  O2  UNL     1      29.953 -10.740 -15.472  1.00  0.00    -0.394 OA
ATOM     33  H2  UNL     1      30.440 -10.804 -16.285  1.00  0.00     0.210 HD
ENDBRANCH   9  32
BRANCH  23  34
HETATM   34  C27 UNL     1      30.004  -6.864 -11.331  1.00  0.00     0.177 C 
BRANCH  34  35
HETATM   35  O5  UNL     1      30.998  -6.278 -10.548  1.00  0.00    -0.400 OA
ATOM     36  H5  UNL     1      30.990  -6.422  -9.609  1.00  0.00     0.209 HD
ENDBRANCH  34  35
ENDBRANCH  23  34
BRANCH  22  37
HETATM   37  O4  UNL     1      31.485  -5.547 -14.242  1.00  0.00    -0.394 OA
ATOM     38  H4  UNL     1      32.083  -4.824 -14.386  1.00  0.00     0.210 HD
ENDBRANCH  22  37
BRANCH  20  39
HETATM   39  O3  UNL     1      28.053  -3.982 -11.492  1.00  0.00    -0.365 OA
ATOM     40  H3  UNL     1      28.365  -3.777 -10.619  1.00  0.00     0.217 HD
ENDBRANCH  20  39
TORSDOF 9
ENDMDL
MODEL 5
REMARK VINA RESULT: -6.300867387      2.703      5.568
REMARK  9 active torsions:
REMARK  status: ('A' for Active; 'I' for Inactive)
REMARK    1  A    between atoms: C2_2  and  C3_3 
REMARK    2  A    between atoms: C3_3  and  N1_4 
REMARK    3  A    between atoms: N1_4  and  C4_7 
REMARK    4  A    between atoms: C7_10  and  O1_12 
REMARK    5  A    between atoms: C12_17  and  O2_18 
REMARK    6  A    between atoms: C23_30  and  O3_31 
REMARK    7  A    between atoms: C25_34  and  O4_35 
REMARK    8  A    between atoms: C26_37  and  C27_38 
REMARK    9  A    between atoms: C27_38  and  O5_39 
ROOT
HETATM    1  C4  UNL     1      31.896 -10.266 -11.134  1.00  0.00     0.222 C 
HETATM    2  C5  UNL     1      31.999  -8.947 -11.814  1.00  0.00     0.051 C 
HETATM    3  C6  UNL     1      33.398  -8.444 -12.074  1.00  0.00     0.015 C 
HETATM    4  C7  UNL     1      30.986  -8.646 -12.931  1.00  0.00     0.065 C 
HETATM    5  C8  UNL     1      31.140  -7.206 -13.169  1.00  0.00     0.047 C 
HETATM    6  C9  UNL     1      29.831  -9.520 -13.041  1.00  0.00     0.049 C 
HETATM    7  C10 UNL     1      30.489 -10.875 -12.997  1.00  0.00     0.015 C 
HETATM    8  C11 UNL     1      31.718 -11.211 -13.668  1.00  0.00     0.023 C 
HETATM    9  C12 UNL     1      29.705 -12.052 -13.506  1.00  0.00     0.131 C 
HETATM   10  C13 UNL     1      28.985 -11.873 -14.750  1.00  0.00     0.034 C 
HETATM   11  C14 UNL     1      27.608 -11.944 -14.298  1.00  0.00     0.012 C 
HETATM   12  C15 UNL     1      27.139 -11.646 -12.942  1.00  0.00    -0.035 C 
HETATM   13  C16 UNL     1      26.839 -12.911 -12.097  1.00  0.00     0.016 C 
HETATM   14  C17 UNL     1      25.621 -11.639 -13.403  1.00  0.00     0.016 C 
HETATM   15  C18 UNL     1      27.583 -10.509 -12.089  1.00  0.00     0.002 C 
HETATM   16  C19 UNL     1      28.187 -11.044 -10.757  1.00  0.00     0.042 C 
HETATM   17  C20 UNL     1      29.609 -11.299 -10.610  1.00  0.00    -0.020 C 
HETATM   18  C21 UNL     1      30.716 -11.136 -11.510  1.00  0.00    -0.042 C 
HETATM   19  C22 UNL     1      26.240  -9.912 -11.695  1.00  0.00     0.017 C 
HETATM   20  C23 UNL     1      25.764  -8.604 -11.428  1.00  0.00     0.043 C 
HETATM   21  C24 UNL     1      26.551  -7.698 -12.308  1.00  0.00     0.096 C 
HETATM   22  C25 UNL     1      27.601  -8.365 -13.140  1.00  0.00     0.136 C 
HETATM   23  C26 UNL     1      28.506  -9.405 -12.375  1.00  0.00     0.027 C 
ENDROOT
BRANCH   1  24
HETATM   24  N1  UNL     1      33.170 -11.003 -11.078  1.00  0.00    -0.064 N 
ATOM     25  H12 UNL     1      33.969 -10.412 -11.311  1.00  0.00     0.278 HD
ATOM     26  H11 UNL     1      33.261 -11.675 -11.840  1.00  0.00     0.278 HD
BRANCH  24  27
HETATM   27  C3  UNL     1      33.308 -11.632  -9.763  1.00  0.00     0.259 C 
BRANCH  27  28
HETATM   28  C2  UNL     1      34.693 -12.111  -9.588  1.00  0.00    -0.010 C 
HETATM   29  C1  UNL     1      35.076 -12.870  -8.601  1.00  0.00     0.008 C 
ENDBRANCH  27  28
ENDBRANCH  24  27
ENDBRANCH   1  24
BRANCH   4  30
HETATM   30  O1  UNL     1      31.726  -8.967 -14.150  1.00  0.00    -0.389 OA
ATOM     31  H1  UNL     1      31.407  -8.325 -14.774  1.00  0.00     0.210 HD
ENDBRANCH   4  30
BRANCH   9  32
HETATM   32  O2  UNL     1      30.505 -13.212 -13.795  1.00  0.00    -0.394 OA
ATOM     33  H2  UNL     1      30.069 -13.861 -14.332  1.00  0.00     0.210 HD
ENDBRANCH   9  32
BRANCH  23  34
HETATM   34  C27 UNL     1      28.649  -8.545 -11.158  1.00  0.00     0.177 C 
BRANCH  34  35
HETATM   35  O5  UNL     1      28.888  -7.180 -11.318  1.00  0.00    -0.400 OA
ATOM     36  H5  UNL     1      28.919  -6.818 -12.196  1.00  0.00     0.209 HD
ENDBRANCH  34  35
ENDBRANCH  23  34
BRANCH  22  37
HETATM   37  O4  UNL     1      27.278  -8.734 -14.397  1.00  0.00    -0.394 OA
ATOM     38  H4  UNL     1      27.984  -8.913 -15.006  1.00  0.00     0.210 HD
ENDBRANCH  22  37
BRANCH  20  39
HETATM   39  O3  UNL     1      25.320  -8.183 -10.195  1.00  0.00    -0.365 OA
ATOM     40  H3  UNL     1      24.636  -7.537 -10.069  1.00  0.00     0.217 HD
ENDBRANCH  20  39
TORSDOF 9
ENDMDL
