MODEL 1
REMARK VINA RESULT: -8.635983891      0.000      0.000
REMARK  8 active torsions:
REMARK  status: ('A' for Active; 'I' for Inactive)
REMARK    1  A    between atoms: C2_2  and  O1_3 
REMARK    2  A    between atoms: C2_2  and  C3_5 
REMARK    3  A    between atoms: C4_8  and  C5_9 
REMARK    4  A    between atoms: C6_15  and  N5_16 
REMARK    5  A    between atoms: N5_16  and  N6_18 
REMARK       I    between atoms: N6_18  and  C7_20 
REMARK    6  A    between atoms: C7_20  and  C8_22 
REMARK    7  A    between atoms: C9_25  and  N8_26 
REMARK    8  A    between atoms: C14_39  and  N11_40 
ROOT
HETATM    1  N11 UNL     1      52.009  23.567  49.437  1.00  0.00    -0.280 N 
ATOM      2  H11 UNL     1      52.470  22.706  49.731  1.00  0.00     0.179 HD
HETATM    3  C15 UNL     1      51.582  24.542  50.347  1.00  0.00     0.183 C 
HETATM    4  N12 UNL     1      51.210  25.366  51.084  1.00  0.00    -0.172 NA
ENDROOT
BRANCH   1   5
HETATM    5  C14 UNL     1      51.752  23.870  48.068  1.00  0.00     0.134 A 
HETATM    6  C4  UNL     1      52.500  23.417  46.908  1.00  0.00     0.208 A 
HETATM    7  N1  UNL     1      51.849  23.775  45.678  1.00  0.00    -0.359 N 
HETATM    8  C3  UNL     1      50.789  24.446  45.524  1.00  0.00     0.121 A 
ATOM      9  H1  UNL     1      52.298  23.446  44.822  1.00  0.00     0.162 HD
HETATM   10  N14 UNL     1      50.114  24.885  46.723  1.00  0.00    -0.286 N 
HETATM   11  N13 UNL     1      50.645  24.557  47.923  1.00  0.00    -0.285 N 
ATOM     12  H14 UNL     1      49.254  25.430  46.666  1.00  0.00     0.188 HD
ATOM     13  H13 UNL     1      50.156  24.863  48.764  1.00  0.00     0.188 HD
BRANCH   6  14
HETATM   14  C5  UNL     1      52.956  22.036  46.947  1.00  0.00     0.103 A 
HETATM   15  N2  UNL     1      52.296  21.017  46.300  1.00  0.00    -0.284 N 
HETATM   16  N3  UNL     1      52.893  19.898  46.555  1.00  0.00    -0.232 N 
ATOM     17  H2  UNL     1      51.469  21.127  45.714  1.00  0.00     0.188 HD
HETATM   18  N4  UNL     1      53.920  20.100  47.346  1.00  0.00    -0.204 N 
ATOM     19  H3  UNL     1      52.606  18.988  46.192  1.00  0.00     0.209 HD
HETATM   20  C6  UNL     1      54.931  19.423  47.987  1.00  0.00     0.160 A 
HETATM   21  C13 UNL     1      53.985  21.420  47.608  1.00  0.00     0.157 A 
HETATM   22  C12 UNL     1      55.609  20.424  48.641  1.00  0.00     0.141 A 
HETATM   23  N10 UNL     1      55.060  21.611  48.424  1.00  0.00    -0.345 N 
ATOM     24  H10 UNL     1      55.384  22.503  48.798  1.00  0.00     0.167 HD
BRANCH  20  25
HETATM   25  N5  UNL     1      55.098  18.047  47.986  1.00  0.00    -0.280 N 
ATOM     26  H5  UNL     1      54.881  17.635  48.893  1.00  0.00     0.188 HD
BRANCH  25  27
HETATM   27  N6  UNL     1      55.478  17.111  47.079  1.00  0.00    -0.263 N 
HETATM   28  C7  UNL     1      54.574  16.631  46.048  1.00  0.00     0.284 C 
HETATM   29  O2  UNL     1      53.439  17.153  45.990  1.00  0.00    -0.265 OA
ATOM     30  H6  UNL     1      56.425  16.733  47.123  1.00  0.00     0.190 HD
BRANCH  28  31
HETATM   31  C8  UNL     1      54.947  15.579  45.147  1.00  0.00     0.108 C 
HETATM   32  N7  UNL     1      55.313  14.325  45.897  1.00  0.00    -0.338 N 
HETATM   33  C9  UNL     1      56.636  14.123  45.293  1.00  0.00     0.483 C 
ATOM     34  H7  UNL     1      54.804  13.788  46.599  1.00  0.00     0.163 HD
HETATM   35  N9  UNL     1      56.334  14.234  43.884  1.00  0.00    -0.019 N 
HETATM   36  C10 UNL     1      55.586  15.544  43.884  1.00  0.00     0.241 C 
ATOM     37  H92 UNL     1      57.131  14.176  43.252  1.00  0.00     0.282 HD
ATOM     38  H91 UNL     1      55.844  13.441  43.469  1.00  0.00     0.282 HD
HETATM   39  C11 UNL     1      56.504  16.558  43.340  1.00  0.00     0.047 C 
BRANCH  33  40
HETATM   40  N8  UNL     1      57.154  12.861  45.692  1.00  0.00    -0.033 N 
ATOM     41  H83 UNL     1      56.842  12.595  46.626  1.00  0.00     0.278 HD
ATOM     42  H82 UNL     1      56.735  12.091  45.172  1.00  0.00     0.278 HD
ATOM     43  H81 UNL     1      58.171  12.869  45.615  1.00  0.00     0.278 HD
ENDBRANCH  33  40
ENDBRANCH  28  31
ENDBRANCH  25  27
ENDBRANCH  20  25
ENDBRANCH   6  14
BRANCH   8  44
HETATM   44  C2  UNL     1      50.227  24.746  44.184  1.00  0.00     0.182 C 
HETATM   45  C1  UNL     1      48.816  24.281  44.083  1.00  0.00     0.047 C 
BRANCH  44  46
HETATM   46  O1  UNL     1      50.199  26.149  44.073  1.00  0.00    -0.388 OA
ATOM     47  H1  UNL     1      51.079  26.421  43.840  1.00  0.00     0.210 HD
ENDBRANCH  44  46
ENDBRANCH   8  44
ENDBRANCH   1   5
TORSDOF 8
ENDMDL
MODEL 2
REMARK VINA RESULT: -8.589038030      1.989      2.747
REMARK  8 active torsions:
REMARK  status: ('A' for Active; 'I' for Inactive)
REMARK    1  A    between atoms: C2_2  and  O1_3 
REMARK    2  A    between atoms: C2_2  and  C3_5 
REMARK    3  A    between atoms: C4_8  and  C5_9 
REMARK    4  A    between atoms: C6_15  and  N5_16 
REMARK    5  A    between atoms: N5_16  and  N6_18 
REMARK       I    between atoms: N6_18  and  C7_20 
REMARK    6  A    between atoms: C7_20  and  C8_22 
REMARK    7  A    between atoms: C9_25  and  N8_26 
REMARK    8  A    between atoms: C14_39  and  N11_40 
ROOT
HETATM    1  N11 UNL     1      51.000  25.955  48.973  1.00  0.00    -0.280 N 
ATOM      2  H11 UNL     1      50.990  25.457  49.863  1.00  0.00     0.179 HD
HETATM    3  C15 UNL     1      51.825  27.061  48.739  1.00  0.00     0.183 C 
HETATM    4  N12 UNL     1      52.496  27.990  48.520  1.00  0.00    -0.172 NA
ENDROOT
BRANCH   1   5
HETATM    5  C14 UNL     1      50.176  25.576  47.873  1.00  0.00     0.134 A 
HETATM    6  C4  UNL     1      50.600  24.997  46.611  1.00  0.00     0.208 A 
HETATM    7  N1  UNL     1      49.481  24.581  45.810  1.00  0.00    -0.359 N 
HETATM    8  C3  UNL     1      48.250  24.712  46.063  1.00  0.00     0.121 A 
ATOM      9  H1  UNL     1      49.709  24.122  44.927  1.00  0.00     0.162 HD
HETATM   10  N14 UNL     1      47.904  25.321  47.327  1.00  0.00    -0.286 N 
HETATM   11  N13 UNL     1      48.902  25.708  48.154  1.00  0.00    -0.285 N 
ATOM     12  H14 UNL     1      46.928  25.456  47.591  1.00  0.00     0.188 HD
ATOM     13  H13 UNL     1      48.649  26.128  49.049  1.00  0.00     0.188 HD
BRANCH   6  14
HETATM   14  C5  UNL     1      51.660  24.004  46.692  1.00  0.00     0.103 A 
HETATM   15  N2  UNL     1      52.993  24.331  46.597  1.00  0.00    -0.284 N 
HETATM   16  N3  UNL     1      53.698  23.248  46.648  1.00  0.00    -0.232 N 
ATOM     17  H2  UNL     1      53.365  25.276  46.501  1.00  0.00     0.188 HD
HETATM   18  N4  UNL     1      52.916  22.200  46.768  1.00  0.00    -0.204 N 
ATOM     19  H3  UNL     1      54.717  23.212  46.603  1.00  0.00     0.209 HD
HETATM   20  C6  UNL     1      52.965  20.830  46.866  1.00  0.00     0.160 A 
HETATM   21  C13 UNL     1      51.643  22.639  46.797  1.00  0.00     0.157 A 
HETATM   22  C12 UNL     1      51.639  20.479  46.966  1.00  0.00     0.141 A 
HETATM   23  N10 UNL     1      50.847  21.540  46.929  1.00  0.00    -0.345 N 
ATOM     24  H10 UNL     1      49.828  21.535  46.987  1.00  0.00     0.167 HD
BRANCH  20  25
HETATM   25  N5  UNL     1      54.116  20.063  46.789  1.00  0.00    -0.280 N 
ATOM     26  H5  UNL     1      54.946  20.634  46.626  1.00  0.00     0.188 HD
BRANCH  25  27
HETATM   27  N6  UNL     1      54.417  18.742  46.876  1.00  0.00    -0.263 N 
HETATM   28  C7  UNL     1      54.398  17.873  45.711  1.00  0.00     0.284 C 
HETATM   29  O2  UNL     1      54.144  18.400  44.606  1.00  0.00    -0.265 OA
ATOM     30  H6  UNL     1      54.664  18.348  47.784  1.00  0.00     0.190 HD
BRANCH  28  31
HETATM   31  C8  UNL     1      54.630  16.463  45.819  1.00  0.00     0.108 C 
HETATM   32  N7  UNL     1      55.102  16.092  47.201  1.00  0.00    -0.338 N 
HETATM   33  C9  UNL     1      56.319  15.376  46.799  1.00  0.00     0.483 C 
ATOM     34  H7  UNL     1      54.703  16.279  48.121  1.00  0.00     0.163 HD
HETATM   35  N9  UNL     1      55.809  14.478  45.788  1.00  0.00    -0.019 N 
HETATM   36  C10 UNL     1      55.072  15.464  44.916  1.00  0.00     0.241 C 
ATOM     37  H92 UNL     1      56.502  13.898  45.316  1.00  0.00     0.282 HD
ATOM     38  H91 UNL     1      55.261  13.687  46.128  1.00  0.00     0.282 HD
HETATM   39  C11 UNL     1      55.900  15.675  43.717  1.00  0.00     0.047 C 
BRANCH  33  40
HETATM   40  N8  UNL     1      56.889  14.733  47.931  1.00  0.00    -0.033 N 
ATOM     41  H83 UNL     1      56.180  14.426  48.597  1.00  0.00     0.278 HD
ATOM     42  H82 UNL     1      57.279  13.820  47.700  1.00  0.00     0.278 HD
ATOM     43  H81 UNL     1      57.580  15.348  48.361  1.00  0.00     0.278 HD
ENDBRANCH  33  40
ENDBRANCH  28  31
ENDBRANCH  25  27
ENDBRANCH  20  25
ENDBRANCH   6  14
BRANCH   8  44
HETATM   44  C2  UNL     1      47.194  24.235  45.138  1.00  0.00     0.182 C 
HETATM   45  C1  UNL     1      47.010  22.762  45.253  1.00  0.00     0.047 C 
BRANCH  44  46
HETATM   46  O1  UNL     1      45.992  24.826  45.573  1.00  0.00    -0.388 OA
ATOM     47  H1  UNL     1      45.306  24.498  45.002  1.00  0.00     0.210 HD
ENDBRANCH  44  46
ENDBRANCH   8  44
ENDBRANCH   1   5
TORSDOF 8
ENDMDL
MODEL 3
REMARK VINA RESULT: -8.577260220      2.422      3.820
REMARK  8 active torsions:
REMARK  status: ('A' for Active; 'I' for Inactive)
REMARK    1  A    between atoms: C2_2  and  O1_3 
REMARK    2  A    between atoms: C2_2  and  C3_5 
REMARK    3  A    between atoms: C4_8  and  C5_9 
REMARK    4  A    between atoms: C6_15  and  N5_16 
REMARK    5  A    between atoms: N5_16  and  N6_18 
REMARK       I    between atoms: N6_18  and  C7_20 
REMARK    6  A    between atoms: C7_20  and  C8_22 
REMARK    7  A    between atoms: C9_25  and  N8_26 
REMARK    8  A    between atoms: C14_39  and  N11_40 
ROOT
HETATM    1  N11 UNL     1      50.555  25.268  46.334  1.00  0.00    -0.280 N 
ATOM      2  H11 UNL     1      50.950  25.051  45.419  1.00  0.00     0.179 HD
HETATM    3  C15 UNL     1      49.186  25.162  46.608  1.00  0.00     0.183 C 
HETATM    4  N12 UNL     1      48.050  25.090  46.861  1.00  0.00    -0.172 NA
ENDROOT
BRANCH   1   5
HETATM    5  C14 UNL     1      51.356  25.702  47.431  1.00  0.00     0.134 A 
HETATM    6  C4  UNL     1      52.055  24.871  48.396  1.00  0.00     0.208 A 
HETATM    7  N1  UNL     1      52.905  25.649  49.255  1.00  0.00    -0.359 N 
HETATM    8  C3  UNL     1      53.048  26.904  49.281  1.00  0.00     0.121 A 
ATOM      9  H1  UNL     1      53.463  25.122  49.928  1.00  0.00     0.162 HD
HETATM   10  N14 UNL     1      52.299  27.667  48.308  1.00  0.00    -0.286 N 
HETATM   11  N13 UNL     1      51.503  27.005  47.439  1.00  0.00    -0.285 N 
ATOM     12  H14 UNL     1      52.371  28.684  48.277  1.00  0.00     0.188 HD
ATOM     13  H13 UNL     1      50.986  27.550  46.749  1.00  0.00     0.188 HD
BRANCH   6  14
HETATM   14  C5  UNL     1      52.699  23.682  47.860  1.00  0.00     0.103 A 
HETATM   15  N2  UNL     1      54.022  23.657  47.486  1.00  0.00    -0.284 N 
HETATM   16  N3  UNL     1      54.302  22.492  46.998  1.00  0.00    -0.232 N 
ATOM     17  H2  UNL     1      54.677  24.433  47.579  1.00  0.00     0.188 HD
HETATM   18  N4  UNL     1      53.238  21.724  47.014  1.00  0.00    -0.204 N 
ATOM     19  H3  UNL     1      55.219  22.211  46.651  1.00  0.00     0.209 HD
HETATM   20  C6  UNL     1      52.822  20.459  46.672  1.00  0.00     0.160 A 
HETATM   21  C13 UNL     1      52.225  22.437  47.544  1.00  0.00     0.157 A 
HETATM   22  C12 UNL     1      51.497  20.459  47.040  1.00  0.00     0.141 A 
HETATM   23  N10 UNL     1      51.131  21.622  47.559  1.00  0.00    -0.345 N 
ATOM     24  H10 UNL     1      50.203  21.862  47.906  1.00  0.00     0.167 HD
BRANCH  20  25
HETATM   25  N5  UNL     1      53.600  19.507  46.034  1.00  0.00    -0.280 N 
ATOM     26  H5  UNL     1      53.955  19.840  45.138  1.00  0.00     0.188 HD
BRANCH  25  27
HETATM   27  N6  UNL     1      54.008  18.240  46.303  1.00  0.00    -0.263 N 
HETATM   28  C7  UNL     1      54.413  17.326  45.248  1.00  0.00     0.284 C 
HETATM   29  O2  UNL     1      54.423  17.766  44.078  1.00  0.00    -0.265 OA
ATOM     30  H6  UNL     1      54.032  17.922  47.271  1.00  0.00     0.190 HD
BRANCH  28  31
HETATM   31  C8  UNL     1      54.760  15.962  45.525  1.00  0.00     0.108 C 
HETATM   32  N7  UNL     1      55.274  15.806  46.932  1.00  0.00    -0.338 N 
HETATM   33  C9  UNL     1      56.541  15.144  46.598  1.00  0.00     0.483 C 
ATOM     34  H7  UNL     1      54.870  16.073  47.830  1.00  0.00     0.163 HD
HETATM   35  N9  UNL     1      56.096  14.089  45.716  1.00  0.00    -0.019 N 
HETATM   36  C10 UNL     1      55.273  14.897  44.744  1.00  0.00     0.241 C 
ATOM     37  H92 UNL     1      56.830  13.512  45.306  1.00  0.00     0.282 HD
ATOM     38  H91 UNL     1      55.618  13.306  46.162  1.00  0.00     0.282 HD
HETATM   39  C11 UNL     1      56.069  15.022  43.512  1.00  0.00     0.047 C 
BRANCH  33  40
HETATM   40  N8  UNL     1      57.172  14.695  47.790  1.00  0.00    -0.033 N 
ATOM     41  H83 UNL     1      56.635  13.966  48.259  1.00  0.00     0.278 HD
ATOM     42  H82 UNL     1      58.016  14.155  47.599  1.00  0.00     0.278 HD
ATOM     43  H81 UNL     1      57.355  15.491  48.401  1.00  0.00     0.278 HD
ENDBRANCH  33  40
ENDBRANCH  28  31
ENDBRANCH  25  27
ENDBRANCH  20  25
ENDBRANCH   6  14
BRANCH   8  44
HETATM   44  C2  UNL     1      53.965  27.580  50.231  1.00  0.00     0.182 C 
HETATM   45  C1  UNL     1      54.701  26.586  51.059  1.00  0.00     0.047 C 
BRANCH  44  46
HETATM   46  O1  UNL     1      54.928  28.242  49.446  1.00  0.00    -0.388 OA
ATOM     47  H1  UNL     1      54.930  29.150  49.727  1.00  0.00     0.210 HD
ENDBRANCH  44  46
ENDBRANCH   8  44
ENDBRANCH   1   5
TORSDOF 8
ENDMDL
MODEL 4
REMARK VINA RESULT: -8.520218445      2.192      3.663
REMARK  8 active torsions:
REMARK  status: ('A' for Active; 'I' for Inactive)
REMARK    1  A    between atoms: C2_2  and  O1_3 
REMARK    2  A    between atoms: C2_2  and  C3_5 
REMARK    3  A    between atoms: C4_8  and  C5_9 
REMARK    4  A    between atoms: C6_15  and  N5_16 
REMARK    5  A    between atoms: N5_16  and  N6_18 
REMARK       I    between atoms: N6_18  and  C7_20 
REMARK    6  A    between atoms: C7_20  and  C8_22 
REMARK    7  A    between atoms: C9_25  and  N8_26 
REMARK    8  A    between atoms: C14_39  and  N11_40 
ROOT
HETATM    1  N11 UNL     1      51.102  24.603  46.117  1.00  0.00    -0.280 N 
ATOM      2  H11 UNL     1      51.657  24.161  45.385  1.00  0.00     0.179 HD
HETATM    3  C15 UNL     1      49.706  24.690  46.054  1.00  0.00     0.183 C 
HETATM    4  N12 UNL     1      48.544  24.784  46.023  1.00  0.00    -0.172 NA
ENDROOT
BRANCH   1   5
HETATM    5  C14 UNL     1      51.689  25.180  47.281  1.00  0.00     0.134 A 
HETATM    6  C4  UNL     1      52.145  24.489  48.474  1.00  0.00     0.208 A 
HETATM    7  N1  UNL     1      52.842  25.371  49.370  1.00  0.00    -0.359 N 
HETATM    8  C3  UNL     1      53.033  26.614  49.247  1.00  0.00     0.121 A 
ATOM      9  H1  UNL     1      53.231  24.939  50.209  1.00  0.00     0.162 HD
HETATM   10  N14 UNL     1      52.528  27.237  48.046  1.00  0.00    -0.286 N 
HETATM   11  N13 UNL     1      51.890  26.468  47.136  1.00  0.00    -0.285 N 
ATOM     12  H14 UNL     1      52.650  28.238  47.888  1.00  0.00     0.188 HD
ATOM     13  H13 UNL     1      51.545  26.914  46.286  1.00  0.00     0.188 HD
BRANCH   6  14
HETATM   14  C5  UNL     1      52.827  23.223  48.252  1.00  0.00     0.103 A 
HETATM   15  N2  UNL     1      54.158  23.036  48.543  1.00  0.00    -0.284 N 
HETATM   16  N3  UNL     1      54.503  21.839  48.193  1.00  0.00    -0.232 N 
ATOM     17  H2  UNL     1      54.774  23.730  48.966  1.00  0.00     0.188 HD
HETATM   18  N4  UNL     1      53.479  21.204  47.674  1.00  0.00    -0.204 N 
ATOM     19  H3  UNL     1      55.437  21.445  48.305  1.00  0.00     0.209 HD
HETATM   20  C6  UNL     1      53.134  19.993  47.122  1.00  0.00     0.160 A 
HETATM   21  C13 UNL     1      52.422  22.039  47.697  1.00  0.00     0.157 A 
HETATM   22  C12 UNL     1      51.801  20.156  46.824  1.00  0.00     0.141 A 
HETATM   23  N10 UNL     1      51.367  21.361  47.161  1.00  0.00    -0.345 N 
ATOM     24  H10 UNL     1      50.419  21.716  47.041  1.00  0.00     0.167 HD
BRANCH  20  25
HETATM   25  N5  UNL     1      54.009  18.945  46.883  1.00  0.00    -0.280 N 
ATOM     26  H5  UNL     1      54.899  19.072  47.365  1.00  0.00     0.188 HD
BRANCH  25  27
HETATM   27  N6  UNL     1      53.978  17.791  46.168  1.00  0.00    -0.263 N 
HETATM   28  C7  UNL     1      55.119  16.892  46.115  1.00  0.00     0.284 C 
HETATM   29  O2  UNL     1      56.121  17.194  46.799  1.00  0.00    -0.265 OA
ATOM     30  H6  UNL     1      53.131  17.548  45.655  1.00  0.00     0.190 HD
BRANCH  28  31
HETATM   31  C8  UNL     1      55.117  15.719  45.291  1.00  0.00     0.108 C 
HETATM   32  N7  UNL     1      55.509  14.498  46.081  1.00  0.00    -0.338 N 
HETATM   33  C9  UNL     1      56.597  14.047  45.205  1.00  0.00     0.483 C 
ATOM     34  H7  UNL     1      55.136  14.109  46.947  1.00  0.00     0.163 HD
HETATM   35  N9  UNL     1      55.958  14.073  43.908  1.00  0.00    -0.019 N 
HETATM   36  C10 UNL     1      55.400  15.474  43.925  1.00  0.00     0.241 C 
ATOM     37  H92 UNL     1      56.553  13.839  43.114  1.00  0.00     0.282 HD
ATOM     38  H91 UNL     1      55.286  13.327  43.728  1.00  0.00     0.282 HD
HETATM   39  C11 UNL     1      56.263  16.286  43.051  1.00  0.00     0.047 C 
BRANCH  33  40
HETATM   40  N8  UNL     1      57.044  12.764  45.622  1.00  0.00    -0.033 N 
ATOM     41  H83 UNL     1      56.689  12.514  46.545  1.00  0.00     0.278 HD
ATOM     42  H82 UNL     1      56.607  12.012  45.089  1.00  0.00     0.278 HD
ATOM     43  H81 UNL     1      58.062  12.725  45.578  1.00  0.00     0.278 HD
ENDBRANCH  33  40
ENDBRANCH  28  31
ENDBRANCH  25  27
ENDBRANCH  20  25
ENDBRANCH   6  14
BRANCH   8  44
HETATM   44  C2  UNL     1      53.774  27.407  50.259  1.00  0.00     0.182 C 
HETATM   45  C1  UNL     1      54.347  26.524  51.312  1.00  0.00     0.047 C 
BRANCH  44  46
HETATM   46  O1  UNL     1      54.864  27.988  49.584  1.00  0.00    -0.388 OA
ATOM     47  H1  UNL     1      55.302  27.285  49.119  1.00  0.00     0.210 HD
ENDBRANCH  44  46
ENDBRANCH   8  44
ENDBRANCH   1   5
TORSDOF 8
ENDMDL
MODEL 5
REMARK VINA RESULT: -8.510227559      2.585      4.171
REMARK  8 active torsions:
REMARK  status: ('A' for Active; 'I' for Inactive)
REMARK    1  A    between atoms: C2_2  and  O1_3 
REMARK    2  A    between atoms: C2_2  and  C3_5 
REMARK    3  A    between atoms: C4_8  and  C5_9 
REMARK    4  A    between atoms: C6_15  and  N5_16 
REMARK    5  A    between atoms: N5_16  and  N6_18 
REMARK       I    between atoms: N6_18  and  C7_20 
REMARK    6  A    between atoms: C7_20  and  C8_22 
REMARK    7  A    between atoms: C9_25  and  N8_26 
REMARK    8  A    between atoms: C14_39  and  N11_40 
ROOT
HETATM    1  N11 UNL     1      49.625  25.683  47.700  1.00  0.00    -0.280 N 
ATOM      2  H11 UNL     1      49.722  25.372  46.734  1.00  0.00     0.179 HD
HETATM    3  C15 UNL     1      48.383  25.791  48.337  1.00  0.00     0.183 C 
HETATM    4  N12 UNL     1      47.361  25.897  48.888  1.00  0.00    -0.172 NA
ENDROOT
BRANCH   1   5
HETATM    5  C14 UNL     1      50.746  26.042  48.505  1.00  0.00     0.134 A 
HETATM    6  C4  UNL     1      51.413  25.225  49.504  1.00  0.00     0.208 A 
HETATM    7  N1  UNL     1      52.613  25.848  49.991  1.00  0.00    -0.359 N 
HETATM    8  C3  UNL     1      53.078  26.985  49.691  1.00  0.00     0.121 A 
ATOM      9  H1  UNL     1      53.158  25.307  50.663  1.00  0.00     0.162 HD
HETATM   10  N14 UNL     1      52.346  27.752  48.709  1.00  0.00    -0.286 N 
HETATM   11  N13 UNL     1      51.223  27.218  48.176  1.00  0.00    -0.285 N 
ATOM     12  H14 UNL     1      52.668  28.676  48.424  1.00  0.00     0.188 HD
ATOM     13  H13 UNL     1      50.718  27.762  47.477  1.00  0.00     0.188 HD
BRANCH   6  14
HETATM   14  C5  UNL     1      51.582  23.820  49.164  1.00  0.00     0.103 A 
HETATM   15  N2  UNL     1      51.704  22.835  50.116  1.00  0.00    -0.284 N 
HETATM   16  N3  UNL     1      51.895  21.699  49.526  1.00  0.00    -0.232 N 
ATOM     17  H2  UNL     1      51.651  22.977  51.124  1.00  0.00     0.188 HD
HETATM   18  N4  UNL     1      51.917  21.860  48.224  1.00  0.00    -0.204 N 
ATOM     19  H3  UNL     1      52.012  20.806  50.005  1.00  0.00     0.209 HD
HETATM   20  C6  UNL     1      52.072  21.150  47.057  1.00  0.00     0.160 A 
HETATM   21  C13 UNL     1      51.725  23.170  47.968  1.00  0.00     0.157 A 
HETATM   22  C12 UNL     1      51.951  22.118  46.087  1.00  0.00     0.141 A 
HETATM   23  N10 UNL     1      51.744  23.316  46.612  1.00  0.00    -0.345 N 
ATOM     24  H10 UNL     1      51.621  24.188  46.097  1.00  0.00     0.167 HD
BRANCH  20  25
HETATM   25  N5  UNL     1      52.361  19.798  46.976  1.00  0.00    -0.280 N 
ATOM     26  H5  UNL     1      51.538  19.219  47.145  1.00  0.00     0.188 HD
BRANCH  25  27
HETATM   27  N6  UNL     1      53.467  19.049  46.729  1.00  0.00    -0.263 N 
HETATM   28  C7  UNL     1      53.810  18.610  45.387  1.00  0.00     0.284 C 
HETATM   29  O2  UNL     1      53.075  18.993  44.451  1.00  0.00    -0.265 OA
ATOM     30  H6  UNL     1      54.073  18.788  47.507  1.00  0.00     0.190 HD
BRANCH  28  31
HETATM   31  C8  UNL     1      54.928  17.746  45.139  1.00  0.00     0.108 C 
HETATM   32  N7  UNL     1      54.479  16.325  44.920  1.00  0.00    -0.338 N 
HETATM   33  C9  UNL     1      55.337  15.698  45.932  1.00  0.00     0.483 C 
ATOM     34  H7  UNL     1      53.798  15.926  44.274  1.00  0.00     0.163 HD
HETATM   35  N9  UNL     1      56.629  16.259  45.609  1.00  0.00    -0.019 N 
HETATM   36  C10 UNL     1      56.274  17.724  45.580  1.00  0.00     0.241 C 
ATOM     37  H92 UNL     1      57.396  15.998  46.228  1.00  0.00     0.282 HD
ATOM     38  H91 UNL     1      57.077  15.892  44.768  1.00  0.00     0.282 HD
HETATM   39  C11 UNL     1      56.795  18.313  46.825  1.00  0.00     0.047 C 
BRANCH  33  40
HETATM   40  N8  UNL     1      55.257  14.283  45.815  1.00  0.00    -0.033 N 
ATOM     41  H83 UNL     1      54.616  13.877  46.496  1.00  0.00     0.278 HD
ATOM     42  H82 UNL     1      54.771  13.995  44.966  1.00  0.00     0.278 HD
ATOM     43  H81 UNL     1      56.192  13.881  45.879  1.00  0.00     0.278 HD
ENDBRANCH  33  40
ENDBRANCH  28  31
ENDBRANCH  25  27
ENDBRANCH  20  25
ENDBRANCH   6  14
BRANCH   8  44
HETATM   44  C2  UNL     1      54.336  27.508  50.277  1.00  0.00     0.182 C 
HETATM   45  C1  UNL     1      55.205  26.397  50.753  1.00  0.00     0.047 C 
BRANCH  44  46
HETATM   46  O1  UNL     1      55.028  28.139  49.226  1.00  0.00    -0.388 OA
ATOM     47  H1  UNL     1      54.469  28.082  48.460  1.00  0.00     0.210 HD
ENDBRANCH  44  46
ENDBRANCH   8  44
ENDBRANCH   1   5
TORSDOF 8
ENDMDL
