MODEL 1
REMARK VINA RESULT: -6.566387631      0.000      0.000
REMARK  5 active torsions:
REMARK  status: ('A' for Active; 'I' for Inactive)
REMARK    1  A    between atoms: N1_1  and  C1_4 
REMARK    2  A    between atoms: C5_11  and  C6_12 
REMARK    3  A    between atoms: C6_12  and  C7_13 
REMARK    4  A    between atoms: C7_13  and  C8_14 
REMARK    5  A    between atoms: C8_14  and  C9_15 
ROOT
HETATM    1  C1  UNL     1       9.226  17.234  33.427  1.00  0.00     0.680 A 
HETATM    2  N2  UNL     1       9.332  16.162  34.233  1.00  0.00    -0.155 N 
ATOM      3  H2  UNL     1       8.541  15.530  34.354  1.00  0.00     0.187 HD
HETATM    4  C2  UNL     1      10.506  15.927  34.886  1.00  0.00     0.276 A 
HETATM    5  O1  UNL     1      10.561  14.947  35.629  1.00  0.00    -0.267 OA
HETATM    6  C3  UNL     1      11.578  16.771  34.724  1.00  0.00     0.104 A 
HETATM    7  C4  UNL     1      12.756  16.628  35.386  1.00  0.00     0.052 A 
HETATM    8  C5  UNL     1      13.207  15.445  36.060  1.00  0.00     0.030 C 
HETATM    9  N6  UNL     1      13.748  17.601  35.201  1.00  0.00    -0.351 N 
ATOM     10  H6  UNL     1      14.629  17.494  35.704  1.00  0.00     0.166 HD
HETATM   11  C12 UNL     1      13.602  18.648  34.409  1.00  0.00     0.182 A 
HETATM   12  N7  UNL     1      12.441  18.771  33.755  1.00  0.00    -0.337 N 
ATOM     13  H7  UNL     1      12.311  19.570  33.136  1.00  0.00     0.168 HD
HETATM   14  C13 UNL     1      11.451  17.892  33.882  1.00  0.00     0.140 A 
HETATM   15  N8  UNL     1      10.267  18.067  33.268  1.00  0.00    -0.176 N 
ATOM     16  H8  UNL     1      10.154  18.872  32.652  1.00  0.00     0.186 HD
ENDROOT
BRANCH   8  17
HETATM   17  C6  UNL     1      13.118  14.211  35.718  1.00  0.00     0.002 C 
BRANCH  17  18
HETATM   18  C7  UNL     1      13.875  13.159  36.453  1.00  0.00     0.002 C 
BRANCH  18  19
HETATM   19  C8  UNL     1      15.118  12.972  36.168  1.00  0.00     0.035 C 
BRANCH  19  20
HETATM   20  C9  UNL     1      15.745  11.960  35.353  1.00  0.00     0.103 A 
HETATM   21  N3  UNL     1      16.571  12.313  34.323  1.00  0.00    -0.347 N 
HETATM   22  C10 UNL     1      17.167  11.405  33.549  1.00  0.00     0.198 A 
ATOM     23  H3  UNL     1      16.738  13.302  34.141  1.00  0.00     0.167 HD
HETATM   24  N4  UNL     1      16.971  10.094  33.759  1.00  0.00    -0.293 N 
HETATM   25  N5  UNL     1      16.187   9.685  34.734  1.00  0.00    -0.264 N 
ATOM     26  H4  UNL     1      17.433   9.410  33.159  1.00  0.00     0.187 HD
HETATM   27  C11 UNL     1      15.571  10.621  35.534  1.00  0.00     0.286 A 
ATOM     28  H5  UNL     1      16.038   8.688  34.894  1.00  0.00     0.190 HD
HETATM   29  O2  UNL     1      14.836  10.167  36.444  1.00  0.00    -0.264 OA
ENDBRANCH  19  20
ENDBRANCH  18  19
ENDBRANCH  17  18
ENDBRANCH   8  17
BRANCH   1  30
HETATM   30  N1  UNL     1       8.096  17.413  32.829  1.00  0.00    -0.234 N 
ATOM     31  H12 UNL     1       7.314  17.898  33.269  1.00  0.00     0.174 HD
ATOM     32  H11 UNL     1       8.007  17.048  31.881  1.00  0.00     0.174 HD
ENDBRANCH   1  30
TORSDOF 5
ENDMDL
MODEL 2
REMARK VINA RESULT: -6.508284458      7.951     10.255
REMARK  5 active torsions:
REMARK  status: ('A' for Active; 'I' for Inactive)
REMARK    1  A    between atoms: N1_1  and  C1_4 
REMARK    2  A    between atoms: C5_11  and  C6_12 
REMARK    3  A    between atoms: C6_12  and  C7_13 
REMARK    4  A    between atoms: C7_13  and  C8_14 
REMARK    5  A    between atoms: C8_14  and  C9_15 
ROOT
HETATM    1  C1  UNL     1      18.496  11.171  31.953  1.00  0.00     0.680 A 
HETATM    2  N2  UNL     1      18.211   9.878  32.189  1.00  0.00    -0.155 N 
ATOM      3  H2  UNL     1      17.719   9.324  31.488  1.00  0.00     0.187 HD
HETATM    4  C2  UNL     1      18.586   9.313  33.372  1.00  0.00     0.276 A 
HETATM    5  O1  UNL     1      18.292   8.133  33.561  1.00  0.00    -0.267 OA
HETATM    6  C3  UNL     1      19.253  10.051  34.320  1.00  0.00     0.104 A 
HETATM    7  C4  UNL     1      19.606   9.568  35.540  1.00  0.00     0.052 A 
HETATM    8  C5  UNL     1      19.669   8.184  35.913  1.00  0.00     0.030 C 
HETATM    9  N6  UNL     1      20.210  10.441  36.454  1.00  0.00    -0.351 N 
ATOM     10  H6  UNL     1      20.468  10.077  37.371  1.00  0.00     0.166 HD
HETATM   11  C12 UNL     1      20.464  11.711  36.190  1.00  0.00     0.182 A 
HETATM   12  N7  UNL     1      20.121  12.171  34.982  1.00  0.00    -0.337 N 
ATOM     13  H7  UNL     1      20.312  13.147  34.757  1.00  0.00     0.168 HD
HETATM   14  C13 UNL     1      19.540  11.404  34.062  1.00  0.00     0.140 A 
HETATM   15  N8  UNL     1      19.143  11.901  32.876  1.00  0.00    -0.176 N 
ATOM     16  H8  UNL     1      19.343  12.880  32.668  1.00  0.00     0.186 HD
ENDROOT
BRANCH   8  17
HETATM   17  C6  UNL     1      20.101   7.168  35.259  1.00  0.00     0.002 C 
BRANCH  17  18
HETATM   18  C7  UNL     1      21.469   6.628  35.505  1.00  0.00     0.002 C 
BRANCH  18  19
HETATM   19  C8  UNL     1      21.591   5.418  35.934  1.00  0.00     0.035 C 
BRANCH  19  20
HETATM   20  C9  UNL     1      22.129   4.249  35.282  1.00  0.00     0.103 A 
HETATM   21  N3  UNL     1      23.452   3.932  35.409  1.00  0.00    -0.347 N 
HETATM   22  C10 UNL     1      23.984   2.859  34.820  1.00  0.00     0.198 A 
ATOM     23  H3  UNL     1      24.052   4.534  35.971  1.00  0.00     0.167 HD
HETATM   24  N4  UNL     1      23.224   2.044  34.072  1.00  0.00    -0.293 N 
HETATM   25  N5  UNL     1      21.942   2.291  33.908  1.00  0.00    -0.264 N 
ATOM     26  H4  UNL     1      23.644   1.228  33.627  1.00  0.00     0.187 HD
HETATM   27  C11 UNL     1      21.391   3.398  34.515  1.00  0.00     0.286 A 
ATOM     28  H5  UNL     1      21.364   1.671  33.340  1.00  0.00     0.190 HD
HETATM   29  O2  UNL     1      20.165   3.578  34.321  1.00  0.00    -0.264 OA
ENDBRANCH  19  20
ENDBRANCH  18  19
ENDBRANCH  17  18
ENDBRANCH   8  17
BRANCH   1  30
HETATM   30  N1  UNL     1      18.124  11.661  30.819  1.00  0.00    -0.234 N 
ATOM     31  H12 UNL     1      17.347  11.274  30.283  1.00  0.00     0.174 HD
ATOM     32  H11 UNL     1      18.641  12.465  30.465  1.00  0.00     0.174 HD
ENDBRANCH   1  30
TORSDOF 5
ENDMDL
MODEL 3
REMARK VINA RESULT: -6.425981853      5.842      7.684
REMARK  5 active torsions:
REMARK  status: ('A' for Active; 'I' for Inactive)
REMARK    1  A    between atoms: N1_1  and  C1_4 
REMARK    2  A    between atoms: C5_11  and  C6_12 
REMARK    3  A    between atoms: C6_12  and  C7_13 
REMARK    4  A    between atoms: C7_13  and  C8_14 
REMARK    5  A    between atoms: C8_14  and  C9_15 
ROOT
HETATM    1  C1  UNL     1      15.284   8.788  37.828  1.00  0.00     0.680 A 
HETATM    2  N2  UNL     1      16.527   8.855  38.340  1.00  0.00    -0.155 N 
ATOM      3  H2  UNL     1      16.811   8.218  39.084  1.00  0.00     0.187 HD
HETATM    4  C2  UNL     1      17.404   9.781  37.856  1.00  0.00     0.276 A 
HETATM    5  O1  UNL     1      18.525   9.825  38.361  1.00  0.00    -0.267 OA
HETATM    6  C3  UNL     1      17.030  10.640  36.851  1.00  0.00     0.104 A 
HETATM    7  C4  UNL     1      17.833  11.620  36.361  1.00  0.00     0.052 A 
HETATM    8  C5  UNL     1      19.254  11.711  36.533  1.00  0.00     0.030 C 
HETATM    9  N6  UNL     1      17.312  12.488  35.392  1.00  0.00    -0.351 N 
ATOM     10  H6  UNL     1      17.915  13.228  35.031  1.00  0.00     0.166 HD
HETATM   11  C12 UNL     1      16.080  12.399  34.922  1.00  0.00     0.182 A 
HETATM   12  N7  UNL     1      15.304  11.423  35.405  1.00  0.00    -0.337 N 
ATOM     13  H7  UNL     1      14.352  11.334  35.051  1.00  0.00     0.168 HD
HETATM   14  C13 UNL     1      15.726  10.563  36.328  1.00  0.00     0.140 A 
HETATM   15  N8  UNL     1      14.910   9.628  36.849  1.00  0.00    -0.176 N 
ATOM     16  H8  UNL     1      13.960   9.554  36.483  1.00  0.00     0.186 HD
ENDROOT
BRANCH   8  17
HETATM   17  C6  UNL     1      20.154  10.798  36.493  1.00  0.00     0.002 C 
BRANCH  17  18
HETATM   18  C7  UNL     1      20.970  10.583  35.264  1.00  0.00     0.002 C 
BRANCH  18  19
HETATM   19  C8  UNL     1      20.466   9.900  34.294  1.00  0.00     0.035 C 
BRANCH  19  20
HETATM   20  C9  UNL     1      19.410  10.236  33.369  1.00  0.00     0.103 A 
HETATM   21  N3  UNL     1      19.454  11.405  32.664  1.00  0.00    -0.347 N 
HETATM   22  C10 UNL     1      18.496  11.749  31.800  1.00  0.00     0.198 A 
ATOM     23  H3  UNL     1      20.243  12.036  32.801  1.00  0.00     0.167 HD
HETATM   24  N4  UNL     1      17.443  10.944  31.594  1.00  0.00    -0.293 N 
HETATM   25  N5  UNL     1      17.339   9.802  32.240  1.00  0.00    -0.264 N 
ATOM     26  H4  UNL     1      16.718  11.219  30.930  1.00  0.00     0.187 HD
HETATM   27  C11 UNL     1      18.326   9.446  33.132  1.00  0.00     0.286 A 
ATOM     28  H5  UNL     1      16.538   9.190  32.082  1.00  0.00     0.190 HD
HETATM   29  O2  UNL     1      18.168   8.347  33.716  1.00  0.00    -0.264 OA
ENDBRANCH  19  20
ENDBRANCH  18  19
ENDBRANCH  17  18
ENDBRANCH   8  17
BRANCH   1  30
HETATM   30  N1  UNL     1      14.492   7.895  38.316  1.00  0.00    -0.234 N 
ATOM     31  H12 UNL     1      13.979   7.237  37.729  1.00  0.00     0.174 HD
ATOM     32  H11 UNL     1      14.390   7.866  39.330  1.00  0.00     0.174 HD
ENDBRANCH   1  30
TORSDOF 5
ENDMDL
MODEL 4
REMARK VINA RESULT: -6.419814378      6.780      9.241
REMARK  5 active torsions:
REMARK  status: ('A' for Active; 'I' for Inactive)
REMARK    1  A    between atoms: N1_1  and  C1_4 
REMARK    2  A    between atoms: C5_11  and  C6_12 
REMARK    3  A    between atoms: C6_12  and  C7_13 
REMARK    4  A    between atoms: C7_13  and  C8_14 
REMARK    5  A    between atoms: C8_14  and  C9_15 
ROOT
HETATM    1  C1  UNL     1      21.651  11.871  33.944  1.00  0.00     0.680 A 
HETATM    2  N2  UNL     1      20.683  12.518  34.617  1.00  0.00    -0.155 N 
ATOM      3  H2  UNL     1      20.509  13.508  34.441  1.00  0.00     0.187 HD
HETATM    4  C2  UNL     1      19.936  11.842  35.536  1.00  0.00     0.276 A 
HETATM    5  O1  UNL     1      19.072  12.472  36.146  1.00  0.00    -0.267 OA
HETATM    6  C3  UNL     1      20.162  10.508  35.776  1.00  0.00     0.104 A 
HETATM    7  C4  UNL     1      19.494   9.788  36.715  1.00  0.00     0.052 A 
HETATM    8  C5  UNL     1      18.260  10.162  37.344  1.00  0.00     0.030 C 
HETATM    9  N6  UNL     1      19.870   8.455  36.926  1.00  0.00    -0.351 N 
ATOM     10  H6  UNL     1      19.371   7.918  37.636  1.00  0.00     0.166 HD
HETATM   11  C12 UNL     1      20.836   7.855  36.252  1.00  0.00     0.182 A 
HETATM   12  N7  UNL     1      21.478   8.572  35.323  1.00  0.00    -0.337 N 
ATOM     13  H7  UNL     1      22.223   8.126  34.789  1.00  0.00     0.168 HD
HETATM   14  C13 UNL     1      21.181   9.844  35.069  1.00  0.00     0.140 A 
HETATM   15  N8  UNL     1      21.881  10.569  34.177  1.00  0.00    -0.176 N 
ATOM     16  H8  UNL     1      22.624  10.106  33.651  1.00  0.00     0.186 HD
ENDROOT
BRANCH   8  17
HETATM   17  C6  UNL     1      17.208  10.705  36.849  1.00  0.00     0.002 C 
BRANCH  17  18
HETATM   18  C7  UNL     1      16.349   9.963  35.883  1.00  0.00     0.002 C 
BRANCH  18  19
HETATM   19  C8  UNL     1      16.226  10.417  34.684  1.00  0.00     0.035 C 
BRANCH  19  20
HETATM   20  C9  UNL     1      17.197  10.512  33.619  1.00  0.00     0.103 A 
HETATM   21  N3  UNL     1      17.343  11.675  32.917  1.00  0.00    -0.347 N 
HETATM   22  C10 UNL     1      18.229  11.798  31.927  1.00  0.00     0.198 A 
ATOM     23  H3  UNL     1      16.757  12.474  33.158  1.00  0.00     0.167 HD
HETATM   24  N4  UNL     1      19.016  10.768  31.584  1.00  0.00    -0.293 N 
HETATM   25  N5  UNL     1      18.927   9.619  32.219  1.00  0.00    -0.264 N 
ATOM     26  H4  UNL     1      19.690  10.876  30.824  1.00  0.00     0.187 HD
HETATM   27  C11 UNL     1      18.013   9.489  33.241  1.00  0.00     0.286 A 
ATOM     28  H5  UNL     1      19.526   8.835  31.958  1.00  0.00     0.190 HD
HETATM   29  O2  UNL     1      17.976   8.370  33.807  1.00  0.00    -0.264 OA
ENDBRANCH  19  20
ENDBRANCH  18  19
ENDBRANCH  17  18
ENDBRANCH   8  17
BRANCH   1  30
HETATM   30  N1  UNL     1      22.329  12.552  33.083  1.00  0.00    -0.234 N 
ATOM     31  H12 UNL     1      23.334  12.430  32.956  1.00  0.00     0.174 HD
ATOM     32  H11 UNL     1      21.819  13.233  32.520  1.00  0.00     0.174 HD
ENDBRANCH   1  30
TORSDOF 5
ENDMDL
MODEL 5
REMARK VINA RESULT: -6.387905810      1.149      1.417
REMARK  5 active torsions:
REMARK  status: ('A' for Active; 'I' for Inactive)
REMARK    1  A    between atoms: N1_1  and  C1_4 
REMARK    2  A    between atoms: C5_11  and  C6_12 
REMARK    3  A    between atoms: C6_12  and  C7_13 
REMARK    4  A    between atoms: C7_13  and  C8_14 
REMARK    5  A    between atoms: C8_14  and  C9_15 
ROOT
HETATM    1  C1  UNL     1       8.751  17.121  33.312  1.00  0.00     0.680 A 
HETATM    2  N2  UNL     1       8.945  16.079  34.142  1.00  0.00    -0.155 N 
ATOM      3  H2  UNL     1       8.208  15.389  34.281  1.00  0.00     0.187 HD
HETATM    4  C2  UNL     1      10.136  15.954  34.794  1.00  0.00     0.276 A 
HETATM    5  O1  UNL     1      10.271  14.999  35.559  1.00  0.00    -0.267 OA
HETATM    6  C3  UNL     1      11.137  16.877  34.609  1.00  0.00     0.104 A 
HETATM    7  C4  UNL     1      12.325  16.843  35.268  1.00  0.00     0.052 A 
HETATM    8  C5  UNL     1      12.870  15.715  35.966  1.00  0.00     0.030 C 
HETATM    9  N6  UNL     1      13.235  17.887  35.056  1.00  0.00    -0.351 N 
ATOM     10  H6  UNL     1      14.123  17.863  35.557  1.00  0.00     0.166 HD
HETATM   11  C12 UNL     1      13.004  18.902  34.241  1.00  0.00     0.182 A 
HETATM   12  N7  UNL     1      11.835  18.916  33.591  1.00  0.00    -0.337 N 
ATOM     13  H7  UNL     1      11.639  19.688  32.954  1.00  0.00     0.168 HD
HETATM   14  C13 UNL     1      10.919  17.964  33.742  1.00  0.00     0.140 A 
HETATM   15  N8  UNL     1       9.722  18.030  33.130  1.00  0.00    -0.176 N 
ATOM     16  H8  UNL     1       9.543  18.809  32.496  1.00  0.00     0.186 HD
ENDROOT
BRANCH   8  17
HETATM   17  C6  UNL     1      12.879  14.471  35.652  1.00  0.00     0.002 C 
BRANCH  17  18
HETATM   18  C7  UNL     1      13.727  13.501  36.402  1.00  0.00     0.002 C 
BRANCH  18  19
HETATM   19  C8  UNL     1      14.936  13.295  36.005  1.00  0.00     0.035 C 
BRANCH  19  20
HETATM   20  C9  UNL     1      15.554  12.100  35.483  1.00  0.00     0.103 A 
HETATM   21  N3  UNL     1      15.123  10.866  35.882  1.00  0.00    -0.347 N 
HETATM   22  C10 UNL     1      15.671   9.740  35.422  1.00  0.00     0.198 A 
ATOM     23  H3  UNL     1      14.358  10.804  36.554  1.00  0.00     0.167 HD
HETATM   24  N4  UNL     1      16.680   9.784  34.538  1.00  0.00    -0.293 N 
HETATM   25  N5  UNL     1      17.143  10.939  34.111  1.00  0.00    -0.264 N 
ATOM     26  H4  UNL     1      17.090   8.915  34.194  1.00  0.00     0.187 HD
HETATM   27  C11 UNL     1      16.579  12.102  34.586  1.00  0.00     0.286 A 
ATOM     28  H5  UNL     1      17.909  10.973  33.439  1.00  0.00     0.190 HD
HETATM   29  O2  UNL     1      17.065  13.170  34.141  1.00  0.00    -0.264 OA
ENDBRANCH  19  20
ENDBRANCH  18  19
ENDBRANCH  17  18
ENDBRANCH   8  17
BRANCH   1  30
HETATM   30  N1  UNL     1       7.610  17.196  32.716  1.00  0.00    -0.234 N 
ATOM     31  H12 UNL     1       7.142  16.379  32.321  1.00  0.00     0.174 HD
ATOM     32  H11 UNL     1       7.178  18.117  32.649  1.00  0.00     0.174 HD
ENDBRANCH   1  30
TORSDOF 5
ENDMDL
