MODEL 1
REMARK VINA RESULT: -5.738236449      0.000      0.000
REMARK  16 active torsions:
REMARK  status: ('A' for Active; 'I' for Inactive)
REMARK    1  A    between atoms: N1_1  and  C1_5 
REMARK    2  A    between atoms: C1_5  and  C2_6 
REMARK    3  A    between atoms: C1_5  and  C3_9 
REMARK    4  A    between atoms: C2_6  and  O1_7 
REMARK    5  A    between atoms: C3_9  and  O2_10 
REMARK    6  A    between atoms: C3_9  and  C4_12 
REMARK    7  A    between atoms: C4_12  and  O3_13 
REMARK    8  A    between atoms: C4_12  and  C5_15 
REMARK    9  A    between atoms: C5_15  and  O4_16 
REMARK   10  A    between atoms: O4_16  and  N2_17 
REMARK   11  A    between atoms: N3_20  and  C8_21 
REMARK   12  A    between atoms: C8_21  and  N4_22 
REMARK   13  A    between atoms: C8_21  and  C9_26 
REMARK   14  A    between atoms: C9_26  and  C10_27 
REMARK   15  A    between atoms: C17_45  and  N9_46 
REMARK   16  A    between atoms: C18_50  and  O6_51 
ROOT
HETATM    1  N2  UNL     1     -24.895   2.668   8.707  1.00  0.00    -0.256 N 
HETATM    2  C6  UNL     1     -23.967   1.667   8.333  1.00  0.00     0.197 C 
HETATM    3  C7  UNL     1     -23.734   0.565   9.319  1.00  0.00     0.084 C 
HETATM    4  N3  UNL     1     -23.785   0.950  10.660  1.00  0.00    -0.333 N 
HETATM    5  C17 UNL     1     -24.279   2.231  10.975  1.00  0.00     0.335 C 
HETATM    6  C18 UNL     1     -25.438   2.497  10.006  1.00  0.00     0.291 C 
ENDROOT
BRANCH   4   7
HETATM    7  C8  UNL     1     -23.352   0.083  11.660  1.00  0.00     0.292 C 
BRANCH   7   8
HETATM    8  N4  UNL     1     -21.938  -0.193  11.584  1.00  0.00    -0.058 N 
ATOM      9  H43 UNL     1     -21.765  -1.098  11.147  1.00  0.00     0.276 HD
ATOM     10  H42 UNL     1     -21.483   0.411  10.900  1.00  0.00     0.276 HD
ATOM     11  H41 UNL     1     -21.475  -0.131  12.492  1.00  0.00     0.276 HD
ENDBRANCH   7   8
BRANCH   7  12
HETATM   12  C9  UNL     1     -24.118  -1.199  11.776  1.00  0.00     0.130 C 
BRANCH  12  13
HETATM   13  C10 UNL     1     -25.506  -0.993  12.355  1.00  0.00     0.086 A 
HETATM   14  N5  UNL     1     -26.585  -0.900  11.700  1.00  0.00    -0.316 N 
HETATM   15  C11 UNL     1     -27.714  -0.708  12.552  1.00  0.00     0.444 A 
ATOM     16  H5  UNL     1     -26.640  -0.955  10.683  1.00  0.00     0.165 HD
HETATM   17  N6  UNL     1     -28.361   0.503  12.152  1.00  0.00    -0.013 N 
HETATM   18  N7  UNL     1     -28.643  -1.836  12.469  1.00  0.00    -0.013 N 
HETATM   19  C16 UNL     1     -27.151  -0.710  13.904  1.00  0.00     0.310 A 
HETATM   20  C12 UNL     1     -29.431   0.901  12.986  1.00  0.00     0.238 C 
ATOM     21  H62 UNL     1     -27.681   1.257  12.065  1.00  0.00     0.282 HD
ATOM     22  H61 UNL     1     -28.673   0.435  11.183  1.00  0.00     0.282 HD
HETATM   23  C13 UNL     1     -30.492  -0.172  13.040  1.00  0.00     0.029 C 
HETATM   24  C14 UNL     1     -30.708  -0.804  11.675  1.00  0.00     0.029 C 
HETATM   25  C15 UNL     1     -29.540  -1.721  11.331  1.00  0.00     0.238 C 
ATOM     26  H72 UNL     1     -28.145  -2.727  12.459  1.00  0.00     0.282 HD
ATOM     27  H71 UNL     1     -29.163  -1.953  13.339  1.00  0.00     0.282 HD
HETATM   28  O5  UNL     1     -27.687  -0.592  15.030  1.00  0.00    -0.266 OA
HETATM   29  N8  UNL     1     -25.754  -0.886  13.735  1.00  0.00    -0.311 N 
ATOM     30  H8  UNL     1     -25.057  -0.928  14.478  1.00  0.00     0.170 HD
ENDBRANCH  12  13
ENDBRANCH   7  12
ENDBRANCH   4   7
BRANCH   5  31
HETATM   31  N9  UNL     1     -24.710   2.324  12.334  1.00  0.00    -0.054 N 
ATOM     32  H93 UNL     1     -25.245   1.500  12.609  1.00  0.00     0.277 HD
ATOM     33  H92 UNL     1     -23.925   2.229  12.978  1.00  0.00     0.277 HD
ATOM     34  H91 UNL     1     -25.234   3.181  12.514  1.00  0.00     0.277 HD
ENDBRANCH   5  31
BRANCH   6  35
HETATM   35  O6  UNL     1     -26.185   1.296  10.000  1.00  0.00    -0.371 OA
ATOM     36  H6  UNL     1     -26.087   0.895  10.856  1.00  0.00     0.212 HD
ENDBRANCH   6  35
BRANCH   1  37
HETATM   37  O4  UNL     1     -24.585   3.896   8.328  1.00  0.00    -0.277 OA
BRANCH  37  38
HETATM   38  C5  UNL     1     -25.575   4.827   8.511  1.00  0.00     0.235 C 
BRANCH  38  39
HETATM   39  C4  UNL     1     -25.041   6.090   9.196  1.00  0.00     0.175 C 
BRANCH  39  40
HETATM   40  C3  UNL     1     -25.770   6.274  10.484  1.00  0.00     0.181 C 
BRANCH  40  41
HETATM   41  C1  UNL     1     -27.219   5.874  10.457  1.00  0.00     0.237 C 
BRANCH  41  42
HETATM   42  N1  UNL     1     -27.408   4.926  11.580  1.00  0.00    -0.070 N 
ATOM     43  H13 UNL     1     -27.512   5.379  12.488  1.00  0.00     0.274 HD
ATOM     44  H12 UNL     1     -28.315   4.460  11.577  1.00  0.00     0.274 HD
ATOM     45  H11 UNL     1     -26.615   4.287  11.527  1.00  0.00     0.274 HD
ENDBRANCH  41  42
BRANCH  41  46
HETATM   46  C2  UNL     1     -28.206   6.959  10.692  1.00  0.00     0.199 C 
BRANCH  46  47
HETATM   47  O1  UNL     1     -27.757   7.846  11.654  1.00  0.00    -0.399 OA
ATOM     48  H1  UNL     1     -28.457   8.096  12.246  1.00  0.00     0.209 HD
ENDBRANCH  46  47
ENDBRANCH  41  46
ENDBRANCH  40  41
BRANCH  40  49
HETATM   49  O2  UNL     1     -25.150   5.456  11.459  1.00  0.00    -0.391 OA
ATOM     50  H2  UNL     1     -25.178   5.944  12.274  1.00  0.00     0.210 HD
ENDBRANCH  40  49
ENDBRANCH  39  40
BRANCH  39  51
HETATM   51  O3  UNL     1     -25.148   7.175   8.348  1.00  0.00    -0.391 OA
ATOM     52  H3  UNL     1     -24.492   7.182   7.662  1.00  0.00     0.210 HD
ENDBRANCH  39  51
ENDBRANCH  38  39
ENDBRANCH  37  38
ENDBRANCH   1  37
TORSDOF 16
ENDMDL
MODEL 2
REMARK VINA RESULT: -5.715076875      1.991      4.876
REMARK  16 active torsions:
REMARK  status: ('A' for Active; 'I' for Inactive)
REMARK    1  A    between atoms: N1_1  and  C1_5 
REMARK    2  A    between atoms: C1_5  and  C2_6 
REMARK    3  A    between atoms: C1_5  and  C3_9 
REMARK    4  A    between atoms: C2_6  and  O1_7 
REMARK    5  A    between atoms: C3_9  and  O2_10 
REMARK    6  A    between atoms: C3_9  and  C4_12 
REMARK    7  A    between atoms: C4_12  and  O3_13 
REMARK    8  A    between atoms: C4_12  and  C5_15 
REMARK    9  A    between atoms: C5_15  and  O4_16 
REMARK   10  A    between atoms: O4_16  and  N2_17 
REMARK   11  A    between atoms: N3_20  and  C8_21 
REMARK   12  A    between atoms: C8_21  and  N4_22 
REMARK   13  A    between atoms: C8_21  and  C9_26 
REMARK   14  A    between atoms: C9_26  and  C10_27 
REMARK   15  A    between atoms: C17_45  and  N9_46 
REMARK   16  A    between atoms: C18_50  and  O6_51 
ROOT
HETATM    1  N2  UNL     1     -28.334   3.588  11.900  1.00  0.00    -0.256 N 
HETATM    2  C6  UNL     1     -29.219   2.898  12.763  1.00  0.00     0.197 C 
HETATM    3  C7  UNL     1     -28.986   1.428  12.928  1.00  0.00     0.084 C 
HETATM    4  N3  UNL     1     -28.530   0.769  11.785  1.00  0.00    -0.333 N 
HETATM    5  C17 UNL     1     -28.102   1.541  10.687  1.00  0.00     0.335 C 
HETATM    6  C18 UNL     1     -27.371   2.756  11.273  1.00  0.00     0.291 C 
ENDROOT
BRANCH   4   7
HETATM    7  C8  UNL     1     -28.506  -0.622  11.734  1.00  0.00     0.292 C 
BRANCH   7   8
HETATM    8  N4  UNL     1     -29.822  -1.199  11.608  1.00  0.00    -0.058 N 
ATOM      9  H43 UNL     1     -30.545  -0.507  11.805  1.00  0.00     0.276 HD
ATOM     10  H42 UNL     1     -30.043  -1.396  10.632  1.00  0.00     0.276 HD
ATOM     11  H41 UNL     1     -29.945  -2.031  12.185  1.00  0.00     0.276 HD
ENDBRANCH   7   8
BRANCH   7  12
HETATM   12  C9  UNL     1     -27.758  -1.293  12.846  1.00  0.00     0.130 C 
BRANCH  12  13
HETATM   13  C10 UNL     1     -26.331  -0.790  12.970  1.00  0.00     0.086 A 
HETATM   14  N5  UNL     1     -25.463  -0.766  12.051  1.00  0.00    -0.316 N 
HETATM   15  C11 UNL     1     -24.219  -0.232  12.503  1.00  0.00     0.444 A 
ATOM     16  H5  UNL     1     -25.632  -1.090  11.098  1.00  0.00     0.165 HD
HETATM   17  N6  UNL     1     -23.208  -1.216  12.264  1.00  0.00    -0.013 N 
HETATM   18  N7  UNL     1     -23.890   1.017  11.812  1.00  0.00    -0.013 N 
HETATM   19  C16 UNL     1     -24.459   0.103  13.909  1.00  0.00     0.310 A 
HETATM   20  C12 UNL     1     -21.934  -0.886  12.777  1.00  0.00     0.238 C 
ATOM     21  H62 UNL     1     -23.508  -2.125  12.617  1.00  0.00     0.282 HD
ATOM     22  H61 UNL     1     -23.147  -1.426  11.267  1.00  0.00     0.282 HD
HETATM   23  C13 UNL     1     -21.438   0.410  12.182  1.00  0.00     0.029 C 
HETATM   24  C14 UNL     1     -21.777   0.503  10.702  1.00  0.00     0.029 C 
HETATM   25  C15 UNL     1     -23.265   0.777  10.522  1.00  0.00     0.238 C 
ATOM     26  H72 UNL     1     -24.711   1.616  11.721  1.00  0.00     0.282 HD
ATOM     27  H71 UNL     1     -23.312   1.622  12.396  1.00  0.00     0.282 HD
HETATM   28  O5  UNL     1     -23.718   0.609  14.783  1.00  0.00    -0.266 OA
HETATM   29  N8  UNL     1     -25.802  -0.271  14.165  1.00  0.00    -0.311 N 
ATOM     30  H8  UNL     1     -26.295  -0.181  15.054  1.00  0.00     0.170 HD
ENDBRANCH  12  13
ENDBRANCH   7  12
ENDBRANCH   4   7
BRANCH   5  31
HETATM   31  N9  UNL     1     -27.252   0.803   9.806  1.00  0.00    -0.054 N 
ATOM     32  H93 UNL     1     -26.289   0.796  10.143  1.00  0.00     0.277 HD
ATOM     33  H92 UNL     1     -27.449  -0.197   9.855  1.00  0.00     0.277 HD
ATOM     34  H91 UNL     1     -27.304   1.143   8.845  1.00  0.00     0.277 HD
ENDBRANCH   5  31
BRANCH   6  35
HETATM   35  O6  UNL     1     -26.544   2.223  12.289  1.00  0.00    -0.371 OA
ATOM     36  H6  UNL     1     -26.955   2.417  13.123  1.00  0.00     0.212 HD
ENDBRANCH   6  35
BRANCH   1  37
HETATM   37  O4  UNL     1     -28.884   4.546  11.174  1.00  0.00    -0.277 OA
BRANCH  37  38
HETATM   38  C5  UNL     1     -28.959   5.769  11.788  1.00  0.00     0.235 C 
BRANCH  38  39
HETATM   39  C4  UNL     1     -28.302   6.866  10.942  1.00  0.00     0.175 C 
BRANCH  39  40
HETATM   40  C3  UNL     1     -27.185   6.256  10.164  1.00  0.00     0.181 C 
BRANCH  40  41
HETATM   41  C1  UNL     1     -26.695   7.078   9.005  1.00  0.00     0.237 C 
BRANCH  41  42
HETATM   42  N1  UNL     1     -27.733   8.106   8.757  1.00  0.00    -0.070 N 
ATOM     43  H13 UNL     1     -28.595   7.956   9.282  1.00  0.00     0.274 HD
ATOM     44  H12 UNL     1     -27.511   9.019   9.154  1.00  0.00     0.274 HD
ATOM     45  H11 UNL     1     -27.863   8.116   7.746  1.00  0.00     0.274 HD
ENDBRANCH  41  42
BRANCH  41  46
HETATM   46  C2  UNL     1     -25.438   7.840   9.223  1.00  0.00     0.199 C 
BRANCH  46  47
HETATM   47  O1  UNL     1     -25.670   8.995   9.948  1.00  0.00    -0.399 OA
ATOM     48  H1  UNL     1     -24.995   9.133  10.602  1.00  0.00     0.209 HD
ENDBRANCH  46  47
ENDBRANCH  41  46
ENDBRANCH  40  41
BRANCH  40  49
HETATM   49  O2  UNL     1     -26.080   6.096  11.034  1.00  0.00    -0.391 OA
ATOM     50  H2  UNL     1     -26.398   6.289  11.909  1.00  0.00     0.210 HD
ENDBRANCH  40  49
ENDBRANCH  39  40
BRANCH  39  51
HETATM   51  O3  UNL     1     -27.897   7.913  11.747  1.00  0.00    -0.391 OA
ATOM     52  H3  UNL     1     -27.556   8.652  11.258  1.00  0.00     0.210 HD
ENDBRANCH  39  51
ENDBRANCH  38  39
ENDBRANCH  37  38
ENDBRANCH   1  37
TORSDOF 16
ENDMDL
MODEL 3
REMARK VINA RESULT: -5.578949213      2.431      7.580
REMARK  16 active torsions:
REMARK  status: ('A' for Active; 'I' for Inactive)
REMARK    1  A    between atoms: N1_1  and  C1_5 
REMARK    2  A    between atoms: C1_5  and  C2_6 
REMARK    3  A    between atoms: C1_5  and  C3_9 
REMARK    4  A    between atoms: C2_6  and  O1_7 
REMARK    5  A    between atoms: C3_9  and  O2_10 
REMARK    6  A    between atoms: C3_9  and  C4_12 
REMARK    7  A    between atoms: C4_12  and  O3_13 
REMARK    8  A    between atoms: C4_12  and  C5_15 
REMARK    9  A    between atoms: C5_15  and  O4_16 
REMARK   10  A    between atoms: O4_16  and  N2_17 
REMARK   11  A    between atoms: N3_20  and  C8_21 
REMARK   12  A    between atoms: C8_21  and  N4_22 
REMARK   13  A    between atoms: C8_21  and  C9_26 
REMARK   14  A    between atoms: C9_26  and  C10_27 
REMARK   15  A    between atoms: C17_45  and  N9_46 
REMARK   16  A    between atoms: C18_50  and  O6_51 
ROOT
HETATM    1  N2  UNL     1     -26.133  -0.029  13.653  1.00  0.00    -0.256 N 
HETATM    2  C6  UNL     1     -24.830   0.120  14.185  1.00  0.00     0.197 C 
HETATM    3  C7  UNL     1     -23.838   0.851  13.335  1.00  0.00     0.084 C 
HETATM    4  N3  UNL     1     -23.971   0.646  11.960  1.00  0.00    -0.333 N 
HETATM    5  C17 UNL     1     -25.130   0.001  11.484  1.00  0.00     0.335 C 
HETATM    6  C18 UNL     1     -26.291   0.506  12.350  1.00  0.00     0.291 C 
ENDROOT
BRANCH   4   7
HETATM    7  C8  UNL     1     -22.976   1.069  11.083  1.00  0.00     0.292 C 
BRANCH   7   8
HETATM    8  N4  UNL     1     -21.798   0.237  11.134  1.00  0.00    -0.058 N 
ATOM      9  H43 UNL     1     -22.041  -0.727  11.358  1.00  0.00     0.276 HD
ATOM     10  H42 UNL     1     -21.409   0.097  10.201  1.00  0.00     0.276 HD
ATOM     11  H41 UNL     1     -21.090   0.595  11.775  1.00  0.00     0.276 HD
ENDBRANCH   7   8
BRANCH   7  12
HETATM   12  C9  UNL     1     -22.588   2.512  11.198  1.00  0.00     0.130 C 
BRANCH  12  13
HETATM   13  C10 UNL     1     -23.696   3.447  10.748  1.00  0.00     0.086 A 
HETATM   14  N5  UNL     1     -24.171   3.538   9.579  1.00  0.00    -0.316 N 
HETATM   15  C11 UNL     1     -25.204   4.519   9.496  1.00  0.00     0.444 A 
ATOM     16  H5  UNL     1     -23.853   2.976   8.789  1.00  0.00     0.165 HD
HETATM   17  N6  UNL     1     -24.824   5.470   8.497  1.00  0.00    -0.013 N 
HETATM   18  N7  UNL     1     -26.493   3.911   9.159  1.00  0.00    -0.013 N 
HETATM   19  C16 UNL     1     -25.317   5.043  10.860  1.00  0.00     0.310 A 
HETATM   20  C12 UNL     1     -25.689   6.582   8.384  1.00  0.00     0.238 C 
ATOM     21  H62 UNL     1     -23.865   5.781   8.651  1.00  0.00     0.282 HD
ATOM     22  H61 UNL     1     -24.717   5.010   7.592  1.00  0.00     0.282 HD
HETATM   23  C13 UNL     1     -27.093   6.134   8.057  1.00  0.00     0.029 C 
HETATM   24  C14 UNL     1     -27.089   4.992   7.053  1.00  0.00     0.029 C 
HETATM   25  C15 UNL     1     -26.638   3.702   7.728  1.00  0.00     0.238 C 
ATOM     26  H72 UNL     1     -26.640   3.044   9.677  1.00  0.00     0.282 HD
ATOM     27  H71 UNL     1     -27.269   4.456   9.534  1.00  0.00     0.282 HD
HETATM   28  O5  UNL     1     -26.068   5.911  11.360  1.00  0.00    -0.266 OA
HETATM   29  N8  UNL     1     -24.343   4.344  11.617  1.00  0.00    -0.311 N 
ATOM     30  H8  UNL     1     -24.147   4.468  12.610  1.00  0.00     0.170 HD
ENDBRANCH  12  13
ENDBRANCH   7  12
ENDBRANCH   4   7
BRANCH   5  31
HETATM   31  N9  UNL     1     -25.365   0.265  10.100  1.00  0.00    -0.054 N 
ATOM     32  H93 UNL     1     -25.869   1.143   9.972  1.00  0.00     0.277 HD
ATOM     33  H92 UNL     1     -24.498   0.504   9.617  1.00  0.00     0.277 HD
ATOM     34  H91 UNL     1     -25.844  -0.507   9.636  1.00  0.00     0.277 HD
ENDBRANCH   5  31
BRANCH   6  35
HETATM   35  O6  UNL     1     -26.094   1.904  12.437  1.00  0.00    -0.371 OA
ATOM     36  H6  UNL     1     -26.688   2.315  11.821  1.00  0.00     0.212 HD
ENDBRANCH   6  35
BRANCH   1  37
HETATM   37  O4  UNL     1     -26.724  -1.181  13.920  1.00  0.00    -0.277 OA
BRANCH  37  38
HETATM   38  C5  UNL     1     -27.446  -1.716  12.886  1.00  0.00     0.235 C 
BRANCH  38  39
HETATM   39  C4  UNL     1     -27.390  -3.248  12.891  1.00  0.00     0.175 C 
BRANCH  39  40
HETATM   40  C3  UNL     1     -28.603  -3.763  13.590  1.00  0.00     0.181 C 
BRANCH  40  41
HETATM   41  C1  UNL     1     -28.329  -4.574  14.825  1.00  0.00     0.237 C 
BRANCH  41  42
HETATM   42  N1  UNL     1     -27.880  -3.614  15.861  1.00  0.00    -0.070 N 
ATOM     43  H13 UNL     1     -27.834  -4.011  16.800  1.00  0.00     0.274 HD
ATOM     44  H12 UNL     1     -26.895  -3.362  15.790  1.00  0.00     0.274 HD
ATOM     45  H11 UNL     1     -28.515  -2.819  15.782  1.00  0.00     0.274 HD
ENDBRANCH  41  42
BRANCH  41  46
HETATM   46  C2  UNL     1     -29.493  -5.276  15.424  1.00  0.00     0.199 C 
BRANCH  46  47
HETATM   47  O1  UNL     1     -30.270  -4.411  16.174  1.00  0.00    -0.399 OA
ATOM     48  H1  UNL     1     -30.160  -4.568  17.105  1.00  0.00     0.209 HD
ENDBRANCH  46  47
ENDBRANCH  41  46
ENDBRANCH  40  41
BRANCH  40  49
HETATM   49  O2  UNL     1     -29.373  -2.651  14.007  1.00  0.00    -0.391 OA
ATOM     50  H2  UNL     1     -28.891  -1.876  13.739  1.00  0.00     0.210 HD
ENDBRANCH  40  49
ENDBRANCH  39  40
BRANCH  39  51
HETATM   51  O3  UNL     1     -26.208  -3.682  13.459  1.00  0.00    -0.391 OA
ATOM     52  H3  UNL     1     -25.798  -4.391  12.978  1.00  0.00     0.210 HD
ENDBRANCH  39  51
ENDBRANCH  38  39
ENDBRANCH  37  38
ENDBRANCH   1  37
TORSDOF 16
ENDMDL
MODEL 4
REMARK VINA RESULT: -5.539076117      1.373      1.750
REMARK  16 active torsions:
REMARK  status: ('A' for Active; 'I' for Inactive)
REMARK    1  A    between atoms: N1_1  and  C1_5 
REMARK    2  A    between atoms: C1_5  and  C2_6 
REMARK    3  A    between atoms: C1_5  and  C3_9 
REMARK    4  A    between atoms: C2_6  and  O1_7 
REMARK    5  A    between atoms: C3_9  and  O2_10 
REMARK    6  A    between atoms: C3_9  and  C4_12 
REMARK    7  A    between atoms: C4_12  and  O3_13 
REMARK    8  A    between atoms: C4_12  and  C5_15 
REMARK    9  A    between atoms: C5_15  and  O4_16 
REMARK   10  A    between atoms: O4_16  and  N2_17 
REMARK   11  A    between atoms: N3_20  and  C8_21 
REMARK   12  A    between atoms: C8_21  and  N4_22 
REMARK   13  A    between atoms: C8_21  and  C9_26 
REMARK   14  A    between atoms: C9_26  and  C10_27 
REMARK   15  A    between atoms: C17_45  and  N9_46 
REMARK   16  A    between atoms: C18_50  and  O6_51 
ROOT
HETATM    1  N2  UNL     1     -24.753   3.268   9.161  1.00  0.00    -0.256 N 
HETATM    2  C6  UNL     1     -23.958   2.239   8.601  1.00  0.00     0.197 C 
HETATM    3  C7  UNL     1     -23.789   0.999   9.422  1.00  0.00     0.084 C 
HETATM    4  N3  UNL     1     -23.725   1.206  10.801  1.00  0.00    -0.333 N 
HETATM    5  C17 UNL     1     -24.063   2.477  11.308  1.00  0.00     0.335 C 
HETATM    6  C18 UNL     1     -25.239   2.981  10.462  1.00  0.00     0.291 C 
ENDROOT
BRANCH   4   7
HETATM    7  C8  UNL     1     -23.332   0.177  11.653  1.00  0.00     0.292 C 
BRANCH   7   8
HETATM    8  N4  UNL     1     -21.940  -0.172  11.500  1.00  0.00    -0.058 N 
ATOM      9  H43 UNL     1     -21.669  -0.168  10.518  1.00  0.00     0.276 HD
ATOM     10  H42 UNL     1     -21.337   0.575  11.843  1.00  0.00     0.276 HD
ATOM     11  H41 UNL     1     -21.707  -1.062  11.942  1.00  0.00     0.276 HD
ENDBRANCH   7   8
BRANCH   7  12
HETATM   12  C9  UNL     1     -24.178  -1.058  11.602  1.00  0.00     0.130 C 
BRANCH  12  13
HETATM   13  C10 UNL     1     -25.545  -0.850  12.229  1.00  0.00     0.086 A 
HETATM   14  N5  UNL     1     -26.633  -0.666  11.610  1.00  0.00    -0.316 N 
HETATM   15  C11 UNL     1     -27.735  -0.503  12.502  1.00  0.00     0.444 A 
ATOM     16  H5  UNL     1     -26.712  -0.637  10.593  1.00  0.00     0.165 HD
HETATM   17  N6  UNL     1     -28.345   0.759  12.215  1.00  0.00    -0.013 N 
HETATM   18  N7  UNL     1     -28.708  -1.587  12.352  1.00  0.00    -0.013 N 
HETATM   19  C16 UNL     1     -27.144  -0.634  13.835  1.00  0.00     0.310 A 
HETATM   20  C12 UNL     1     -29.381   1.126  13.104  1.00  0.00     0.238 C 
ATOM     21  H62 UNL     1     -27.639   1.493  12.172  1.00  0.00     0.282 HD
ATOM     22  H61 UNL     1     -28.680   0.780  11.251  1.00  0.00     0.282 HD
HETATM   23  C13 UNL     1     -30.480   0.092  13.098  1.00  0.00     0.029 C 
HETATM   24  C14 UNL     1     -30.749  -0.421  11.692  1.00  0.00     0.029 C 
HETATM   25  C15 UNL     1     -29.624  -1.348  11.248  1.00  0.00     0.238 C 
ATOM     26  H72 UNL     1     -28.244  -2.491  12.259  1.00  0.00     0.282 HD
ATOM     27  H71 UNL     1     -29.214  -1.754  13.222  1.00  0.00     0.282 HD
HETATM   28  O5  UNL     1     -27.651  -0.587  14.980  1.00  0.00    -0.266 OA
HETATM   29  N8  UNL     1     -25.759  -0.845  13.618  1.00  0.00    -0.311 N 
ATOM     30  H8  UNL     1     -25.048  -0.972  14.339  1.00  0.00     0.170 HD
ENDBRANCH  12  13
ENDBRANCH   7  12
ENDBRANCH   4   7
BRANCH   5  31
HETATM   31  N9  UNL     1     -24.407   2.432  12.695  1.00  0.00    -0.054 N 
ATOM     32  H93 UNL     1     -25.140   1.745  12.870  1.00  0.00     0.277 HD
ATOM     33  H92 UNL     1     -23.658   2.014  13.247  1.00  0.00     0.277 HD
ATOM     34  H91 UNL     1     -24.665   3.350  13.057  1.00  0.00     0.277 HD
ENDBRANCH   5  31
BRANCH   6  35
HETATM   35  O6  UNL     1     -26.108   1.870  10.356  1.00  0.00    -0.371 OA
ATOM     36  H6  UNL     1     -26.834   2.018  10.949  1.00  0.00     0.212 HD
ENDBRANCH   6  35
BRANCH   1  37
HETATM   37  O4  UNL     1     -24.336   4.499   8.918  1.00  0.00    -0.277 OA
BRANCH  37  38
HETATM   38  C5  UNL     1     -25.005   5.150   7.914  1.00  0.00     0.235 C 
BRANCH  38  39
HETATM   39  C4  UNL     1     -25.772   6.367   8.445  1.00  0.00     0.175 C 
BRANCH  39  40
HETATM   40  C3  UNL     1     -26.825   6.730   7.453  1.00  0.00     0.181 C 
BRANCH  40  41
HETATM   41  C1  UNL     1     -27.900   7.644   7.973  1.00  0.00     0.237 C 
BRANCH  41  42
HETATM   42  N1  UNL     1     -27.742   7.673   9.446  1.00  0.00    -0.070 N 
ATOM     43  H13 UNL     1     -27.059   7.004   9.802  1.00  0.00     0.274 HD
ATOM     44  H12 UNL     1     -27.276   8.511   9.794  1.00  0.00     0.274 HD
ATOM     45  H11 UNL     1     -28.682   7.540   9.819  1.00  0.00     0.274 HD
ENDBRANCH  41  42
BRANCH  41  46
HETATM   46  C2  UNL     1     -27.820   9.064   7.545  1.00  0.00     0.199 C 
BRANCH  46  47
HETATM   47  O1  UNL     1     -26.740   9.704   8.126  1.00  0.00    -0.399 OA
ATOM     48  H1  UNL     1     -26.842  10.648   8.097  1.00  0.00     0.209 HD
ENDBRANCH  46  47
ENDBRANCH  41  46
ENDBRANCH  40  41
BRANCH  40  49
HETATM   49  O2  UNL     1     -26.202   7.417   6.384  1.00  0.00    -0.391 OA
ATOM     50  H2  UNL     1     -25.327   7.054   6.306  1.00  0.00     0.210 HD
ENDBRANCH  40  49
ENDBRANCH  39  40
BRANCH  39  51
HETATM   51  O3  UNL     1     -24.898   7.402   8.716  1.00  0.00    -0.391 OA
ATOM     52  H3  UNL     1     -24.505   7.345   9.579  1.00  0.00     0.210 HD
ENDBRANCH  39  51
ENDBRANCH  38  39
ENDBRANCH  37  38
ENDBRANCH   1  37
TORSDOF 16
ENDMDL
MODEL 5
REMARK VINA RESULT: -5.457464031      2.442      7.700
REMARK  16 active torsions:
REMARK  status: ('A' for Active; 'I' for Inactive)
REMARK    1  A    between atoms: N1_1  and  C1_5 
REMARK    2  A    between atoms: C1_5  and  C2_6 
REMARK    3  A    between atoms: C1_5  and  C3_9 
REMARK    4  A    between atoms: C2_6  and  O1_7 
REMARK    5  A    between atoms: C3_9  and  O2_10 
REMARK    6  A    between atoms: C3_9  and  C4_12 
REMARK    7  A    between atoms: C4_12  and  O3_13 
REMARK    8  A    between atoms: C4_12  and  C5_15 
REMARK    9  A    between atoms: C5_15  and  O4_16 
REMARK   10  A    between atoms: O4_16  and  N2_17 
REMARK   11  A    between atoms: N3_20  and  C8_21 
REMARK   12  A    between atoms: C8_21  and  N4_22 
REMARK   13  A    between atoms: C8_21  and  C9_26 
REMARK   14  A    between atoms: C9_26  and  C10_27 
REMARK   15  A    between atoms: C17_45  and  N9_46 
REMARK   16  A    between atoms: C18_50  and  O6_51 
ROOT
HETATM    1  N2  UNL     1     -26.590   0.134  12.165  1.00  0.00    -0.256 N 
HETATM    2  C6  UNL     1     -25.655   0.482  13.169  1.00  0.00     0.197 C 
HETATM    3  C7  UNL     1     -24.569   1.435  12.774  1.00  0.00     0.084 C 
HETATM    4  N3  UNL     1     -24.111   1.299  11.463  1.00  0.00    -0.333 N 
HETATM    5  C17 UNL     1     -24.842   0.486  10.573  1.00  0.00     0.335 C 
HETATM    6  C18 UNL     1     -26.324   0.715  10.899  1.00  0.00     0.291 C 
ENDROOT
BRANCH   4   7
HETATM    7  C8  UNL     1     -22.953   1.951  11.048  1.00  0.00     0.292 C 
BRANCH   7   8
HETATM    8  N4  UNL     1     -21.753   1.349  11.578  1.00  0.00    -0.058 N 
ATOM      9  H43 UNL     1     -21.772   1.334  12.598  1.00  0.00     0.276 HD
ATOM     10  H42 UNL     1     -21.738   0.346  11.398  1.00  0.00     0.276 HD
ATOM     11  H41 UNL     1     -20.903   1.796  11.234  1.00  0.00     0.276 HD
ENDBRANCH   7   8
BRANCH   7  12
HETATM   12  C9  UNL     1     -22.929   3.431  11.283  1.00  0.00     0.130 C 
BRANCH  12  13
HETATM   13  C10 UNL     1     -23.867   4.180  10.353  1.00  0.00     0.086 A 
HETATM   14  N5  UNL     1     -24.939   4.765  10.683  1.00  0.00    -0.316 N 
HETATM   15  C11 UNL     1     -25.584   5.372   9.563  1.00  0.00     0.444 A 
ATOM     16  H5  UNL     1     -25.299   4.800  11.637  1.00  0.00     0.165 HD
HETATM   17  N6  UNL     1     -26.907   4.833   9.478  1.00  0.00    -0.013 N 
HETATM   18  N7  UNL     1     -25.633   6.829   9.700  1.00  0.00    -0.013 N 
HETATM   19  C16 UNL     1     -24.702   5.073   8.432  1.00  0.00     0.310 A 
HETATM   20  C12 UNL     1     -27.635   5.242   8.338  1.00  0.00     0.238 C 
ATOM     21  H62 UNL     1     -26.879   3.816   9.535  1.00  0.00     0.282 HD
ATOM     22  H61 UNL     1     -27.431   5.043  10.328  1.00  0.00     0.282 HD
HETATM   23  C13 UNL     1     -27.766   6.746   8.300  1.00  0.00     0.029 C 
HETATM   24  C14 UNL     1     -28.025   7.313   9.686  1.00  0.00     0.029 C 
HETATM   25  C15 UNL     1     -26.752   7.262  10.521  1.00  0.00     0.238 C 
ATOM     26  H72 UNL     1     -24.750   7.198  10.053  1.00  0.00     0.282 HD
ATOM     27  H71 UNL     1     -25.645   7.286   8.788  1.00  0.00     0.282 HD
HETATM   28  O5  UNL     1     -24.775   5.370   7.218  1.00  0.00    -0.266 OA
HETATM   29  N8  UNL     1     -23.634   4.313   8.973  1.00  0.00    -0.311 N 
ATOM     30  H8  UNL     1     -22.841   3.933   8.455  1.00  0.00     0.170 HD
ENDBRANCH  12  13
ENDBRANCH   7  12
ENDBRANCH   4   7
BRANCH   5  31
HETATM   31  N9  UNL     1     -24.562   0.793   9.206  1.00  0.00    -0.054 N 
ATOM     32  H93 UNL     1     -25.203   0.306   8.580  1.00  0.00     0.277 HD
ATOM     33  H92 UNL     1     -24.818   1.755   8.984  1.00  0.00     0.277 HD
ATOM     34  H91 UNL     1     -23.590   0.604   8.960  1.00  0.00     0.277 HD
ENDBRANCH   5  31
BRANCH   6  35
HETATM   35  O6  UNL     1     -26.449   2.117  11.040  1.00  0.00    -0.371 OA
ATOM     36  H6  UNL     1     -25.782   2.403  11.653  1.00  0.00     0.212 HD
ENDBRANCH   6  35
BRANCH   1  37
HETATM   37  O4  UNL     1     -27.005  -1.121  12.190  1.00  0.00    -0.277 OA
BRANCH  37  38
HETATM   38  C5  UNL     1     -26.176  -1.993  12.847  1.00  0.00     0.235 C 
BRANCH  38  39
HETATM   39  C4  UNL     1     -26.841  -3.360  13.048  1.00  0.00     0.175 C 
BRANCH  39  40
HETATM   40  C3  UNL     1     -28.066  -3.172  13.878  1.00  0.00     0.181 C 
BRANCH  40  41
HETATM   41  C1  UNL     1     -28.412  -4.329  14.773  1.00  0.00     0.237 C 
BRANCH  41  42
HETATM   42  N1  UNL     1     -28.032  -3.919  16.146  1.00  0.00    -0.070 N 
ATOM     43  H13 UNL     1     -28.136  -2.919  16.321  1.00  0.00     0.274 HD
ATOM     44  H12 UNL     1     -28.684  -4.233  16.864  1.00  0.00     0.274 HD
ATOM     45  H11 UNL     1     -27.081  -4.263  16.274  1.00  0.00     0.274 HD
ENDBRANCH  41  42
BRANCH  41  46
HETATM   46  C2  UNL     1     -29.851  -4.689  14.859  1.00  0.00     0.199 C 
BRANCH  46  47
HETATM   47  O1  UNL     1     -30.657  -3.583  14.659  1.00  0.00    -0.399 OA
ATOM     48  H1  UNL     1     -30.601  -3.273  13.763  1.00  0.00     0.209 HD
ENDBRANCH  46  47
ENDBRANCH  41  46
ENDBRANCH  40  41
BRANCH  40  49
HETATM   49  O2  UNL     1     -27.852  -2.061  14.729  1.00  0.00    -0.391 OA
ATOM     50  H2  UNL     1     -27.015  -2.208  15.155  1.00  0.00     0.210 HD
ENDBRANCH  40  49
ENDBRANCH  39  40
BRANCH  39  51
HETATM   51  O3  UNL     1     -25.942  -4.253  13.597  1.00  0.00    -0.391 OA
ATOM     52  H3  UNL     1     -25.043  -4.087  13.341  1.00  0.00     0.210 HD
ENDBRANCH  39  51
ENDBRANCH  38  39
ENDBRANCH  37  38
ENDBRANCH   1  37
TORSDOF 16
ENDMDL
