MODEL 1
REMARK VINA RESULT: -6.053045286      0.000      0.000
REMARK  13 active torsions:
REMARK  status: ('A' for Active; 'I' for Inactive)
REMARK    1  A    between atoms: O1_2  and  C2_3 
REMARK    2  A    between atoms: C2_3  and  C3_4 
REMARK    3  A    between atoms: C2_3  and  N1_8 
REMARK    4  A    between atoms: C3_4  and  C4_5 
REMARK    5  A    between atoms: N1_8  and  C6_10 
REMARK    6  A    between atoms: C6_10  and  C7_11 
REMARK    7  A    between atoms: C7_11  and  O3_13 
REMARK    8  A    between atoms: C7_11  and  N2_15 
REMARK    9  A    between atoms: N2_15  and  C9_17 
REMARK   10  A    between atoms: N4_25  and  C12_27 
REMARK   11  A    between atoms: C12_27  and  N5_28 
REMARK   12  A    between atoms: C12_27  and  O6_32 
REMARK   13  A    between atoms: C13_38  and  N8_39 
ROOT
HETATM    1  C6  UNL     1     -24.879   4.039  10.088  1.00  0.00     0.248 C 
HETATM    2  N6  UNL     1     -26.314   3.890  10.504  1.00  0.00    -0.296 N 
ATOM      3  H6  UNL     1     -26.823   3.013  10.395  1.00  0.00     0.183 HD
HETATM    4  N7  UNL     1     -26.884   4.984  11.029  1.00  0.00    -0.291 N 
ATOM      5  H7  UNL     1     -27.272   4.948  11.971  1.00  0.00     0.184 HD
HETATM    6  C13 UNL     1     -26.954   6.192  10.289  1.00  0.00     0.403 C 
HETATM    7  N9  UNL     1     -25.613   6.415   9.737  1.00  0.00    -0.313 N 
ATOM      8  H9  UNL     1     -25.216   7.353   9.678  1.00  0.00     0.166 HD
HETATM    9  C14 UNL     1     -24.869   5.255   9.277  1.00  0.00     0.276 C 
HETATM   10  O7  UNL     1     -24.288   5.442   8.189  1.00  0.00    -0.268 OA
ENDROOT
BRANCH   1  11
HETATM   11  N1  UNL     1     -24.649   2.840   9.266  1.00  0.00    -0.358 N 
ATOM     12  H1  UNL     1     -23.711   2.539   9.003  1.00  0.00     0.159 HD
BRANCH  11  13
HETATM   13  C2  UNL     1     -25.805   2.128   8.862  1.00  0.00     0.225 C 
BRANCH  13  14
HETATM   14  O1  UNL     1     -26.090   0.979   9.618  1.00  0.00    -0.371 OA
HETATM   15  C1  UNL     1     -27.322   0.483   9.320  1.00  0.00     0.204 C 
ENDBRANCH  13  14
BRANCH  13  16
HETATM   16  C3  UNL     1     -25.549   1.542   7.460  1.00  0.00     0.131 C 
BRANCH  16  17
HETATM   17  C4  UNL     1     -25.074   2.480   6.469  1.00  0.00     0.127 C 
HETATM   18  C5  UNL     1     -26.078   3.313   5.727  1.00  0.00     0.091 C 
HETATM   19  O2  UNL     1     -23.912   2.634   6.201  1.00  0.00    -0.298 OA
ENDBRANCH  16  17
ENDBRANCH  13  16
ENDBRANCH  11  13
ENDBRANCH   1  11
BRANCH   1  20
HETATM   20  C7  UNL     1     -24.049   3.921  11.300  1.00  0.00     0.180 C 
HETATM   21  C8  UNL     1     -22.536   4.015  10.967  1.00  0.00     0.076 C 
BRANCH  20  22
HETATM   22  O3  UNL     1     -24.240   5.273  11.905  1.00  0.00    -0.367 OA
ATOM     23  H3  UNL     1     -23.569   5.266  12.576  1.00  0.00     0.212 HD
ENDBRANCH  20  22
BRANCH  20  24
HETATM   24  N2  UNL     1     -24.239   3.088  12.377  1.00  0.00    -0.376 N 
ATOM     25  H2  UNL     1     -24.695   3.547  13.164  1.00  0.00     0.157 HD
BRANCH  24  26
HETATM   26  C9  UNL     1     -23.946   1.780  12.615  1.00  0.00     0.163 C 
HETATM   27  C10 UNL     1     -23.224   0.865  11.699  1.00  0.00     0.196 C 
HETATM   28  S1  UNL     1     -23.186  -0.581  12.813  1.00  0.00     0.234 S 
HETATM   29  O4  UNL     1     -23.181  -1.844  12.053  1.00  0.00    -0.206 OA
HETATM   30  O5  UNL     1     -22.051  -0.432  13.770  1.00  0.00    -0.206 OA
HETATM   31  N3  UNL     1     -24.705  -0.247  13.579  1.00  0.00    -0.272 N 
HETATM   32  C11 UNL     1     -25.180   0.949  12.981  1.00  0.00     0.113 C 
ATOM     33  H3  UNL     1     -25.162  -0.795  14.308  1.00  0.00     0.180 HD
HETATM   34  N4  UNL     1     -26.379   1.353  12.761  1.00  0.00    -0.329 N 
ATOM     35  H4  UNL     1     -26.455   2.271  12.322  1.00  0.00     0.165 HD
BRANCH  34  36
HETATM   36  C12 UNL     1     -27.608   0.716  13.037  1.00  0.00     0.424 C 
BRANCH  36  37
HETATM   37  N5  UNL     1     -28.689   1.694  12.972  1.00  0.00    -0.035 N 
ATOM     38  H53 UNL     1     -29.030   1.953  13.898  1.00  0.00     0.279 HD
ATOM     39  H52 UNL     1     -28.360   2.613  12.676  1.00  0.00     0.279 HD
ATOM     40  H51 UNL     1     -29.434   1.339  12.372  1.00  0.00     0.279 HD
ENDBRANCH  36  37
BRANCH  36  41
HETATM   41  O6  UNL     1     -27.646   0.100  14.282  1.00  0.00    -0.355 OA
ATOM     42  H6  UNL     1     -28.482  -0.307  14.478  1.00  0.00     0.213 HD
ENDBRANCH  36  41
ENDBRANCH  34  36
ENDBRANCH  24  26
ENDBRANCH  20  24
ENDBRANCH   1  20
BRANCH   6  43
HETATM   43  N8  UNL     1     -27.186   7.302  11.223  1.00  0.00    -0.039 N 
ATOM     44  H83 UNL     1     -27.964   7.122  11.858  1.00  0.00     0.279 HD
ATOM     45  H82 UNL     1     -26.449   7.385  11.923  1.00  0.00     0.279 HD
ATOM     46  H81 UNL     1     -27.312   8.160  10.685  1.00  0.00     0.279 HD
ENDBRANCH   6  43
TORSDOF 13
ENDMDL
MODEL 2
REMARK VINA RESULT: -6.017812114      1.054      1.153
REMARK  13 active torsions:
REMARK  status: ('A' for Active; 'I' for Inactive)
REMARK    1  A    between atoms: O1_2  and  C2_3 
REMARK    2  A    between atoms: C2_3  and  C3_4 
REMARK    3  A    between atoms: C2_3  and  N1_8 
REMARK    4  A    between atoms: C3_4  and  C4_5 
REMARK    5  A    between atoms: N1_8  and  C6_10 
REMARK    6  A    between atoms: C6_10  and  C7_11 
REMARK    7  A    between atoms: C7_11  and  O3_13 
REMARK    8  A    between atoms: C7_11  and  N2_15 
REMARK    9  A    between atoms: N2_15  and  C9_17 
REMARK   10  A    between atoms: N4_25  and  C12_27 
REMARK   11  A    between atoms: C12_27  and  N5_28 
REMARK   12  A    between atoms: C12_27  and  O6_32 
REMARK   13  A    between atoms: C13_38  and  N8_39 
ROOT
HETATM    1  C6  UNL     1     -24.761   4.191   9.992  1.00  0.00     0.248 C 
HETATM    2  N6  UNL     1     -26.017   3.372  10.072  1.00  0.00    -0.296 N 
ATOM      3  H6  UNL     1     -26.094   2.453   9.636  1.00  0.00     0.183 HD
HETATM    4  N7  UNL     1     -27.031   3.925  10.752  1.00  0.00    -0.291 N 
ATOM      5  H7  UNL     1     -27.422   3.438  11.558  1.00  0.00     0.184 HD
HETATM    6  C13 UNL     1     -27.566   5.180  10.364  1.00  0.00     0.403 C 
HETATM    7  N9  UNL     1     -26.419   6.071  10.158  1.00  0.00    -0.313 N 
ATOM      8  H9  UNL     1     -26.458   7.053  10.430  1.00  0.00     0.166 HD
HETATM    9  C14 UNL     1     -25.224   5.507   9.554  1.00  0.00     0.276 C 
HETATM   10  O7  UNL     1     -24.714   6.246   8.688  1.00  0.00    -0.268 OA
ENDROOT
BRANCH   1  11
HETATM   11  N1  UNL     1     -23.991   3.511   8.938  1.00  0.00    -0.358 N 
ATOM     12  H1  UNL     1     -22.983   3.635   8.842  1.00  0.00     0.159 HD
BRANCH  11  13
HETATM   13  C2  UNL     1     -24.730   2.676   8.064  1.00  0.00     0.225 C 
BRANCH  13  14
HETATM   14  O1  UNL     1     -24.703   1.309   8.386  1.00  0.00    -0.371 OA
HETATM   15  C1  UNL     1     -25.440   0.579   7.505  1.00  0.00     0.204 C 
ENDBRANCH  13  14
BRANCH  13  16
HETATM   16  C3  UNL     1     -24.052   2.700   6.681  1.00  0.00     0.131 C 
BRANCH  16  17
HETATM   17  C4  UNL     1     -23.778   4.012   6.143  1.00  0.00     0.127 C 
HETATM   18  C5  UNL     1     -24.727   4.588   5.133  1.00  0.00     0.091 C 
HETATM   19  O2  UNL     1     -22.828   4.677   6.460  1.00  0.00    -0.298 OA
ENDBRANCH  16  17
ENDBRANCH  13  16
ENDBRANCH  11  13
ENDBRANCH   1  11
BRANCH   1  20
HETATM   20  C7  UNL     1     -24.036   4.019  11.263  1.00  0.00     0.180 C 
HETATM   21  C8  UNL     1     -22.501   4.145  11.066  1.00  0.00     0.076 C 
BRANCH  20  22
HETATM   22  O3  UNL     1     -24.297   5.336  11.917  1.00  0.00    -0.367 OA
ATOM     23  H3  UNL     1     -23.518   5.428  12.453  1.00  0.00     0.212 HD
ENDBRANCH  20  22
BRANCH  20  24
HETATM   24  N2  UNL     1     -24.305   3.129  12.276  1.00  0.00    -0.376 N 
ATOM     25  H2  UNL     1     -24.948   3.500  12.976  1.00  0.00     0.157 HD
BRANCH  24  26
HETATM   26  C9  UNL     1     -23.895   1.860  12.544  1.00  0.00     0.163 C 
HETATM   27  C10 UNL     1     -23.138   0.974  11.628  1.00  0.00     0.196 C 
HETATM   28  S1  UNL     1     -22.933  -0.423  12.786  1.00  0.00     0.234 S 
HETATM   29  O4  UNL     1     -22.855  -1.708  12.068  1.00  0.00    -0.206 OA
HETATM   30  O5  UNL     1     -21.776  -0.147  13.686  1.00  0.00    -0.206 OA
HETATM   31  N3  UNL     1     -24.442  -0.186  13.607  1.00  0.00    -0.272 N 
HETATM   32  C11 UNL     1     -25.039   0.945  12.992  1.00  0.00     0.113 C 
ATOM     33  H3  UNL     1     -24.821  -0.743  14.372  1.00  0.00     0.180 HD
HETATM   34  N4  UNL     1     -26.275   1.241  12.812  1.00  0.00    -0.329 N 
ATOM     35  H4  UNL     1     -26.445   2.133  12.346  1.00  0.00     0.165 HD
BRANCH  34  36
HETATM   36  C12 UNL     1     -27.435   0.516  13.162  1.00  0.00     0.424 C 
BRANCH  36  37
HETATM   37  N5  UNL     1     -28.595   1.400  13.117  1.00  0.00    -0.035 N 
ATOM     38  H53 UNL     1     -28.830   1.678  12.164  1.00  0.00     0.279 HD
ATOM     39  H52 UNL     1     -29.461   0.912  13.344  1.00  0.00     0.279 HD
ATOM     40  H51 UNL     1     -28.434   2.203  13.725  1.00  0.00     0.279 HD
ENDBRANCH  36  37
BRANCH  36  41
HETATM   41  O6  UNL     1     -27.368  -0.058  14.426  1.00  0.00    -0.355 OA
ATOM     42  H6  UNL     1     -27.136  -0.979  14.411  1.00  0.00     0.213 HD
ENDBRANCH  36  41
ENDBRANCH  34  36
ENDBRANCH  24  26
ENDBRANCH  20  24
ENDBRANCH   1  20
BRANCH   6  43
HETATM   43  N8  UNL     1     -28.307   5.746  11.499  1.00  0.00    -0.039 N 
ATOM     44  H83 UNL     1     -29.311   5.790  11.327  1.00  0.00     0.279 HD
ATOM     45  H82 UNL     1     -28.328   5.119  12.304  1.00  0.00     0.279 HD
ATOM     46  H81 UNL     1     -27.909   6.658  11.726  1.00  0.00     0.279 HD
ENDBRANCH   6  43
TORSDOF 13
ENDMDL
MODEL 3
REMARK VINA RESULT: -5.884301722      1.979      4.948
REMARK  13 active torsions:
REMARK  status: ('A' for Active; 'I' for Inactive)
REMARK    1  A    between atoms: O1_2  and  C2_3 
REMARK    2  A    between atoms: C2_3  and  C3_4 
REMARK    3  A    between atoms: C2_3  and  N1_8 
REMARK    4  A    between atoms: C3_4  and  C4_5 
REMARK    5  A    between atoms: N1_8  and  C6_10 
REMARK    6  A    between atoms: C6_10  and  C7_11 
REMARK    7  A    between atoms: C7_11  and  O3_13 
REMARK    8  A    between atoms: C7_11  and  N2_15 
REMARK    9  A    between atoms: N2_15  and  C9_17 
REMARK   10  A    between atoms: N4_25  and  C12_27 
REMARK   11  A    between atoms: C12_27  and  N5_28 
REMARK   12  A    between atoms: C12_27  and  O6_32 
REMARK   13  A    between atoms: C13_38  and  N8_39 
ROOT
HETATM    1  C6  UNL     1     -27.927   2.095  12.019  1.00  0.00     0.248 C 
HETATM    2  N6  UNL     1     -28.464   1.404  10.798  1.00  0.00    -0.296 N 
ATOM      3  H6  UNL     1     -28.131   1.625   9.860  1.00  0.00     0.183 HD
HETATM    4  N7  UNL     1     -29.409   0.480  11.021  1.00  0.00    -0.291 N 
ATOM      5  H7  UNL     1     -29.256  -0.481  10.714  1.00  0.00     0.184 HD
HETATM    6  C13 UNL     1     -30.619   0.822  11.676  1.00  0.00     0.403 C 
HETATM    7  N9  UNL     1     -30.240   1.595  12.864  1.00  0.00    -0.313 N 
ATOM      8  H9  UNL     1     -30.741   1.488  13.745  1.00  0.00     0.166 HD
HETATM    9  C14 UNL     1     -29.125   2.520  12.741  1.00  0.00     0.276 C 
HETATM   10  O7  UNL     1     -29.336   3.621  13.289  1.00  0.00    -0.268 OA
ENDROOT
BRANCH   1  11
HETATM   11  N1  UNL     1     -27.202   3.243  11.455  1.00  0.00    -0.358 N 
ATOM     12  H1  UNL     1     -26.829   3.988  12.044  1.00  0.00     0.159 HD
BRANCH  11  13
HETATM   13  C2  UNL     1     -27.049   3.257  10.047  1.00  0.00     0.225 C 
BRANCH  13  14
HETATM   14  O1  UNL     1     -25.864   2.670   9.572  1.00  0.00    -0.371 OA
HETATM   15  C1  UNL     1     -25.976   2.321   8.261  1.00  0.00     0.204 C 
ENDBRANCH  13  14
BRANCH  13  16
HETATM   16  C3  UNL     1     -26.897   4.719   9.588  1.00  0.00     0.131 C 
BRANCH  16  17
HETATM   17  C4  UNL     1     -26.680   5.684  10.641  1.00  0.00     0.127 C 
HETATM   18  C5  UNL     1     -27.742   6.711  10.906  1.00  0.00     0.091 C 
HETATM   19  O2  UNL     1     -25.691   5.714  11.324  1.00  0.00    -0.298 OA
ENDBRANCH  16  17
ENDBRANCH  13  16
ENDBRANCH  11  13
ENDBRANCH   1  11
BRANCH   1  20
HETATM   20  C7  UNL     1     -26.938   1.197  12.640  1.00  0.00     0.180 C 
HETATM   21  C8  UNL     1     -27.612   0.184  13.605  1.00  0.00     0.076 C 
BRANCH  20  22
HETATM   22  O3  UNL     1     -26.641   0.275  11.503  1.00  0.00    -0.367 OA
ATOM     23  H3  UNL     1     -25.775  -0.031  11.742  1.00  0.00     0.212 HD
ENDBRANCH  20  22
BRANCH  20  24
HETATM   24  N2  UNL     1     -25.681   1.512  13.099  1.00  0.00    -0.376 N 
ATOM     25  H2  UNL     1     -25.667   2.343  13.690  1.00  0.00     0.157 HD
BRANCH  24  26
HETATM   26  C9  UNL     1     -24.452   0.951  12.933  1.00  0.00     0.163 C 
HETATM   27  C10 UNL     1     -23.555   0.476  14.012  1.00  0.00     0.196 C 
HETATM   28  S1  UNL     1     -22.241  -0.190  12.933  1.00  0.00     0.234 S 
HETATM   29  O4  UNL     1     -20.921  -0.117  13.587  1.00  0.00    -0.206 OA
HETATM   30  O5  UNL     1     -22.629  -1.555  12.476  1.00  0.00    -0.206 OA
HETATM   31  N3  UNL     1     -22.447   0.981  11.671  1.00  0.00    -0.272 N 
HETATM   32  C11 UNL     1     -23.507   1.822  12.098  1.00  0.00     0.113 C 
ATOM     33  H3  UNL     1     -21.917   1.050  10.803  1.00  0.00     0.180 HD
HETATM   34  N4  UNL     1     -23.728   3.066  11.872  1.00  0.00    -0.329 N 
ATOM     35  H4  UNL     1     -24.581   3.439  12.289  1.00  0.00     0.165 HD
BRANCH  34  36
HETATM   36  C12 UNL     1     -22.966   3.996  11.132  1.00  0.00     0.424 C 
BRANCH  36  37
HETATM   37  N5  UNL     1     -22.927   5.270  11.841  1.00  0.00    -0.035 N 
ATOM     38  H53 UNL     1     -23.819   5.491  12.285  1.00  0.00     0.279 HD
ATOM     39  H52 UNL     1     -22.353   5.224  12.683  1.00  0.00     0.279 HD
ATOM     40  H51 UNL     1     -22.620   6.005  11.205  1.00  0.00     0.279 HD
ENDBRANCH  36  37
BRANCH  36  41
HETATM   41  O6  UNL     1     -23.458   4.220   9.852  1.00  0.00    -0.355 OA
ATOM     42  H6  UNL     1     -23.497   5.140   9.617  1.00  0.00     0.213 HD
ENDBRANCH  36  41
ENDBRANCH  34  36
ENDBRANCH  24  26
ENDBRANCH  20  24
ENDBRANCH   1  20
BRANCH   6  43
HETATM   43  N8  UNL     1     -31.240  -0.408  12.188  1.00  0.00    -0.039 N 
ATOM     44  H83 UNL     1     -30.801  -1.251  11.817  1.00  0.00     0.279 HD
ATOM     45  H82 UNL     1     -31.036  -0.567  13.175  1.00  0.00     0.279 HD
ATOM     46  H81 UNL     1     -32.241  -0.372  11.997  1.00  0.00     0.279 HD
ENDBRANCH   6  43
TORSDOF 13
ENDMDL
MODEL 4
REMARK VINA RESULT: -5.849952253      3.310      5.855
REMARK  13 active torsions:
REMARK  status: ('A' for Active; 'I' for Inactive)
REMARK    1  A    between atoms: O1_2  and  C2_3 
REMARK    2  A    between atoms: C2_3  and  C3_4 
REMARK    3  A    between atoms: C2_3  and  N1_8 
REMARK    4  A    between atoms: C3_4  and  C4_5 
REMARK    5  A    between atoms: N1_8  and  C6_10 
REMARK    6  A    between atoms: C6_10  and  C7_11 
REMARK    7  A    between atoms: C7_11  and  O3_13 
REMARK    8  A    between atoms: C7_11  and  N2_15 
REMARK    9  A    between atoms: N2_15  and  C9_17 
REMARK   10  A    between atoms: N4_25  and  C12_27 
REMARK   11  A    between atoms: C12_27  and  N5_28 
REMARK   12  A    between atoms: C12_27  and  O6_32 
REMARK   13  A    between atoms: C13_38  and  N8_39 
ROOT
HETATM    1  C6  UNL     1     -24.139   0.018  11.331  1.00  0.00     0.248 C 
HETATM    2  N6  UNL     1     -23.813   0.692  12.633  1.00  0.00    -0.296 N 
ATOM      3  H6  UNL     1     -24.331   1.504  12.968  1.00  0.00     0.183 HD
HETATM    4  N7  UNL     1     -22.799   0.157  13.327  1.00  0.00    -0.291 N 
ATOM      5  H7  UNL     1     -22.960  -0.181  14.275  1.00  0.00     0.184 HD
HETATM    6  C13 UNL     1     -21.503   0.056  12.758  1.00  0.00     0.403 C 
HETATM    7  N9  UNL     1     -21.686  -0.514  11.419  1.00  0.00    -0.313 N 
ATOM      8  H9  UNL     1     -21.019  -1.184  11.036  1.00  0.00     0.166 HD
HETATM    9  C14 UNL     1     -22.847  -0.090  10.655  1.00  0.00     0.276 C 
HETATM   10  O7  UNL     1     -22.589   0.147   9.457  1.00  0.00    -0.268 OA
ENDROOT
BRANCH   1  11
HETATM   11  N1  UNL     1     -25.015   0.994  10.665  1.00  0.00    -0.358 N 
ATOM     12  H1  UNL     1     -25.473   0.790   9.777  1.00  0.00     0.159 HD
BRANCH  11  13
HETATM   13  C2  UNL     1     -25.187   2.234  11.328  1.00  0.00     0.225 C 
BRANCH  13  14
HETATM   14  O1  UNL     1     -26.500   2.736  11.319  1.00  0.00    -0.371 OA
HETATM   15  C1  UNL     1     -27.185   2.309  10.223  1.00  0.00     0.204 C 
ENDBRANCH  13  14
BRANCH  13  16
HETATM   16  C3  UNL     1     -24.419   3.315  10.544  1.00  0.00     0.131 C 
BRANCH  16  17
HETATM   17  C4  UNL     1     -23.223   3.816  11.181  1.00  0.00     0.127 C 
HETATM   18  C5  UNL     1     -23.234   5.210  11.737  1.00  0.00     0.091 C 
HETATM   19  O2  UNL     1     -22.211   3.177  11.294  1.00  0.00    -0.298 OA
ENDBRANCH  16  17
ENDBRANCH  13  16
ENDBRANCH  11  13
ENDBRANCH   1  11
BRANCH   1  20
HETATM   20  C7  UNL     1     -24.944  -1.177  11.636  1.00  0.00     0.180 C 
HETATM   21  C8  UNL     1     -25.421  -1.891  10.343  1.00  0.00     0.076 C 
BRANCH  20  22
HETATM   22  O3  UNL     1     -23.879  -2.136  12.054  1.00  0.00    -0.367 OA
ATOM     23  H3  UNL     1     -24.291  -2.547  12.804  1.00  0.00     0.212 HD
ENDBRANCH  20  22
BRANCH  20  24
HETATM   24  N2  UNL     1     -25.885  -1.332  12.628  1.00  0.00    -0.376 N 
ATOM     25  H2  UNL     1     -25.520  -1.800  13.457  1.00  0.00     0.157 HD
BRANCH  24  26
HETATM   26  C9  UNL     1     -27.198  -0.994  12.737  1.00  0.00     0.163 C 
HETATM   27  C10 UNL     1     -27.731   0.268  13.302  1.00  0.00     0.196 C 
HETATM   28  S1  UNL     1     -29.495  -0.066  12.969  1.00  0.00     0.234 S 
HETATM   29  O4  UNL     1     -30.364   0.593  13.963  1.00  0.00    -0.206 OA
HETATM   30  O5  UNL     1     -29.801   0.287  11.552  1.00  0.00    -0.206 OA
HETATM   31  N3  UNL     1     -29.388  -1.783  13.183  1.00  0.00    -0.272 N 
HETATM   32  C11 UNL     1     -28.026  -2.047  13.482  1.00  0.00     0.113 C 
ATOM     33  H3  UNL     1     -30.145  -2.462  13.109  1.00  0.00     0.180 HD
HETATM   34  N4  UNL     1     -27.492  -2.964  14.205  1.00  0.00    -0.329 N 
ATOM     35  H4  UNL     1     -26.474  -2.944  14.251  1.00  0.00     0.165 HD
BRANCH  34  36
HETATM   36  C12 UNL     1     -28.107  -3.997  14.946  1.00  0.00     0.424 C 
BRANCH  36  37
HETATM   37  N5  UNL     1     -28.012  -3.697  16.371  1.00  0.00    -0.035 N 
ATOM     38  H53 UNL     1     -27.255  -3.046  16.577  1.00  0.00     0.279 HD
ATOM     39  H52 UNL     1     -28.790  -3.124  16.697  1.00  0.00     0.279 HD
ATOM     40  H51 UNL     1     -27.928  -4.567  16.897  1.00  0.00     0.279 HD
ENDBRANCH  36  37
BRANCH  36  41
HETATM   41  O6  UNL     1     -27.546  -5.248  14.721  1.00  0.00    -0.355 OA
ATOM     42  H6  UNL     1     -27.184  -5.646  15.504  1.00  0.00     0.213 HD
ENDBRANCH  36  41
ENDBRANCH  34  36
ENDBRANCH  24  26
ENDBRANCH  20  24
ENDBRANCH   1  20
BRANCH   6  43
HETATM   43  N8  UNL     1     -20.736  -0.945  13.512  1.00  0.00    -0.039 N 
ATOM     44  H83 UNL     1     -21.049  -1.028  14.480  1.00  0.00     0.279 HD
ATOM     45  H82 UNL     1     -20.941  -1.899  13.215  1.00  0.00     0.279 HD
ATOM     46  H81 UNL     1     -19.745  -0.718  13.440  1.00  0.00     0.279 HD
ENDBRANCH   6  43
TORSDOF 13
ENDMDL
MODEL 5
REMARK VINA RESULT: -5.842162707      2.189      3.422
REMARK  13 active torsions:
REMARK  status: ('A' for Active; 'I' for Inactive)
REMARK    1  A    between atoms: O1_2  and  C2_3 
REMARK    2  A    between atoms: C2_3  and  C3_4 
REMARK    3  A    between atoms: C2_3  and  N1_8 
REMARK    4  A    between atoms: C3_4  and  C4_5 
REMARK    5  A    between atoms: N1_8  and  C6_10 
REMARK    6  A    between atoms: C6_10  and  C7_11 
REMARK    7  A    between atoms: C7_11  and  O3_13 
REMARK    8  A    between atoms: C7_11  and  N2_15 
REMARK    9  A    between atoms: N2_15  and  C9_17 
REMARK   10  A    between atoms: N4_25  and  C12_27 
REMARK   11  A    between atoms: C12_27  and  N5_28 
REMARK   12  A    between atoms: C12_27  and  O6_32 
REMARK   13  A    between atoms: C13_38  and  N8_39 
ROOT
HETATM    1  C6  UNL     1     -24.583   3.889   9.957  1.00  0.00     0.248 C 
HETATM    2  N6  UNL     1     -25.455   2.724   9.585  1.00  0.00    -0.296 N 
ATOM      3  H6  UNL     1     -25.398   2.275   8.671  1.00  0.00     0.183 HD
HETATM    4  N7  UNL     1     -26.311   2.312  10.530  1.00  0.00    -0.291 N 
ATOM      5  H7  UNL     1     -26.266   1.351  10.867  1.00  0.00     0.184 HD
HETATM    6  C13 UNL     1     -27.281   3.197  11.067  1.00  0.00     0.403 C 
HETATM    7  N9  UNL     1     -26.569   4.437  11.396  1.00  0.00    -0.313 N 
ATOM      8  H9  UNL     1     -26.801   4.973  12.232  1.00  0.00     0.166 HD
HETATM    9  C14 UNL     1     -25.521   4.877  10.489  1.00  0.00     0.276 C 
HETATM   10  O7  UNL     1     -25.552   6.103  10.259  1.00  0.00    -0.268 OA
ENDROOT
BRANCH   1  11
HETATM   11  N1  UNL     1     -24.031   4.314   8.662  1.00  0.00    -0.358 N 
ATOM     12  H1  UNL     1     -23.402   5.114   8.580  1.00  0.00     0.159 HD
BRANCH  11  13
HETATM   13  C2  UNL     1     -24.420   3.550   7.535  1.00  0.00     0.225 C 
BRANCH  13  14
HETATM   14  O1  UNL     1     -23.373   2.875   6.884  1.00  0.00    -0.371 OA
HETATM   15  C1  UNL     1     -22.975   3.540   5.765  1.00  0.00     0.204 C 
ENDBRANCH  13  14
BRANCH  13  16
HETATM   16  C3  UNL     1     -24.916   4.515   6.441  1.00  0.00     0.131 C 
BRANCH  16  17
HETATM   17  C4  UNL     1     -25.963   5.426   6.841  1.00  0.00     0.127 C 
HETATM   18  C5  UNL     1     -27.340   4.880   7.079  1.00  0.00     0.091 C 
HETATM   19  O2  UNL     1     -25.795   6.606   6.997  1.00  0.00    -0.298 OA
ENDBRANCH  16  17
ENDBRANCH  13  16
ENDBRANCH  11  13
ENDBRANCH   1  11
BRANCH   1  20
HETATM   20  C7  UNL     1     -23.472   3.372  10.775  1.00  0.00     0.180 C 
HETATM   21  C8  UNL     1     -22.433   4.479  11.092  1.00  0.00     0.076 C 
BRANCH  20  22
HETATM   22  O3  UNL     1     -24.128   3.275  12.113  1.00  0.00    -0.367 OA
ATOM     23  H3  UNL     1     -24.312   4.190  12.289  1.00  0.00     0.212 HD
ENDBRANCH  20  22
BRANCH  20  24
HETATM   24  N2  UNL     1     -22.840   2.155  10.668  1.00  0.00    -0.376 N 
ATOM     25  H2  UNL     1     -22.371   2.024   9.772  1.00  0.00     0.157 HD
BRANCH  24  26
HETATM   26  C9  UNL     1     -22.707   1.090  11.504  1.00  0.00     0.163 C 
HETATM   27  C10 UNL     1     -21.464   0.670  12.193  1.00  0.00     0.196 C 
HETATM   28  S1  UNL     1     -22.190  -0.712  13.140  1.00  0.00     0.234 S 
HETATM   29  O4  UNL     1     -21.196  -1.771  13.393  1.00  0.00    -0.206 OA
HETATM   30  O5  UNL     1     -22.844  -0.174  14.368  1.00  0.00    -0.206 OA
HETATM   31  N3  UNL     1     -23.363  -1.145  11.939  1.00  0.00    -0.272 N 
HETATM   32  C11 UNL     1     -23.178  -0.225  10.874  1.00  0.00     0.113 C 
ATOM     33  H3  UNL     1     -24.044  -1.902  11.987  1.00  0.00     0.180 HD
HETATM   34  N4  UNL     1     -23.355  -0.365   9.611  1.00  0.00    -0.329 N 
ATOM     35  H4  UNL     1     -23.160   0.465   9.050  1.00  0.00     0.165 HD
BRANCH  34  36
HETATM   36  C12 UNL     1     -23.781  -1.496   8.881  1.00  0.00     0.424 C 
BRANCH  36  37
HETATM   37  N5  UNL     1     -25.237  -1.580   8.918  1.00  0.00    -0.035 N 
ATOM     38  H53 UNL     1     -25.599  -2.290   8.281  1.00  0.00     0.279 HD
ATOM     39  H52 UNL     1     -25.578  -1.981   9.792  1.00  0.00     0.279 HD
ATOM     40  H51 UNL     1     -25.636  -0.659   8.735  1.00  0.00     0.279 HD
ENDBRANCH  36  37
BRANCH  36  41
HETATM   41  O6  UNL     1     -23.260  -2.692   9.360  1.00  0.00    -0.355 OA
ATOM     42  H6  UNL     1     -23.744  -3.458   9.073  1.00  0.00     0.213 HD
ENDBRANCH  36  41
ENDBRANCH  34  36
ENDBRANCH  24  26
ENDBRANCH  20  24
ENDBRANCH   1  20
BRANCH   6  43
HETATM   43  N8  UNL     1     -27.749   2.658  12.351  1.00  0.00    -0.039 N 
ATOM     44  H83 UNL     1     -27.553   1.662  12.451  1.00  0.00     0.279 HD
ATOM     45  H82 UNL     1     -27.193   2.991  13.140  1.00  0.00     0.279 HD
ATOM     46  H81 UNL     1     -28.740   2.874  12.454  1.00  0.00     0.279 HD
ENDBRANCH   6  43
TORSDOF 13
ENDMDL
