MODEL 1
REMARK VINA RESULT: -9.289430305      0.000      0.000
REMARK  13 active torsions:
REMARK  status: ('A' for Active; 'I' for Inactive)
REMARK    1  A    between atoms: C2_2  and  C3_3 
REMARK    2  A    between atoms: C3_3  and  C4_4 
REMARK    3  A    between atoms: C4_4  and  C5_5 
REMARK    4  A    between atoms: C5_5  and  C6_6 
REMARK    5  A    between atoms: C6_6  and  N1_7 
REMARK    6  A    between atoms: N1_7  and  C7_9 
REMARK    7  A    between atoms: C7_9  and  N2_10 
REMARK    8  A    between atoms: C7_9  and  C19_31 
REMARK    9  A    between atoms: N2_10  and  C8_12 
REMARK   10  A    between atoms: C8_12  and  O1_13 
REMARK   11  A    between atoms: C9_15  and  S1_16 
REMARK   12  A    between atoms: S1_16  and  C10_17 
REMARK       I    between atoms: C19_31  and  N5_33 
REMARK   13  A    between atoms: N5_33  and  C20_35 
ROOT
HETATM    1  C7  UNL     1      -8.103  16.908  25.917  1.00  0.00     0.172 C 
ENDROOT
BRANCH   1   2
HETATM    2  N1  UNL     1      -7.567  18.164  26.246  1.00  0.00    -0.372 N 
ATOM      3  H1  UNL     1      -8.292  18.861  26.411  1.00  0.00     0.161 HD
BRANCH   2   4
HETATM    4  C6  UNL     1      -6.323  18.674  26.398  1.00  0.00     0.121 C 
BRANCH   4   5
HETATM    5  C5  UNL     1      -5.610  17.746  27.434  1.00  0.00     0.020 C 
BRANCH   5   6
HETATM    6  C4  UNL     1      -4.215  17.421  27.056  1.00  0.00     0.002 C 
BRANCH   6   7
HETATM    7  C3  UNL     1      -4.098  17.790  25.558  1.00  0.00    -0.000 C 
BRANCH   7   8
HETATM    8  C2  UNL     1      -3.673  16.656  24.703  1.00  0.00    -0.005 C 
HETATM    9  C1  UNL     1      -2.603  17.000  23.695  1.00  0.00     0.005 C 
ENDBRANCH   7   8
ENDBRANCH   6   7
ENDBRANCH   5   6
ENDBRANCH   4   5
ENDBRANCH   2   4
ENDBRANCH   1   2
BRANCH   1  10
HETATM   10  N2  UNL     1      -9.517  16.959  26.244  1.00  0.00    -0.319 N 
ATOM     11  H2  UNL     1      -9.914  17.547  26.976  1.00  0.00     0.169 HD
BRANCH  10  12
HETATM   12  C8  UNL     1     -10.292  16.077  25.406  1.00  0.00     0.148 C 
HETATM   13  C9  UNL     1     -10.922  14.819  25.520  1.00  0.00     0.107 C 
BRANCH  12  14
HETATM   14  O1  UNL     1     -10.425  16.618  24.192  1.00  0.00    -0.346 OA
ATOM     15  H1  UNL     1     -10.913  16.025  23.631  1.00  0.00     0.219 HD
ENDBRANCH  12  14
BRANCH  13  16
HETATM   16  S1  UNL     1     -10.305  13.655  26.679  1.00  0.00    -0.078 SA
BRANCH  16  17
HETATM   17  C10 UNL     1     -10.767  13.846  28.363  1.00  0.00     0.096 A 
HETATM   18  N3  UNL     1      -9.716  13.970  29.278  1.00  0.00    -0.351 N 
HETATM   19  C11 UNL     1      -9.922  14.206  30.538  1.00  0.00     0.033 A 
ATOM     20  H3  UNL     1      -8.757  13.871  28.944  1.00  0.00     0.166 HD
HETATM   21  C12 UNL     1     -11.218  14.343  31.041  1.00  0.00     0.039 A 
HETATM   22  C18 UNL     1      -8.780  14.302  31.502  1.00  0.00     0.066 C 
HETATM   23  N4  UNL     1     -12.241  14.224  30.176  1.00  0.00    -0.359 N 
HETATM   24  C15 UNL     1     -11.376  14.619  32.473  1.00  0.00     0.137 C 
HETATM   25  C13 UNL     1     -12.028  13.972  28.835  1.00  0.00     0.039 A 
ATOM     26  H4  UNL     1     -13.197  14.321  30.519  1.00  0.00     0.165 HD
HETATM   27  C14 UNL     1     -13.222  13.863  27.945  1.00  0.00     0.071 C 
HETATM   28  C16 UNL     1     -10.298  15.490  33.010  1.00  0.00     0.133 C 
HETATM   29  O2  UNL     1     -10.475  16.142  34.000  1.00  0.00    -0.298 OA
HETATM   30  C17 UNL     1      -8.971  15.559  32.321  1.00  0.00     0.084 C 
ENDBRANCH  16  17
ENDBRANCH  13  16
ENDBRANCH  10  12
ENDBRANCH   1  10
BRANCH   1  31
HETATM   31  C19 UNL     1      -7.521  16.159  24.878  1.00  0.00     0.289 C 
HETATM   32  O3  UNL     1      -6.906  15.074  25.212  1.00  0.00    -0.264 OA
HETATM   33  N5  UNL     1      -7.532  16.525  23.526  1.00  0.00    -0.326 N 
ATOM     34  H5  UNL     1      -8.097  17.354  23.345  1.00  0.00     0.168 HD
BRANCH  33  35
HETATM   35  C20 UNL     1      -6.938  16.003  22.360  1.00  0.00     0.013 C 
HETATM   36  C21 UNL     1      -5.832  16.835  21.835  1.00  0.00     0.069 C 
HETATM   37  C22 UNL     1      -6.389  17.801  20.791  1.00  0.00     0.147 C 
HETATM   38  S2  UNL     1      -7.545  16.711  19.960  1.00  0.00     0.158 S 
HETATM   39  O4  UNL     1      -8.836  17.349  19.633  1.00  0.00    -0.227 OA
HETATM   40  O5  UNL     1      -6.867  16.155  18.728  1.00  0.00    -0.227 OA
HETATM   41  C23 UNL     1      -7.685  15.442  21.229  1.00  0.00     0.095 C 
HETATM   42  C24 UNL     1      -9.040  14.876  21.393  1.00  0.00     0.038 C 
HETATM   43  C25 UNL     1      -6.809  14.243  20.683  1.00  0.00     0.038 C 
ENDBRANCH  33  35
ENDBRANCH   1  31
TORSDOF 13
ENDMDL
MODEL 2
REMARK VINA RESULT: -9.256380623      2.757      9.900
REMARK  13 active torsions:
REMARK  status: ('A' for Active; 'I' for Inactive)
REMARK    1  A    between atoms: C2_2  and  C3_3 
REMARK    2  A    between atoms: C3_3  and  C4_4 
REMARK    3  A    between atoms: C4_4  and  C5_5 
REMARK    4  A    between atoms: C5_5  and  C6_6 
REMARK    5  A    between atoms: C6_6  and  N1_7 
REMARK    6  A    between atoms: N1_7  and  C7_9 
REMARK    7  A    between atoms: C7_9  and  N2_10 
REMARK    8  A    between atoms: C7_9  and  C19_31 
REMARK    9  A    between atoms: N2_10  and  C8_12 
REMARK   10  A    between atoms: C8_12  and  O1_13 
REMARK   11  A    between atoms: C9_15  and  S1_16 
REMARK   12  A    between atoms: S1_16  and  C10_17 
REMARK       I    between atoms: C19_31  and  N5_33 
REMARK   13  A    between atoms: N5_33  and  C20_35 
ROOT
HETATM    1  C7  UNL     1      -9.470  14.208  30.000  1.00  0.00     0.172 C 
ENDROOT
BRANCH   1   2
HETATM    2  N1  UNL     1      -8.705  13.608  31.015  1.00  0.00    -0.372 N 
ATOM      3  H1  UNL     1      -8.112  12.859  30.659  1.00  0.00     0.161 HD
BRANCH   2   4
HETATM    4  C6  UNL     1      -8.565  13.781  32.349  1.00  0.00     0.121 C 
BRANCH   4   5
HETATM    5  C5  UNL     1      -8.551  15.328  32.575  1.00  0.00     0.020 C 
BRANCH   5   6
HETATM    6  C4  UNL     1      -9.610  15.787  33.502  1.00  0.00     0.002 C 
BRANCH   6   7
HETATM    7  C3  UNL     1     -10.059  14.523  34.274  1.00  0.00    -0.000 C 
BRANCH   7   8
HETATM    8  C2  UNL     1     -11.528  14.336  34.295  1.00  0.00    -0.005 C 
HETATM    9  C1  UNL     1     -11.992  13.110  35.044  1.00  0.00     0.005 C 
ENDBRANCH   7   8
ENDBRANCH   6   7
ENDBRANCH   5   6
ENDBRANCH   4   5
ENDBRANCH   2   4
ENDBRANCH   1   2
BRANCH   1  10
HETATM   10  N2  UNL     1      -8.569  14.452  28.888  1.00  0.00    -0.319 N 
ATOM     11  H2  UNL     1      -8.075  13.718  28.379  1.00  0.00     0.169 HD
BRANCH  10  12
HETATM   12  C8  UNL     1      -8.456  15.857  28.588  1.00  0.00     0.148 C 
HETATM   13  C9  UNL     1      -7.905  16.665  27.569  1.00  0.00     0.107 C 
BRANCH  12  14
HETATM   14  O1  UNL     1      -9.027  16.569  29.564  1.00  0.00    -0.346 OA
ATOM     15  H1  UNL     1      -9.031  16.062  30.367  1.00  0.00     0.219 HD
ENDBRANCH  12  14
BRANCH  13  16
HETATM   16  S1  UNL     1      -6.550  16.057  26.634  1.00  0.00    -0.078 SA
BRANCH  16  17
HETATM   17  C10 UNL     1      -6.477  16.466  24.928  1.00  0.00     0.096 A 
HETATM   18  N3  UNL     1      -7.144  15.595  24.059  1.00  0.00    -0.351 N 
HETATM   19  C11 UNL     1      -7.242  15.832  22.785  1.00  0.00     0.033 A 
ATOM     20  H3  UNL     1      -7.565  14.747  24.438  1.00  0.00     0.166 HD
HETATM   21  C12 UNL     1      -6.676  16.979  22.222  1.00  0.00     0.039 A 
HETATM   22  C18 UNL     1      -7.932  14.868  21.872  1.00  0.00     0.066 C 
HETATM   23  N4  UNL     1      -6.029  17.826  23.043  1.00  0.00    -0.359 N 
HETATM   24  C15 UNL     1      -6.835  17.188  20.780  1.00  0.00     0.137 C 
HETATM   25  C13 UNL     1      -5.922  17.578  24.397  1.00  0.00     0.039 A 
ATOM     26  H4  UNL     1      -5.609  18.671  22.656  1.00  0.00     0.165 HD
HETATM   27  C14 UNL     1      -5.192  18.577  25.235  1.00  0.00     0.071 C 
HETATM   28  C16 UNL     1      -8.147  16.707  20.272  1.00  0.00     0.133 C 
HETATM   29  O2  UNL     1      -8.613  17.153  19.262  1.00  0.00    -0.298 OA
HETATM   30  C17 UNL     1      -8.903  15.653  21.018  1.00  0.00     0.084 C 
ENDBRANCH  16  17
ENDBRANCH  13  16
ENDBRANCH  10  12
ENDBRANCH   1  10
BRANCH   1  31
HETATM   31  C19 UNL     1     -10.842  13.914  29.903  1.00  0.00     0.289 C 
HETATM   32  O3  UNL     1     -11.662  14.780  30.396  1.00  0.00    -0.264 OA
HETATM   33  N5  UNL     1     -11.371  12.743  29.347  1.00  0.00    -0.326 N 
ATOM     34  H5  UNL     1     -10.659  12.150  28.921  1.00  0.00     0.168 HD
BRANCH  33  35
HETATM   35  C20 UNL     1     -12.667  12.200  29.244  1.00  0.00     0.013 C 
HETATM   36  C21 UNL     1     -13.399  12.638  28.034  1.00  0.00     0.069 C 
HETATM   37  C22 UNL     1     -14.237  13.868  28.378  1.00  0.00     0.147 C 
HETATM   38  S2  UNL     1     -14.821  13.388  30.004  1.00  0.00     0.158 S 
HETATM   39  O4  UNL     1     -14.805  14.486  30.992  1.00  0.00    -0.227 OA
HETATM   40  O5  UNL     1     -16.203  12.792  29.852  1.00  0.00    -0.227 OA
HETATM   41  C23 UNL     1     -13.614  12.100  30.360  1.00  0.00     0.095 C 
HETATM   42  C24 UNL     1     -13.162  12.045  31.765  1.00  0.00     0.038 C 
HETATM   43  C25 UNL     1     -14.407  10.749  30.136  1.00  0.00     0.038 C 
ENDBRANCH  33  35
ENDBRANCH   1  31
TORSDOF 13
ENDMDL
MODEL 3
REMARK VINA RESULT: -9.086410769      2.753      4.596
REMARK  13 active torsions:
REMARK  status: ('A' for Active; 'I' for Inactive)
REMARK    1  A    between atoms: C2_2  and  C3_3 
REMARK    2  A    between atoms: C3_3  and  C4_4 
REMARK    3  A    between atoms: C4_4  and  C5_5 
REMARK    4  A    between atoms: C5_5  and  C6_6 
REMARK    5  A    between atoms: C6_6  and  N1_7 
REMARK    6  A    between atoms: N1_7  and  C7_9 
REMARK    7  A    between atoms: C7_9  and  N2_10 
REMARK    8  A    between atoms: C7_9  and  C19_31 
REMARK    9  A    between atoms: N2_10  and  C8_12 
REMARK   10  A    between atoms: C8_12  and  O1_13 
REMARK   11  A    between atoms: C9_15  and  S1_16 
REMARK   12  A    between atoms: S1_16  and  C10_17 
REMARK       I    between atoms: C19_31  and  N5_33 
REMARK   13  A    between atoms: N5_33  and  C20_35 
ROOT
HETATM    1  C7  UNL     1      -5.550  17.074  23.735  1.00  0.00     0.172 C 
ENDROOT
BRANCH   1   2
HETATM    2  N1  UNL     1      -6.323  15.911  23.584  1.00  0.00    -0.372 N 
ATOM      3  H1  UNL     1      -5.759  15.105  23.315  1.00  0.00     0.161 HD
BRANCH   2   4
HETATM    4  C6  UNL     1      -7.634  15.599  23.710  1.00  0.00     0.121 C 
BRANCH   4   5
HETATM    5  C5  UNL     1      -7.835  14.282  22.893  1.00  0.00     0.020 C 
BRANCH   5   6
HETATM    6  C4  UNL     1      -7.947  14.517  21.435  1.00  0.00     0.002 C 
BRANCH   6   7
HETATM    7  C3  UNL     1      -9.070  15.569  21.272  1.00  0.00    -0.000 C 
BRANCH   7   8
HETATM    8  C2  UNL     1      -8.967  16.351  20.018  1.00  0.00    -0.005 C 
HETATM    9  C1  UNL     1      -8.397  15.586  18.848  1.00  0.00     0.005 C 
ENDBRANCH   7   8
ENDBRANCH   6   7
ENDBRANCH   5   6
ENDBRANCH   4   5
ENDBRANCH   2   4
ENDBRANCH   1   2
BRANCH   1  10
HETATM   10  N2  UNL     1      -5.012  17.046  25.084  1.00  0.00    -0.319 N 
ATOM     11  H2  UNL     1      -4.141  16.583  25.343  1.00  0.00     0.169 HD
BRANCH  10  12
HETATM   12  C8  UNL     1      -5.858  17.753  26.012  1.00  0.00     0.148 C 
HETATM   13  C9  UNL     1      -6.595  17.461  27.181  1.00  0.00     0.107 C 
BRANCH  12  14
HETATM   14  O1  UNL     1      -5.968  19.030  25.633  1.00  0.00    -0.346 OA
ATOM     15  H1  UNL     1      -6.856  19.331  25.783  1.00  0.00     0.219 HD
ENDBRANCH  12  14
BRANCH  13  16
HETATM   16  S1  UNL     1      -7.180  15.827  27.437  1.00  0.00    -0.078 SA
BRANCH  16  17
HETATM   17  C10 UNL     1      -8.480  15.591  28.595  1.00  0.00     0.096 A 
HETATM   18  N3  UNL     1      -8.128  14.962  29.794  1.00  0.00    -0.351 N 
HETATM   19  C11 UNL     1      -8.974  14.808  30.767  1.00  0.00     0.033 A 
ATOM     20  H3  UNL     1      -7.176  14.613  29.907  1.00  0.00     0.166 HD
HETATM   21  C12 UNL     1     -10.290  15.266  30.655  1.00  0.00     0.039 A 
HETATM   22  C18 UNL     1      -8.580  14.103  32.028  1.00  0.00     0.066 C 
HETATM   23  N4  UNL     1     -10.646  15.870  29.507  1.00  0.00    -0.359 N 
HETATM   24  C15 UNL     1     -11.188  15.068  31.797  1.00  0.00     0.137 C 
HETATM   25  C13 UNL     1      -9.751  16.036  28.469  1.00  0.00     0.039 A 
ATOM     26  H4  UNL     1     -11.601  16.215  29.402  1.00  0.00     0.165 HD
HETATM   27  C14 UNL     1     -10.231  16.725  27.234  1.00  0.00     0.071 C 
HETATM   28  C16 UNL     1     -10.489  15.194  33.103  1.00  0.00     0.133 C 
HETATM   29  O2  UNL     1     -11.097  15.477  34.097  1.00  0.00    -0.298 OA
HETATM   30  C17 UNL     1      -9.013  14.964  33.194  1.00  0.00     0.084 C 
ENDBRANCH  16  17
ENDBRANCH  13  16
ENDBRANCH  10  12
ENDBRANCH   1  10
BRANCH   1  31
HETATM   31  C19 UNL     1      -4.927  17.640  22.608  1.00  0.00     0.289 C 
HETATM   32  O3  UNL     1      -4.721  18.914  22.631  1.00  0.00    -0.264 OA
HETATM   33  N5  UNL     1      -4.550  16.929  21.461  1.00  0.00    -0.326 N 
ATOM     34  H5  UNL     1      -4.685  15.922  21.558  1.00  0.00     0.168 HD
BRANCH  33  35
HETATM   35  C20 UNL     1      -4.027  17.292  20.205  1.00  0.00     0.013 C 
HETATM   36  C21 UNL     1      -4.941  17.002  19.076  1.00  0.00     0.069 C 
HETATM   37  C22 UNL     1      -4.608  15.622  18.510  1.00  0.00     0.147 C 
HETATM   38  S2  UNL     1      -2.818  15.686  18.597  1.00  0.00     0.158 S 
HETATM   39  O4  UNL     1      -2.199  14.428  19.063  1.00  0.00    -0.227 OA
HETATM   40  O5  UNL     1      -2.294  16.098  17.239  1.00  0.00    -0.227 OA
HETATM   41  C23 UNL     1      -2.648  17.035  19.776  1.00  0.00     0.095 C 
HETATM   42  C24 UNL     1      -1.545  16.876  20.746  1.00  0.00     0.038 C 
HETATM   43  C25 UNL     1      -2.232  18.279  18.890  1.00  0.00     0.038 C 
ENDBRANCH  33  35
ENDBRANCH   1  31
TORSDOF 13
ENDMDL
MODEL 4
REMARK VINA RESULT: -9.072668768      2.362     10.111
REMARK  13 active torsions:
REMARK  status: ('A' for Active; 'I' for Inactive)
REMARK    1  A    between atoms: C2_2  and  C3_3 
REMARK    2  A    between atoms: C3_3  and  C4_4 
REMARK    3  A    between atoms: C4_4  and  C5_5 
REMARK    4  A    between atoms: C5_5  and  C6_6 
REMARK    5  A    between atoms: C6_6  and  N1_7 
REMARK    6  A    between atoms: N1_7  and  C7_9 
REMARK    7  A    between atoms: C7_9  and  N2_10 
REMARK    8  A    between atoms: C7_9  and  C19_31 
REMARK    9  A    between atoms: N2_10  and  C8_12 
REMARK   10  A    between atoms: C8_12  and  O1_13 
REMARK   11  A    between atoms: C9_15  and  S1_16 
REMARK   12  A    between atoms: S1_16  and  C10_17 
REMARK       I    between atoms: C19_31  and  N5_33 
REMARK   13  A    between atoms: N5_33  and  C20_35 
ROOT
HETATM    1  C7  UNL     1     -11.792  14.938  27.609  1.00  0.00     0.172 C 
ENDROOT
BRANCH   1   2
HETATM    2  N1  UNL     1     -13.195  14.873  27.564  1.00  0.00    -0.372 N 
ATOM      3  H1  UNL     1     -13.623  15.797  27.523  1.00  0.00     0.161 HD
BRANCH   2   4
HETATM    4  C6  UNL     1     -14.116  13.881  27.560  1.00  0.00     0.121 C 
BRANCH   4   5
HETATM    5  C5  UNL     1     -14.741  13.881  28.993  1.00  0.00     0.020 C 
BRANCH   5   6
HETATM    6  C4  UNL     1     -14.524  12.609  29.719  1.00  0.00     0.002 C 
BRANCH   6   7
HETATM    7  C3  UNL     1     -13.740  11.704  28.739  1.00  0.00    -0.000 C 
BRANCH   7   8
HETATM    8  C2  UNL     1     -12.723  10.856  29.403  1.00  0.00    -0.005 C 
HETATM    9  C1  UNL     1     -13.281   9.886  30.416  1.00  0.00     0.005 C 
ENDBRANCH   7   8
ENDBRANCH   6   7
ENDBRANCH   5   6
ENDBRANCH   4   5
ENDBRANCH   2   4
ENDBRANCH   1   2
BRANCH   1  10
HETATM   10  N2  UNL     1     -11.417  16.233  27.068  1.00  0.00    -0.319 N 
ATOM     11  H2  UNL     1     -11.970  16.749  26.384  1.00  0.00     0.169 HD
BRANCH  10  12
HETATM   12  C8  UNL     1     -10.168  16.701  27.615  1.00  0.00     0.148 C 
HETATM   13  C9  UNL     1      -8.795  16.618  27.297  1.00  0.00     0.107 C 
BRANCH  12  14
HETATM   14  O1  UNL     1     -10.402  17.388  28.737  1.00  0.00    -0.346 OA
ATOM     15  H1  UNL     1      -9.670  17.282  29.333  1.00  0.00     0.219 HD
ENDBRANCH  12  14
BRANCH  13  16
HETATM   16  S1  UNL     1      -8.213  15.247  26.369  1.00  0.00    -0.078 SA
BRANCH  16  17
HETATM   17  C10 UNL     1      -7.593  15.550  24.754  1.00  0.00     0.096 A 
HETATM   18  N3  UNL     1      -8.444  15.209  23.696  1.00  0.00    -0.351 N 
HETATM   19  C11 UNL     1      -8.143  15.465  22.458  1.00  0.00     0.033 A 
ATOM     20  H3  UNL     1      -9.328  14.745  23.904  1.00  0.00     0.166 HD
HETATM   21  C12 UNL     1      -6.941  16.095  22.126  1.00  0.00     0.039 A 
HETATM   22  C18 UNL     1      -9.056  15.060  21.343  1.00  0.00     0.066 C 
HETATM   23  N4  UNL     1      -6.110  16.427  23.131  1.00  0.00    -0.359 N 
HETATM   24  C15 UNL     1      -6.671  16.361  20.710  1.00  0.00     0.137 C 
HETATM   25  C13 UNL     1      -6.425  16.157  24.448  1.00  0.00     0.039 A 
ATOM     26  H4  UNL     1      -5.227  16.889  22.914  1.00  0.00     0.165 HD
HETATM   27  C14 UNL     1      -5.447  16.569  25.499  1.00  0.00     0.071 C 
HETATM   28  C16 UNL     1      -7.900  16.706  19.948  1.00  0.00     0.133 C 
HETATM   29  O2  UNL     1      -7.833  17.340  18.934  1.00  0.00    -0.298 OA
HETATM   30  C17 UNL     1      -9.241  16.259  20.439  1.00  0.00     0.084 C 
ENDBRANCH  16  17
ENDBRANCH  13  16
ENDBRANCH  10  12
ENDBRANCH   1  10
BRANCH   1  31
HETATM   31  C19 UNL     1     -11.100  14.228  28.606  1.00  0.00     0.289 C 
HETATM   32  O3  UNL     1     -10.379  13.229  28.219  1.00  0.00    -0.264 OA
HETATM   33  N5  UNL     1     -11.166  14.504  29.978  1.00  0.00    -0.326 N 
ATOM     34  H5  UNL     1     -11.699  15.348  30.186  1.00  0.00     0.168 HD
BRANCH  33  35
HETATM   35  C20 UNL     1     -10.660  13.877  31.134  1.00  0.00     0.013 C 
HETATM   36  C21 UNL     1     -11.709  13.274  31.987  1.00  0.00     0.069 C 
HETATM   37  C22 UNL     1     -12.127  14.288  33.051  1.00  0.00     0.147 C 
HETATM   38  S2  UNL     1     -10.522  14.975  33.458  1.00  0.00     0.158 S 
HETATM   39  O4  UNL     1     -10.529  16.442  33.634  1.00  0.00    -0.227 OA
HETATM   40  O5  UNL     1     -10.003  14.266  34.688  1.00  0.00    -0.227 OA
HETATM   41  C23 UNL     1      -9.617  14.444  31.995  1.00  0.00     0.095 C 
HETATM   42  C24 UNL     1      -8.631  15.420  31.487  1.00  0.00     0.038 C 
HETATM   43  C25 UNL     1      -8.752  13.217  32.493  1.00  0.00     0.038 C 
ENDBRANCH  33  35
ENDBRANCH   1  31
TORSDOF 13
ENDMDL
MODEL 5
REMARK VINA RESULT: -9.072483884      2.313      9.927
REMARK  13 active torsions:
REMARK  status: ('A' for Active; 'I' for Inactive)
REMARK    1  A    between atoms: C2_2  and  C3_3 
REMARK    2  A    between atoms: C3_3  and  C4_4 
REMARK    3  A    between atoms: C4_4  and  C5_5 
REMARK    4  A    between atoms: C5_5  and  C6_6 
REMARK    5  A    between atoms: C6_6  and  N1_7 
REMARK    6  A    between atoms: N1_7  and  C7_9 
REMARK    7  A    between atoms: C7_9  and  N2_10 
REMARK    8  A    between atoms: C7_9  and  C19_31 
REMARK    9  A    between atoms: N2_10  and  C8_12 
REMARK   10  A    between atoms: C8_12  and  O1_13 
REMARK   11  A    between atoms: C9_15  and  S1_16 
REMARK   12  A    between atoms: S1_16  and  C10_17 
REMARK       I    between atoms: C19_31  and  N5_33 
REMARK   13  A    between atoms: N5_33  and  C20_35 
ROOT
HETATM    1  C7  UNL     1     -10.825  15.411  27.539  1.00  0.00     0.172 C 
ENDROOT
BRANCH   1   2
HETATM    2  N1  UNL     1     -12.177  15.527  27.176  1.00  0.00    -0.372 N 
ATOM      3  H1  UNL     1     -12.446  16.493  26.995  1.00  0.00     0.161 HD
BRANCH   2   4
HETATM    4  C6  UNL     1     -13.209  14.668  27.008  1.00  0.00     0.121 C 
BRANCH   4   5
HETATM    5  C5  UNL     1     -12.707  13.600  25.984  1.00  0.00     0.020 C 
BRANCH   5   6
HETATM    6  C4  UNL     1     -12.968  12.210  26.422  1.00  0.00     0.002 C 
BRANCH   6   7
HETATM    7  C3  UNL     1     -13.456  12.324  27.886  1.00  0.00    -0.000 C 
BRANCH   7   8
HETATM    8  C2  UNL     1     -12.746  11.415  28.817  1.00  0.00    -0.005 C 
HETATM    9  C1  UNL     1     -13.647  10.669  29.770  1.00  0.00     0.005 C 
ENDBRANCH   7   8
ENDBRANCH   6   7
ENDBRANCH   5   6
ENDBRANCH   4   5
ENDBRANCH   2   4
ENDBRANCH   1   2
BRANCH   1  10
HETATM   10  N2  UNL     1     -10.207  16.696  27.261  1.00  0.00    -0.319 N 
ATOM     11  H2  UNL     1     -10.584  17.383  26.609  1.00  0.00     0.169 HD
BRANCH  10  12
HETATM   12  C8  UNL     1      -8.994  16.881  28.018  1.00  0.00     0.148 C 
HETATM   13  C9  UNL     1      -7.605  16.729  27.814  1.00  0.00     0.107 C 
BRANCH  12  14
HETATM   14  O1  UNL     1      -9.296  17.302  29.249  1.00  0.00    -0.346 OA
ATOM     15  H1  UNL     1     -10.035  16.806  29.583  1.00  0.00     0.219 HD
ENDBRANCH  12  14
BRANCH  13  16
HETATM   16  S1  UNL     1      -7.036  15.565  26.631  1.00  0.00    -0.078 SA
BRANCH  16  17
HETATM   17  C10 UNL     1      -6.866  16.099  24.966  1.00  0.00     0.096 A 
HETATM   18  N3  UNL     1      -7.449  15.277  23.995  1.00  0.00    -0.351 N 
HETATM   19  C11 UNL     1      -7.472  15.604  22.738  1.00  0.00     0.033 A 
ATOM     20  H3  UNL     1      -7.869  14.394  24.284  1.00  0.00     0.166 HD
HETATM   21  C12 UNL     1      -6.905  16.802  22.296  1.00  0.00     0.039 A 
HETATM   22  C18 UNL     1      -8.073  14.692  21.715  1.00  0.00     0.066 C 
HETATM   23  N4  UNL     1      -6.337  17.603  23.217  1.00  0.00    -0.359 N 
HETATM   24  C15 UNL     1      -6.976  17.112  20.865  1.00  0.00     0.137 C 
HETATM   25  C13 UNL     1      -6.310  17.260  24.554  1.00  0.00     0.039 A 
ATOM     26  H4  UNL     1      -5.918  18.484  22.919  1.00  0.00     0.165 HD
HETATM   27  C14 UNL     1      -5.666  18.213  25.507  1.00  0.00     0.071 C 
HETATM   28  C16 UNL     1      -8.238  16.637  20.239  1.00  0.00     0.133 C 
HETATM   29  O2  UNL     1      -8.651  17.144  19.234  1.00  0.00    -0.298 OA
HETATM   30  C17 UNL     1      -9.009  15.513  20.857  1.00  0.00     0.084 C 
ENDBRANCH  16  17
ENDBRANCH  13  16
ENDBRANCH  10  12
ENDBRANCH   1  10
BRANCH   1  31
HETATM   31  C19 UNL     1     -10.459  14.524  28.568  1.00  0.00     0.289 C 
HETATM   32  O3  UNL     1      -9.891  13.420  28.214  1.00  0.00    -0.264 OA
HETATM   33  N5  UNL     1     -10.699  14.737  29.931  1.00  0.00    -0.326 N 
ATOM     34  H5  UNL     1     -11.086  15.661  30.125  1.00  0.00     0.168 HD
BRANCH  33  35
HETATM   35  C20 UNL     1     -10.525  13.962  31.094  1.00  0.00     0.013 C 
HETATM   36  C21 UNL     1     -11.794  13.448  31.659  1.00  0.00     0.069 C 
HETATM   37  C22 UNL     1     -12.300  14.427  32.716  1.00  0.00     0.147 C 
HETATM   38  S2  UNL     1     -10.745  14.854  33.499  1.00  0.00     0.158 S 
HETATM   39  O4  UNL     1     -10.613  16.290  33.819  1.00  0.00    -0.227 OA
HETATM   40  O5  UNL     1     -10.583  13.989  34.730  1.00  0.00    -0.227 OA
HETATM   41  C23 UNL     1      -9.625  14.314  32.198  1.00  0.00     0.095 C 
HETATM   42  C24 UNL     1      -8.445  15.180  31.996  1.00  0.00     0.038 C 
HETATM   43  C25 UNL     1      -9.036  12.945  32.730  1.00  0.00     0.038 C 
ENDBRANCH  33  35
ENDBRANCH   1  31
TORSDOF 13
ENDMDL
