MODEL 1
REMARK VINA RESULT: -5.647487169      0.000      0.000
REMARK  2 active torsions:
REMARK  status: ('A' for Active; 'I' for Inactive)
REMARK    1  A    between atoms: C6_6  and  N1_7 
REMARK    2  A    between atoms: C7_11  and  O1_12 
ROOT
HETATM    1  C1  UNL     1       4.303  12.718  40.535  1.00  0.00     0.010 C 
HETATM    2  C2  UNL     1       4.135  12.959  42.041  1.00  0.00    -0.016 C 
HETATM    3  C3  UNL     1       5.180  12.213  42.800  1.00  0.00     0.004 C 
HETATM    4  C4  UNL     1       4.701  11.686  44.126  1.00  0.00     0.002 C 
HETATM    5  C5  UNL     1       4.342  12.739  45.110  1.00  0.00     0.035 C 
HETATM    6  C6  UNL     1       3.598  13.906  44.541  1.00  0.00     0.212 C 
HETATM    7  C7  UNL     1       4.518  14.770  43.699  1.00  0.00     0.148 C 
HETATM    8  C8  UNL     1       4.405  14.450  42.242  1.00  0.00     0.038 C 
ENDROOT
BRANCH   6   9
HETATM    9  N1  UNL     1       3.187  14.742  45.683  1.00  0.00    -0.073 N 
ATOM     10  H13 UNL     1       2.435  15.393  45.456  1.00  0.00     0.274 HD
ATOM     11  H12 UNL     1       2.693  14.221  46.407  1.00  0.00     0.274 HD
ATOM     12  H11 UNL     1       4.030  15.205  46.024  1.00  0.00     0.274 HD
ENDBRANCH   6   9
BRANCH   7  13
HETATM   13  O1  UNL     1       4.267  16.119  43.946  1.00  0.00    -0.393 OA
ATOM     14  H1  UNL     1       3.404  16.225  44.327  1.00  0.00     0.210 HD
ENDBRANCH   7  13
TORSDOF 2
ENDMDL
MODEL 2
REMARK VINA RESULT: -5.544615061      1.800      3.076
REMARK  2 active torsions:
REMARK  status: ('A' for Active; 'I' for Inactive)
REMARK    1  A    between atoms: C6_6  and  N1_7 
REMARK    2  A    between atoms: C7_11  and  O1_12 
ROOT
HETATM    1  C1  UNL     1       6.015  11.728  45.518  1.00  0.00     0.010 C 
HETATM    2  C2  UNL     1       5.505  12.320  44.197  1.00  0.00    -0.016 C 
HETATM    3  C3  UNL     1       4.907  11.248  43.351  1.00  0.00     0.004 C 
HETATM    4  C4  UNL     1       5.132  11.448  41.876  1.00  0.00     0.002 C 
HETATM    5  C5  UNL     1       4.466  12.650  41.312  1.00  0.00     0.035 C 
HETATM    6  C6  UNL     1       4.533  13.870  42.175  1.00  0.00     0.212 C 
HETATM    7  C7  UNL     1       3.624  13.725  43.381  1.00  0.00     0.148 C 
HETATM    8  C8  UNL     1       4.375  13.270  44.593  1.00  0.00     0.038 C 
ENDROOT
BRANCH   6   9
HETATM    9  N1  UNL     1       3.979  14.980  41.379  1.00  0.00    -0.073 N 
ATOM     10  H13 UNL     1       3.292  15.537  41.889  1.00  0.00     0.274 HD
ATOM     11  H12 UNL     1       4.650  15.729  41.210  1.00  0.00     0.274 HD
ATOM     12  H11 UNL     1       3.609  14.569  40.523  1.00  0.00     0.274 HD
ENDBRANCH   6   9
BRANCH   7  13
HETATM   13  O1  UNL     1       2.949  14.922  43.618  1.00  0.00    -0.393 OA
ATOM     14  H1  UNL     1       2.370  14.827  44.365  1.00  0.00     0.210 HD
ENDBRANCH   7  13
TORSDOF 2
ENDMDL
MODEL 3
REMARK VINA RESULT: -5.475265277      3.138      4.098
REMARK  2 active torsions:
REMARK  status: ('A' for Active; 'I' for Inactive)
REMARK    1  A    between atoms: C6_6  and  N1_7 
REMARK    2  A    between atoms: C7_11  and  O1_12 
ROOT
HETATM    1  C1  UNL     1       8.075  11.614  43.275  1.00  0.00     0.010 C 
HETATM    2  C2  UNL     1       6.935  11.877  44.268  1.00  0.00    -0.016 C 
HETATM    3  C3  UNL     1       5.617  11.750  43.582  1.00  0.00     0.004 C 
HETATM    4  C4  UNL     1       4.575  12.705  44.098  1.00  0.00     0.002 C 
HETATM    5  C5  UNL     1       4.176  12.475  45.510  1.00  0.00     0.035 C 
HETATM    6  C6  UNL     1       5.303  12.145  46.436  1.00  0.00     0.212 C 
HETATM    7  C7  UNL     1       5.819  10.741  46.176  1.00  0.00     0.148 C 
HETATM    8  C8  UNL     1       7.026  10.746  45.292  1.00  0.00     0.038 C 
ENDROOT
BRANCH   6   9
HETATM    9  N1  UNL     1       4.739  12.124  47.798  1.00  0.00    -0.073 N 
ATOM     10  H13 UNL     1       4.194  11.284  47.995  1.00  0.00     0.274 HD
ATOM     11  H12 UNL     1       5.443  11.993  48.524  1.00  0.00     0.274 HD
ATOM     12  H11 UNL     1       4.204  12.985  47.905  1.00  0.00     0.274 HD
ENDBRANCH   6   9
BRANCH   7  13
HETATM   13  O1  UNL     1       6.073  10.093  47.384  1.00  0.00    -0.393 OA
ATOM     14  H1  UNL     1       6.138   9.156  47.243  1.00  0.00     0.210 HD
ENDBRANCH   7  13
TORSDOF 2
ENDMDL
MODEL 4
REMARK VINA RESULT: -5.319224081      1.561      1.803
REMARK  2 active torsions:
REMARK  status: ('A' for Active; 'I' for Inactive)
REMARK    1  A    between atoms: C6_6  and  N1_7 
REMARK    2  A    between atoms: C7_11  and  O1_12 
ROOT
HETATM    1  C1  UNL     1       4.450  12.708  41.383  1.00  0.00     0.010 C 
HETATM    2  C2  UNL     1       4.512  12.478  42.899  1.00  0.00    -0.016 C 
HETATM    3  C3  UNL     1       5.923  12.560  43.374  1.00  0.00     0.004 C 
HETATM    4  C4  UNL     1       6.234  11.618  44.505  1.00  0.00     0.002 C 
HETATM    5  C5  UNL     1       5.501  11.907  45.764  1.00  0.00     0.035 C 
HETATM    6  C6  UNL     1       4.066  12.290  45.582  1.00  0.00     0.212 C 
HETATM    7  C7  UNL     1       3.953  13.686  44.998  1.00  0.00     0.148 C 
HETATM    8  C8  UNL     1       3.755  13.655  43.515  1.00  0.00     0.038 C 
ENDROOT
BRANCH   6   9
HETATM    9  N1  UNL     1       3.475  12.366  46.931  1.00  0.00    -0.073 N 
ATOM     10  H13 UNL     1       3.318  13.322  47.249  1.00  0.00     0.274 HD
ATOM     11  H12 UNL     1       2.503  12.058  46.963  1.00  0.00     0.274 HD
ATOM     12  H11 UNL     1       4.087  11.832  47.548  1.00  0.00     0.274 HD
ENDBRANCH   6   9
BRANCH   7  13
HETATM   13  O1  UNL     1       2.932  14.390  45.634  1.00  0.00    -0.393 OA
ATOM     14  H1  UNL     1       2.340  14.759  44.989  1.00  0.00     0.210 HD
ENDBRANCH   7  13
TORSDOF 2
ENDMDL
MODEL 5
REMARK VINA RESULT: -5.314697454      1.902      3.007
REMARK  2 active torsions:
REMARK  status: ('A' for Active; 'I' for Inactive)
REMARK    1  A    between atoms: C6_6  and  N1_7 
REMARK    2  A    between atoms: C7_11  and  O1_12 
ROOT
HETATM    1  C1  UNL     1       7.630  11.557  44.094  1.00  0.00     0.010 C 
HETATM    2  C2  UNL     1       6.321  12.355  44.048  1.00  0.00    -0.016 C 
HETATM    3  C3  UNL     1       5.506  11.938  42.870  1.00  0.00     0.004 C 
HETATM    4  C4  UNL     1       4.725  13.064  42.249  1.00  0.00     0.002 C 
HETATM    5  C5  UNL     1       3.672  13.637  43.125  1.00  0.00     0.035 C 
HETATM    6  C6  UNL     1       4.067  13.804  44.558  1.00  0.00     0.212 C 
HETATM    7  C7  UNL     1       4.148  12.457  45.252  1.00  0.00     0.148 C 
HETATM    8  C8  UNL     1       5.552  11.939  45.303  1.00  0.00     0.038 C 
ENDROOT
BRANCH   6   9
HETATM    9  N1  UNL     1       2.969  14.534  45.217  1.00  0.00    -0.073 N 
ATOM     10  H13 UNL     1       3.058  14.565  46.233  1.00  0.00     0.274 HD
ATOM     11  H12 UNL     1       3.000  15.540  45.055  1.00  0.00     0.274 HD
ATOM     12  H11 UNL     1       2.101  14.102  44.902  1.00  0.00     0.274 HD
ENDBRANCH   6   9
BRANCH   7  13
HETATM   13  O1  UNL     1       3.590  12.540  46.527  1.00  0.00    -0.393 OA
ATOM     14  H1  UNL     1       4.164  12.129  47.162  1.00  0.00     0.210 HD
ENDBRANCH   7  13
TORSDOF 2
ENDMDL
