MODEL 1
REMARK VINA RESULT: -3.391233326      0.000      0.000
REMARK  0 active torsions:
REMARK  status: ('A' for Active; 'I' for Inactive)
ROOT
HETATM    1  S1  UNL     1       4.753  10.811  42.849  1.00  0.00    -0.091 SA
HETATM    2  C1  UNL     1       5.472  12.257  43.692  1.00  0.00     0.076 C 
HETATM    3  C2  UNL     1       4.285  13.082  44.192  1.00  0.00     0.019 C 
HETATM    4  C3  UNL     1       3.612  12.185  45.239  1.00  0.00     0.020 C 
HETATM    5  C4  UNL     1       4.603  12.154  46.394  1.00  0.00     0.113 C 
HETATM    6  N1  UNL     1       5.737  11.404  45.987  1.00  0.00    -0.420 N 
ATOM      7  H1  UNL     1       6.081  10.617  46.536  1.00  0.00     0.153 HD
HETATM    8  C5  UNL     1       6.364  11.802  44.785  1.00  0.00     0.129 C 
ENDROOT
TORSDOF 0
ENDMDL
MODEL 2
REMARK VINA RESULT: -3.314471087      1.274      1.746
REMARK  0 active torsions:
REMARK  status: ('A' for Active; 'I' for Inactive)
ROOT
HETATM    1  S1  UNL     1       4.686  10.449  43.313  1.00  0.00    -0.091 SA
HETATM    2  C1  UNL     1       5.445  11.819  44.243  1.00  0.00     0.076 C 
HETATM    3  C2  UNL     1       5.182  13.080  43.419  1.00  0.00     0.019 C 
HETATM    4  C3  UNL     1       3.657  13.245  43.454  1.00  0.00     0.020 C 
HETATM    5  C4  UNL     1       3.357  13.630  44.896  1.00  0.00     0.113 C 
HETATM    6  N1  UNL     1       3.591  12.497  45.716  1.00  0.00    -0.420 N 
ATOM      7  H1  UNL     1       2.880  12.144  46.355  1.00  0.00     0.153 HD
HETATM    8  C5  UNL     1       4.859  11.881  45.603  1.00  0.00     0.129 C 
ENDROOT
TORSDOF 0
ENDMDL
MODEL 3
REMARK VINA RESULT: -3.269827843      2.351      2.994
REMARK  0 active torsions:
REMARK  status: ('A' for Active; 'I' for Inactive)
ROOT
HETATM    1  S1  UNL     1       7.030  11.848  44.005  1.00  0.00    -0.091 SA
HETATM    2  C1  UNL     1       5.460  11.025  44.422  1.00  0.00     0.076 C 
HETATM    3  C2  UNL     1       5.561   9.613  43.843  1.00  0.00     0.019 C 
HETATM    4  C3  UNL     1       6.691   8.954  44.644  1.00  0.00     0.020 C 
HETATM    5  C4  UNL     1       6.106   8.782  46.040  1.00  0.00     0.113 C 
HETATM    6  N1  UNL     1       5.980  10.066  46.629  1.00  0.00    -0.420 N 
ATOM      7  H1  UNL     1       6.384  10.277  47.541  1.00  0.00     0.153 HD
HETATM    8  C5  UNL     1       5.267  11.038  45.891  1.00  0.00     0.129 C 
ENDROOT
TORSDOF 0
ENDMDL
MODEL 4
REMARK VINA RESULT: -3.261292387      2.834      3.621
REMARK  0 active torsions:
REMARK  status: ('A' for Active; 'I' for Inactive)
ROOT
HETATM    1  S1  UNL     1       3.526  16.142  45.176  1.00  0.00    -0.091 SA
HETATM    2  C1  UNL     1       2.539  14.672  44.747  1.00  0.00     0.076 C 
HETATM    3  C2  UNL     1       2.771  14.435  43.254  1.00  0.00     0.019 C 
HETATM    4  C3  UNL     1       4.260  14.075  43.153  1.00  0.00     0.020 C 
HETATM    5  C4  UNL     1       4.355  12.702  43.806  1.00  0.00     0.113 C 
HETATM    6  N1  UNL     1       4.139  12.857  45.199  1.00  0.00    -0.420 N 
ATOM      7  H1  UNL     1       4.804  12.500  45.885  1.00  0.00     0.153 HD
HETATM    8  C5  UNL     1       2.958  13.528  45.590  1.00  0.00     0.129 C 
ENDROOT
TORSDOF 0
ENDMDL
MODEL 5
REMARK VINA RESULT: -3.246224855      2.345      2.709
REMARK  0 active torsions:
REMARK  status: ('A' for Active; 'I' for Inactive)
ROOT
HETATM    1  S1  UNL     1       3.187  14.097  41.791  1.00  0.00    -0.091 SA
HETATM    2  C1  UNL     1       4.389  14.368  43.133  1.00  0.00     0.076 C 
HETATM    3  C2  UNL     1       3.752  15.401  44.063  1.00  0.00     0.019 C 
HETATM    4  C3  UNL     1       2.523  14.686  44.640  1.00  0.00     0.020 C 
HETATM    5  C4  UNL     1       3.109  13.619  45.555  1.00  0.00     0.113 C 
HETATM    6  N1  UNL     1       3.725  12.630  44.745  1.00  0.00    -0.420 N 
ATOM      7  H1  UNL     1       3.489  11.642  44.837  1.00  0.00     0.153 HD
HETATM    8  C5  UNL     1       4.680  13.080  43.806  1.00  0.00     0.129 C 
ENDROOT
TORSDOF 0
ENDMDL
