MODEL 1
REMARK VINA RESULT: -4.594053362      0.000      0.000
REMARK  0 active torsions:
REMARK  status: ('A' for Active; 'I' for Inactive)
ROOT
HETATM    1  N1  UNL     1      10.915   6.123  43.337  1.00  0.00    -0.193 NA
HETATM    2  C1  UNL     1      10.153   6.053  42.477  1.00  0.00     0.115 C 
HETATM    3  C2  UNL     1       9.197   5.948  41.376  1.00  0.00     0.298 C 
HETATM    4  C3  UNL     1       9.944   5.503  40.191  1.00  0.00     0.115 C 
HETATM    5  N2  UNL     1      10.544   5.143  39.258  1.00  0.00    -0.193 NA
HETATM    6  C4  UNL     1       8.077   4.988  41.669  1.00  0.00     0.072 C 
HETATM    7  C5  UNL     1       6.895   5.719  41.019  1.00  0.00     0.032 C 
HETATM    8  C6  UNL     1       7.197   7.124  41.552  1.00  0.00     0.236 C 
HETATM    9  N3  UNL     1       8.593   7.243  41.128  1.00  0.00    -0.040 N 
ATOM     10  H31 UNL     1       8.701   7.566  40.166  1.00  0.00     0.280 HD
ATOM     11  H32 UNL     1       9.089   8.016  41.573  1.00  0.00     0.280 HD
ENDROOT
TORSDOF 0
ENDMDL
MODEL 2
REMARK VINA RESULT: -4.551846584      2.358      3.576
REMARK  0 active torsions:
REMARK  status: ('A' for Active; 'I' for Inactive)
ROOT
HETATM    1  N1  UNL     1       6.879   4.988  41.375  1.00  0.00    -0.193 NA
HETATM    2  C1  UNL     1       7.317   5.720  42.147  1.00  0.00     0.115 C 
HETATM    3  C2  UNL     1       7.892   6.652  43.117  1.00  0.00     0.298 C 
HETATM    4  C3  UNL     1       9.343   6.423  43.134  1.00  0.00     0.115 C 
HETATM    5  N2  UNL     1      10.495   6.240  43.135  1.00  0.00    -0.193 NA
HETATM    6  C4  UNL     1       7.601   8.089  42.783  1.00  0.00     0.072 C 
HETATM    7  C5  UNL     1       7.374   8.669  44.186  1.00  0.00     0.032 C 
HETATM    8  C6  UNL     1       6.481   7.550  44.735  1.00  0.00     0.236 C 
HETATM    9  N3  UNL     1       7.331   6.398  44.430  1.00  0.00    -0.040 N 
ATOM     10  H31 UNL     1       8.035   6.211  45.145  1.00  0.00     0.280 HD
ATOM     11  H32 UNL     1       6.845   5.504  44.500  1.00  0.00     0.280 HD
ENDROOT
TORSDOF 0
ENDMDL
MODEL 3
REMARK VINA RESULT: -4.534435462      2.224      2.640
REMARK  0 active torsions:
REMARK  status: ('A' for Active; 'I' for Inactive)
ROOT
HETATM    1  N1  UNL     1      10.599   6.113  43.154  1.00  0.00    -0.193 NA
HETATM    2  C1  UNL     1      10.430   6.539  42.098  1.00  0.00     0.115 C 
HETATM    3  C2  UNL     1      10.201   7.062  40.752  1.00  0.00     0.298 C 
HETATM    4  C3  UNL     1      10.012   5.909  39.862  1.00  0.00     0.115 C 
HETATM    5  N2  UNL     1       9.855   4.988  39.164  1.00  0.00    -0.193 NA
HETATM    6  C4  UNL     1       9.005   7.972  40.679  1.00  0.00     0.072 C 
HETATM    7  C5  UNL     1       9.512   9.031  39.690  1.00  0.00     0.032 C 
HETATM    8  C6  UNL     1      10.908   9.231  40.291  1.00  0.00     0.236 C 
HETATM    9  N3  UNL     1      11.352   7.837  40.328  1.00  0.00    -0.040 N 
ATOM     10  H31 UNL     1      11.757   7.516  39.448  1.00  0.00     0.280 HD
ATOM     11  H32 UNL     1      12.179   7.688  40.906  1.00  0.00     0.280 HD
ENDROOT
TORSDOF 0
ENDMDL
MODEL 4
REMARK VINA RESULT: -4.479692575      1.640      3.161
REMARK  0 active torsions:
REMARK  status: ('A' for Active; 'I' for Inactive)
ROOT
HETATM    1  N1  UNL     1      10.234   5.190  39.105  1.00  0.00    -0.193 NA
HETATM    2  C1  UNL     1      10.011   6.009  39.882  1.00  0.00     0.115 C 
HETATM    3  C2  UNL     1       9.746   7.045  40.880  1.00  0.00     0.298 C 
HETATM    4  C3  UNL     1      10.308   6.577  42.154  1.00  0.00     0.115 C 
HETATM    5  N2  UNL     1      10.763   6.200  43.160  1.00  0.00    -0.193 NA
HETATM    6  C4  UNL     1      10.347   8.374  40.510  1.00  0.00     0.072 C 
HETATM    7  C5  UNL     1       9.251   9.330  41.001  1.00  0.00     0.032 C 
HETATM    8  C6  UNL     1       8.042   8.568  40.445  1.00  0.00     0.236 C 
HETATM    9  N3  UNL     1       8.315   7.246  41.008  1.00  0.00    -0.040 N 
ATOM     10  H31 UNL     1       7.972   7.130  41.962  1.00  0.00     0.280 HD
ATOM     11  H32 UNL     1       7.760   6.501  40.587  1.00  0.00     0.280 HD
ENDROOT
TORSDOF 0
ENDMDL
MODEL 5
REMARK VINA RESULT: -4.440059663      0.944      2.645
REMARK  0 active torsions:
REMARK  status: ('A' for Active; 'I' for Inactive)
ROOT
HETATM    1  N1  UNL     1      10.443   5.052  39.250  1.00  0.00    -0.193 NA
HETATM    2  C1  UNL     1       9.880   5.430  40.180  1.00  0.00     0.115 C 
HETATM    3  C2  UNL     1       9.183   5.921  41.368  1.00  0.00     0.298 C 
HETATM    4  C3  UNL     1      10.177   6.025  42.445  1.00  0.00     0.115 C 
HETATM    5  N2  UNL     1      10.974   6.112  43.292  1.00  0.00    -0.193 NA
HETATM    6  C4  UNL     1       8.525   7.255  41.144  1.00  0.00     0.072 C 
HETATM    7  C5  UNL     1       7.230   7.074  41.950  1.00  0.00     0.032 C 
HETATM    8  C6  UNL     1       6.872   5.666  41.459  1.00  0.00     0.236 C 
HETATM    9  N3  UNL     1       8.137   4.988  41.741  1.00  0.00    -0.040 N 
ATOM     10  H31 UNL     1       8.215   4.653  42.702  1.00  0.00     0.280 HD
ATOM     11  H32 UNL     1       8.222   4.078  41.287  1.00  0.00     0.280 HD
ENDROOT
TORSDOF 0
ENDMDL
