MODEL 1
REMARK VINA RESULT: -5.674073180      0.000      0.000
REMARK  2 active torsions:
REMARK  status: ('A' for Active; 'I' for Inactive)
REMARK    1  A    between atoms: N2_6  and  O1_8 
REMARK    2  A    between atoms: O1_8  and  C5_9 
ROOT
HETATM    1  C1  UNL     1       6.117  10.495  42.033  1.00  0.00     0.148 C 
HETATM    2  N1  UNL     1       5.373  11.502  42.683  1.00  0.00    -0.397 N 
HETATM    3  C2  UNL     1       5.087  12.676  41.994  1.00  0.00     0.063 C 
HETATM    4  C3  UNL     1       3.851  13.344  42.563  1.00  0.00     0.099 C 
HETATM    5  C4  UNL     1       4.062  13.521  44.010  1.00  0.00     0.016 C 
HETATM    6  N2  UNL     1       3.528  14.512  44.603  1.00  0.00    -0.274 N 
ATOM      7  H2  UNL     1       2.964  15.158  44.050  1.00  0.00     0.193 HD
HETATM    8  C9  UNL     1       4.886  12.555  44.757  1.00  0.00     0.074 C 
HETATM    9  C10 UNL     1       4.843  11.251  43.946  1.00  0.00     0.127 C 
ENDROOT
BRANCH   6  10
HETATM   10  O1  UNL     1       3.667  14.759  45.940  1.00  0.00    -0.271 OA
BRANCH  10  11
HETATM   11  C5  UNL     1       4.391  15.937  46.304  1.00  0.00     0.078 C 
HETATM   12  C6  UNL     1       4.643  16.690  45.016  1.00  0.00     0.048 C 
HETATM   13  C7  UNL     1       3.536  16.705  47.263  1.00  0.00     0.048 C 
HETATM   14  C8  UNL     1       5.731  15.547  46.883  1.00  0.00     0.048 C 
ENDBRANCH  10  11
ENDBRANCH   6  10
TORSDOF 2
ENDMDL
MODEL 2
REMARK VINA RESULT: -5.648286313      0.065      1.193
REMARK  2 active torsions:
REMARK  status: ('A' for Active; 'I' for Inactive)
REMARK    1  A    between atoms: N2_6  and  O1_8 
REMARK    2  A    between atoms: O1_8  and  C5_9 
ROOT
HETATM    1  C1  UNL     1       6.096  10.481  41.951  1.00  0.00     0.148 C 
HETATM    2  N1  UNL     1       5.366  11.493  42.609  1.00  0.00    -0.397 N 
HETATM    3  C2  UNL     1       5.092  12.674  41.929  1.00  0.00     0.063 C 
HETATM    4  C3  UNL     1       3.867  13.354  42.507  1.00  0.00     0.099 C 
HETATM    5  C4  UNL     1       4.085  13.519  43.954  1.00  0.00     0.016 C 
HETATM    6  N2  UNL     1       3.565  14.513  44.555  1.00  0.00    -0.274 N 
ATOM      7  H2  UNL     1       3.007  15.169  44.008  1.00  0.00     0.193 HD
HETATM    8  C9  UNL     1       4.899  12.538  44.692  1.00  0.00     0.074 C 
HETATM    9  C10 UNL     1       4.837  11.240  43.873  1.00  0.00     0.127 C 
ENDROOT
BRANCH   6  10
HETATM   10  O1  UNL     1       3.711  14.750  45.893  1.00  0.00    -0.271 OA
BRANCH  10  11
HETATM   11  C5  UNL     1       4.394  15.951  46.261  1.00  0.00     0.078 C 
HETATM   12  C6  UNL     1       5.686  15.516  46.917  1.00  0.00     0.048 C 
HETATM   13  C7  UNL     1       4.620  16.736  45.007  1.00  0.00     0.048 C 
HETATM   14  C8  UNL     1       3.579  16.699  47.291  1.00  0.00     0.048 C 
ENDBRANCH  10  11
ENDBRANCH   6  10
TORSDOF 2
ENDMDL
MODEL 3
REMARK VINA RESULT: -5.565308811      0.777      1.585
REMARK  2 active torsions:
REMARK  status: ('A' for Active; 'I' for Inactive)
REMARK    1  A    between atoms: N2_6  and  O1_8 
REMARK    2  A    between atoms: O1_8  and  C5_9 
ROOT
HETATM    1  C1  UNL     1       5.041  10.595  41.499  1.00  0.00     0.148 C 
HETATM    2  N1  UNL     1       4.953  11.364  42.678  1.00  0.00    -0.397 N 
HETATM    3  C2  UNL     1       4.926  10.711  43.906  1.00  0.00     0.063 C 
HETATM    4  C3  UNL     1       5.418  11.625  45.010  1.00  0.00     0.099 C 
HETATM    5  C4  UNL     1       4.621  12.862  44.959  1.00  0.00     0.016 C 
HETATM    6  N2  UNL     1       4.391  13.503  46.034  1.00  0.00    -0.274 N 
ATOM      7  H2  UNL     1       4.771  13.134  46.906  1.00  0.00     0.193 HD
HETATM    8  C9  UNL     1       4.098  13.347  43.670  1.00  0.00     0.074 C 
HETATM    9  C10 UNL     1       5.018  12.753  42.593  1.00  0.00     0.127 C 
ENDROOT
BRANCH   6  10
HETATM   10  O1  UNL     1       3.663  14.658  46.086  1.00  0.00    -0.271 OA
BRANCH  10  11
HETATM   11  C5  UNL     1       4.385  15.860  46.369  1.00  0.00     0.078 C 
HETATM   12  C6  UNL     1       4.607  16.541  45.036  1.00  0.00     0.048 C 
HETATM   13  C7  UNL     1       3.542  16.676  47.299  1.00  0.00     0.048 C 
HETATM   14  C8  UNL     1       5.738  15.512  46.944  1.00  0.00     0.048 C 
ENDBRANCH  10  11
ENDBRANCH   6  10
TORSDOF 2
ENDMDL
MODEL 4
REMARK VINA RESULT: -5.533900376      0.797      1.979
REMARK  2 active torsions:
REMARK  status: ('A' for Active; 'I' for Inactive)
REMARK    1  A    between atoms: N2_6  and  O1_8 
REMARK    2  A    between atoms: O1_8  and  C5_9 
ROOT
HETATM    1  C1  UNL     1       4.989  10.669  41.244  1.00  0.00     0.148 C 
HETATM    2  N1  UNL     1       4.919  11.387  42.456  1.00  0.00    -0.397 N 
HETATM    3  C2  UNL     1       4.893  10.682  43.654  1.00  0.00     0.063 C 
HETATM    4  C3  UNL     1       5.404  11.541  44.793  1.00  0.00     0.099 C 
HETATM    5  C4  UNL     1       4.621  12.788  44.802  1.00  0.00     0.016 C 
HETATM    6  N2  UNL     1       4.406  13.384  45.906  1.00  0.00    -0.274 N 
ATOM      7  H2  UNL     1       4.789  12.973  46.758  1.00  0.00     0.193 HD
HETATM    8  C9  UNL     1       4.094  13.335  43.539  1.00  0.00     0.074 C 
HETATM    9  C10 UNL     1       4.999  12.777  42.431  1.00  0.00     0.127 C 
ENDROOT
BRANCH   6  10
HETATM   10  O1  UNL     1       3.693  14.544  46.013  1.00  0.00    -0.271 OA
BRANCH  10  11
HETATM   11  C5  UNL     1       4.438  15.735  46.279  1.00  0.00     0.078 C 
HETATM   12  C6  UNL     1       3.587  16.563  47.217  1.00  0.00     0.048 C 
HETATM   13  C7  UNL     1       5.736  15.317  46.898  1.00  0.00     0.048 C 
HETATM   14  C8  UNL     1       4.615  16.517  44.999  1.00  0.00     0.048 C 
ENDBRANCH  10  11
ENDBRANCH   6  10
TORSDOF 2
ENDMDL
MODEL 5
REMARK VINA RESULT: -5.508799507      3.100      4.267
REMARK  2 active torsions:
REMARK  status: ('A' for Active; 'I' for Inactive)
REMARK    1  A    between atoms: N2_6  and  O1_8 
REMARK    2  A    between atoms: O1_8  and  C5_9 
ROOT
HETATM    1  C1  UNL     1       8.315   6.926  43.043  1.00  0.00     0.148 C 
HETATM    2  N1  UNL     1       7.805   8.006  43.795  1.00  0.00    -0.397 N 
HETATM    3  C2  UNL     1       7.543   7.819  45.148  1.00  0.00     0.063 C 
HETATM    4  C3  UNL     1       7.586   9.139  45.890  1.00  0.00     0.099 C 
HETATM    5  C4  UNL     1       6.663  10.066  45.212  1.00  0.00     0.016 C 
HETATM    6  N2  UNL     1       6.064  10.960  45.891  1.00  0.00    -0.274 N 
ATOM      7  H2  UNL     1       6.246  11.007  46.894  1.00  0.00     0.193 HD
HETATM    8  C9  UNL     1       6.441   9.951  43.760  1.00  0.00     0.074 C 
HETATM    9  C10 UNL     1       7.691   9.259  43.197  1.00  0.00     0.127 C 
ENDROOT
BRANCH   6  10
HETATM   10  O1  UNL     1       5.192  11.863  45.351  1.00  0.00    -0.271 OA
BRANCH  10  11
HETATM   11  C5  UNL     1       4.735  12.908  46.213  1.00  0.00     0.078 C 
HETATM   12  C6  UNL     1       3.863  13.804  45.360  1.00  0.00     0.048 C 
HETATM   13  C7  UNL     1       3.977  12.263  47.331  1.00  0.00     0.048 C 
HETATM   14  C8  UNL     1       5.915  13.724  46.688  1.00  0.00     0.048 C 
ENDBRANCH  10  11
ENDBRANCH   6  10
TORSDOF 2
ENDMDL
