MODEL 1
REMARK VINA RESULT: -4.547767816      0.000      0.000
REMARK  1 active torsions:
REMARK  status: ('A' for Active; 'I' for Inactive)
REMARK    1  A    between atoms: O1_1  and  C1_3 
ROOT
HETATM    1  C1  UNL     1       5.730  10.827  45.220  1.00  0.00     0.126 C 
HETATM    2  C2  UNL     1       5.276   9.924  44.109  1.00  0.00     0.064 C 
HETATM    3  C3  UNL     1       5.341  10.511  42.758  1.00  0.00     0.123 C 
HETATM    4  C4  UNL     1       6.738  10.261  42.194  1.00  0.00     0.032 C 
HETATM    5  C5  UNL     1       7.798  10.539  43.195  1.00  0.00     0.003 C 
HETATM    6  C6  UNL     1       7.655  11.816  43.943  1.00  0.00     0.009 C 
HETATM    7  C7  UNL     1       6.356  12.041  44.605  1.00  0.00     0.038 C 
HETATM    8  C8  UNL     1       5.333  12.643  43.665  1.00  0.00     0.175 C 
HETATM    9  O2  UNL     1       5.004  11.819  42.625  1.00  0.00    -0.385 OA
ENDROOT
BRANCH   1  10
HETATM   10  O1  UNL     1       6.495  10.210  46.175  1.00  0.00    -0.395 OA
ATOM     11  H1  UNL     1       6.826  10.791  46.849  1.00  0.00     0.210 HD
ENDBRANCH   1  10
TORSDOF 1
ENDMDL
MODEL 2
REMARK VINA RESULT: -4.514397892      1.180      2.780
REMARK  1 active torsions:
REMARK  status: ('A' for Active; 'I' for Inactive)
REMARK    1  A    between atoms: O1_1  and  C1_3 
ROOT
HETATM    1  C1  UNL     1       6.256  11.937  44.821  1.00  0.00     0.126 C 
HETATM    2  C2  UNL     1       7.420  11.911  43.872  1.00  0.00     0.064 C 
HETATM    3  C3  UNL     1       7.870  10.567  43.468  1.00  0.00     0.123 C 
HETATM    4  C4  UNL     1       7.056  10.135  42.251  1.00  0.00     0.032 C 
HETATM    5  C5  UNL     1       5.613  10.436  42.414  1.00  0.00     0.003 C 
HETATM    6  C6  UNL     1       5.020  10.045  43.721  1.00  0.00     0.009 C 
HETATM    7  C7  UNL     1       5.711  10.545  44.924  1.00  0.00     0.038 C 
HETATM    8  C8  UNL     1       6.858   9.646  45.338  1.00  0.00     0.175 C 
HETATM    9  O2  UNL     1       7.862   9.592  44.413  1.00  0.00    -0.385 OA
ENDROOT
BRANCH   1  10
HETATM   10  O1  UNL     1       5.319  12.898  44.543  1.00  0.00    -0.395 OA
ATOM     11  H1  UNL     1       5.332  13.211  43.647  1.00  0.00     0.210 HD
ENDBRANCH   1  10
TORSDOF 1
ENDMDL
MODEL 3
REMARK VINA RESULT: -4.451753354      1.165      1.704
REMARK  1 active torsions:
REMARK  status: ('A' for Active; 'I' for Inactive)
REMARK    1  A    between atoms: O1_1  and  C1_3 
ROOT
HETATM    1  C1  UNL     1       5.958   9.945  45.185  1.00  0.00     0.126 C 
HETATM    2  C2  UNL     1       7.041   9.191  44.469  1.00  0.00     0.064 C 
HETATM    3  C3  UNL     1       7.189   9.513  43.038  1.00  0.00     0.123 C 
HETATM    4  C4  UNL     1       8.134  10.705  42.910  1.00  0.00     0.032 C 
HETATM    5  C5  UNL     1       7.826  11.766  43.900  1.00  0.00     0.003 C 
HETATM    6  C6  UNL     1       6.389  12.131  44.023  1.00  0.00     0.009 C 
HETATM    7  C7  UNL     1       5.454  11.017  44.268  1.00  0.00     0.038 C 
HETATM    8  C8  UNL     1       5.025  10.339  42.983  1.00  0.00     0.175 C 
HETATM    9  O2  UNL     1       6.055   9.729  42.324  1.00  0.00    -0.385 OA
ENDROOT
BRANCH   1  10
HETATM   10  O1  UNL     1       6.303  10.381  46.438  1.00  0.00    -0.395 OA
ATOM     11  H1  UNL     1       5.565  10.586  46.999  1.00  0.00     0.210 HD
ENDBRANCH   1  10
TORSDOF 1
ENDMDL
MODEL 4
REMARK VINA RESULT: -4.407829207      5.246      6.190
REMARK  1 active torsions:
REMARK  status: ('A' for Active; 'I' for Inactive)
REMARK    1  A    between atoms: O1_1  and  C1_3 
ROOT
HETATM    1  C1  UNL     1       9.691   6.693  42.924  1.00  0.00     0.126 C 
HETATM    2  C2  UNL     1       9.033   5.480  42.332  1.00  0.00     0.064 C 
HETATM    3  C3  UNL     1       8.537   5.644  40.953  1.00  0.00     0.123 C 
HETATM    4  C4  UNL     1       9.676   5.315  39.992  1.00  0.00     0.032 C 
HETATM    5  C5  UNL     1      10.957   5.932  40.418  1.00  0.00     0.003 C 
HETATM    6  C6  UNL     1      10.880   7.364  40.813  1.00  0.00     0.009 C 
HETATM    7  C7  UNL     1       9.868   7.703  41.832  1.00  0.00     0.038 C 
HETATM    8  C8  UNL     1       8.503   7.946  41.223  1.00  0.00     0.175 C 
HETATM    9  O2  UNL     1       7.972   6.836  40.628  1.00  0.00    -0.385 OA
ENDROOT
BRANCH   1  10
HETATM   10  O1  UNL     1      10.825   6.427  43.646  1.00  0.00    -0.395 OA
ATOM     11  H1  UNL     1      11.080   5.512  43.656  1.00  0.00     0.210 HD
ENDBRANCH   1  10
TORSDOF 1
ENDMDL
MODEL 5
REMARK VINA RESULT: -4.405371153      1.280      2.845
REMARK  1 active torsions:
REMARK  status: ('A' for Active; 'I' for Inactive)
REMARK    1  A    between atoms: O1_1  and  C1_3 
ROOT
HETATM    1  C1  UNL     1       5.763  11.295  42.850  1.00  0.00     0.126 C 
HETATM    2  C2  UNL     1       5.738   9.835  43.201  1.00  0.00     0.064 C 
HETATM    3  C3  UNL     1       6.813   9.387  44.104  1.00  0.00     0.123 C 
HETATM    4  C4  UNL     1       6.346   9.591  45.542  1.00  0.00     0.032 C 
HETATM    5  C5  UNL     1       5.694  10.910  45.733  1.00  0.00     0.003 C 
HETATM    6  C6  UNL     1       6.416  12.072  45.149  1.00  0.00     0.009 C 
HETATM    7  C7  UNL     1       6.780  11.963  43.724  1.00  0.00     0.038 C 
HETATM    8  C8  UNL     1       8.091  11.232  43.524  1.00  0.00     0.175 C 
HETATM    9  O2  UNL     1       8.047   9.926  43.925  1.00  0.00    -0.385 OA
ENDROOT
BRANCH   1  10
HETATM   10  O1  UNL     1       4.532  11.897  42.842  1.00  0.00    -0.395 OA
ATOM     11  H1  UNL     1       4.247  12.222  43.687  1.00  0.00     0.210 HD
ENDBRANCH   1  10
TORSDOF 1
ENDMDL
