MODEL 1
REMARK VINA RESULT: -6.663070191      0.000      0.000
REMARK  5 active torsions:
REMARK  status: ('A' for Active; 'I' for Inactive)
REMARK    1  A    between atoms: O1_2  and  C2_3 
REMARK    2  A    between atoms: C2_3  and  C3_5 
REMARK    3  A    between atoms: C5_7  and  C6_8 
REMARK    4  A    between atoms: N1_9  and  N2_11 
REMARK       I    between atoms: N2_11  and  C7_13 
REMARK       I    between atoms: C7_13  and  N3_15 
REMARK    5  A    between atoms: C12_21  and  O4_22 
ROOT
HETATM    1  C3  UNL     1      21.170 -22.536  26.139  1.00  0.00     0.074 A 
HETATM    2  C4  UNL     1      21.000 -22.634  27.519  1.00  0.00     0.033 A 
HETATM    3  C5  UNL     1      21.923 -23.241  28.347  1.00  0.00    -0.017 A 
HETATM    4  C10 UNL     1      23.058 -23.769  27.783  1.00  0.00     0.034 A 
HETATM    5  C11 UNL     1      23.253 -23.687  26.424  1.00  0.00     0.046 A 
HETATM    6 BR1  UNL     1      24.835 -24.428  25.669  1.00  0.00    -0.048 Br
HETATM    7  C12 UNL     1      22.315 -23.071  25.589  1.00  0.00     0.099 A 
ENDROOT
BRANCH   3   8
HETATM    8  C6  UNL     1      21.652 -23.292  29.777  1.00  0.00     0.118 C 
HETATM    9  N1  UNL     1      20.541 -22.837  30.278  1.00  0.00    -0.307 N 
ATOM     10  H1  UNL     1      19.842 -22.436  29.652  1.00  0.00     0.186 HD
BRANCH   9  11
HETATM   11  N2  UNL     1      20.281 -22.882  31.633  1.00  0.00    -0.252 N 
HETATM   12  C7  UNL     1      19.353 -22.037  32.278  1.00  0.00     0.336 C 
HETATM   13  O3  UNL     1      18.707 -21.182  31.616  1.00  0.00    -0.245 OA
HETATM   14  N3  UNL     1      19.113 -22.111  33.669  1.00  0.00    -0.342 N 
HETATM   15  C8  UNL     1      19.852 -23.092  34.443  1.00  0.00     0.154 C 
HETATM   16  C9  UNL     1      18.161 -21.243  34.325  1.00  0.00     0.154 C 
ATOM     17  H2  UNL     1      20.788 -23.563  32.199  1.00  0.00     0.191 HD
ENDBRANCH   9  11
ENDBRANCH   3   8
BRANCH   1  18
HETATM   18  C2  UNL     1      20.190 -21.897  25.292  1.00  0.00     0.295 C 
HETATM   19  O2  UNL     1      19.620 -22.558  24.387  1.00  0.00    -0.259 OA
BRANCH  18  20
HETATM   20  O1  UNL     1      19.826 -20.566  25.411  1.00  0.00    -0.322 OA
HETATM   21  C1  UNL     1      20.805 -19.539  25.430  1.00  0.00     0.213 C 
ENDBRANCH  18  20
ENDBRANCH   1  18
BRANCH   7  22
HETATM   22  O4  UNL     1      22.551 -23.010  24.223  1.00  0.00    -0.358 OA
ATOM     23  H4  UNL     1      23.435 -23.037  23.876  1.00  0.00     0.217 HD
ENDBRANCH   7  22
TORSDOF 5
ENDMDL
MODEL 2
REMARK VINA RESULT: -6.642769405      3.350      7.265
REMARK  5 active torsions:
REMARK  status: ('A' for Active; 'I' for Inactive)
REMARK    1  A    between atoms: O1_2  and  C2_3 
REMARK    2  A    between atoms: C2_3  and  C3_5 
REMARK    3  A    between atoms: C5_7  and  C6_8 
REMARK    4  A    between atoms: N1_9  and  N2_11 
REMARK       I    between atoms: N2_11  and  C7_13 
REMARK       I    between atoms: C7_13  and  N3_15 
REMARK    5  A    between atoms: C12_21  and  O4_22 
ROOT
HETATM    1  C3  UNL     1      19.204 -20.724  31.470  1.00  0.00     0.074 A 
HETATM    2  C4  UNL     1      20.076 -21.263  30.526  1.00  0.00     0.033 A 
HETATM    3  C5  UNL     1      20.858 -22.374  30.777  1.00  0.00    -0.017 A 
HETATM    4  C10 UNL     1      20.769 -22.970  32.010  1.00  0.00     0.034 A 
HETATM    5  C11 UNL     1      19.918 -22.459  32.961  1.00  0.00     0.046 A 
HETATM    6 BR1  UNL     1      19.816 -23.304  34.663  1.00  0.00    -0.048 Br
HETATM    7  C12 UNL     1      19.128 -21.334  32.703  1.00  0.00     0.099 A 
ENDROOT
BRANCH   3   8
HETATM    8  C6  UNL     1      21.737 -22.861  29.723  1.00  0.00     0.118 C 
HETATM    9  N1  UNL     1      22.110 -22.099  28.737  1.00  0.00    -0.307 N 
ATOM     10  H1  UNL     1      21.778 -21.134  28.704  1.00  0.00     0.186 HD
BRANCH   9  11
HETATM   11  N2  UNL     1      22.942 -22.558  27.736  1.00  0.00    -0.252 N 
HETATM   12  C7  UNL     1      22.574 -22.599  26.374  1.00  0.00     0.336 C 
HETATM   13  O3  UNL     1      21.435 -22.203  26.012  1.00  0.00    -0.245 OA
HETATM   14  N3  UNL     1      23.453 -23.076  25.374  1.00  0.00    -0.342 N 
HETATM   15  C8  UNL     1      24.770 -23.534  25.779  1.00  0.00     0.154 C 
HETATM   16  C9  UNL     1      23.072 -23.116  23.981  1.00  0.00     0.154 C 
ATOM     17  H2  UNL     1      23.872 -22.885  27.994  1.00  0.00     0.191 HD
ENDBRANCH   9  11
ENDBRANCH   3   8
BRANCH   1  18
HETATM   18  C2  UNL     1      18.396 -19.561  31.186  1.00  0.00     0.295 C 
HETATM   19  O2  UNL     1      18.856 -18.641  30.463  1.00  0.00    -0.259 OA
BRANCH  18  20
HETATM   20  O1  UNL     1      17.110 -19.385  31.672  1.00  0.00    -0.322 OA
HETATM   21  C1  UNL     1      16.059 -20.258  31.292  1.00  0.00     0.213 C 
ENDBRANCH  18  20
ENDBRANCH   1  18
BRANCH   7  22
HETATM   22  O4  UNL     1      18.282 -20.851  33.692  1.00  0.00    -0.358 OA
ATOM     23  H4  UNL     1      18.510 -20.923  34.611  1.00  0.00     0.217 HD
ENDBRANCH   7  22
TORSDOF 5
ENDMDL
MODEL 3
REMARK VINA RESULT: -6.579505770      4.570      7.220
REMARK  5 active torsions:
REMARK  status: ('A' for Active; 'I' for Inactive)
REMARK    1  A    between atoms: O1_2  and  C2_3 
REMARK    2  A    between atoms: C2_3  and  C3_5 
REMARK    3  A    between atoms: C5_7  and  C6_8 
REMARK    4  A    between atoms: N1_9  and  N2_11 
REMARK       I    between atoms: N2_11  and  C7_13 
REMARK       I    between atoms: C7_13  and  N3_15 
REMARK    5  A    between atoms: C12_21  and  O4_22 
ROOT
HETATM    1  C3  UNL     1      20.663 -21.901  25.915  1.00  0.00     0.074 A 
HETATM    2  C4  UNL     1      20.370 -20.555  25.706  1.00  0.00     0.033 A 
HETATM    3  C5  UNL     1      20.321 -19.630  26.731  1.00  0.00    -0.017 A 
HETATM    4  C10 UNL     1      20.573 -20.060  28.010  1.00  0.00     0.034 A 
HETATM    5  C11 UNL     1      20.865 -21.382  28.247  1.00  0.00     0.046 A 
HETATM    6 BR1  UNL     1      21.208 -21.950  30.030  1.00  0.00    -0.048 Br
HETATM    7  C12 UNL     1      20.913 -22.316  27.205  1.00  0.00     0.099 A 
ENDROOT
BRANCH   3   8
HETATM    8  C6  UNL     1      20.007 -18.245  26.408  1.00  0.00     0.118 C 
HETATM    9  N1  UNL     1      19.101 -17.938  25.526  1.00  0.00    -0.307 N 
ATOM     10  H1  UNL     1      18.598 -18.688  25.050  1.00  0.00     0.186 HD
BRANCH   9  11
HETATM   11  N2  UNL     1      18.802 -16.626  25.216  1.00  0.00    -0.252 N 
HETATM   12  C7  UNL     1      19.429 -15.908  24.176  1.00  0.00     0.336 C 
HETATM   13  O3  UNL     1      20.316 -16.457  23.470  1.00  0.00    -0.245 OA
HETATM   14  N3  UNL     1      19.097 -14.565  23.887  1.00  0.00    -0.342 N 
HETATM   15  C8  UNL     1      18.077 -13.920  24.695  1.00  0.00     0.154 C 
HETATM   16  C9  UNL     1      19.743 -13.832  22.821  1.00  0.00     0.154 C 
ATOM     17  H2  UNL     1      18.089 -16.151  25.769  1.00  0.00     0.191 HD
ENDBRANCH   9  11
ENDBRANCH   3   8
BRANCH   1  18
HETATM   18  C2  UNL     1      20.709 -22.851  24.828  1.00  0.00     0.295 C 
HETATM   19  O2  UNL     1      19.721 -22.969  24.059  1.00  0.00    -0.259 OA
BRANCH  18  20
HETATM   20  O1  UNL     1      21.799 -23.665  24.568  1.00  0.00    -0.322 OA
HETATM   21  C1  UNL     1      23.040 -23.115  24.158  1.00  0.00     0.213 C 
ENDBRANCH  18  20
ENDBRANCH   1  18
BRANCH   7  22
HETATM   22  O4  UNL     1      21.211 -23.641  27.489  1.00  0.00    -0.358 OA
ATOM     23  H4  UNL     1      22.071 -23.895  27.803  1.00  0.00     0.217 HD
ENDBRANCH   7  22
TORSDOF 5
ENDMDL
MODEL 4
REMARK VINA RESULT: -6.507933005      4.426      7.362
REMARK  5 active torsions:
REMARK  status: ('A' for Active; 'I' for Inactive)
REMARK    1  A    between atoms: O1_2  and  C2_3 
REMARK    2  A    between atoms: C2_3  and  C3_5 
REMARK    3  A    between atoms: C5_7  and  C6_8 
REMARK    4  A    between atoms: N1_9  and  N2_11 
REMARK       I    between atoms: N2_11  and  C7_13 
REMARK       I    between atoms: C7_13  and  N3_15 
REMARK    5  A    between atoms: C12_21  and  O4_22 
ROOT
HETATM    1  C3  UNL     1      20.858 -21.600  28.364  1.00  0.00     0.074 A 
HETATM    2  C4  UNL     1      20.515 -20.298  28.005  1.00  0.00     0.033 A 
HETATM    3  C5  UNL     1      20.374 -19.896  26.691  1.00  0.00    -0.017 A 
HETATM    4  C10 UNL     1      20.582 -20.821  25.699  1.00  0.00     0.034 A 
HETATM    5  C11 UNL     1      20.921 -22.114  26.023  1.00  0.00     0.046 A 
HETATM    6 BR1  UNL     1      21.204 -23.375  24.628  1.00  0.00    -0.048 Br
HETATM    7  C12 UNL     1      21.063 -22.517  27.356  1.00  0.00     0.099 A 
ENDROOT
BRANCH   3   8
HETATM    8  C6  UNL     1      20.012 -18.512  26.420  1.00  0.00     0.118 C 
HETATM    9  N1  UNL     1      19.158 -18.199  25.490  1.00  0.00    -0.307 N 
ATOM     10  H1  UNL     1      18.731 -18.943  24.937  1.00  0.00     0.186 HD
BRANCH   9  11
HETATM   11  N2  UNL     1      18.813 -16.887  25.229  1.00  0.00    -0.252 N 
HETATM   12  C7  UNL     1      19.417 -16.108  24.219  1.00  0.00     0.336 C 
HETATM   13  O3  UNL     1      20.323 -16.599  23.495  1.00  0.00    -0.245 OA
HETATM   14  N3  UNL     1      19.038 -14.767  23.980  1.00  0.00    -0.342 N 
HETATM   15  C8  UNL     1      17.995 -14.190  24.808  1.00  0.00     0.154 C 
HETATM   16  C9  UNL     1      19.660 -13.973  22.944  1.00  0.00     0.154 C 
ATOM     17  H2  UNL     1      18.083 -16.459  25.797  1.00  0.00     0.191 HD
ENDBRANCH   9  11
ENDBRANCH   3   8
BRANCH   1  18
HETATM   18  C2  UNL     1      21.000 -21.999  29.745  1.00  0.00     0.295 C 
HETATM   19  O2  UNL     1      21.909 -22.803  30.073  1.00  0.00    -0.259 OA
BRANCH  18  20
HETATM   20  O1  UNL     1      20.177 -21.544  30.762  1.00  0.00    -0.322 OA
HETATM   21  C1  UNL     1      19.295 -22.425  31.438  1.00  0.00     0.213 C 
ENDBRANCH  18  20
ENDBRANCH   1  18
BRANCH   7  22
HETATM   22  O4  UNL     1      21.407 -23.831  27.639  1.00  0.00    -0.358 OA
ATOM     23  H4  UNL     1      20.741 -24.487  27.810  1.00  0.00     0.217 HD
ENDBRANCH   7  22
TORSDOF 5
ENDMDL
MODEL 5
REMARK VINA RESULT: -6.477448536      1.915      3.391
REMARK  5 active torsions:
REMARK  status: ('A' for Active; 'I' for Inactive)
REMARK    1  A    between atoms: O1_2  and  C2_3 
REMARK    2  A    between atoms: C2_3  and  C3_5 
REMARK    3  A    between atoms: C5_7  and  C6_8 
REMARK    4  A    between atoms: N1_9  and  N2_11 
REMARK       I    between atoms: N2_11  and  C7_13 
REMARK       I    between atoms: C7_13  and  N3_15 
REMARK    5  A    between atoms: C12_21  and  O4_22 
ROOT
HETATM    1  C3  UNL     1      23.425 -23.357  26.263  1.00  0.00     0.074 A 
HETATM    2  C4  UNL     1      23.140 -23.319  27.626  1.00  0.00     0.033 A 
HETATM    3  C5  UNL     1      21.919 -22.911  28.126  1.00  0.00    -0.017 A 
HETATM    4  C10 UNL     1      20.946 -22.527  27.237  1.00  0.00     0.034 A 
HETATM    5  C11 UNL     1      21.198 -22.554  25.886  1.00  0.00     0.046 A 
HETATM    6 BR1  UNL     1      19.831 -22.016  24.677  1.00  0.00    -0.048 Br
HETATM    7  C12 UNL     1      22.437 -22.968  25.385  1.00  0.00     0.099 A 
ENDROOT
BRANCH   3   8
HETATM    8  C6  UNL     1      21.720 -22.908  29.569  1.00  0.00     0.118 C 
HETATM    9  N1  UNL     1      20.533 -22.985  30.095  1.00  0.00    -0.307 N 
ATOM     10  H1  UNL     1      19.721 -23.051  29.480  1.00  0.00     0.186 HD
BRANCH   9  11
HETATM   11  N2  UNL     1      20.340 -22.982  31.462  1.00  0.00    -0.252 N 
HETATM   12  C7  UNL     1      19.430 -22.127  32.119  1.00  0.00     0.336 C 
HETATM   13  O3  UNL     1      18.737 -21.309  31.458  1.00  0.00    -0.245 OA
HETATM   14  N3  UNL     1      19.259 -22.150  33.522  1.00  0.00    -0.342 N 
HETATM   15  C8  UNL     1      20.053 -23.089  34.295  1.00  0.00     0.154 C 
HETATM   16  C9  UNL     1      18.326 -21.272  34.191  1.00  0.00     0.154 C 
ATOM     17  H2  UNL     1      20.886 -23.632  32.028  1.00  0.00     0.191 HD
ENDBRANCH   9  11
ENDBRANCH   3   8
BRANCH   1  18
HETATM   18  C2  UNL     1      24.710 -23.787  25.763  1.00  0.00     0.295 C 
HETATM   19  O2  UNL     1      25.335 -23.067  24.942  1.00  0.00    -0.259 OA
BRANCH  18  20
HETATM   20  O1  UNL     1      25.318 -24.974  26.136  1.00  0.00    -0.322 OA
HETATM   21  C1  UNL     1      26.330 -25.561  25.333  1.00  0.00     0.213 C 
ENDBRANCH  18  20
ENDBRANCH   1  18
BRANCH   7  22
HETATM   22  O4  UNL     1      22.650 -22.980  24.013  1.00  0.00    -0.358 OA
ATOM     23  H4  UNL     1      22.570 -23.782  23.511  1.00  0.00     0.217 HD
ENDBRANCH   7  22
TORSDOF 5
ENDMDL
