MODEL 1
REMARK VINA RESULT: -5.395328727      0.000      0.000
REMARK  8 active torsions:
REMARK  status: ('A' for Active; 'I' for Inactive)
REMARK    1  A    between atoms: N1_1  and  C1_5 
REMARK    2  A    between atoms: C1_5  and  C2_6 
REMARK    3  A    between atoms: C2_6  and  N2_7 
REMARK    4  A    between atoms: C2_6  and  C10_23 
REMARK    5  A    between atoms: N2_7  and  C3_9 
REMARK    6  A    between atoms: C3_9  and  C4_10 
REMARK    7  A    between atoms: C4_10  and  N3_11 
REMARK       I    between atoms: N3_11  and  C5_13 
REMARK    8  A    between atoms: C5_13  and  C6_15 
ROOT
HETATM    1  N2  UNL     1      10.332  -5.940 -37.266  1.00  0.00    -0.409 N 
ATOM      2  H2  UNL     1      10.255  -4.958 -36.999  1.00  0.00     0.154 HD
ENDROOT
BRANCH   1   3
HETATM    3  C2  UNL     1      10.258  -6.986 -36.316  1.00  0.00     0.153 C 
BRANCH   3   4
HETATM    4  C1  UNL     1       9.096  -6.917 -35.367  1.00  0.00     0.260 C 
BRANCH   4   5
HETATM    5  N1  UNL     1       8.647  -8.210 -34.911  1.00  0.00    -0.077 N 
ATOM      6  H13 UNL     1       8.124  -8.690 -35.644  1.00  0.00     0.274 HD
ATOM      7  H12 UNL     1       9.435  -8.852 -34.816  1.00  0.00     0.274 HD
ATOM      8  H11 UNL     1       8.106  -8.172 -34.048  1.00  0.00     0.274 HD
ENDBRANCH   4   5
ENDBRANCH   3   4
BRANCH   3   9
HETATM    9  C10 UNL     1      11.507  -6.925 -35.474  1.00  0.00     0.050 A 
HETATM   10  C11 UNL     1      12.193  -7.974 -34.907  1.00  0.00     0.116 A 
HETATM   11  N6  UNL     1      13.238  -7.450 -34.251  1.00  0.00    -0.360 N 
HETATM   12  C12 UNL     1      13.249  -6.114 -34.376  1.00  0.00     0.180 A 
ATOM     13  H6  UNL     1      13.927  -7.991 -33.730  1.00  0.00     0.166 HD
HETATM   14  N7  UNL     1      12.181  -5.811 -35.128  1.00  0.00    -0.353 N 
ATOM     15  H7  UNL     1      11.916  -4.865 -35.402  1.00  0.00     0.166 HD
ENDBRANCH   3   9
ENDBRANCH   1   3
BRANCH   1  16
HETATM   16  C3  UNL     1      10.521  -6.349 -38.627  1.00  0.00     0.134 C 
BRANCH  16  17
HETATM   17  C4  UNL     1      11.440  -5.455 -39.408  1.00  0.00     0.142 C 
BRANCH  17  18
HETATM   18  N3  UNL     1      12.806  -5.895 -39.203  1.00  0.00    -0.354 N 
HETATM   19  C5  UNL     1      13.644  -5.278 -38.224  1.00  0.00     0.268 C 
HETATM   20  O1  UNL     1      13.138  -4.327 -37.542  1.00  0.00    -0.266 OA
ATOM     21  H3  UNL     1      13.176  -6.659 -39.768  1.00  0.00     0.162 HD
BRANCH  19  22
HETATM   22  C6  UNL     1      15.008  -5.686 -37.991  1.00  0.00     0.102 A 
HETATM   23  C7  UNL     1      15.623  -6.515 -38.918  1.00  0.00     0.052 A 
HETATM   24  C8  UNL     1      16.918  -6.931 -38.741  1.00  0.00     0.091 A 
HETATM   25  N4  UNL     1      17.564  -6.499 -37.626  1.00  0.00    -0.362 N 
HETATM   26  C9  UNL     1      16.992  -5.706 -36.727  1.00  0.00     0.180 A 
ATOM     27  H4  UNL     1      18.527  -6.797 -37.472  1.00  0.00     0.165 HD
HETATM   28  N5  UNL     1      15.723  -5.309 -36.918  1.00  0.00    -0.348 N 
ATOM     29  H5  UNL     1      15.288  -4.701 -36.225  1.00  0.00     0.167 HD
ENDBRANCH  19  22
ENDBRANCH  17  18
ENDBRANCH  16  17
ENDBRANCH   1  16
TORSDOF 8
ENDMDL
MODEL 2
REMARK VINA RESULT: -5.299154897      3.623      6.402
REMARK  8 active torsions:
REMARK  status: ('A' for Active; 'I' for Inactive)
REMARK    1  A    between atoms: N1_1  and  C1_5 
REMARK    2  A    between atoms: C1_5  and  C2_6 
REMARK    3  A    between atoms: C2_6  and  N2_7 
REMARK    4  A    between atoms: C2_6  and  C10_23 
REMARK    5  A    between atoms: N2_7  and  C3_9 
REMARK    6  A    between atoms: C3_9  and  C4_10 
REMARK    7  A    between atoms: C4_10  and  N3_11 
REMARK       I    between atoms: N3_11  and  C5_13 
REMARK    8  A    between atoms: C5_13  and  C6_15 
ROOT
HETATM    1  N2  UNL     1      10.257  -5.969 -37.254  1.00  0.00    -0.409 N 
ATOM      2  H2  UNL     1      10.094  -4.994 -37.003  1.00  0.00     0.154 HD
ENDROOT
BRANCH   1   3
HETATM    3  C2  UNL     1      10.223  -7.009 -36.296  1.00  0.00     0.153 C 
BRANCH   3   4
HETATM    4  C1  UNL     1       9.081  -6.954 -35.322  1.00  0.00     0.260 C 
BRANCH   4   5
HETATM    5  N1  UNL     1       8.587  -8.254 -34.940  1.00  0.00    -0.077 N 
ATOM      6  H13 UNL     1       8.215  -8.751 -35.749  1.00  0.00     0.274 HD
ATOM      7  H12 UNL     1       9.358  -8.876 -34.696  1.00  0.00     0.274 HD
ATOM      8  H11 UNL     1       7.897  -8.222 -34.188  1.00  0.00     0.274 HD
ENDBRANCH   4   5
ENDBRANCH   3   4
BRANCH   3   9
HETATM    9  C10 UNL     1      11.489  -6.923 -35.484  1.00  0.00     0.050 A 
HETATM   10  C11 UNL     1      12.118  -7.932 -34.791  1.00  0.00     0.116 A 
HETATM   11  N6  UNL     1      13.206  -7.397 -34.221  1.00  0.00    -0.360 N 
HETATM   12  C12 UNL     1      13.300  -6.092 -34.520  1.00  0.00     0.180 A 
ATOM     13  H6  UNL     1      13.869  -7.910 -33.642  1.00  0.00     0.166 HD
HETATM   14  N7  UNL     1      12.239  -5.819 -35.294  1.00  0.00    -0.353 N 
ATOM     15  H7  UNL     1      12.030  -4.901 -35.686  1.00  0.00     0.166 HD
ENDBRANCH   3   9
ENDBRANCH   1   3
BRANCH   1  16
HETATM   16  C3  UNL     1      10.537  -6.373 -38.602  1.00  0.00     0.134 C 
BRANCH  16  17
HETATM   17  C4  UNL     1      10.731  -5.227 -39.551  1.00  0.00     0.142 C 
BRANCH  17  18
HETATM   18  N3  UNL     1       9.513  -5.041 -40.316  1.00  0.00    -0.354 N 
HETATM   19  C5  UNL     1       8.458  -4.208 -39.836  1.00  0.00     0.268 C 
HETATM   20  O1  UNL     1       8.633  -3.636 -38.711  1.00  0.00    -0.266 OA
ATOM     21  H3  UNL     1       9.408  -5.514 -41.214  1.00  0.00     0.162 HD
BRANCH  19  22
HETATM   22  C6  UNL     1       7.231  -3.998 -40.567  1.00  0.00     0.102 A 
HETATM   23  C7  UNL     1       7.225  -4.218 -41.937  1.00  0.00     0.052 A 
HETATM   24  C8  UNL     1       6.085  -4.032 -42.675  1.00  0.00     0.091 A 
HETATM   25  N4  UNL     1       4.972  -3.625 -42.010  1.00  0.00    -0.362 N 
HETATM   26  C9  UNL     1       4.957  -3.410 -40.700  1.00  0.00     0.180 A 
ATOM     27  H4  UNL     1       4.112  -3.480 -42.539  1.00  0.00     0.165 HD
HETATM   28  N5  UNL     1       6.084  -3.597 -39.994  1.00  0.00    -0.348 N 
ATOM     29  H5  UNL     1       6.068  -3.430 -38.988  1.00  0.00     0.167 HD
ENDBRANCH  19  22
ENDBRANCH  17  18
ENDBRANCH  16  17
ENDBRANCH   1  16
TORSDOF 8
ENDMDL
MODEL 3
REMARK VINA RESULT: -5.274486287      1.222      1.448
REMARK  8 active torsions:
REMARK  status: ('A' for Active; 'I' for Inactive)
REMARK    1  A    between atoms: N1_1  and  C1_5 
REMARK    2  A    between atoms: C1_5  and  C2_6 
REMARK    3  A    between atoms: C2_6  and  N2_7 
REMARK    4  A    between atoms: C2_6  and  C10_23 
REMARK    5  A    between atoms: N2_7  and  C3_9 
REMARK    6  A    between atoms: C3_9  and  C4_10 
REMARK    7  A    between atoms: C4_10  and  N3_11 
REMARK       I    between atoms: N3_11  and  C5_13 
REMARK    8  A    between atoms: C5_13  and  C6_15 
ROOT
HETATM    1  N2  UNL     1      10.243  -5.739 -37.149  1.00  0.00    -0.409 N 
ATOM      2  H2  UNL     1      10.386  -4.794 -36.791  1.00  0.00     0.154 HD
ENDROOT
BRANCH   1   3
HETATM    3  C2  UNL     1      10.208  -6.869 -36.299  1.00  0.00     0.153 C 
BRANCH   3   4
HETATM    4  C1  UNL     1       9.077  -6.902 -35.311  1.00  0.00     0.260 C 
BRANCH   4   5
HETATM    5  N1  UNL     1       8.637  -8.235 -34.983  1.00  0.00    -0.077 N 
ATOM      6  H13 UNL     1       8.403  -8.757 -35.828  1.00  0.00     0.274 HD
ATOM      7  H12 UNL     1       9.417  -8.799 -34.645  1.00  0.00     0.274 HD
ATOM      8  H11 UNL     1       7.862  -8.257 -34.320  1.00  0.00     0.274 HD
ENDBRANCH   4   5
ENDBRANCH   3   4
BRANCH   3   9
HETATM    9  C10 UNL     1      11.483  -6.873 -35.495  1.00  0.00     0.050 A 
HETATM   10  C11 UNL     1      12.085  -7.943 -34.874  1.00  0.00     0.116 A 
HETATM   11  N6  UNL     1      13.195  -7.480 -34.283  1.00  0.00    -0.360 N 
HETATM   12  C12 UNL     1      13.328  -6.162 -34.500  1.00  0.00     0.180 A 
ATOM     13  H6  UNL     1      13.846  -8.049 -33.743  1.00  0.00     0.166 HD
HETATM   14  N7  UNL     1      12.270  -5.808 -35.244  1.00  0.00    -0.353 N 
ATOM     15  H7  UNL     1      12.086  -4.861 -35.576  1.00  0.00     0.166 HD
ENDBRANCH   3   9
ENDBRANCH   1   3
BRANCH   1  16
HETATM   16  C3  UNL     1      10.062  -6.006 -38.546  1.00  0.00     0.134 C 
BRANCH  16  17
HETATM   17  C4  UNL     1      11.197  -6.764 -39.171  1.00  0.00     0.142 C 
BRANCH  17  18
HETATM   18  N3  UNL     1      12.430  -6.036 -38.942  1.00  0.00    -0.354 N 
HETATM   19  C5  UNL     1      13.597  -6.694 -38.450  1.00  0.00     0.268 C 
HETATM   20  O1  UNL     1      13.509  -7.945 -38.224  1.00  0.00    -0.266 OA
ATOM     21  H3  UNL     1      12.463  -5.035 -39.135  1.00  0.00     0.162 HD
BRANCH  19  22
HETATM   22  C6  UNL     1      14.842  -6.005 -38.208  1.00  0.00     0.102 A 
HETATM   23  C7  UNL     1      14.836  -4.619 -38.149  1.00  0.00     0.052 A 
HETATM   24  C8  UNL     1      15.992  -3.918 -37.923  1.00  0.00     0.091 A 
HETATM   25  N4  UNL     1      17.134  -4.637 -37.761  1.00  0.00    -0.362 N 
HETATM   26  C9  UNL     1      17.160  -5.964 -37.814  1.00  0.00     0.180 A 
ATOM     27  H4  UNL     1      18.007  -4.137 -37.592  1.00  0.00     0.165 HD
HETATM   28  N5  UNL     1      16.017  -6.632 -38.037  1.00  0.00    -0.348 N 
ATOM     29  H5  UNL     1      16.043  -7.651 -38.078  1.00  0.00     0.167 HD
ENDBRANCH  19  22
ENDBRANCH  17  18
ENDBRANCH  16  17
ENDBRANCH   1  16
TORSDOF 8
ENDMDL
MODEL 4
REMARK VINA RESULT: -5.217970921      2.472      5.534
REMARK  8 active torsions:
REMARK  status: ('A' for Active; 'I' for Inactive)
REMARK    1  A    between atoms: N1_1  and  C1_5 
REMARK    2  A    between atoms: C1_5  and  C2_6 
REMARK    3  A    between atoms: C2_6  and  N2_7 
REMARK    4  A    between atoms: C2_6  and  C10_23 
REMARK    5  A    between atoms: N2_7  and  C3_9 
REMARK    6  A    between atoms: C3_9  and  C4_10 
REMARK    7  A    between atoms: C4_10  and  N3_11 
REMARK       I    between atoms: N3_11  and  C5_13 
REMARK    8  A    between atoms: C5_13  and  C6_15 
ROOT
HETATM    1  N2  UNL     1      13.035  -7.585 -36.622  1.00  0.00    -0.409 N 
ATOM      2  H2  UNL     1      13.644  -8.287 -36.202  1.00  0.00     0.154 HD
ENDROOT
BRANCH   1   3
HETATM    3  C2  UNL     1      12.398  -6.584 -35.852  1.00  0.00     0.153 C 
BRANCH   3   4
HETATM    4  C1  UNL     1      13.039  -6.280 -34.527  1.00  0.00     0.260 C 
BRANCH   4   5
HETATM    5  N1  UNL     1      13.764  -7.395 -33.970  1.00  0.00    -0.077 N 
ATOM      6  H13 UNL     1      14.297  -7.105 -33.150  1.00  0.00     0.274 HD
ATOM      7  H12 UNL     1      13.124  -8.058 -33.531  1.00  0.00     0.274 HD
ATOM      8  H11 UNL     1      14.367  -7.867 -34.644  1.00  0.00     0.274 HD
ENDBRANCH   4   5
ENDBRANCH   3   4
BRANCH   3   9
HETATM    9  C10 UNL     1      10.998  -7.058 -35.556  1.00  0.00     0.050 A 
HETATM   10  C11 UNL     1      10.617  -8.207 -34.903  1.00  0.00     0.116 A 
HETATM   11  N6  UNL     1       9.277  -8.213 -34.869  1.00  0.00    -0.360 N 
HETATM   12  C12 UNL     1       8.787  -7.119 -35.471  1.00  0.00     0.180 A 
ATOM     13  H6  UNL     1       8.711  -8.947 -34.445  1.00  0.00     0.166 HD
HETATM   14  N7  UNL     1       9.856  -6.422 -35.886  1.00  0.00    -0.353 N 
ATOM     15  H7  UNL     1       9.810  -5.533 -36.383  1.00  0.00     0.166 HD
ENDBRANCH   3   9
ENDBRANCH   1   3
BRANCH   1  16
HETATM   16  C3  UNL     1      12.769  -7.550 -38.031  1.00  0.00     0.134 C 
BRANCH  16  17
HETATM   17  C4  UNL     1      12.887  -6.183 -38.638  1.00  0.00     0.142 C 
BRANCH  17  18
HETATM   18  N3  UNL     1      11.748  -5.955 -39.505  1.00  0.00    -0.354 N 
HETATM   19  C5  UNL     1      10.713  -5.041 -39.143  1.00  0.00     0.268 C 
HETATM   20  O1  UNL     1      10.835  -4.435 -38.028  1.00  0.00    -0.266 OA
ATOM     21  H3  UNL     1      11.684  -6.458 -40.391  1.00  0.00     0.162 HD
BRANCH  19  22
HETATM   22  C6  UNL     1       9.564  -4.787 -39.978  1.00  0.00     0.102 A 
HETATM   23  C7  UNL     1       8.482  -4.109 -39.435  1.00  0.00     0.052 A 
HETATM   24  C8  UNL     1       7.366  -3.844 -40.187  1.00  0.00     0.091 A 
HETATM   25  N4  UNL     1       7.368  -4.274 -41.476  1.00  0.00    -0.362 N 
HETATM   26  C9  UNL     1       8.393  -4.925 -42.014  1.00  0.00     0.180 A 
ATOM     27  H4  UNL     1       6.548  -4.090 -42.054  1.00  0.00     0.165 HD
HETATM   28  N5  UNL     1       9.477  -5.174 -41.262  1.00  0.00    -0.348 N 
ATOM     29  H5  UNL     1      10.261  -5.675 -41.679  1.00  0.00     0.167 HD
ENDBRANCH  19  22
ENDBRANCH  17  18
ENDBRANCH  16  17
ENDBRANCH   1  16
TORSDOF 8
ENDMDL
MODEL 5
REMARK VINA RESULT: -5.210820550      2.395      5.443
REMARK  8 active torsions:
REMARK  status: ('A' for Active; 'I' for Inactive)
REMARK    1  A    between atoms: N1_1  and  C1_5 
REMARK    2  A    between atoms: C1_5  and  C2_6 
REMARK    3  A    between atoms: C2_6  and  N2_7 
REMARK    4  A    between atoms: C2_6  and  C10_23 
REMARK    5  A    between atoms: N2_7  and  C3_9 
REMARK    6  A    between atoms: C3_9  and  C4_10 
REMARK    7  A    between atoms: C4_10  and  N3_11 
REMARK       I    between atoms: N3_11  and  C5_13 
REMARK    8  A    between atoms: C5_13  and  C6_15 
ROOT
HETATM    1  N2  UNL     1      13.046  -7.527 -36.614  1.00  0.00    -0.409 N 
ATOM      2  H2  UNL     1      13.685  -8.207 -36.202  1.00  0.00     0.154 HD
ENDROOT
BRANCH   1   3
HETATM    3  C2  UNL     1      12.391  -6.542 -35.837  1.00  0.00     0.153 C 
BRANCH   3   4
HETATM    4  C1  UNL     1      13.022  -6.242 -34.507  1.00  0.00     0.260 C 
BRANCH   4   5
HETATM    5  N1  UNL     1      13.763  -7.350 -33.958  1.00  0.00    -0.077 N 
ATOM      6  H13 UNL     1      13.223  -8.213 -34.024  1.00  0.00     0.274 HD
ATOM      7  H12 UNL     1      14.548  -7.594 -34.562  1.00  0.00     0.274 HD
ATOM      8  H11 UNL     1      14.078  -7.194 -33.000  1.00  0.00     0.274 HD
ENDBRANCH   4   5
ENDBRANCH   3   4
BRANCH   3   9
HETATM    9  C10 UNL     1      10.997  -7.040 -35.551  1.00  0.00     0.050 A 
HETATM   10  C11 UNL     1      10.631  -8.208 -34.922  1.00  0.00     0.116 A 
HETATM   11  N6  UNL     1       9.292  -8.232 -34.889  1.00  0.00    -0.360 N 
HETATM   12  C12 UNL     1       8.787  -7.131 -35.467  1.00  0.00     0.180 A 
ATOM     13  H6  UNL     1       8.735  -8.982 -34.480  1.00  0.00     0.166 HD
HETATM   14  N7  UNL     1       9.847  -6.413 -35.867  1.00  0.00    -0.353 N 
ATOM     15  H7  UNL     1       9.790  -5.514 -36.345  1.00  0.00     0.166 HD
ENDBRANCH   3   9
ENDBRANCH   1   3
BRANCH   1  16
HETATM   16  C3  UNL     1      12.754  -7.507 -38.018  1.00  0.00     0.134 C 
BRANCH  16  17
HETATM   17  C4  UNL     1      12.873  -6.148 -38.644  1.00  0.00     0.142 C 
BRANCH  17  18
HETATM   18  N3  UNL     1      11.710  -5.913 -39.477  1.00  0.00    -0.354 N 
HETATM   19  C5  UNL     1      10.691  -4.994 -39.081  1.00  0.00     0.268 C 
HETATM   20  O1  UNL     1      10.850  -4.392 -37.969  1.00  0.00    -0.266 OA
ATOM     21  H3  UNL     1      11.617  -6.413 -40.361  1.00  0.00     0.162 HD
BRANCH  19  22
HETATM   22  C6  UNL     1       9.519  -4.732 -39.881  1.00  0.00     0.102 A 
HETATM   23  C7  UNL     1       9.510  -5.144 -41.206  1.00  0.00     0.052 A 
HETATM   24  C8  UNL     1       8.420  -4.918 -42.006  1.00  0.00     0.091 A 
HETATM   25  N4  UNL     1       7.359  -4.278 -41.448  1.00  0.00    -0.362 N 
HETATM   26  C9  UNL     1       7.348  -3.877 -40.182  1.00  0.00     0.180 A 
ATOM     27  H4  UNL     1       6.537  -4.098 -42.025  1.00  0.00     0.165 HD
HETATM   28  N5  UNL     1       8.425  -4.107 -39.414  1.00  0.00    -0.348 N 
ATOM     29  H5  UNL     1       8.412  -3.796 -38.443  1.00  0.00     0.167 HD
ENDBRANCH  19  22
ENDBRANCH  17  18
ENDBRANCH  16  17
ENDBRANCH   1  16
TORSDOF 8
ENDMDL
