MODEL 1
REMARK VINA RESULT: -6.892258567      0.000      0.000
REMARK  10 active torsions:
REMARK  status: ('A' for Active; 'I' for Inactive)
REMARK    1  A    between atoms: N1_4  and  N2_6 
REMARK    2  A    between atoms: N2_6  and  C4_8 
REMARK    3  A    between atoms: C7_15  and  N4_16 
REMARK    4  A    between atoms: N4_16  and  C8_17 
REMARK    5  A    between atoms: N4_16  and  C10_21 
REMARK    6  A    between atoms: C8_17  and  C9_18 
REMARK    7  A    between atoms: C10_21  and  C12_23 
REMARK    8  A    between atoms: C12_23  and  O4_24 
REMARK    9  A    between atoms: C12_23  and  O5_26 
REMARK   10  A    between atoms: C13_30  and  C14_31 
ROOT
HETATM    1  C4  UNL     1      12.396  -9.831  -2.596  1.00  0.00     0.446 C 
HETATM    2  N3  UNL     1      11.311  -9.055  -3.097  1.00  0.00     0.003 N 
ATOM      3  H31 UNL     1      11.130  -9.231  -4.086  1.00  0.00     0.285 HD
ATOM      4  H32 UNL     1      11.541  -8.064  -3.170  1.00  0.00     0.285 HD
HETATM    5  C5  UNL     1      10.171  -9.288  -2.289  1.00  0.00     0.281 C 
HETATM    6  C6  UNL     1      10.750 -10.020  -1.081  1.00  0.00     0.238 C 
HETATM    7  O1  UNL     1      12.072 -10.209  -1.311  1.00  0.00    -0.339 OA
HETATM    8  C7  UNL     1       9.429  -8.088  -1.890  1.00  0.00     0.133 C 
HETATM    9  N5  UNL     1       8.262  -8.324  -1.331  1.00  0.00    -0.360 N 
ATOM     10  H5  UNL     1       7.695  -7.532  -1.030  1.00  0.00     0.162 HD
HETATM   11  C13 UNL     1       7.754  -9.643  -1.129  1.00  0.00     0.221 C 
HETATM   12  C15 UNL     1       8.150 -10.611  -2.226  1.00  0.00     0.224 C 
HETATM   13  N6  UNL     1       7.125 -10.713  -3.233  1.00  0.00    -0.104 NA
HETATM   14  N7  UNL     1       7.656 -10.227  -4.412  1.00  0.00    -0.021 NA
HETATM   15  N8  UNL     1       9.034 -10.122  -4.235  1.00  0.00    -0.034 NA
HETATM   16  N9  UNL     1       9.323 -10.270  -2.933  1.00  0.00    -0.148 NA
ENDROOT
BRANCH   8  17
HETATM   17  N4  UNL     1       9.758  -6.729  -2.020  1.00  0.00    -0.348 N 
BRANCH  17  18
HETATM   18  C8  UNL     1      10.608  -6.074  -1.082  1.00  0.00     0.238 C 
BRANCH  18  19
HETATM   19  C9  UNL     1      12.039  -6.078  -1.312  1.00  0.00     0.191 C 
HETATM   20  O2  UNL     1      12.806  -6.055  -0.317  1.00  0.00    -0.647 OA
HETATM   21  O3  UNL     1      12.585  -6.101  -2.567  1.00  0.00    -0.647 OA
ENDBRANCH  18  19
ENDBRANCH  17  18
BRANCH  17  22
HETATM   22  C10 UNL     1       9.227  -5.990  -3.130  1.00  0.00     0.137 C 
HETATM   23  C11 UNL     1       7.747  -6.412  -3.325  1.00  0.00     0.037 C 
BRANCH  22  24
HETATM   24  C12 UNL     1       9.180  -4.506  -2.992  1.00  0.00     0.276 C 
BRANCH  24  25
HETATM   25  O4  UNL     1      10.371  -4.044  -3.639  1.00  0.00    -0.369 OA
ATOM     26  H4  UNL     1      10.084  -3.767  -4.501  1.00  0.00     0.212 HD
ENDBRANCH  24  25
BRANCH  24  27
HETATM   27  O5  UNL     1       8.176  -3.903  -3.787  1.00  0.00    -0.369 OA
ATOM     28  H5  UNL     1       8.313  -2.973  -3.923  1.00  0.00     0.212 HD
ENDBRANCH  24  27
ENDBRANCH  22  24
ENDBRANCH  17  22
ENDBRANCH   8  17
BRANCH   1  29
HETATM   29  N2  UNL     1      12.632 -11.049  -3.366  1.00  0.00    -0.284 N 
ATOM     30  H2  UNL     1      13.337 -11.715  -3.054  1.00  0.00     0.184 HD
BRANCH  29  31
HETATM   31  N1  UNL     1      11.895 -11.311  -4.534  1.00  0.00    -0.310 N 
HETATM   32  C2  UNL     1      11.407 -12.473  -4.746  1.00  0.00    -0.004 C 
HETATM   33  C1  UNL     1      11.612 -13.564  -3.760  1.00  0.00     0.064 C 
HETATM   34  C3  UNL     1      10.618 -12.777  -5.987  1.00  0.00     0.064 C 
ATOM     35  H1  UNL     1      11.749 -10.568  -5.216  1.00  0.00     0.186 HD
ENDBRANCH  29  31
ENDBRANCH   1  29
BRANCH  11  36
HETATM   36  C14 UNL     1       6.299  -9.607  -0.884  1.00  0.00     0.199 C 
HETATM   37  O6  UNL     1       5.620  -8.593  -1.235  1.00  0.00    -0.646 OA
HETATM   38  O7  UNL     1       5.597 -10.638  -0.275  1.00  0.00    -0.646 OA
ENDBRANCH  11  36
TORSDOF 10
ENDMDL
MODEL 2
REMARK VINA RESULT: -6.868712154      2.869      6.970
REMARK  10 active torsions:
REMARK  status: ('A' for Active; 'I' for Inactive)
REMARK    1  A    between atoms: N1_4  and  N2_6 
REMARK    2  A    between atoms: N2_6  and  C4_8 
REMARK    3  A    between atoms: C7_15  and  N4_16 
REMARK    4  A    between atoms: N4_16  and  C8_17 
REMARK    5  A    between atoms: N4_16  and  C10_21 
REMARK    6  A    between atoms: C8_17  and  C9_18 
REMARK    7  A    between atoms: C10_21  and  C12_23 
REMARK    8  A    between atoms: C12_23  and  O4_24 
REMARK    9  A    between atoms: C12_23  and  O5_26 
REMARK   10  A    between atoms: C13_30  and  C14_31 
ROOT
HETATM    1  C4  UNL     1       6.056  -5.801  -1.885  1.00  0.00     0.446 C 
HETATM    2  N3  UNL     1       7.093  -6.168  -2.790  1.00  0.00     0.003 N 
ATOM      3  H31 UNL     1       7.115  -5.574  -3.619  1.00  0.00     0.285 HD
ATOM      4  H32 UNL     1       6.907  -7.056  -3.257  1.00  0.00     0.285 HD
HETATM    5  C5  UNL     1       8.327  -6.171  -2.095  1.00  0.00     0.281 C 
HETATM    6  C6  UNL     1       7.897  -6.084  -0.633  1.00  0.00     0.238 C 
HETATM    7  O1  UNL     1       6.548  -5.964  -0.608  1.00  0.00    -0.339 OA
HETATM    8  C7  UNL     1       9.182  -7.337  -2.339  1.00  0.00     0.133 C 
HETATM    9  N5  UNL     1      10.406  -7.229  -1.868  1.00  0.00    -0.360 N 
ATOM     10  H5  UNL     1      11.052  -8.007  -2.004  1.00  0.00     0.162 HD
HETATM   11  C13 UNL     1      10.868  -6.070  -1.175  1.00  0.00     0.221 C 
HETATM   12  C15 UNL     1      10.264  -4.782  -1.695  1.00  0.00     0.224 C 
HETATM   13  N6  UNL     1      11.119  -4.153  -2.667  1.00  0.00    -0.104 NA
HETATM   14  N7  UNL     1      10.445  -4.154  -3.873  1.00  0.00    -0.021 NA
HETATM   15  N8  UNL     1       9.116  -4.477  -3.604  1.00  0.00    -0.034 NA
HETATM   16  N9  UNL     1       9.017  -4.922  -2.342  1.00  0.00    -0.148 NA
ENDROOT
BRANCH   8  17
HETATM   17  N4  UNL     1       8.909  -8.543  -3.004  1.00  0.00    -0.348 N 
BRANCH  17  18
HETATM   18  C8  UNL     1       8.079  -9.546  -2.423  1.00  0.00     0.238 C 
BRANCH  18  19
HETATM   19  C9  UNL     1       8.163  -9.781  -0.994  1.00  0.00     0.191 C 
HETATM   20  O2  UNL     1       7.114  -9.687  -0.309  1.00  0.00    -0.647 OA
HETATM   21  O3  UNL     1       9.337 -10.099  -0.366  1.00  0.00    -0.647 OA
ENDBRANCH  18  19
ENDBRANCH  17  18
BRANCH  17  22
HETATM   22  C10 UNL     1       9.477  -8.762  -4.304  1.00  0.00     0.137 C 
HETATM   23  C11 UNL     1      10.280 -10.088  -4.261  1.00  0.00     0.037 C 
BRANCH  22  24
HETATM   24  C12 UNL     1       8.523  -8.937  -5.437  1.00  0.00     0.276 C 
BRANCH  24  25
HETATM   25  O4  UNL     1       7.656  -7.800  -5.360  1.00  0.00    -0.369 OA
ATOM     26  H4  UNL     1       7.106  -7.865  -6.131  1.00  0.00     0.212 HD
ENDBRANCH  24  25
BRANCH  24  27
HETATM   27  O5  UNL     1       9.122  -8.749  -6.706  1.00  0.00    -0.369 OA
ATOM     28  H5  UNL     1       8.718  -8.054  -7.212  1.00  0.00     0.212 HD
ENDBRANCH  24  27
ENDBRANCH  22  24
ENDBRANCH  17  22
ENDBRANCH   8  17
BRANCH   1  29
HETATM   29  N2  UNL     1       5.645  -4.406  -2.022  1.00  0.00    -0.284 N 
ATOM     30  H2  UNL     1       4.658  -4.181  -2.147  1.00  0.00     0.184 HD
BRANCH  29  31
HETATM   31  N1  UNL     1       6.596  -3.373  -1.984  1.00  0.00    -0.310 N 
HETATM   32  C2  UNL     1       6.558  -2.489  -1.062  1.00  0.00    -0.004 C 
HETATM   33  C1  UNL     1       5.506  -2.543  -0.016  1.00  0.00     0.064 C 
HETATM   34  C3  UNL     1       7.563  -1.375  -1.002  1.00  0.00     0.064 C 
ATOM     35  H1  UNL     1       7.322  -3.328  -2.699  1.00  0.00     0.186 HD
ENDBRANCH  29  31
ENDBRANCH   1  29
BRANCH  11  36
HETATM   36  C14 UNL     1      12.343  -6.044  -1.135  1.00  0.00     0.199 C 
HETATM   37  O6  UNL     1      12.948  -5.983  -0.020  1.00  0.00    -0.646 OA
HETATM   38  O7  UNL     1      13.143  -6.082  -2.268  1.00  0.00    -0.646 OA
ENDBRANCH  11  36
TORSDOF 10
ENDMDL
MODEL 3
REMARK VINA RESULT: -6.680265271      1.581      1.946
REMARK  10 active torsions:
REMARK  status: ('A' for Active; 'I' for Inactive)
REMARK    1  A    between atoms: N1_4  and  N2_6 
REMARK    2  A    between atoms: N2_6  and  C4_8 
REMARK    3  A    between atoms: C7_15  and  N4_16 
REMARK    4  A    between atoms: N4_16  and  C8_17 
REMARK    5  A    between atoms: N4_16  and  C10_21 
REMARK    6  A    between atoms: C8_17  and  C9_18 
REMARK    7  A    between atoms: C10_21  and  C12_23 
REMARK    8  A    between atoms: C12_23  and  O4_24 
REMARK    9  A    between atoms: C12_23  and  O5_26 
REMARK   10  A    between atoms: C13_30  and  C14_31 
ROOT
HETATM    1  C4  UNL     1      11.605  -9.065  -1.953  1.00  0.00     0.446 C 
HETATM    2  N3  UNL     1      10.829  -8.078  -2.626  1.00  0.00     0.003 N 
ATOM      3  H31 UNL     1      11.094  -7.975  -3.606  1.00  0.00     0.285 HD
ATOM      4  H32 UNL     1      11.052  -7.131  -2.318  1.00  0.00     0.285 HD
HETATM    5  C5  UNL     1       9.456  -8.388  -2.467  1.00  0.00     0.281 C 
HETATM    6  C6  UNL     1       9.470  -9.462  -1.382  1.00  0.00     0.238 C 
HETATM    7  O1  UNL     1      10.765  -9.724  -1.081  1.00  0.00    -0.339 OA
HETATM    8  C7  UNL     1       8.596  -7.260  -2.100  1.00  0.00     0.133 C 
HETATM    9  N5  UNL     1       7.305  -7.506  -2.169  1.00  0.00    -0.360 N 
ATOM     10  H5  UNL     1       6.652  -6.762  -1.925  1.00  0.00     0.162 HD
HETATM   11  C13 UNL     1       6.781  -8.772  -2.570  1.00  0.00     0.221 C 
HETATM   12  C15 UNL     1       7.625  -9.462  -3.622  1.00  0.00     0.224 C 
HETATM   13  N6  UNL     1       7.136  -9.195  -4.949  1.00  0.00    -0.104 NA
HETATM   14  N7  UNL     1       8.115  -8.482  -5.614  1.00  0.00    -0.021 NA
HETATM   15  N8  UNL     1       9.280  -8.571  -4.856  1.00  0.00    -0.034 NA
HETATM   16  N9  UNL     1       8.983  -9.078  -3.650  1.00  0.00    -0.148 NA
ENDROOT
BRANCH   8  17
HETATM   17  N4  UNL     1       8.927  -5.955  -1.699  1.00  0.00    -0.348 N 
BRANCH  17  18
HETATM   18  C8  UNL     1      10.282  -5.550  -1.520  1.00  0.00     0.238 C 
BRANCH  18  19
HETATM   19  C9  UNL     1      11.015  -5.036  -2.661  1.00  0.00     0.191 C 
HETATM   20  O2  UNL     1      12.090  -5.600  -2.985  1.00  0.00    -0.647 OA
HETATM   21  O3  UNL     1      10.585  -3.963  -3.393  1.00  0.00    -0.647 OA
ENDBRANCH  18  19
ENDBRANCH  17  18
BRANCH  17  22
HETATM   22  C10 UNL     1       7.870  -5.011  -1.471  1.00  0.00     0.137 C 
HETATM   23  C11 UNL     1       8.432  -3.862  -0.594  1.00  0.00     0.037 C 
BRANCH  22  24
HETATM   24  C12 UNL     1       7.307  -4.326  -2.671  1.00  0.00     0.276 C 
BRANCH  24  25
HETATM   25  O4  UNL     1       7.868  -3.010  -2.633  1.00  0.00    -0.369 OA
ATOM     26  H4  UNL     1       7.120  -2.432  -2.543  1.00  0.00     0.212 HD
ENDBRANCH  24  25
BRANCH  24  27
HETATM   27  O5  UNL     1       7.826  -4.820  -3.891  1.00  0.00    -0.369 OA
ATOM     28  H5  UNL     1       7.197  -4.800  -4.602  1.00  0.00     0.212 HD
ENDBRANCH  24  27
ENDBRANCH  22  24
ENDBRANCH  17  22
ENDBRANCH   8  17
BRANCH   1  29
HETATM   29  N2  UNL     1      12.168 -10.064  -2.858  1.00  0.00    -0.284 N 
ATOM     30  H2  UNL     1      13.011 -10.570  -2.589  1.00  0.00     0.184 HD
BRANCH  29  31
HETATM   31  N1  UNL     1      11.559 -10.333  -4.095  1.00  0.00    -0.310 N 
HETATM   32  C2  UNL     1      11.248 -11.530  -4.419  1.00  0.00    -0.004 C 
HETATM   33  C1  UNL     1      11.527 -12.654  -3.491  1.00  0.00     0.064 C 
HETATM   34  C3  UNL     1      10.598 -11.841  -5.737  1.00  0.00     0.064 C 
ATOM     35  H1  UNL     1      11.363  -9.567  -4.739  1.00  0.00     0.186 HD
ENDBRANCH  29  31
ENDBRANCH   1  29
BRANCH  11  36
HETATM   36  C14 UNL     1       5.362  -8.647  -2.956  1.00  0.00     0.199 C 
HETATM   37  O6  UNL     1       4.878  -7.507  -3.241  1.00  0.00    -0.646 OA
HETATM   38  O7  UNL     1       4.488  -9.722  -3.029  1.00  0.00    -0.646 OA
ENDBRANCH  11  36
TORSDOF 10
ENDMDL
MODEL 4
REMARK VINA RESULT: -6.551261853      2.954      7.283
REMARK  10 active torsions:
REMARK  status: ('A' for Active; 'I' for Inactive)
REMARK    1  A    between atoms: N1_4  and  N2_6 
REMARK    2  A    between atoms: N2_6  and  C4_8 
REMARK    3  A    between atoms: C7_15  and  N4_16 
REMARK    4  A    between atoms: N4_16  and  C8_17 
REMARK    5  A    between atoms: N4_16  and  C10_21 
REMARK    6  A    between atoms: C8_17  and  C9_18 
REMARK    7  A    between atoms: C10_21  and  C12_23 
REMARK    8  A    between atoms: C12_23  and  O4_24 
REMARK    9  A    between atoms: C12_23  and  O5_26 
REMARK   10  A    between atoms: C13_30  and  C14_31 
ROOT
HETATM    1  C4  UNL     1       5.902  -5.149  -1.908  1.00  0.00     0.446 C 
HETATM    2  N3  UNL     1       6.895  -5.583  -2.833  1.00  0.00     0.003 N 
ATOM      3  H31 UNL     1       7.013  -4.935  -3.611  1.00  0.00     0.285 HD
ATOM      4  H32 UNL     1       6.598  -6.398  -3.370  1.00  0.00     0.285 HD
HETATM    5  C5  UNL     1       8.105  -5.811  -2.131  1.00  0.00     0.281 C 
HETATM    6  C6  UNL     1       7.665  -5.781  -0.670  1.00  0.00     0.238 C 
HETATM    7  O1  UNL     1       6.344  -5.478  -0.645  1.00  0.00    -0.339 OA
HETATM    8  C7  UNL     1       8.796  -7.060  -2.462  1.00  0.00     0.133 C 
HETATM    9  N5  UNL     1      10.015  -7.159  -1.976  1.00  0.00    -0.360 N 
ATOM     10  H5  UNL     1      10.551  -8.006  -2.169  1.00  0.00     0.162 HD
HETATM   11  C13 UNL     1      10.619  -6.133  -1.189  1.00  0.00     0.221 C 
HETATM   12  C15 UNL     1      10.205  -4.737  -1.608  1.00  0.00     0.224 C 
HETATM   13  N6  UNL     1      11.156  -4.158  -2.521  1.00  0.00    -0.104 NA
HETATM   14  N7  UNL     1      10.509  -3.971  -3.727  1.00  0.00    -0.021 NA
HETATM   15  N8  UNL     1       9.145  -4.128  -3.495  1.00  0.00    -0.034 NA
HETATM   16  N9  UNL     1       8.963  -4.653  -2.273  1.00  0.00    -0.148 NA
ENDROOT
BRANCH   8  17
HETATM   17  N4  UNL     1       8.373  -8.162  -3.224  1.00  0.00    -0.348 N 
BRANCH  17  18
HETATM   18  C8  UNL     1       7.146  -8.141  -3.949  1.00  0.00     0.238 C 
BRANCH  18  19
HETATM   19  C9  UNL     1       7.137  -7.605  -5.296  1.00  0.00     0.191 C 
HETATM   20  O2  UNL     1       7.597  -8.314  -6.226  1.00  0.00    -0.647 OA
HETATM   21  O3  UNL     1       6.653  -6.360  -5.591  1.00  0.00    -0.647 OA
ENDBRANCH  18  19
ENDBRANCH  17  18
BRANCH  17  22
HETATM   22  C10 UNL     1       9.205  -9.330  -3.274  1.00  0.00     0.137 C 
HETATM   23  C11 UNL     1       8.297 -10.555  -3.556  1.00  0.00     0.037 C 
BRANCH  22  24
HETATM   24  C12 UNL     1      10.240  -9.376  -4.347  1.00  0.00     0.276 C 
BRANCH  24  25
HETATM   25  O4  UNL     1      11.468  -9.067  -3.678  1.00  0.00    -0.369 OA
ATOM     26  H4  UNL     1      11.912  -8.462  -4.259  1.00  0.00     0.212 HD
ENDBRANCH  24  25
BRANCH  24  27
HETATM   27  O5  UNL     1      10.498 -10.685  -4.819  1.00  0.00    -0.369 OA
ATOM     28  H5  UNL     1      11.354 -11.013  -4.569  1.00  0.00     0.212 HD
ENDBRANCH  24  27
ENDBRANCH  22  24
ENDBRANCH  17  22
ENDBRANCH   8  17
BRANCH   1  29
HETATM   29  N2  UNL     1       5.688  -3.705  -1.936  1.00  0.00    -0.284 N 
ATOM     30  H2  UNL     1       4.741  -3.337  -2.021  1.00  0.00     0.184 HD
BRANCH  29  31
HETATM   31  N1  UNL     1       6.774  -2.819  -1.846  1.00  0.00    -0.310 N 
HETATM   32  C2  UNL     1       6.833  -1.957  -0.904  1.00  0.00    -0.004 C 
HETATM   33  C1  UNL     1       5.752  -1.882   0.111  1.00  0.00     0.064 C 
HETATM   34  C3  UNL     1       7.984  -0.999  -0.789  1.00  0.00     0.064 C 
ATOM     35  H1  UNL     1       7.521  -2.863  -2.539  1.00  0.00     0.186 HD
ENDBRANCH  29  31
ENDBRANCH   1  29
BRANCH  11  36
HETATM   36  C14 UNL     1      12.083  -6.313  -1.137  1.00  0.00     0.199 C 
HETATM   37  O6  UNL     1      12.685  -6.908  -2.084  1.00  0.00    -0.646 OA
HETATM   38  O7  UNL     1      12.875  -5.865  -0.089  1.00  0.00    -0.646 OA
ENDBRANCH  11  36
TORSDOF 10
ENDMDL
MODEL 5
REMARK VINA RESULT: -6.489420731      2.686      6.985
REMARK  10 active torsions:
REMARK  status: ('A' for Active; 'I' for Inactive)
REMARK    1  A    between atoms: N1_4  and  N2_6 
REMARK    2  A    between atoms: N2_6  and  C4_8 
REMARK    3  A    between atoms: C7_15  and  N4_16 
REMARK    4  A    between atoms: N4_16  and  C8_17 
REMARK    5  A    between atoms: N4_16  and  C10_21 
REMARK    6  A    between atoms: C8_17  and  C9_18 
REMARK    7  A    between atoms: C10_21  and  C12_23 
REMARK    8  A    between atoms: C12_23  and  O4_24 
REMARK    9  A    between atoms: C12_23  and  O5_26 
REMARK   10  A    between atoms: C13_30  and  C14_31 
ROOT
HETATM    1  C4  UNL     1       6.080  -5.817  -2.170  1.00  0.00     0.446 C 
HETATM    2  N3  UNL     1       7.159  -6.058  -3.068  1.00  0.00     0.003 N 
ATOM      3  H31 UNL     1       7.208  -5.364  -3.813  1.00  0.00     0.285 HD
ATOM      4  H32 UNL     1       7.004  -6.881  -3.651  1.00  0.00     0.285 HD
HETATM    5  C5  UNL     1       8.363  -6.141  -2.326  1.00  0.00     0.281 C 
HETATM    6  C6  UNL     1       7.871  -6.244  -0.884  1.00  0.00     0.238 C 
HETATM    7  O1  UNL     1       6.520  -6.137  -0.903  1.00  0.00    -0.339 OA
HETATM    8  C7  UNL     1       9.241  -7.260  -2.679  1.00  0.00     0.133 C 
HETATM    9  N5  UNL     1      10.443  -7.205  -2.145  1.00  0.00    -0.360 N 
ATOM     10  H5  UNL     1      11.104  -7.954  -2.351  1.00  0.00     0.162 HD
HETATM   11  C13 UNL     1      10.862  -6.140  -1.292  1.00  0.00     0.221 C 
HETATM   12  C15 UNL     1      10.263  -4.800  -1.670  1.00  0.00     0.224 C 
HETATM   13  N6  UNL     1      11.151  -4.047  -2.517  1.00  0.00    -0.104 NA
HETATM   14  N7  UNL     1      10.527  -3.899  -3.741  1.00  0.00    -0.021 NA
HETATM   15  N8  UNL     1       9.193  -4.263  -3.573  1.00  0.00    -0.034 NA
HETATM   16  N9  UNL     1       9.047  -4.865  -2.383  1.00  0.00    -0.148 NA
ENDROOT
BRANCH   8  17
HETATM   17  N4  UNL     1       9.012  -8.374  -3.502  1.00  0.00    -0.348 N 
BRANCH  17  18
HETATM   18  C8  UNL     1      10.078  -9.037  -4.176  1.00  0.00     0.238 C 
BRANCH  18  19
HETATM   19  C9  UNL     1      10.926  -9.943  -3.423  1.00  0.00     0.191 C 
HETATM   20  O2  UNL     1      10.491 -11.093  -3.164  1.00  0.00    -0.647 OA
HETATM   21  O3  UNL     1      12.173  -9.592  -2.984  1.00  0.00    -0.647 OA
ENDBRANCH  18  19
ENDBRANCH  17  18
BRANCH  17  22
HETATM   22  C10 UNL     1       7.668  -8.854  -3.660  1.00  0.00     0.137 C 
HETATM   23  C11 UNL     1       7.551  -9.504  -5.063  1.00  0.00     0.037 C 
BRANCH  22  24
HETATM   24  C12 UNL     1       7.215  -9.916  -2.716  1.00  0.00     0.276 C 
BRANCH  24  25
HETATM   25  O4  UNL     1       7.518 -11.146  -3.382  1.00  0.00    -0.369 OA
ATOM     26  H4  UNL     1       6.868 -11.760  -3.059  1.00  0.00     0.212 HD
ENDBRANCH  24  25
BRANCH  24  27
HETATM   27  O5  UNL     1       8.024 -10.016  -1.558  1.00  0.00    -0.369 OA
ATOM     28  H5  UNL     1       8.216  -9.176  -1.160  1.00  0.00     0.212 HD
ENDBRANCH  24  27
ENDBRANCH  22  24
ENDBRANCH  17  22
ENDBRANCH   8  17
BRANCH   1  29
HETATM   29  N2  UNL     1       5.658  -4.419  -2.146  1.00  0.00    -0.284 N 
ATOM     30  H2  UNL     1       4.669  -4.189  -2.237  1.00  0.00     0.184 HD
BRANCH  29  31
HETATM   31  N1  UNL     1       6.601  -3.389  -2.000  1.00  0.00    -0.310 N 
HETATM   32  C2  UNL     1       6.547  -2.596  -0.998  1.00  0.00    -0.004 C 
HETATM   33  C1  UNL     1       5.483  -2.754   0.025  1.00  0.00     0.064 C 
HETATM   34  C3  UNL     1       7.544  -1.487  -0.822  1.00  0.00     0.064 C 
ATOM     35  H1  UNL     1       7.335  -3.273  -2.698  1.00  0.00     0.186 HD
ENDBRANCH  29  31
ENDBRANCH   1  29
BRANCH  11  36
HETATM   36  C14 UNL     1      12.333  -6.108  -1.185  1.00  0.00     0.199 C 
HETATM   37  O6  UNL     1      12.886  -6.009  -0.046  1.00  0.00    -0.646 OA
HETATM   38  O7  UNL     1      13.185  -6.180  -2.279  1.00  0.00    -0.646 OA
ENDBRANCH  11  36
TORSDOF 10
ENDMDL
