MODEL 1
REMARK VINA RESULT: -6.344974817      0.000      0.000
REMARK  9 active torsions:
REMARK  status: ('A' for Active; 'I' for Inactive)
REMARK    1  A    between atoms: C2_2  and  C3_3 
REMARK    2  A    between atoms: C3_3  and  C4_4 
REMARK    3  A    between atoms: C4_4  and  C5_5 
REMARK    4  A    between atoms: C5_5  and  C6_6 
REMARK    5  A    between atoms: C6_6  and  C8_8 
REMARK    6  A    between atoms: C8_8  and  C9_9 
REMARK    7  A    between atoms: C9_9  and  C10_11 
REMARK    8  A    between atoms: C14_15  and  O2_16 
REMARK    9  A    between atoms: C22_28  and  O6_29 
ROOT
HETATM    1  C10 UNL     1      -4.557  13.914 -24.160  1.00  0.00     0.044 A 
HETATM    2  C11 UNL     1      -3.609  14.920 -23.947  1.00  0.00     0.027 A 
HETATM    3  C12 UNL     1      -3.670  16.113 -24.614  1.00  0.00    -0.027 A 
HETATM    4  C13 UNL     1      -2.644  17.185 -24.373  1.00  0.00     0.051 C 
HETATM    5  C14 UNL     1      -4.702  16.314 -25.520  1.00  0.00     0.083 A 
HETATM    6  C15 UNL     1      -5.631  15.377 -25.755  1.00  0.00     0.048 A 
HETATM    7  C16 UNL     1      -5.565  14.149 -25.065  1.00  0.00     0.098 A 
HETATM    8  O3  UNL     1      -6.476  13.071 -25.214  1.00  0.00    -0.309 OA
HETATM    9  C17 UNL     1      -7.492  13.053 -26.203  1.00  0.00     0.208 C 
HETATM   10  C18 UNL     1      -7.839  11.646 -26.493  1.00  0.00     0.083 C 
HETATM   11  O4  UNL     1      -6.832  13.458 -27.395  1.00  0.00    -0.199 OA
HETATM   12  O5  UNL     1      -6.821  14.648 -27.700  1.00  0.00    -0.221 OA
HETATM   13  C19 UNL     1      -6.731  15.658 -26.704  1.00  0.00     0.132 C 
HETATM   14  C20 UNL     1      -6.663  16.886 -27.510  1.00  0.00     0.055 C 
HETATM   15  C21 UNL     1      -8.011  15.463 -25.931  1.00  0.00     0.072 C 
HETATM   16  C22 UNL     1      -9.072  16.486 -26.193  1.00  0.00     0.130 C 
HETATM   17  C23 UNL     1     -10.437  16.032 -25.688  1.00  0.00     0.015 C 
HETATM   18  C24 UNL     1     -11.504  16.663 -26.551  1.00  0.00     0.013 C 
HETATM   19  C25 UNL     1     -10.528  14.552 -25.740  1.00  0.00     0.001 C 
HETATM   20  C26 UNL     1      -9.679  14.102 -26.944  1.00  0.00     0.001 C 
HETATM   21  C27 UNL     1     -10.242  12.940 -27.642  1.00  0.00     0.011 C 
HETATM   22  C28 UNL     1      -8.555  14.027 -25.978  1.00  0.00     0.035 C 
HETATM   23  C29 UNL     1      -9.481  13.963 -24.810  1.00  0.00     0.001 C 
HETATM   24  C30 UNL     1      -9.870  12.695 -24.177  1.00  0.00     0.011 C 
ENDROOT
BRANCH   1  25
HETATM   25  C9  UNL     1      -4.457  12.653 -23.462  1.00  0.00     0.162 C 
HETATM   26  O1  UNL     1      -3.557  11.847 -23.906  1.00  0.00    -0.292 OA
BRANCH  25  27
HETATM   27  C8  UNL     1      -5.263  12.200 -22.327  1.00  0.00     0.088 C 
BRANCH  27  28
HETATM   28  C6  UNL     1      -5.356  10.672 -22.292  1.00  0.00    -0.011 C 
HETATM   29  C7  UNL     1      -5.749  10.259 -20.894  1.00  0.00     0.010 C 
BRANCH  28  30
HETATM   30  C5  UNL     1      -6.394  10.197 -23.273  1.00  0.00     0.005 C 
BRANCH  30  31
HETATM   31  C4  UNL     1      -5.865   9.328 -24.361  1.00  0.00     0.000 C 
BRANCH  31  32
HETATM   32  C3  UNL     1      -4.695   8.522 -23.833  1.00  0.00    -0.000 C 
BRANCH  32  33
HETATM   33  C2  UNL     1      -5.091   7.045 -23.774  1.00  0.00    -0.005 C 
HETATM   34  C1  UNL     1      -3.963   6.335 -23.028  1.00  0.00     0.005 C 
ENDBRANCH  32  33
ENDBRANCH  31  32
ENDBRANCH  30  31
ENDBRANCH  28  30
ENDBRANCH  27  28
ENDBRANCH  25  27
ENDBRANCH   1  25
BRANCH   5  35
HETATM   35  O2  UNL     1      -4.710  17.523 -26.153  1.00  0.00    -0.359 OA
ATOM     36  H2  UNL     1      -5.510  17.741 -26.617  1.00  0.00     0.217 HD
ENDBRANCH   5  35
BRANCH  16  37
HETATM   37  O6  UNL     1      -8.841  17.676 -25.460  1.00  0.00    -0.395 OA
ATOM     38  H6  UNL     1      -9.636  18.189 -25.365  1.00  0.00     0.210 HD
ENDBRANCH  16  37
TORSDOF 9
ENDMDL
MODEL 2
REMARK VINA RESULT: -6.182831812      3.805      7.492
REMARK  9 active torsions:
REMARK  status: ('A' for Active; 'I' for Inactive)
REMARK    1  A    between atoms: C2_2  and  C3_3 
REMARK    2  A    between atoms: C3_3  and  C4_4 
REMARK    3  A    between atoms: C4_4  and  C5_5 
REMARK    4  A    between atoms: C5_5  and  C6_6 
REMARK    5  A    between atoms: C6_6  and  C8_8 
REMARK    6  A    between atoms: C8_8  and  C9_9 
REMARK    7  A    between atoms: C9_9  and  C10_11 
REMARK    8  A    between atoms: C14_15  and  O2_16 
REMARK    9  A    between atoms: C22_28  and  O6_29 
ROOT
HETATM    1  C10 UNL     1      -9.633  11.144 -24.909  1.00  0.00     0.044 A 
HETATM    2  C11 UNL     1     -10.246  10.888 -23.679  1.00  0.00     0.027 A 
HETATM    3  C12 UNL     1     -11.600  10.716 -23.576  1.00  0.00    -0.027 A 
HETATM    4  C13 UNL     1     -12.244  10.441 -22.246  1.00  0.00     0.051 C 
HETATM    5  C14 UNL     1     -12.368  10.802 -24.729  1.00  0.00     0.083 A 
HETATM    6  C15 UNL     1     -11.822  11.046 -25.928  1.00  0.00     0.048 A 
HETATM    7  C16 UNL     1     -10.426  11.221 -26.029  1.00  0.00     0.098 A 
HETATM    8  O3  UNL     1      -9.714  11.485 -27.229  1.00  0.00    -0.309 OA
HETATM    9  C17 UNL     1     -10.359  11.752 -28.463  1.00  0.00     0.208 C 
HETATM   10  C18 UNL     1      -9.442  12.544 -29.309  1.00  0.00     0.083 C 
HETATM   11  O4  UNL     1     -11.369  12.698 -28.137  1.00  0.00    -0.199 OA
HETATM   12  O5  UNL     1     -12.496  12.298 -27.853  1.00  0.00    -0.221 OA
HETATM   13  C19 UNL     1     -12.683  11.089 -27.130  1.00  0.00     0.132 C 
HETATM   14  C20 UNL     1     -14.142  11.057 -26.946  1.00  0.00     0.055 C 
HETATM   15  C21 UNL     1     -12.129  10.057 -28.080  1.00  0.00     0.072 C 
HETATM   16  C22 UNL     1     -13.156   9.233 -28.790  1.00  0.00     0.130 C 
HETATM   17  C23 UNL     1     -12.566   8.492 -29.985  1.00  0.00     0.015 C 
HETATM   18  C24 UNL     1     -13.650   8.304 -31.019  1.00  0.00     0.013 C 
HETATM   19  C25 UNL     1     -11.432   9.265 -30.548  1.00  0.00     0.001 C 
HETATM   20  C26 UNL     1     -11.762  10.753 -30.325  1.00  0.00     0.001 C 
HETATM   21  C27 UNL     1     -11.299  11.614 -31.420  1.00  0.00     0.011 C 
HETATM   22  C28 UNL     1     -11.052  10.601 -29.031  1.00  0.00     0.035 C 
HETATM   23  C29 UNL     1     -10.341   9.373 -29.496  1.00  0.00     0.001 C 
HETATM   24  C30 UNL     1      -8.974   9.406 -30.034  1.00  0.00     0.011 C 
ENDROOT
BRANCH   1  25
HETATM   25  C9  UNL     1      -8.205  11.346 -24.988  1.00  0.00     0.162 C 
HETATM   26  O1  UNL     1      -7.491  10.503 -24.326  1.00  0.00    -0.292 OA
BRANCH  25  27
HETATM   27  C8  UNL     1      -7.495  12.396 -25.721  1.00  0.00     0.088 C 
BRANCH  27  28
HETATM   28  C6  UNL     1      -7.759  13.773 -25.108  1.00  0.00    -0.011 C 
HETATM   29  C7  UNL     1      -6.427  14.401 -24.776  1.00  0.00     0.010 C 
BRANCH  28  30
HETATM   30  C5  UNL     1      -8.498  14.640 -26.091  1.00  0.00     0.005 C 
BRANCH  30  31
HETATM   31  C4  UNL     1      -9.933  14.867 -25.759  1.00  0.00     0.000 C 
BRANCH  31  32
HETATM   32  C3  UNL     1     -10.122  14.760 -24.258  1.00  0.00    -0.000 C 
BRANCH  32  33
HETATM   33  C2  UNL     1     -11.568  14.356 -23.964  1.00  0.00    -0.005 C 
HETATM   34  C1  UNL     1     -12.344  14.588 -25.259  1.00  0.00     0.005 C 
ENDBRANCH  32  33
ENDBRANCH  31  32
ENDBRANCH  30  31
ENDBRANCH  28  30
ENDBRANCH  27  28
ENDBRANCH  25  27
ENDBRANCH   1  25
BRANCH   5  35
HETATM   35  O2  UNL     1     -13.710  10.621 -24.563  1.00  0.00    -0.359 OA
ATOM     36  H2  UNL     1     -14.252  11.387 -24.709  1.00  0.00     0.217 HD
ENDBRANCH   5  35
BRANCH  16  37
HETATM   37  O6  UNL     1     -13.639   8.182 -27.971  1.00  0.00    -0.395 OA
ATOM     38  H6  UNL     1     -14.086   8.514 -27.201  1.00  0.00     0.210 HD
ENDBRANCH  16  37
TORSDOF 9
ENDMDL
MODEL 3
REMARK VINA RESULT: -6.067817443      2.564      6.382
REMARK  9 active torsions:
REMARK  status: ('A' for Active; 'I' for Inactive)
REMARK    1  A    between atoms: C2_2  and  C3_3 
REMARK    2  A    between atoms: C3_3  and  C4_4 
REMARK    3  A    between atoms: C4_4  and  C5_5 
REMARK    4  A    between atoms: C5_5  and  C6_6 
REMARK    5  A    between atoms: C6_6  and  C8_8 
REMARK    6  A    between atoms: C8_8  and  C9_9 
REMARK    7  A    between atoms: C9_9  and  C10_11 
REMARK    8  A    between atoms: C14_15  and  O2_16 
REMARK    9  A    between atoms: C22_28  and  O6_29 
ROOT
HETATM    1  C10 UNL     1      -6.652  11.034 -24.079  1.00  0.00     0.044 A 
HETATM    2  C11 UNL     1      -6.253   9.936 -23.311  1.00  0.00     0.027 A 
HETATM    3  C12 UNL     1      -4.943   9.543 -23.252  1.00  0.00    -0.027 A 
HETATM    4  C13 UNL     1      -4.529   8.360 -22.421  1.00  0.00     0.051 C 
HETATM    5  C14 UNL     1      -4.002  10.260 -23.977  1.00  0.00     0.083 A 
HETATM    6  C15 UNL     1      -4.342  11.319 -24.726  1.00  0.00     0.048 A 
HETATM    7  C16 UNL     1      -5.692  11.721 -24.784  1.00  0.00     0.098 A 
HETATM    8  O3  UNL     1      -6.194  12.817 -25.532  1.00  0.00    -0.309 OA
HETATM    9  C17 UNL     1      -5.395  13.556 -26.442  1.00  0.00     0.208 C 
HETATM   10  C18 UNL     1      -6.283  14.173 -27.450  1.00  0.00     0.083 C 
HETATM   11  O4  UNL     1      -4.713  12.565 -27.200  1.00  0.00    -0.199 OA
HETATM   12  O5  UNL     1      -3.604  12.187 -26.831  1.00  0.00    -0.221 OA
HETATM   13  C19 UNL     1      -3.293  12.070 -25.450  1.00  0.00     0.132 C 
HETATM   14  C20 UNL     1      -1.931  11.516 -25.482  1.00  0.00     0.055 C 
HETATM   15  C21 UNL     1      -3.397  13.498 -24.975  1.00  0.00     0.072 C 
HETATM   16  C22 UNL     1      -2.089  14.180 -24.722  1.00  0.00     0.130 C 
HETATM   17  C23 UNL     1      -2.247  15.692 -24.616  1.00  0.00     0.015 C 
HETATM   18  C24 UNL     1      -0.966  16.344 -25.080  1.00  0.00     0.013 C 
HETATM   19  C25 UNL     1      -3.393  16.140 -25.445  1.00  0.00     0.001 C 
HETATM   20  C26 UNL     1      -3.462  15.185 -26.651  1.00  0.00     0.001 C 
HETATM   21  C27 UNL     1      -3.883  15.851 -27.889  1.00  0.00     0.011 C 
HETATM   22  C28 UNL     1      -4.360  14.361 -25.804  1.00  0.00     0.035 C 
HETATM   23  C29 UNL     1      -4.665  15.512 -24.903  1.00  0.00     0.001 C 
HETATM   24  C30 UNL     1      -5.870  16.339 -25.057  1.00  0.00     0.011 C 
ENDROOT
BRANCH   1  25
HETATM   25  C9  UNL     1      -8.044  11.414 -24.144  1.00  0.00     0.162 C 
HETATM   26  O1  UNL     1      -8.334  12.543 -23.597  1.00  0.00    -0.292 OA
BRANCH  25  27
HETATM   27  C8  UNL     1      -9.144  10.660 -24.750  1.00  0.00     0.088 C 
BRANCH  27  28
HETATM   28  C6  UNL     1     -10.024  11.567 -25.615  1.00  0.00    -0.011 C 
HETATM   29  C7  UNL     1      -9.609  11.387 -27.055  1.00  0.00     0.010 C 
BRANCH  28  30
HETATM   30  C5  UNL     1     -11.470  11.185 -25.452  1.00  0.00     0.005 C 
BRANCH  30  31
HETATM   31  C4  UNL     1     -11.725  10.156 -24.406  1.00  0.00     0.000 C 
BRANCH  31  32
HETATM   32  C3  UNL     1     -12.968  10.534 -23.624  1.00  0.00    -0.000 C 
BRANCH  32  33
HETATM   33  C2  UNL     1     -12.579  10.819 -22.172  1.00  0.00    -0.005 C 
HETATM   34  C1  UNL     1     -13.544  11.897 -21.681  1.00  0.00     0.005 C 
ENDBRANCH  32  33
ENDBRANCH  31  32
ENDBRANCH  30  31
ENDBRANCH  28  30
ENDBRANCH  27  28
ENDBRANCH  25  27
ENDBRANCH   1  25
BRANCH   5  35
HETATM   35  O2  UNL     1      -2.714   9.821 -23.878  1.00  0.00    -0.359 OA
ATOM     36  H2  UNL     1      -2.196   9.876 -24.672  1.00  0.00     0.217 HD
ENDBRANCH   5  35
BRANCH  16  37
HETATM   37  O6  UNL     1      -1.551  13.827 -23.460  1.00  0.00    -0.395 OA
ATOM     38  H6  UNL     1      -1.681  14.516 -22.818  1.00  0.00     0.210 HD
ENDBRANCH  16  37
TORSDOF 9
ENDMDL
MODEL 4
REMARK VINA RESULT: -6.011697733      1.997      6.243
REMARK  9 active torsions:
REMARK  status: ('A' for Active; 'I' for Inactive)
REMARK    1  A    between atoms: C2_2  and  C3_3 
REMARK    2  A    between atoms: C3_3  and  C4_4 
REMARK    3  A    between atoms: C4_4  and  C5_5 
REMARK    4  A    between atoms: C5_5  and  C6_6 
REMARK    5  A    between atoms: C6_6  and  C8_8 
REMARK    6  A    between atoms: C8_8  and  C9_9 
REMARK    7  A    between atoms: C9_9  and  C10_11 
REMARK    8  A    between atoms: C14_15  and  O2_16 
REMARK    9  A    between atoms: C22_28  and  O6_29 
ROOT
HETATM    1  C10 UNL     1      -6.746  10.995 -24.776  1.00  0.00     0.044 A 
HETATM    2  C11 UNL     1      -6.277   9.866 -24.096  1.00  0.00     0.027 A 
HETATM    3  C12 UNL     1      -4.939   9.640 -23.923  1.00  0.00    -0.027 A 
HETATM    4  C13 UNL     1      -4.450   8.422 -23.190  1.00  0.00     0.051 C 
HETATM    5  C14 UNL     1      -4.038  10.561 -24.440  1.00  0.00     0.083 A 
HETATM    6  C15 UNL     1      -4.444  11.657 -25.097  1.00  0.00     0.048 A 
HETATM    7  C16 UNL     1      -5.824  11.886 -25.273  1.00  0.00     0.098 A 
HETATM    8  O3  UNL     1      -6.395  12.997 -25.946  1.00  0.00    -0.309 OA
HETATM    9  C17 UNL     1      -5.619  13.946 -26.660  1.00  0.00     0.208 C 
HETATM   10  C18 UNL     1      -6.474  14.570 -27.691  1.00  0.00     0.083 C 
HETATM   11  O4  UNL     1      -4.726  13.159 -27.438  1.00  0.00    -0.199 OA
HETATM   12  O5  UNL     1      -3.620  12.881 -26.981  1.00  0.00    -0.221 OA
HETATM   13  C19 UNL     1      -3.443  12.625 -25.595  1.00  0.00     0.132 C 
HETATM   14  C20 UNL     1      -2.020  12.260 -25.523  1.00  0.00     0.055 C 
HETATM   15  C21 UNL     1      -3.800  13.953 -24.974  1.00  0.00     0.072 C 
HETATM   16  C22 UNL     1      -2.637  14.758 -24.486  1.00  0.00     0.130 C 
HETATM   17  C23 UNL     1      -3.019  16.211 -24.226  1.00  0.00     0.015 C 
HETATM   18  C24 UNL     1      -1.803  17.077 -24.450  1.00  0.00     0.013 C 
HETATM   19  C25 UNL     1      -4.123  16.612 -25.132  1.00  0.00     0.001 C 
HETATM   20  C26 UNL     1      -3.927  15.823 -26.440  1.00  0.00     0.001 C 
HETATM   21  C27 UNL     1      -4.306  16.586 -27.635  1.00  0.00     0.011 C 
HETATM   22  C28 UNL     1      -4.783  14.787 -25.810  1.00  0.00     0.035 C 
HETATM   23  C29 UNL     1      -5.343  15.760 -24.826  1.00  0.00     0.001 C 
HETATM   24  C30 UNL     1      -6.631  16.438 -25.031  1.00  0.00     0.011 C 
ENDROOT
BRANCH   1  25
HETATM   25  C9  UNL     1      -8.163  11.198 -24.968  1.00  0.00     0.162 C 
HETATM   26  O1  UNL     1      -8.595  10.982 -26.161  1.00  0.00    -0.292 OA
BRANCH  25  27
HETATM   27  C8  UNL     1      -9.143  11.625 -23.967  1.00  0.00     0.088 C 
BRANCH  27  28
HETATM   28  C6  UNL     1     -10.567  11.559 -24.526  1.00  0.00    -0.011 C 
HETATM   29  C7  UNL     1     -11.413  10.767 -23.559  1.00  0.00     0.010 C 
BRANCH  28  30
HETATM   30  C5  UNL     1     -11.127  12.949 -24.670  1.00  0.00     0.005 C 
BRANCH  30  31
HETATM   31  C4  UNL     1     -10.858  13.591 -25.986  1.00  0.00     0.000 C 
BRANCH  31  32
HETATM   32  C3  UNL     1      -9.879  14.733 -25.794  1.00  0.00    -0.000 C 
BRANCH  32  33
HETATM   33  C2  UNL     1     -10.105  15.361 -24.417  1.00  0.00    -0.005 C 
HETATM   34  C1  UNL     1     -10.512  16.810 -24.675  1.00  0.00     0.005 C 
ENDBRANCH  32  33
ENDBRANCH  31  32
ENDBRANCH  30  31
ENDBRANCH  28  30
ENDBRANCH  27  28
ENDBRANCH  25  27
ENDBRANCH   1  25
BRANCH   5  35
HETATM   35  O2  UNL     1      -2.719  10.283 -24.234  1.00  0.00    -0.359 OA
ATOM     36  H2  UNL     1      -2.405  10.397 -23.345  1.00  0.00     0.217 HD
ENDBRANCH   5  35
BRANCH  16  37
HETATM   37  O6  UNL     1      -2.191  14.315 -23.216  1.00  0.00    -0.395 OA
ATOM     38  H6  UNL     1      -1.282  14.547 -23.063  1.00  0.00     0.210 HD
ENDBRANCH  16  37
TORSDOF 9
ENDMDL
MODEL 5
REMARK VINA RESULT: -5.992476583      3.779      6.834
REMARK  9 active torsions:
REMARK  status: ('A' for Active; 'I' for Inactive)
REMARK    1  A    between atoms: C2_2  and  C3_3 
REMARK    2  A    between atoms: C3_3  and  C4_4 
REMARK    3  A    between atoms: C4_4  and  C5_5 
REMARK    4  A    between atoms: C5_5  and  C6_6 
REMARK    5  A    between atoms: C6_6  and  C8_8 
REMARK    6  A    between atoms: C8_8  and  C9_9 
REMARK    7  A    between atoms: C9_9  and  C10_11 
REMARK    8  A    between atoms: C14_15  and  O2_16 
REMARK    9  A    between atoms: C22_28  and  O6_29 
ROOT
HETATM    1  C10 UNL     1      -9.753  11.415 -24.861  1.00  0.00     0.044 A 
HETATM    2  C11 UNL     1     -10.352  11.123 -23.632  1.00  0.00     0.027 A 
HETATM    3  C12 UNL     1     -11.685  10.828 -23.537  1.00  0.00    -0.027 A 
HETATM    4  C13 UNL     1     -12.314  10.515 -22.208  1.00  0.00     0.051 C 
HETATM    5  C14 UNL     1     -12.447  10.825 -24.697  1.00  0.00     0.083 A 
HETATM    6  C15 UNL     1     -11.913  11.100 -25.896  1.00  0.00     0.048 A 
HETATM    7  C16 UNL     1     -10.539  11.402 -25.989  1.00  0.00     0.098 A 
HETATM    8  O3  UNL     1      -9.843  11.712 -27.186  1.00  0.00    -0.309 OA
HETATM    9  C17 UNL     1     -10.498  11.900 -28.429  1.00  0.00     0.208 C 
HETATM   10  C18 UNL     1      -9.649  12.761 -29.280  1.00  0.00     0.083 C 
HETATM   11  O4  UNL     1     -11.594  12.754 -28.127  1.00  0.00    -0.199 OA
HETATM   12  O5  UNL     1     -12.681  12.256 -27.846  1.00  0.00    -0.221 OA
HETATM   13  C19 UNL     1     -12.763  11.046 -27.106  1.00  0.00     0.132 C 
HETATM   14  C20 UNL     1     -14.215  10.883 -26.934  1.00  0.00     0.055 C 
HETATM   15  C21 UNL     1     -12.108  10.056 -28.035  1.00  0.00     0.072 C 
HETATM   16  C22 UNL     1     -13.048   9.129 -28.740  1.00  0.00     0.130 C 
HETATM   17  C23 UNL     1     -12.380   8.428 -29.917  1.00  0.00     0.015 C 
HETATM   18  C24 UNL     1     -13.432   8.125 -30.958  1.00  0.00     0.013 C 
HETATM   19  C25 UNL     1     -11.317   9.294 -30.483  1.00  0.00     0.001 C 
HETATM   20  C26 UNL     1     -11.784  10.748 -30.287  1.00  0.00     0.001 C 
HETATM   21  C27 UNL     1     -11.392  11.632 -31.392  1.00  0.00     0.011 C 
HETATM   22  C28 UNL     1     -11.076  10.682 -28.985  1.00  0.00     0.035 C 
HETATM   23  C29 UNL     1     -10.250   9.518 -29.424  1.00  0.00     0.001 C 
HETATM   24  C30 UNL     1      -8.887   9.669 -29.951  1.00  0.00     0.011 C 
ENDROOT
BRANCH   1  25
HETATM   25  C9  UNL     1      -8.349  11.747 -24.931  1.00  0.00     0.162 C 
HETATM   26  O1  UNL     1      -7.585  10.819 -25.389  1.00  0.00    -0.292 OA
BRANCH  25  27
HETATM   27  C8  UNL     1      -7.712  13.005 -24.534  1.00  0.00     0.088 C 
BRANCH  27  28
HETATM   28  C6  UNL     1      -6.201  12.828 -24.362  1.00  0.00    -0.011 C 
HETATM   29  C7  UNL     1      -5.508  13.758 -25.327  1.00  0.00     0.010 C 
BRANCH  28  30
HETATM   30  C5  UNL     1      -5.801  13.170 -22.952  1.00  0.00     0.005 C 
BRANCH  30  31
HETATM   31  C4  UNL     1      -5.466  11.993 -22.101  1.00  0.00     0.000 C 
BRANCH  31  32
HETATM   32  C3  UNL     1      -5.108  10.819 -22.991  1.00  0.00    -0.000 C 
BRANCH  32  33
HETATM   33  C2  UNL     1      -5.056   9.546 -22.143  1.00  0.00    -0.005 C 
HETATM   34  C1  UNL     1      -5.778   9.878 -20.839  1.00  0.00     0.005 C 
ENDBRANCH  32  33
ENDBRANCH  31  32
ENDBRANCH  30  31
ENDBRANCH  28  30
ENDBRANCH  27  28
ENDBRANCH  25  27
ENDBRANCH   1  25
BRANCH   5  35
HETATM   35  O2  UNL     1     -13.768  10.524 -24.540  1.00  0.00    -0.359 OA
ATOM     36  H2  UNL     1     -14.382  11.157 -24.893  1.00  0.00     0.217 HD
ENDBRANCH   5  35
BRANCH  16  37
HETATM   37  O6  UNL     1     -13.439   8.050 -27.908  1.00  0.00    -0.395 OA
ATOM     38  H6  UNL     1     -14.373   8.063 -27.734  1.00  0.00     0.210 HD
ENDBRANCH  16  37
TORSDOF 9
ENDMDL
