MODEL 1
REMARK VINA RESULT: -6.197925225      0.000      0.000
REMARK  8 active torsions:
REMARK  status: ('A' for Active; 'I' for Inactive)
REMARK    1  A    between atoms: C5_7  and  S1_8 
REMARK    2  A    between atoms: S1_8  and  C6_9 
REMARK    3  A    between atoms: C6_9  and  C7_10 
REMARK    4  A    between atoms: N4_17  and  C9_18 
REMARK    5  A    between atoms: C9_18  and  C10_19 
REMARK    6  A    between atoms: C10_19  and  C11_20 
REMARK    7  A    between atoms: C11_20  and  N5_21 
REMARK    8  A    between atoms: C19_31  and  C20_32 
ROOT
HETATM    1  C1  UNL     1      -3.224  14.334 -23.560  1.00  0.00     0.049 C 
HETATM    2  C2  UNL     1      -4.550  14.551 -24.177  1.00  0.00    -0.053 A 
HETATM    3  C3  UNL     1      -4.773  15.757 -24.826  1.00  0.00     0.039 A 
HETATM    4  C4  UNL     1      -5.998  15.964 -25.408  1.00  0.00     0.061 A 
HETATM    5  N1  UNL     1      -6.508  16.967 -26.163  1.00  0.00    -0.335 N 
ATOM      6  H1  UNL     1      -6.024  17.836 -26.390  1.00  0.00     0.168 HD
HETATM    7  C5  UNL     1      -7.742  16.645 -26.569  1.00  0.00     0.145 A 
HETATM    8  N6  UNL     1      -8.038  15.428 -26.061  1.00  0.00    -0.335 N 
ATOM      9  H6  UNL     1      -8.913  14.920 -26.194  1.00  0.00     0.168 HD
HETATM   10  C17 UNL     1      -6.976  15.000 -25.350  1.00  0.00     0.061 A 
HETATM   11  C18 UNL     1      -6.715  13.787 -24.673  1.00  0.00     0.040 A 
HETATM   12  C19 UNL     1      -5.506  13.549 -24.083  1.00  0.00    -0.045 A 
ENDROOT
BRANCH   7  13
HETATM   13  S1  UNL     1      -8.689  17.616 -27.766  1.00  0.00    -0.086 SA
BRANCH  13  14
HETATM   14  C6  UNL     1     -10.406  16.932 -27.819  1.00  0.00     0.160 C 
BRANCH  14  15
HETATM   15  C7  UNL     1     -11.174  17.800 -26.879  1.00  0.00     0.110 A 
HETATM   16  N2  UNL     1     -11.191  19.128 -26.930  1.00  0.00    -0.286 N 
HETATM   17  N3  UNL     1     -11.965  19.604 -25.945  1.00  0.00    -0.275 N 
ATOM     18  H2  UNL     1     -10.691  19.697 -27.613  1.00  0.00     0.188 HD
HETATM   19  C8  UNL     1     -12.429  18.526 -25.281  1.00  0.00     0.194 A 
ATOM     20  H3  UNL     1     -12.162  20.583 -25.740  1.00  0.00     0.189 HD
HETATM   21  S2  UNL     1     -13.431  18.627 -23.996  1.00  0.00    -0.039 SA
HETATM   22  N4  UNL     1     -11.949  17.374 -25.852  1.00  0.00    -0.310 N 
BRANCH  22  23
HETATM   23  C9  UNL     1     -12.287  16.029 -25.508  1.00  0.00     0.138 C 
BRANCH  23  24
HETATM   24  C10 UNL     1     -11.318  15.291 -24.656  1.00  0.00     0.065 C 
BRANCH  24  25
HETATM   25  C11 UNL     1     -11.671  13.905 -24.234  1.00  0.00     0.059 C 
BRANCH  25  26
HETATM   26  N5  UNL     1     -11.795  12.911 -25.194  1.00  0.00    -0.393 N 
HETATM   27  C12 UNL     1     -12.597  11.774 -24.995  1.00  0.00     0.122 C 
HETATM   28  C13 UNL     1     -11.794  10.523 -24.632  1.00  0.00     0.020 C 
HETATM   29  C14 UNL     1     -10.382  10.828 -24.231  1.00  0.00     0.003 C 
HETATM   30  C15 UNL     1      -9.712  11.580 -25.333  1.00  0.00     0.020 C 
HETATM   31  C16 UNL     1     -10.587  12.647 -25.957  1.00  0.00     0.122 C 
ENDBRANCH  25  26
ENDBRANCH  24  25
ENDBRANCH  23  24
ENDBRANCH  22  23
ENDBRANCH  14  15
ENDBRANCH  13  14
ENDBRANCH   7  13
BRANCH  12  32
HETATM   32  C20 UNL     1      -5.059  12.233 -23.542  1.00  0.00     0.023 C 
HETATM   33  C21 UNL     1      -5.354  12.037 -22.073  1.00  0.00     0.014 C 
HETATM   34  C22 UNL     1      -5.776  10.585 -22.027  1.00  0.00    -0.013 C 
HETATM   35  C23 UNL     1      -4.775   9.742 -22.732  1.00  0.00     0.005 C 
HETATM   36  C26 UNL     1      -6.881  10.722 -23.115  1.00  0.00     0.010 C 
HETATM   37  C24 UNL     1      -5.065   9.878 -24.240  1.00  0.00     0.005 C 
HETATM   38  C25 UNL     1      -5.895  11.128 -24.224  1.00  0.00    -0.006 C 
ENDBRANCH  12  32
TORSDOF 8
ENDMDL
MODEL 2
REMARK VINA RESULT: -6.088542853      8.512     13.172
REMARK  8 active torsions:
REMARK  status: ('A' for Active; 'I' for Inactive)
REMARK    1  A    between atoms: C5_7  and  S1_8 
REMARK    2  A    between atoms: S1_8  and  C6_9 
REMARK    3  A    between atoms: C6_9  and  C7_10 
REMARK    4  A    between atoms: N4_17  and  C9_18 
REMARK    5  A    between atoms: C9_18  and  C10_19 
REMARK    6  A    between atoms: C10_19  and  C11_20 
REMARK    7  A    between atoms: C11_20  and  N5_21 
REMARK    8  A    between atoms: C19_31  and  C20_32 
ROOT
HETATM    1  C1  UNL     1      -5.833  12.806 -22.755  1.00  0.00     0.049 C 
HETATM    2  C2  UNL     1      -5.669  11.416 -23.232  1.00  0.00    -0.053 A 
HETATM    3  C3  UNL     1      -4.828  10.580 -22.512  1.00  0.00     0.039 A 
HETATM    4  C4  UNL     1      -4.675   9.286 -22.942  1.00  0.00     0.061 A 
HETATM    5  N1  UNL     1      -4.010   8.215 -22.444  1.00  0.00    -0.335 N 
ATOM      6  H1  UNL     1      -3.413   8.228 -21.617  1.00  0.00     0.168 HD
HETATM    7  C5  UNL     1      -4.254   7.139 -23.201  1.00  0.00     0.145 A 
HETATM    8  N6  UNL     1      -5.076   7.519 -24.205  1.00  0.00    -0.335 N 
ATOM      9  H6  UNL     1      -5.433   6.917 -24.947  1.00  0.00     0.168 HD
HETATM   10  C17 UNL     1      -5.342   8.832 -24.055  1.00  0.00     0.061 A 
HETATM   11  C18 UNL     1      -6.185   9.716 -24.767  1.00  0.00     0.040 A 
HETATM   12  C19 UNL     1      -6.359  11.010 -24.365  1.00  0.00    -0.045 A 
ENDROOT
BRANCH   7  13
HETATM   13  S1  UNL     1      -3.726   5.464 -22.764  1.00  0.00    -0.086 SA
BRANCH  13  14
HETATM   14  C6  UNL     1      -2.192   5.603 -21.742  1.00  0.00     0.160 C 
BRANCH  14  15
HETATM   15  C7  UNL     1      -1.142   4.938 -22.568  1.00  0.00     0.110 A 
HETATM   16  N2  UNL     1      -1.298   4.590 -23.840  1.00  0.00    -0.286 N 
HETATM   17  N3  UNL     1      -0.176   4.008 -24.286  1.00  0.00    -0.275 N 
ATOM     18  H2  UNL     1      -2.141   4.743 -24.392  1.00  0.00     0.188 HD
HETATM   19  C8  UNL     1       0.683   4.006 -23.246  1.00  0.00     0.194 A 
ATOM     20  H3  UNL     1      -0.007   3.640 -25.223  1.00  0.00     0.189 HD
HETATM   21  S2  UNL     1       2.194   3.399 -23.333  1.00  0.00    -0.039 SA
HETATM   22  N4  UNL     1       0.100   4.591 -22.150  1.00  0.00    -0.310 N 
BRANCH  22  23
HETATM   23  C9  UNL     1       0.712   4.873 -20.889  1.00  0.00     0.138 C 
BRANCH  23  24
HETATM   24  C10 UNL     1       0.716   3.775 -19.886  1.00  0.00     0.065 C 
BRANCH  24  25
HETATM   25  C11 UNL     1       0.666   4.147 -18.443  1.00  0.00     0.059 C 
BRANCH  25  26
HETATM   26  N5  UNL     1       1.800   3.988 -17.658  1.00  0.00    -0.393 N 
HETATM   27  C12 UNL     1       1.898   4.533 -16.366  1.00  0.00     0.122 C 
HETATM   28  C13 UNL     1       2.741   5.810 -16.311  1.00  0.00     0.020 C 
HETATM   29  C14 UNL     1       2.999   6.401 -17.664  1.00  0.00     0.003 C 
HETATM   30  C15 UNL     1       3.655   5.377 -18.529  1.00  0.00     0.020 C 
HETATM   31  C16 UNL     1       3.054   3.993 -18.391  1.00  0.00     0.122 C 
ENDBRANCH  25  26
ENDBRANCH  24  25
ENDBRANCH  23  24
ENDBRANCH  22  23
ENDBRANCH  14  15
ENDBRANCH  13  14
ENDBRANCH   7  13
BRANCH  12  32
HETATM   32  C20 UNL     1      -7.382  11.948 -24.909  1.00  0.00     0.023 C 
HETATM   33  C21 UNL     1      -7.743  11.697 -26.355  1.00  0.00     0.014 C 
HETATM   34  C22 UNL     1      -9.237  11.930 -26.353  1.00  0.00    -0.013 C 
HETATM   35  C23 UNL     1      -9.548  13.225 -25.694  1.00  0.00     0.005 C 
HETATM   36  C26 UNL     1      -9.538  10.923 -25.205  1.00  0.00     0.010 C 
HETATM   37  C24 UNL     1      -9.488  12.974 -24.174  1.00  0.00     0.005 C 
HETATM   38  C25 UNL     1      -8.709  11.692 -24.162  1.00  0.00    -0.006 C 
ENDBRANCH  12  32
TORSDOF 8
ENDMDL
MODEL 3
REMARK VINA RESULT: -5.962043977      0.924      1.304
REMARK  8 active torsions:
REMARK  status: ('A' for Active; 'I' for Inactive)
REMARK    1  A    between atoms: C5_7  and  S1_8 
REMARK    2  A    between atoms: S1_8  and  C6_9 
REMARK    3  A    between atoms: C6_9  and  C7_10 
REMARK    4  A    between atoms: N4_17  and  C9_18 
REMARK    5  A    between atoms: C9_18  and  C10_19 
REMARK    6  A    between atoms: C10_19  and  C11_20 
REMARK    7  A    between atoms: C11_20  and  N5_21 
REMARK    8  A    between atoms: C19_31  and  C20_32 
ROOT
HETATM    1  C1  UNL     1      -3.587  14.636 -23.895  1.00  0.00     0.049 C 
HETATM    2  C2  UNL     1      -4.973  14.767 -24.396  1.00  0.00    -0.053 A 
HETATM    3  C3  UNL     1      -5.330  15.960 -25.008  1.00  0.00     0.039 A 
HETATM    4  C4  UNL     1      -6.611  16.088 -25.482  1.00  0.00     0.061 A 
HETATM    5  N1  UNL     1      -7.249  17.059 -26.179  1.00  0.00    -0.335 N 
ATOM      6  H1  UNL     1      -6.845  17.961 -26.434  1.00  0.00     0.168 HD
HETATM    7  C5  UNL     1      -8.489  16.657 -26.483  1.00  0.00     0.145 A 
HETATM    8  N6  UNL     1      -8.659  15.419 -25.969  1.00  0.00    -0.335 N 
ATOM      9  H6  UNL     1      -9.506  14.854 -26.034  1.00  0.00     0.168 HD
HETATM   10  C17 UNL     1      -7.514  15.059 -25.355  1.00  0.00     0.061 A 
HETATM   11  C18 UNL     1      -7.116  13.862 -24.718  1.00  0.00     0.040 A 
HETATM   12  C19 UNL     1      -5.848  13.702 -24.235  1.00  0.00    -0.045 A 
ENDROOT
BRANCH   7  13
HETATM   13  S1  UNL     1      -9.598  17.571 -27.584  1.00  0.00    -0.086 SA
BRANCH  13  14
HETATM   14  C6  UNL     1     -11.192  16.640 -27.681  1.00  0.00     0.160 C 
BRANCH  14  15
HETATM   15  C7  UNL     1     -12.134  17.441 -26.844  1.00  0.00     0.110 A 
HETATM   16  N2  UNL     1     -12.672  18.596 -27.218  1.00  0.00    -0.286 N 
HETATM   17  N3  UNL     1     -13.461  19.060 -26.240  1.00  0.00    -0.275 N 
ATOM     18  H2  UNL     1     -12.510  19.058 -28.113  1.00  0.00     0.188 HD
HETATM   19  C8  UNL     1     -13.394  18.153 -25.244  1.00  0.00     0.194 A 
ATOM     20  H3  UNL     1     -14.002  19.925 -26.247  1.00  0.00     0.189 HD
HETATM   21  S2  UNL     1     -14.212  18.301 -23.839  1.00  0.00    -0.039 SA
HETATM   22  N4  UNL     1     -12.566  17.119 -25.600  1.00  0.00    -0.310 N 
BRANCH  22  23
HETATM   23  C9  UNL     1     -12.313  15.918 -24.867  1.00  0.00     0.138 C 
BRANCH  23  24
HETATM   24  C10 UNL     1     -13.185  14.752 -25.170  1.00  0.00     0.065 C 
BRANCH  24  25
HETATM   25  C11 UNL     1     -12.551  13.405 -25.243  1.00  0.00     0.059 C 
BRANCH  25  26
HETATM   26  N5  UNL     1     -11.871  12.911 -24.138  1.00  0.00    -0.393 N 
HETATM   27  C12 UNL     1     -10.566  12.398 -24.230  1.00  0.00     0.122 C 
HETATM   28  C13 UNL     1     -10.515  10.868 -24.225  1.00  0.00     0.020 C 
HETATM   29  C14 UNL     1     -11.853  10.236 -24.467  1.00  0.00     0.003 C 
HETATM   30  C15 UNL     1     -12.820  10.732 -23.443  1.00  0.00     0.020 C 
HETATM   31  C16 UNL     1     -12.704  12.217 -23.170  1.00  0.00     0.122 C 
ENDBRANCH  25  26
ENDBRANCH  24  25
ENDBRANCH  23  24
ENDBRANCH  22  23
ENDBRANCH  14  15
ENDBRANCH  13  14
ENDBRANCH   7  13
BRANCH  12  32
HETATM   32  C20 UNL     1      -5.270  12.416 -23.751  1.00  0.00     0.023 C 
HETATM   33  C21 UNL     1      -5.400  12.202 -22.260  1.00  0.00     0.014 C 
HETATM   34  C22 UNL     1      -5.726  10.727 -22.180  1.00  0.00    -0.013 C 
HETATM   35  C23 UNL     1      -4.755   9.947 -22.989  1.00  0.00     0.005 C 
HETATM   36  C26 UNL     1      -6.944  10.797 -23.147  1.00  0.00     0.010 C 
HETATM   37  C24 UNL     1      -5.207  10.064 -24.458  1.00  0.00     0.005 C 
HETATM   38  C25 UNL     1      -6.104  11.262 -24.349  1.00  0.00    -0.006 C 
ENDBRANCH  12  32
TORSDOF 8
ENDMDL
MODEL 4
REMARK VINA RESULT: -5.856137651      2.642      7.354
REMARK  8 active torsions:
REMARK  status: ('A' for Active; 'I' for Inactive)
REMARK    1  A    between atoms: C5_7  and  S1_8 
REMARK    2  A    between atoms: S1_8  and  C6_9 
REMARK    3  A    between atoms: C6_9  and  C7_10 
REMARK    4  A    between atoms: N4_17  and  C9_18 
REMARK    5  A    between atoms: C9_18  and  C10_19 
REMARK    6  A    between atoms: C10_19  and  C11_20 
REMARK    7  A    between atoms: C11_20  and  N5_21 
REMARK    8  A    between atoms: C19_31  and  C20_32 
ROOT
HETATM    1  C1  UNL     1     -11.861   9.887 -24.290  1.00  0.00     0.049 C 
HETATM    2  C2  UNL     1     -11.504  11.321 -24.218  1.00  0.00    -0.053 A 
HETATM    3  C3  UNL     1     -10.325  11.725 -24.828  1.00  0.00     0.039 A 
HETATM    4  C4  UNL     1      -9.989  13.055 -24.773  1.00  0.00     0.061 A 
HETATM    5  N1  UNL     1      -8.978  13.778 -25.311  1.00  0.00    -0.335 N 
ATOM      6  H1  UNL     1      -8.202  13.393 -25.849  1.00  0.00     0.168 HD
HETATM    7  C5  UNL     1      -9.152  15.075 -25.032  1.00  0.00     0.145 A 
HETATM    8  N6  UNL     1     -10.280  15.191 -24.297  1.00  0.00    -0.335 N 
ATOM      9  H6  UNL     1     -10.669  16.060 -23.929  1.00  0.00     0.168 HD
HETATM   10  C17 UNL     1     -10.802  13.960 -24.133  1.00  0.00     0.061 A 
HETATM   11  C18 UNL     1     -11.992  13.508 -23.517  1.00  0.00     0.040 A 
HETATM   12  C19 UNL     1     -12.355  12.192 -23.554  1.00  0.00    -0.045 A 
ENDROOT
BRANCH   7  13
HETATM   13  S1  UNL     1      -8.141  16.398 -25.741  1.00  0.00    -0.086 SA
BRANCH  13  14
HETATM   14  C6  UNL     1      -6.754  15.612 -26.676  1.00  0.00     0.160 C 
BRANCH  14  15
HETATM   15  C7  UNL     1      -5.533  15.992 -25.907  1.00  0.00     0.110 A 
HETATM   16  N2  UNL     1      -5.034  17.222 -25.854  1.00  0.00    -0.286 N 
HETATM   17  N3  UNL     1      -3.932  17.227 -25.091  1.00  0.00    -0.275 N 
ATOM     18  H2  UNL     1      -5.429  18.038 -26.322  1.00  0.00     0.188 HD
HETATM   19  C8  UNL     1      -3.764  15.955 -24.671  1.00  0.00     0.194 A 
ATOM     20  H3  UNL     1      -3.341  18.029 -24.872  1.00  0.00     0.189 HD
HETATM   21  S2  UNL     1      -2.541  15.487 -23.698  1.00  0.00    -0.039 SA
HETATM   22  N4  UNL     1      -4.762  15.156 -25.169  1.00  0.00    -0.310 N 
BRANCH  22  23
HETATM   23  C9  UNL     1      -4.997  13.777 -24.875  1.00  0.00     0.138 C 
BRANCH  23  24
HETATM   24  C10 UNL     1      -5.764  13.477 -23.637  1.00  0.00     0.065 C 
BRANCH  24  25
HETATM   25  C11 UNL     1      -5.211  12.456 -22.702  1.00  0.00     0.059 C 
BRANCH  25  26
HETATM   26  N5  UNL     1      -5.960  11.325 -22.407  1.00  0.00    -0.393 N 
HETATM   27  C12 UNL     1      -5.527  10.363 -21.479  1.00  0.00     0.122 C 
HETATM   28  C13 UNL     1      -4.951   9.106 -22.135  1.00  0.00     0.020 C 
HETATM   29  C14 UNL     1      -4.651   9.290 -23.592  1.00  0.00     0.003 C 
HETATM   30  C15 UNL     1      -5.893   9.727 -24.296  1.00  0.00     0.020 C 
HETATM   31  C16 UNL     1      -6.688  10.765 -23.532  1.00  0.00     0.122 C 
ENDBRANCH  25  26
ENDBRANCH  24  25
ENDBRANCH  23  24
ENDBRANCH  22  23
ENDBRANCH  14  15
ENDBRANCH  13  14
ENDBRANCH   7  13
BRANCH  12  32
HETATM   32  C20 UNL     1     -13.681  11.656 -23.132  1.00  0.00     0.023 C 
HETATM   33  C21 UNL     1     -14.108  12.082 -21.747  1.00  0.00     0.014 C 
HETATM   34  C22 UNL     1     -15.588  12.334 -21.936  1.00  0.00    -0.013 C 
HETATM   35  C23 UNL     1     -16.218  11.171 -22.613  1.00  0.00     0.005 C 
HETATM   36  C26 UNL     1     -15.414  13.324 -23.125  1.00  0.00     0.010 C 
HETATM   37  C24 UNL     1     -15.905  11.311 -24.116  1.00  0.00     0.005 C 
HETATM   38  C25 UNL     1     -14.760  12.279 -24.045  1.00  0.00    -0.006 C 
ENDBRANCH  12  32
TORSDOF 8
ENDMDL
MODEL 5
REMARK VINA RESULT: -5.761096082      1.244      1.375
REMARK  8 active torsions:
REMARK  status: ('A' for Active; 'I' for Inactive)
REMARK    1  A    between atoms: C5_7  and  S1_8 
REMARK    2  A    between atoms: S1_8  and  C6_9 
REMARK    3  A    between atoms: C6_9  and  C7_10 
REMARK    4  A    between atoms: N4_17  and  C9_18 
REMARK    5  A    between atoms: C9_18  and  C10_19 
REMARK    6  A    between atoms: C10_19  and  C11_20 
REMARK    7  A    between atoms: C11_20  and  N5_21 
REMARK    8  A    between atoms: C19_31  and  C20_32 
ROOT
HETATM    1  C1  UNL     1      -3.852  14.732 -24.228  1.00  0.00     0.049 C 
HETATM    2  C2  UNL     1      -5.287  14.824 -24.574  1.00  0.00    -0.053 A 
HETATM    3  C3  UNL     1      -5.742  16.010 -25.133  1.00  0.00     0.039 A 
HETATM    4  C4  UNL     1      -7.071  16.103 -25.464  1.00  0.00     0.061 A 
HETATM    5  N1  UNL     1      -7.808  17.058 -26.079  1.00  0.00    -0.335 N 
ATOM      6  H1  UNL     1      -7.461  17.973 -26.368  1.00  0.00     0.168 HD
HETATM    7  C5  UNL     1      -9.062  16.622 -26.250  1.00  0.00     0.145 A 
HETATM    8  N6  UNL     1      -9.139  15.377 -25.730  1.00  0.00    -0.335 N 
ATOM      9  H6  UNL     1      -9.972  14.788 -25.707  1.00  0.00     0.168 HD
HETATM   10  C17 UNL     1      -7.925  15.047 -25.248  1.00  0.00     0.061 A 
HETATM   11  C18 UNL     1      -7.425  13.859 -24.668  1.00  0.00     0.040 A 
HETATM   12  C19 UNL     1      -6.108  13.733 -24.328  1.00  0.00    -0.045 A 
ENDROOT
BRANCH   7  13
HETATM   13  S1  UNL     1     -10.310  17.509 -27.215  1.00  0.00    -0.086 SA
BRANCH  13  14
HETATM   14  C6  UNL     1     -10.947  18.899 -26.176  1.00  0.00     0.160 C 
BRANCH  14  15
HETATM   15  C7  UNL     1     -12.431  18.747 -26.233  1.00  0.00     0.110 A 
HETATM   16  N2  UNL     1     -13.230  19.478 -27.002  1.00  0.00    -0.286 N 
HETATM   17  N3  UNL     1     -14.502  19.101 -26.813  1.00  0.00    -0.275 N 
ATOM     18  H2  UNL     1     -12.922  20.213 -27.639  1.00  0.00     0.188 HD
HETATM   19  C8  UNL     1     -14.465  18.109 -25.899  1.00  0.00     0.194 A 
ATOM     20  H3  UNL     1     -15.329  19.486 -27.268  1.00  0.00     0.189 HD
HETATM   21  S2  UNL     1     -15.797  17.333 -25.365  1.00  0.00    -0.039 SA
HETATM   22  N4  UNL     1     -13.170  17.863 -25.519  1.00  0.00    -0.310 N 
BRANCH  22  23
HETATM   23  C9  UNL     1     -12.702  16.827 -24.653  1.00  0.00     0.138 C 
BRANCH  23  24
HETATM   24  C10 UNL     1     -12.687  15.447 -25.206  1.00  0.00     0.065 C 
BRANCH  24  25
HETATM   25  C11 UNL     1     -12.339  14.328 -24.284  1.00  0.00     0.059 C 
BRANCH  25  26
HETATM   26  N5  UNL     1     -12.602  13.020 -24.668  1.00  0.00    -0.393 N 
HETATM   27  C12 UNL     1     -12.912  12.014 -23.737  1.00  0.00     0.122 C 
HETATM   28  C13 UNL     1     -11.736  11.081 -23.440  1.00  0.00     0.020 C 
HETATM   29  C14 UNL     1     -10.423  11.620 -23.924  1.00  0.00     0.003 C 
HETATM   30  C15 UNL     1     -10.517  11.895 -25.388  1.00  0.00     0.020 C 
HETATM   31  C16 UNL     1     -11.820  12.549 -25.799  1.00  0.00     0.122 C 
ENDBRANCH  25  26
ENDBRANCH  24  25
ENDBRANCH  23  24
ENDBRANCH  22  23
ENDBRANCH  14  15
ENDBRANCH  13  14
ENDBRANCH   7  13
BRANCH  12  32
HETATM   32  C20 UNL     1      -5.444  12.462 -23.920  1.00  0.00     0.023 C 
HETATM   33  C21 UNL     1      -5.401  12.239 -22.426  1.00  0.00     0.014 C 
HETATM   34  C22 UNL     1      -5.675  10.755 -22.320  1.00  0.00    -0.013 C 
HETATM   35  C23 UNL     1      -4.779  10.006 -23.239  1.00  0.00     0.005 C 
HETATM   36  C26 UNL     1      -6.995  10.795 -23.146  1.00  0.00     0.010 C 
HETATM   37  C24 UNL     1      -5.395  10.117 -24.647  1.00  0.00     0.005 C 
HETATM   38  C25 UNL     1      -6.308  11.288 -24.431  1.00  0.00    -0.006 C 
ENDBRANCH  12  32
TORSDOF 8
ENDMDL
