MODEL 1
REMARK VINA RESULT: -6.687016457      0.000      0.000
REMARK  12 active torsions:
REMARK  status: ('A' for Active; 'I' for Inactive)
REMARK    1  A    between atoms: C2_2  and  O1_3 
REMARK    2  A    between atoms: O1_3  and  C3_4 
REMARK    3  A    between atoms: C3_4  and  C4_6 
REMARK    4  A    between atoms: N1_7  and  N2_9 
REMARK       I    between atoms: N2_9  and  C5_11 
REMARK    5  A    between atoms: C5_11  and  C6_13 
REMARK    6  A    between atoms: C7_14  and  O4_15 
REMARK    7  A    between atoms: C8_17  and  O5_18 
REMARK    8  A    between atoms: C9_20  and  C10_21 
REMARK    9  A    between atoms: C10_21  and  O7_23 
REMARK   10  A    between atoms: C13_27  and  C14_28 
REMARK   11  A    between atoms: C14_28  and  O9_30 
REMARK   12  A    between atoms: O9_30  and  C15_31 
ROOT
HETATM    1  C6  UNL     1      13.319  35.674 -18.534  1.00  0.00     0.087 A 
HETATM    2  C7  UNL     1      13.172  34.290 -18.496  1.00  0.00     0.117 A 
HETATM    3  C8  UNL     1      12.182  33.628 -19.198  1.00  0.00     0.118 A 
HETATM    4  C9  UNL     1      11.301  34.351 -19.967  1.00  0.00     0.100 A 
HETATM    5  C12 UNL     1      11.438  35.705 -20.009  1.00  0.00     0.083 A 
HETATM    6  N3  UNL     1      10.522  36.488 -20.812  1.00  0.00    -0.100 NA
HETATM    7  C13 UNL     1      12.444  36.408 -19.300  1.00  0.00     0.083 A 
ENDROOT
BRANCH   1   8
HETATM    8  C5  UNL     1      14.370  36.304 -17.781  1.00  0.00     0.274 C 
HETATM    9  N2  UNL     1      14.685  36.109 -16.419  1.00  0.00    -0.266 N 
ATOM     10  H2  UNL     1      14.143  35.461 -15.848  1.00  0.00     0.190 HD
HETATM   11  O3  UNL     1      15.174  37.153 -18.298  1.00  0.00    -0.266 OA
BRANCH   9  12
HETATM   12  N1  UNL     1      15.770  36.832 -15.862  1.00  0.00    -0.303 N 
HETATM   13  C4  UNL     1      15.543  37.602 -14.874  1.00  0.00     0.189 C 
ATOM     14  H1  UNL     1      16.711  36.738 -16.243  1.00  0.00     0.186 HD
BRANCH  13  15
HETATM   15  C3  UNL     1      16.599  38.393 -14.229  1.00  0.00     0.299 C 
HETATM   16  O2  UNL     1      17.785  37.997 -14.117  1.00  0.00    -0.259 OA
BRANCH  15  17
HETATM   17  O1  UNL     1      16.280  39.636 -13.715  1.00  0.00    -0.317 OA
BRANCH  17  18
HETATM   18  C2  UNL     1      15.116  40.310 -14.126  1.00  0.00     0.174 C 
HETATM   19  C1  UNL     1      14.064  40.306 -13.057  1.00  0.00     0.034 C 
ENDBRANCH  17  18
ENDBRANCH  15  17
ENDBRANCH  13  15
ENDBRANCH   9  12
ENDBRANCH   1   8
BRANCH   2  20
HETATM   20  O4  UNL     1      14.024  33.517 -17.745  1.00  0.00    -0.357 OA
ATOM     21  H4  UNL     1      13.686  32.944 -17.067  1.00  0.00     0.217 HD
ENDBRANCH   2  20
BRANCH   7  22
HETATM   22  C14 UNL     1      12.437  37.844 -19.463  1.00  0.00     0.296 C 
HETATM   23  O8  UNL     1      11.867  38.687 -18.794  1.00  0.00    -0.259 OA
BRANCH  22  24
HETATM   24  O9  UNL     1      13.178  38.426 -20.537  1.00  0.00    -0.318 OA
BRANCH  24  25
HETATM   25  C15 UNL     1      13.214  39.835 -20.689  1.00  0.00     0.174 C 
HETATM   26  C16 UNL     1      14.550  40.431 -20.366  1.00  0.00     0.034 C 
ENDBRANCH  24  25
ENDBRANCH  22  24
ENDBRANCH   7  22
BRANCH   3  27
HETATM   27  O5  UNL     1      12.048  32.239 -19.149  1.00  0.00    -0.357 OA
ATOM     28  H5  UNL     1      12.795  31.669 -19.007  1.00  0.00     0.217 HD
ENDBRANCH   3  27
BRANCH   4  29
HETATM   29  C10 UNL     1      10.246  33.674 -20.719  1.00  0.00     0.297 C 
HETATM   30  O6  UNL     1      10.238  33.783 -21.971  1.00  0.00    -0.259 OA
BRANCH  29  31
HETATM   31  O7  UNL     1       9.261  32.924 -20.133  1.00  0.00    -0.322 OA
HETATM   32  C11 UNL     1       8.413  33.429 -19.112  1.00  0.00     0.213 C 
ENDBRANCH  29  31
ENDBRANCH   4  29
TORSDOF 12
ENDMDL
MODEL 2
REMARK VINA RESULT: -6.583007699      0.629      1.052
REMARK  12 active torsions:
REMARK  status: ('A' for Active; 'I' for Inactive)
REMARK    1  A    between atoms: C2_2  and  O1_3 
REMARK    2  A    between atoms: O1_3  and  C3_4 
REMARK    3  A    between atoms: C3_4  and  C4_6 
REMARK    4  A    between atoms: N1_7  and  N2_9 
REMARK       I    between atoms: N2_9  and  C5_11 
REMARK    5  A    between atoms: C5_11  and  C6_13 
REMARK    6  A    between atoms: C7_14  and  O4_15 
REMARK    7  A    between atoms: C8_17  and  O5_18 
REMARK    8  A    between atoms: C9_20  and  C10_21 
REMARK    9  A    between atoms: C10_21  and  O7_23 
REMARK   10  A    between atoms: C13_27  and  C14_28 
REMARK   11  A    between atoms: C14_28  and  O9_30 
REMARK   12  A    between atoms: O9_30  and  C15_31 
ROOT
HETATM    1  C6  UNL     1      13.493  35.815 -18.541  1.00  0.00     0.087 A 
HETATM    2  C7  UNL     1      13.334  34.432 -18.566  1.00  0.00     0.117 A 
HETATM    3  C8  UNL     1      12.375  33.808 -19.342  1.00  0.00     0.118 A 
HETATM    4  C9  UNL     1      11.540  34.569 -20.125  1.00  0.00     0.100 A 
HETATM    5  C12 UNL     1      11.690  35.923 -20.106  1.00  0.00     0.083 A 
HETATM    6  N3  UNL     1      10.821  36.745 -20.923  1.00  0.00    -0.100 NA
HETATM    7  C13 UNL     1      12.664  36.587 -19.321  1.00  0.00     0.083 A 
ENDROOT
BRANCH   1   8
HETATM    8  C5  UNL     1      14.510  36.404 -17.712  1.00  0.00     0.274 C 
HETATM    9  N2  UNL     1      14.696  36.224 -16.325  1.00  0.00    -0.266 N 
ATOM     10  H2  UNL     1      14.073  35.619 -15.790  1.00  0.00     0.190 HD
HETATM   11  O3  UNL     1      15.401  37.197 -18.173  1.00  0.00    -0.266 OA
BRANCH   9  12
HETATM   12  N1  UNL     1      15.769  36.900 -15.689  1.00  0.00    -0.303 N 
HETATM   13  C4  UNL     1      15.495  37.809 -14.840  1.00  0.00     0.189 C 
ATOM     14  H1  UNL     1      16.737  36.664 -15.907  1.00  0.00     0.186 HD
BRANCH  13  15
HETATM   15  C3  UNL     1      16.535  38.565 -14.131  1.00  0.00     0.299 C 
HETATM   16  O2  UNL     1      17.726  38.179 -14.037  1.00  0.00    -0.259 OA
BRANCH  15  17
HETATM   17  O1  UNL     1      16.194  39.763 -13.531  1.00  0.00    -0.317 OA
BRANCH  17  18
HETATM   18  C2  UNL     1      15.042  40.468 -13.929  1.00  0.00     0.174 C 
HETATM   19  C1  UNL     1      13.940  40.344 -12.919  1.00  0.00     0.034 C 
ENDBRANCH  17  18
ENDBRANCH  15  17
ENDBRANCH  13  15
ENDBRANCH   9  12
ENDBRANCH   1   8
BRANCH   2  20
HETATM   20  O4  UNL     1      14.141  33.622 -17.805  1.00  0.00    -0.357 OA
ATOM     21  H4  UNL     1      14.559  32.859 -18.187  1.00  0.00     0.217 HD
ENDBRANCH   2  20
BRANCH   7  22
HETATM   22  C14 UNL     1      12.677  38.029 -19.427  1.00  0.00     0.296 C 
HETATM   23  O8  UNL     1      12.045  38.847 -18.784  1.00  0.00    -0.259 OA
BRANCH  22  24
HETATM   24  O9  UNL     1      13.522  38.648 -20.397  1.00  0.00    -0.318 OA
BRANCH  24  25
HETATM   25  C15 UNL     1      13.169  39.909 -20.940  1.00  0.00     0.174 C 
HETATM   26  C16 UNL     1      14.233  40.948 -20.762  1.00  0.00     0.034 C 
ENDBRANCH  24  25
ENDBRANCH  22  24
ENDBRANCH   7  22
BRANCH   3  27
HETATM   27  O5  UNL     1      12.229  32.419 -19.356  1.00  0.00    -0.357 OA
ATOM     28  H5  UNL     1      11.691  31.979 -20.004  1.00  0.00     0.217 HD
ENDBRANCH   3  27
BRANCH   4  29
HETATM   29  C10 UNL     1      10.519  33.932 -20.956  1.00  0.00     0.297 C 
HETATM   30  O6  UNL     1       9.561  33.351 -20.386  1.00  0.00    -0.259 OA
BRANCH  29  31
HETATM   31  O7  UNL     1      10.548  33.932 -22.325  1.00  0.00    -0.322 OA
HETATM   32  C11 UNL     1       9.440  34.331 -23.118  1.00  0.00     0.213 C 
ENDBRANCH  29  31
ENDBRANCH   4  29
TORSDOF 12
ENDMDL
MODEL 3
REMARK VINA RESULT: -6.377467677      1.254      1.604
REMARK  12 active torsions:
REMARK  status: ('A' for Active; 'I' for Inactive)
REMARK    1  A    between atoms: C2_2  and  O1_3 
REMARK    2  A    between atoms: O1_3  and  C3_4 
REMARK    3  A    between atoms: C3_4  and  C4_6 
REMARK    4  A    between atoms: N1_7  and  N2_9 
REMARK       I    between atoms: N2_9  and  C5_11 
REMARK    5  A    between atoms: C5_11  and  C6_13 
REMARK    6  A    between atoms: C7_14  and  O4_15 
REMARK    7  A    between atoms: C8_17  and  O5_18 
REMARK    8  A    between atoms: C9_20  and  C10_21 
REMARK    9  A    between atoms: C10_21  and  O7_23 
REMARK   10  A    between atoms: C13_27  and  C14_28 
REMARK   11  A    between atoms: C14_28  and  O9_30 
REMARK   12  A    between atoms: O9_30  and  C15_31 
ROOT
HETATM    1  C6  UNL     1      13.739  35.694 -18.127  1.00  0.00     0.087 A 
HETATM    2  C7  UNL     1      13.524  34.326 -18.284  1.00  0.00     0.117 A 
HETATM    3  C8  UNL     1      12.698  33.811 -19.265  1.00  0.00     0.118 A 
HETATM    4  C9  UNL     1      12.057  34.669 -20.127  1.00  0.00     0.100 A 
HETATM    5  C12 UNL     1      12.261  36.007 -19.980  1.00  0.00     0.083 A 
HETATM    6  N3  UNL     1      11.596  36.931 -20.876  1.00  0.00    -0.100 NA
HETATM    7  C13 UNL     1      13.103  36.561 -18.983  1.00  0.00     0.083 A 
ENDROOT
BRANCH   1   8
HETATM    8  C5  UNL     1      14.610  36.167 -17.086  1.00  0.00     0.274 C 
HETATM    9  N2  UNL     1      15.809  36.896 -17.236  1.00  0.00    -0.266 N 
ATOM     10  H2  UNL     1      16.153  37.148 -18.162  1.00  0.00     0.190 HD
HETATM   11  O3  UNL     1      14.373  35.966 -15.845  1.00  0.00    -0.266 OA
BRANCH   9  12
HETATM   12  N1  UNL     1      16.527  37.272 -16.071  1.00  0.00    -0.303 N 
HETATM   13  C4  UNL     1      16.153  38.311 -15.437  1.00  0.00     0.189 C 
ATOM     14  H1  UNL     1      17.324  36.723 -15.750  1.00  0.00     0.186 HD
BRANCH  13  15
HETATM   15  C3  UNL     1      16.831  38.781 -14.223  1.00  0.00     0.299 C 
HETATM   16  O2  UNL     1      18.021  38.496 -13.943  1.00  0.00    -0.259 OA
BRANCH  15  17
HETATM   17  O1  UNL     1      16.131  39.579 -13.336  1.00  0.00    -0.317 OA
BRANCH  17  18
HETATM   18  C2  UNL     1      15.118  40.445 -13.789  1.00  0.00     0.174 C 
HETATM   19  C1  UNL     1      13.858  40.291 -12.990  1.00  0.00     0.034 C 
ENDBRANCH  17  18
ENDBRANCH  15  17
ENDBRANCH  13  15
ENDBRANCH   9  12
ENDBRANCH   1   8
BRANCH   2  20
HETATM   20  O4  UNL     1      14.140  33.423 -17.452  1.00  0.00    -0.357 OA
ATOM     21  H4  UNL     1      13.626  32.842 -16.903  1.00  0.00     0.217 HD
ENDBRANCH   2  20
BRANCH   7  22
HETATM   22  C14 UNL     1      13.199  38.004 -18.977  1.00  0.00     0.296 C 
HETATM   23  O8  UNL     1      12.323  38.827 -18.784  1.00  0.00    -0.259 OA
BRANCH  22  24
HETATM   24  O9  UNL     1      14.465  38.618 -19.222  1.00  0.00    -0.318 OA
BRANCH  24  25
HETATM   25  C15 UNL     1      14.994  38.646 -20.538  1.00  0.00     0.174 C 
HETATM   26  C16 UNL     1      16.431  39.068 -20.588  1.00  0.00     0.034 C 
ENDBRANCH  24  25
ENDBRANCH  22  24
ENDBRANCH   7  22
BRANCH   3  27
HETATM   27  O5  UNL     1      12.495  32.437 -19.409  1.00  0.00    -0.357 OA
ATOM     28  H5  UNL     1      11.631  32.072 -19.558  1.00  0.00     0.217 HD
ENDBRANCH   3  27
BRANCH   4  29
HETATM   29  C10 UNL     1      11.179  34.148 -21.173  1.00  0.00     0.297 C 
HETATM   30  O6  UNL     1      10.124  33.556 -20.830  1.00  0.00    -0.259 OA
BRANCH  29  31
HETATM   31  O7  UNL     1      11.442  34.268 -22.512  1.00  0.00    -0.322 OA
HETATM   32  C11 UNL     1      10.426  34.227 -23.503  1.00  0.00     0.213 C 
ENDBRANCH  29  31
ENDBRANCH   4  29
TORSDOF 12
ENDMDL
MODEL 4
REMARK VINA RESULT: -6.336173799      2.400      5.030
REMARK  12 active torsions:
REMARK  status: ('A' for Active; 'I' for Inactive)
REMARK    1  A    between atoms: C2_2  and  O1_3 
REMARK    2  A    between atoms: O1_3  and  C3_4 
REMARK    3  A    between atoms: C3_4  and  C4_6 
REMARK    4  A    between atoms: N1_7  and  N2_9 
REMARK       I    between atoms: N2_9  and  C5_11 
REMARK    5  A    between atoms: C5_11  and  C6_13 
REMARK    6  A    between atoms: C7_14  and  O4_15 
REMARK    7  A    between atoms: C8_17  and  O5_18 
REMARK    8  A    between atoms: C9_20  and  C10_21 
REMARK    9  A    between atoms: C10_21  and  O7_23 
REMARK   10  A    between atoms: C13_27  and  C14_28 
REMARK   11  A    between atoms: C14_28  and  O9_30 
REMARK   12  A    between atoms: O9_30  and  C15_31 
ROOT
HETATM    1  C6  UNL     1      14.786  38.251 -18.897  1.00  0.00     0.087 A 
HETATM    2  C7  UNL     1      15.622  39.165 -19.534  1.00  0.00     0.117 A 
HETATM    3  C8  UNL     1      15.658  39.308 -20.908  1.00  0.00     0.118 A 
HETATM    4  C9  UNL     1      14.842  38.524 -21.690  1.00  0.00     0.100 A 
HETATM    5  C12 UNL     1      14.022  37.628 -21.075  1.00  0.00     0.083 A 
HETATM    6  N3  UNL     1      13.154  36.791 -21.877  1.00  0.00    -0.100 NA
HETATM    7  C13 UNL     1      13.966  37.462 -19.668  1.00  0.00     0.083 A 
ENDROOT
BRANCH   1   8
HETATM    8  C5  UNL     1      14.795  38.151 -17.463  1.00  0.00     0.274 C 
HETATM    9  N2  UNL     1      15.209  37.050 -16.682  1.00  0.00    -0.266 N 
ATOM     10  H2  UNL     1      15.552  36.198 -17.125  1.00  0.00     0.190 HD
HETATM   11  O3  UNL     1      14.408  39.104 -16.703  1.00  0.00    -0.266 OA
BRANCH   9  12
HETATM   12  N1  UNL     1      15.140  37.154 -15.269  1.00  0.00    -0.303 N 
HETATM   13  C4  UNL     1      15.971  37.915 -14.676  1.00  0.00     0.189 C 
ATOM     14  H1  UNL     1      14.442  36.630 -14.741  1.00  0.00     0.186 HD
BRANCH  13  15
HETATM   15  C3  UNL     1      15.980  38.088 -13.217  1.00  0.00     0.299 C 
HETATM   16  O2  UNL     1      16.802  37.515 -12.461  1.00  0.00    -0.259 OA
BRANCH  15  17
HETATM   17  O1  UNL     1      15.040  38.920 -12.640  1.00  0.00    -0.317 OA
BRANCH  17  18
HETATM   18  C2  UNL     1      14.620  40.096 -13.290  1.00  0.00     0.174 C 
HETATM   19  C1  UNL     1      13.196  40.433 -12.962  1.00  0.00     0.034 C 
ENDBRANCH  17  18
ENDBRANCH  15  17
ENDBRANCH  13  15
ENDBRANCH   9  12
ENDBRANCH   1   8
BRANCH   2  20
HETATM   20  O4  UNL     1      16.457  39.975 -18.803  1.00  0.00    -0.357 OA
ATOM     21  H4  UNL     1      16.116  40.507 -18.094  1.00  0.00     0.217 HD
ENDBRANCH   2  20
BRANCH   7  22
HETATM   22  C14 UNL     1      13.036  36.462 -19.193  1.00  0.00     0.296 C 
HETATM   23  O8  UNL     1      11.825  36.536 -19.082  1.00  0.00    -0.259 OA
BRANCH  22  24
HETATM   24  O9  UNL     1      13.534  35.190 -18.779  1.00  0.00    -0.318 OA
BRANCH  24  25
HETATM   25  C15 UNL     1      13.015  34.005 -19.359  1.00  0.00     0.174 C 
HETATM   26  C16 UNL     1      14.060  32.958 -19.600  1.00  0.00     0.034 C 
ENDBRANCH  24  25
ENDBRANCH  22  24
ENDBRANCH   7  22
BRANCH   3  27
HETATM   27  O5  UNL     1      16.502  40.230 -21.531  1.00  0.00    -0.357 OA
ATOM     28  H5  UNL     1      17.349  39.978 -21.878  1.00  0.00     0.217 HD
ENDBRANCH   3  27
BRANCH   4  29
HETATM   29  C10 UNL     1      14.862  38.657 -23.146  1.00  0.00     0.297 C 
HETATM   30  O6  UNL     1      14.319  39.666 -23.662  1.00  0.00    -0.259 OA
BRANCH  29  31
HETATM   31  O7  UNL     1      15.440  37.740 -23.982  1.00  0.00    -0.322 OA
HETATM   32  C11 UNL     1      16.797  37.339 -23.866  1.00  0.00     0.213 C 
ENDBRANCH  29  31
ENDBRANCH   4  29
TORSDOF 12
ENDMDL
MODEL 5
REMARK VINA RESULT: -6.232434373      1.883      2.451
REMARK  12 active torsions:
REMARK  status: ('A' for Active; 'I' for Inactive)
REMARK    1  A    between atoms: C2_2  and  O1_3 
REMARK    2  A    between atoms: O1_3  and  C3_4 
REMARK    3  A    between atoms: C3_4  and  C4_6 
REMARK    4  A    between atoms: N1_7  and  N2_9 
REMARK       I    between atoms: N2_9  and  C5_11 
REMARK    5  A    between atoms: C5_11  and  C6_13 
REMARK    6  A    between atoms: C7_14  and  O4_15 
REMARK    7  A    between atoms: C8_17  and  O5_18 
REMARK    8  A    between atoms: C9_20  and  C10_21 
REMARK    9  A    between atoms: C10_21  and  O7_23 
REMARK   10  A    between atoms: C13_27  and  C14_28 
REMARK   11  A    between atoms: C14_28  and  O9_30 
REMARK   12  A    between atoms: O9_30  and  C15_31 
ROOT
HETATM    1  C6  UNL     1      14.143  36.808 -18.768  1.00  0.00     0.087 A 
HETATM    2  C7  UNL     1      13.730  35.479 -18.710  1.00  0.00     0.117 A 
HETATM    3  C8  UNL     1      13.098  34.851 -19.767  1.00  0.00     0.118 A 
HETATM    4  C9  UNL     1      12.860  35.552 -20.925  1.00  0.00     0.100 A 
HETATM    5  C12 UNL     1      13.261  36.852 -20.989  1.00  0.00     0.083 A 
HETATM    6  N3  UNL     1      13.021  37.611 -22.198  1.00  0.00    -0.100 NA
HETATM    7  C13 UNL     1      13.911  37.519 -19.921  1.00  0.00     0.083 A 
ENDROOT
BRANCH   1   8
HETATM    8  C5  UNL     1      14.796  37.404 -17.634  1.00  0.00     0.274 C 
HETATM    9  N2  UNL     1      15.823  36.846 -16.843  1.00  0.00    -0.266 N 
ATOM     10  H2  UNL     1      16.188  35.915 -17.046  1.00  0.00     0.190 HD
HETATM   11  O3  UNL     1      14.498  38.570 -17.202  1.00  0.00    -0.266 OA
BRANCH   9  12
HETATM   12  N1  UNL     1      16.337  37.605 -15.760  1.00  0.00    -0.303 N 
HETATM   13  C4  UNL     1      15.706  37.589 -14.655  1.00  0.00     0.189 C 
ATOM     14  H1  UNL     1      17.193  38.150 -15.866  1.00  0.00     0.186 HD
BRANCH  13  15
HETATM   15  C3  UNL     1      16.158  38.341 -13.477  1.00  0.00     0.299 C 
HETATM   16  O2  UNL     1      16.532  37.794 -12.411  1.00  0.00    -0.259 OA
BRANCH  15  17
HETATM   17  O1  UNL     1      16.174  39.722 -13.536  1.00  0.00    -0.317 OA
BRANCH  17  18
HETATM   18  C2  UNL     1      15.034  40.441 -13.943  1.00  0.00     0.174 C 
HETATM   19  C1  UNL     1      13.910  40.301 -12.960  1.00  0.00     0.034 C 
ENDBRANCH  17  18
ENDBRANCH  15  17
ENDBRANCH  13  15
ENDBRANCH   9  12
ENDBRANCH   1   8
BRANCH   2  20
HETATM   20  O4  UNL     1      13.943  34.730 -17.578  1.00  0.00    -0.357 OA
ATOM     21  H4  UNL     1      13.385  33.987 -17.378  1.00  0.00     0.217 HD
ENDBRANCH   2  20
BRANCH   7  22
HETATM   22  C14 UNL     1      14.264  38.900 -20.168  1.00  0.00     0.296 C 
HETATM   23  O8  UNL     1      13.561  39.891 -20.099  1.00  0.00    -0.259 OA
BRANCH  22  24
HETATM   24  O9  UNL     1      15.603  39.219 -20.549  1.00  0.00    -0.318 OA
BRANCH  24  25
HETATM   25  C15 UNL     1      15.852  39.851 -21.792  1.00  0.00     0.174 C 
HETATM   26  C16 UNL     1      17.297  39.826 -22.189  1.00  0.00     0.034 C 
ENDBRANCH  24  25
ENDBRANCH  22  24
ENDBRANCH   7  22
BRANCH   3  27
HETATM   27  O5  UNL     1      12.691  33.517 -19.693  1.00  0.00    -0.357 OA
ATOM     28  H5  UNL     1      11.882  33.263 -19.264  1.00  0.00     0.217 HD
ENDBRANCH   3  27
BRANCH   4  29
HETATM   29  C10 UNL     1      12.193  34.909 -22.056  1.00  0.00     0.297 C 
HETATM   30  O6  UNL     1      10.952  34.719 -21.991  1.00  0.00    -0.259 OA
BRANCH  29  31
HETATM   31  O7  UNL     1      12.847  34.500 -23.188  1.00  0.00    -0.322 OA
HETATM   32  C11 UNL     1      14.210  34.102 -23.188  1.00  0.00     0.213 C 
ENDBRANCH  29  31
ENDBRANCH   4  29
TORSDOF 12
ENDMDL
