MODEL 1
REMARK VINA RESULT: -7.480188175      0.000      0.000
REMARK  12 active torsions:
REMARK  status: ('A' for Active; 'I' for Inactive)
REMARK    1  A    between atoms: C2_7  and  N3_8 
REMARK    2  A    between atoms: N4_11  and  C3_12 
REMARK    3  A    between atoms: C3_12  and  C4_13 
REMARK    4  A    between atoms: C4_13  and  C5_14 
REMARK    5  A    between atoms: C5_14  and  O1_15 
REMARK    6  A    between atoms: O1_15  and  C6_16 
REMARK    7  A    between atoms: C6_16  and  O3_18 
REMARK    8  A    between atoms: O3_18  and  C7_19 
REMARK    9  A    between atoms: C7_19  and  O4_20 
REMARK   10  A    between atoms: O4_20  and  C8_21 
REMARK   11  A    between atoms: C10_26  and  O6_27 
REMARK   12  A    between atoms: C11_29  and  C12_30 
ROOT
HETATM    1  N1  UNL     1      10.594  37.220 -20.288  1.00  0.00    -0.384 N 
ATOM      2  H11 UNL     1      10.013  36.385 -20.216  1.00  0.00     0.157 HD
ATOM      3  H12 UNL     1      10.196  37.999 -20.813  1.00  0.00     0.157 HD
HETATM    4  C1  UNL     1      11.710  37.208 -19.740  1.00  0.00     0.132 A 
HETATM    5  N2  UNL     1      12.500  38.344 -19.839  1.00  0.00    -0.176 N 
ATOM      6  H2  UNL     1      12.155  39.156 -20.351  1.00  0.00     0.186 HD
HETATM    7  C2  UNL     1      13.698  38.383 -19.273  1.00  0.00     0.685 A 
HETATM    8  N4  UNL     1      14.234  37.376 -18.580  1.00  0.00    -0.142 N 
HETATM    9  C9  UNL     1      13.491  36.220 -18.452  1.00  0.00     0.148 A 
HETATM   10  N5  UNL     1      14.002  35.187 -17.756  1.00  0.00    -0.321 N 
ATOM     11  H5  UNL     1      14.928  35.275 -17.338  1.00  0.00     0.169 HD
HETATM   12  C10 UNL     1      13.317  34.042 -17.599  1.00  0.00     0.159 A 
HETATM   13  C11 UNL     1      12.077  33.946 -18.164  1.00  0.00     0.103 A 
HETATM   14  C13 UNL     1      11.507  34.984 -18.889  1.00  0.00     0.207 A 
HETATM   15  O8  UNL     1      10.364  34.840 -19.387  1.00  0.00    -0.286 OA
HETATM   16  C14 UNL     1      12.240  36.171 -19.041  1.00  0.00     0.104 A 
ENDROOT
BRANCH   8  17
HETATM   17  C3  UNL     1      15.428  37.421 -17.854  1.00  0.00     0.115 C 
BRANCH  17  18
HETATM   18  C4  UNL     1      15.620  37.861 -16.651  1.00  0.00     0.018 C 
BRANCH  18  19
HETATM   19  C5  UNL     1      15.980  37.202 -15.412  1.00  0.00     0.210 C 
BRANCH  19  20
HETATM   20  O1  UNL     1      15.223  37.720 -14.293  1.00  0.00    -0.294 OA
BRANCH  20  21
HETATM   21  C6  UNL     1      15.790  38.454 -13.302  1.00  0.00     0.408 C 
HETATM   22  O2  UNL     1      16.177  37.916 -12.234  1.00  0.00    -0.229 OA
BRANCH  21  23
HETATM   23  O3  UNL     1      15.969  39.858 -13.433  1.00  0.00    -0.272 OA
BRANCH  23  24
HETATM   24  C7  UNL     1      15.098  40.571 -14.286  1.00  0.00     0.360 C 
BRANCH  24  25
HETATM   25  O4  UNL     1      14.194  41.280 -13.458  1.00  0.00    -0.302 OA
BRANCH  25  26
HETATM   26  C8  UNL     1      12.924  40.833 -13.153  1.00  0.00     0.400 C 
HETATM   27  O5  UNL     1      12.781  39.742 -12.550  1.00  0.00    -0.276 OA
ENDBRANCH  25  26
ENDBRANCH  24  25
ENDBRANCH  23  24
ENDBRANCH  21  23
ENDBRANCH  20  21
ENDBRANCH  19  20
ENDBRANCH  18  19
ENDBRANCH  17  18
ENDBRANCH   8  17
BRANCH   7  28
HETATM   28  N3  UNL     1      14.435  39.447 -19.524  1.00  0.00    -0.234 N 
ATOM     29  H32 UNL     1      14.034  40.204 -20.078  1.00  0.00     0.174 HD
ATOM     30  H31 UNL     1      15.346  39.491 -19.066  1.00  0.00     0.174 HD
ENDBRANCH   7  28
BRANCH  12  31
HETATM   31  O6  UNL     1      13.861  32.967 -16.869  1.00  0.00    -0.345 OA
ATOM     32  H6  UNL     1      13.501  32.091 -16.948  1.00  0.00     0.219 HD
ENDBRANCH  12  31
BRANCH  13  33
HETATM   33  C12 UNL     1      11.295  32.706 -18.015  1.00  0.00     0.278 C 
HETATM   34  O7  UNL     1      10.880  32.366 -16.878  1.00  0.00    -0.301 OA
ENDBRANCH  13  33
TORSDOF 12
ENDMDL
MODEL 2
REMARK VINA RESULT: -7.348322852      1.028      2.171
REMARK  12 active torsions:
REMARK  status: ('A' for Active; 'I' for Inactive)
REMARK    1  A    between atoms: C2_7  and  N3_8 
REMARK    2  A    between atoms: N4_11  and  C3_12 
REMARK    3  A    between atoms: C3_12  and  C4_13 
REMARK    4  A    between atoms: C4_13  and  C5_14 
REMARK    5  A    between atoms: C5_14  and  O1_15 
REMARK    6  A    between atoms: O1_15  and  C6_16 
REMARK    7  A    between atoms: C6_16  and  O3_18 
REMARK    8  A    between atoms: O3_18  and  C7_19 
REMARK    9  A    between atoms: C7_19  and  O4_20 
REMARK   10  A    between atoms: O4_20  and  C8_21 
REMARK   11  A    between atoms: C10_26  and  O6_27 
REMARK   12  A    between atoms: C11_29  and  C12_30 
ROOT
HETATM    1  N1  UNL     1      10.534  37.151 -20.364  1.00  0.00    -0.384 N 
ATOM      2  H11 UNL     1       9.965  36.310 -20.271  1.00  0.00     0.157 HD
ATOM      3  H12 UNL     1      10.124  37.912 -20.903  1.00  0.00     0.157 HD
HETATM    4  C1  UNL     1      11.653  37.165 -19.821  1.00  0.00     0.132 A 
HETATM    5  N2  UNL     1      12.428  38.308 -19.948  1.00  0.00    -0.176 N 
ATOM      6  H2  UNL     1      12.070  39.105 -20.476  1.00  0.00     0.186 HD
HETATM    7  C2  UNL     1      13.628  38.375 -19.389  1.00  0.00     0.685 A 
HETATM    8  N4  UNL     1      14.180  37.391 -18.676  1.00  0.00    -0.142 N 
HETATM    9  C9  UNL     1      13.452  36.228 -18.519  1.00  0.00     0.148 A 
HETATM   10  N5  UNL     1      13.979  35.217 -17.803  1.00  0.00    -0.321 N 
ATOM     11  H5  UNL     1      14.906  35.326 -17.393  1.00  0.00     0.169 HD
HETATM   12  C10 UNL     1      13.310  34.067 -17.619  1.00  0.00     0.159 A 
HETATM   13  C11 UNL     1      12.069  33.943 -18.176  1.00  0.00     0.103 A 
HETATM   14  C13 UNL     1      11.483  34.958 -18.920  1.00  0.00     0.207 A 
HETATM   15  O8  UNL     1      10.339  34.789 -19.410  1.00  0.00    -0.286 OA
HETATM   16  C14 UNL     1      12.200  36.150 -19.102  1.00  0.00     0.104 A 
ENDROOT
BRANCH   8  17
HETATM   17  C3  UNL     1      15.376  37.466 -17.958  1.00  0.00     0.115 C 
BRANCH  17  18
HETATM   18  C4  UNL     1      15.569  37.942 -16.769  1.00  0.00     0.018 C 
BRANCH  18  19
HETATM   19  C5  UNL     1      15.513  39.287 -16.231  1.00  0.00     0.210 C 
BRANCH  19  20
HETATM   20  O1  UNL     1      14.554  39.390 -15.152  1.00  0.00    -0.294 OA
BRANCH  20  21
HETATM   21  C6  UNL     1      14.832  40.018 -13.982  1.00  0.00     0.408 C 
HETATM   22  O2  UNL     1      14.839  41.273 -13.902  1.00  0.00    -0.229 OA
BRANCH  21  23
HETATM   23  O3  UNL     1      15.124  39.283 -12.800  1.00  0.00    -0.272 OA
BRANCH  23  24
HETATM   24  C7  UNL     1      16.246  38.426 -12.802  1.00  0.00     0.360 C 
BRANCH  24  25
HETATM   25  O4  UNL     1      17.357  39.197 -13.224  1.00  0.00    -0.302 OA
BRANCH  25  26
HETATM   26  C8  UNL     1      18.379  38.700 -14.008  1.00  0.00     0.400 C 
HETATM   27  O5  UNL     1      18.333  37.509 -14.403  1.00  0.00    -0.276 OA
ENDBRANCH  25  26
ENDBRANCH  24  25
ENDBRANCH  23  24
ENDBRANCH  21  23
ENDBRANCH  20  21
ENDBRANCH  19  20
ENDBRANCH  18  19
ENDBRANCH  17  18
ENDBRANCH   8  17
BRANCH   7  28
HETATM   28  N3  UNL     1      14.350  39.442 -19.666  1.00  0.00    -0.234 N 
ATOM     29  H32 UNL     1      13.872  40.308 -19.919  1.00  0.00     0.174 HD
ATOM     30  H31 UNL     1      15.357  39.364 -19.521  1.00  0.00     0.174 HD
ENDBRANCH   7  28
BRANCH  12  31
HETATM   31  O6  UNL     1      13.871  33.015 -16.868  1.00  0.00    -0.345 OA
ATOM     32  H6  UNL     1      13.471  32.153 -16.860  1.00  0.00     0.219 HD
ENDBRANCH  12  31
BRANCH  13  33
HETATM   33  C12 UNL     1      11.303  32.697 -17.995  1.00  0.00     0.278 C 
HETATM   34  O7  UNL     1      10.892  32.380 -16.850  1.00  0.00    -0.301 OA
ENDBRANCH  13  33
TORSDOF 12
ENDMDL
MODEL 3
REMARK VINA RESULT: -7.059388984      0.964      1.422
REMARK  12 active torsions:
REMARK  status: ('A' for Active; 'I' for Inactive)
REMARK    1  A    between atoms: C2_7  and  N3_8 
REMARK    2  A    between atoms: N4_11  and  C3_12 
REMARK    3  A    between atoms: C3_12  and  C4_13 
REMARK    4  A    between atoms: C4_13  and  C5_14 
REMARK    5  A    between atoms: C5_14  and  O1_15 
REMARK    6  A    between atoms: O1_15  and  C6_16 
REMARK    7  A    between atoms: C6_16  and  O3_18 
REMARK    8  A    between atoms: O3_18  and  C7_19 
REMARK    9  A    between atoms: C7_19  and  O4_20 
REMARK   10  A    between atoms: O4_20  and  C8_21 
REMARK   11  A    between atoms: C10_26  and  O6_27 
REMARK   12  A    between atoms: C11_29  and  C12_30 
ROOT
HETATM    1  N1  UNL     1      10.012  36.805 -20.540  1.00  0.00    -0.384 N 
ATOM      2  H11 UNL     1       9.515  35.946 -20.305  1.00  0.00     0.157 HD
ATOM      3  H12 UNL     1       9.501  37.476 -21.113  1.00  0.00     0.157 HD
HETATM    4  C1  UNL     1      11.171  36.948 -20.113  1.00  0.00     0.132 A 
HETATM    5  N2  UNL     1      11.847  38.116 -20.433  1.00  0.00    -0.176 N 
ATOM      6  H2  UNL     1      11.388  38.825 -21.004  1.00  0.00     0.186 HD
HETATM    7  C2  UNL     1      13.085  38.318 -20.004  1.00  0.00     0.685 A 
HETATM    8  N4  UNL     1      13.769  37.454 -19.250  1.00  0.00    -0.142 N 
HETATM    9  C9  UNL     1      13.143  36.273 -18.902  1.00  0.00     0.148 A 
HETATM   10  N5  UNL     1      13.804  35.382 -18.140  1.00  0.00    -0.321 N 
ATOM     11  H5  UNL     1      14.754  35.593 -17.835  1.00  0.00     0.169 HD
HETATM   12  C10 UNL     1      13.238  34.220 -17.772  1.00  0.00     0.159 A 
HETATM   13  C11 UNL     1      11.964  33.960 -18.189  1.00  0.00     0.103 A 
HETATM   14  C13 UNL     1      11.242  34.848 -18.975  1.00  0.00     0.207 A 
HETATM   15  O8  UNL     1      10.074  34.555 -19.331  1.00  0.00    -0.286 OA
HETATM   16  C14 UNL     1      11.852  36.054 -19.349  1.00  0.00     0.104 A 
ENDROOT
BRANCH   8  17
HETATM   17  C3  UNL     1      15.017  37.682 -18.663  1.00  0.00     0.115 C 
BRANCH  17  18
HETATM   18  C4  UNL     1      15.365  38.642 -17.867  1.00  0.00     0.018 C 
BRANCH  18  19
HETATM   19  C5  UNL     1      15.151  38.868 -16.451  1.00  0.00     0.210 C 
BRANCH  19  20
HETATM   20  O1  UNL     1      15.284  37.644 -15.691  1.00  0.00    -0.294 OA
BRANCH  20  21
HETATM   21  C6  UNL     1      16.301  37.430 -14.818  1.00  0.00     0.408 C 
HETATM   22  O2  UNL     1      17.442  37.085 -15.220  1.00  0.00    -0.229 OA
BRANCH  21  23
HETATM   23  O3  UNL     1      16.118  37.589 -13.417  1.00  0.00    -0.272 OA
BRANCH  23  24
HETATM   24  C7  UNL     1      15.930  38.892 -12.907  1.00  0.00     0.360 C 
BRANCH  24  25
HETATM   25  O4  UNL     1      14.532  39.106 -12.819  1.00  0.00    -0.302 OA
BRANCH  25  26
HETATM   26  C8  UNL     1      13.913  40.280 -13.197  1.00  0.00     0.400 C 
HETATM   27  O5  UNL     1      14.573  41.163 -13.797  1.00  0.00    -0.276 OA
ENDBRANCH  25  26
ENDBRANCH  24  25
ENDBRANCH  23  24
ENDBRANCH  21  23
ENDBRANCH  20  21
ENDBRANCH  19  20
ENDBRANCH  18  19
ENDBRANCH  17  18
ENDBRANCH   8  17
BRANCH   7  28
HETATM   28  N3  UNL     1      13.701  39.390 -20.460  1.00  0.00    -0.234 N 
ATOM     29  H32 UNL     1      13.881  39.466 -21.462  1.00  0.00     0.174 HD
ATOM     30  H31 UNL     1      13.883  40.135 -19.787  1.00  0.00     0.174 HD
ENDBRANCH   7  28
BRANCH  12  31
HETATM   31  O6  UNL     1      13.938  33.294 -16.974  1.00  0.00    -0.345 OA
ATOM     32  H6  UNL     1      13.475  32.685 -16.412  1.00  0.00     0.219 HD
ENDBRANCH  12  31
BRANCH  13  33
HETATM   33  C12 UNL     1      11.309  32.696 -17.806  1.00  0.00     0.278 C 
HETATM   34  O7  UNL     1      11.016  32.488 -16.601  1.00  0.00    -0.301 OA
ENDBRANCH  13  33
TORSDOF 12
ENDMDL
MODEL 4
REMARK VINA RESULT: -6.756883101      2.198      3.990
REMARK  12 active torsions:
REMARK  status: ('A' for Active; 'I' for Inactive)
REMARK    1  A    between atoms: C2_7  and  N3_8 
REMARK    2  A    between atoms: N4_11  and  C3_12 
REMARK    3  A    between atoms: C3_12  and  C4_13 
REMARK    4  A    between atoms: C4_13  and  C5_14 
REMARK    5  A    between atoms: C5_14  and  O1_15 
REMARK    6  A    between atoms: O1_15  and  C6_16 
REMARK    7  A    between atoms: C6_16  and  O3_18 
REMARK    8  A    between atoms: O3_18  and  C7_19 
REMARK    9  A    between atoms: C7_19  and  O4_20 
REMARK   10  A    between atoms: O4_20  and  C8_21 
REMARK   11  A    between atoms: C10_26  and  O6_27 
REMARK   12  A    between atoms: C11_29  and  C12_30 
ROOT
HETATM    1  N1  UNL     1      10.673  31.819 -18.228  1.00  0.00    -0.384 N 
ATOM      2  H11 UNL     1       9.901  31.642 -18.870  1.00  0.00     0.157 HD
ATOM      3  H12 UNL     1      10.818  31.120 -17.499  1.00  0.00     0.157 HD
HETATM    4  C1  UNL     1      11.351  32.848 -18.392  1.00  0.00     0.132 A 
HETATM    5  N2  UNL     1      12.400  33.088 -17.518  1.00  0.00    -0.176 N 
ATOM      6  H2  UNL     1      12.595  32.424 -16.768  1.00  0.00     0.186 HD
HETATM    7  C2  UNL     1      13.153  34.171 -17.649  1.00  0.00     0.685 A 
HETATM    8  N4  UNL     1      12.981  35.094 -18.598  1.00  0.00    -0.142 N 
HETATM    9  C9  UNL     1      11.949  34.906 -19.495  1.00  0.00     0.148 A 
HETATM   10  N5  UNL     1      11.751  35.817 -20.467  1.00  0.00    -0.321 N 
ATOM     11  H5  UNL     1      12.364  36.630 -20.521  1.00  0.00     0.169 HD
HETATM   12  C10 UNL     1      10.763  35.678 -21.366  1.00  0.00     0.159 A 
HETATM   13  C11 UNL     1       9.955  34.580 -21.275  1.00  0.00     0.103 A 
HETATM   14  C13 UNL     1      10.120  33.613 -20.293  1.00  0.00     0.207 A 
HETATM   15  O8  UNL     1       9.347  32.625 -20.257  1.00  0.00    -0.286 OA
HETATM   16  C14 UNL     1      11.158  33.779 -19.363  1.00  0.00     0.104 A 
ENDROOT
BRANCH   8  17
HETATM   17  C3  UNL     1      13.829  36.175 -18.858  1.00  0.00     0.115 C 
BRANCH  17  18
HETATM   18  C4  UNL     1      13.795  37.363 -18.343  1.00  0.00     0.018 C 
BRANCH  18  19
HETATM   19  C5  UNL     1      14.754  38.123 -17.566  1.00  0.00     0.210 C 
BRANCH  19  20
HETATM   20  O1  UNL     1      15.632  37.256 -16.810  1.00  0.00    -0.294 OA
BRANCH  20  21
HETATM   21  C6  UNL     1      15.684  37.269 -15.454  1.00  0.00     0.408 C 
HETATM   22  O2  UNL     1      14.779  36.736 -14.763  1.00  0.00    -0.229 OA
BRANCH  21  23
HETATM   23  O3  UNL     1      16.764  37.882 -14.762  1.00  0.00    -0.272 OA
BRANCH  23  24
HETATM   24  C7  UNL     1      16.523  38.418 -13.478  1.00  0.00     0.360 C 
BRANCH  24  25
HETATM   25  O4  UNL     1      16.185  39.782 -13.654  1.00  0.00    -0.302 OA
BRANCH  25  26
HETATM   26  C8  UNL     1      14.896  40.268 -13.573  1.00  0.00     0.400 C 
HETATM   27  O5  UNL     1      14.626  41.392 -14.061  1.00  0.00    -0.276 OA
ENDBRANCH  25  26
ENDBRANCH  24  25
ENDBRANCH  23  24
ENDBRANCH  21  23
ENDBRANCH  20  21
ENDBRANCH  19  20
ENDBRANCH  18  19
ENDBRANCH  17  18
ENDBRANCH   8  17
BRANCH   7  28
HETATM   28  N3  UNL     1      14.043  34.390 -16.702  1.00  0.00    -0.234 N 
ATOM     29  H32 UNL     1      14.050  35.296 -16.233  1.00  0.00     0.174 HD
ATOM     30  H31 UNL     1      14.622  33.597 -16.426  1.00  0.00     0.174 HD
ENDBRANCH   7  28
BRANCH  12  31
HETATM   31  O6  UNL     1      10.564  36.637 -22.378  1.00  0.00    -0.345 OA
ATOM     32  H6  UNL     1       9.886  36.523 -23.033  1.00  0.00     0.219 HD
ENDBRANCH  12  31
BRANCH  13  33
HETATM   33  C12 UNL     1       8.859  34.392 -22.243  1.00  0.00     0.278 C 
HETATM   34  O7  UNL     1       9.110  34.398 -23.475  1.00  0.00    -0.301 OA
ENDBRANCH  13  33
TORSDOF 12
ENDMDL
MODEL 5
REMARK VINA RESULT: -6.648108222      1.218      2.154
REMARK  12 active torsions:
REMARK  status: ('A' for Active; 'I' for Inactive)
REMARK    1  A    between atoms: C2_7  and  N3_8 
REMARK    2  A    between atoms: N4_11  and  C3_12 
REMARK    3  A    between atoms: C3_12  and  C4_13 
REMARK    4  A    between atoms: C4_13  and  C5_14 
REMARK    5  A    between atoms: C5_14  and  O1_15 
REMARK    6  A    between atoms: O1_15  and  C6_16 
REMARK    7  A    between atoms: C6_16  and  O3_18 
REMARK    8  A    between atoms: O3_18  and  C7_19 
REMARK    9  A    between atoms: C7_19  and  O4_20 
REMARK   10  A    between atoms: O4_20  and  C8_21 
REMARK   11  A    between atoms: C10_26  and  O6_27 
REMARK   12  A    between atoms: C11_29  and  C12_30 
ROOT
HETATM    1  N1  UNL     1      11.009  37.483 -20.282  1.00  0.00    -0.384 N 
ATOM      2  H11 UNL     1      10.370  36.689 -20.244  1.00  0.00     0.157 HD
ATOM      3  H12 UNL     1      10.680  38.298 -20.799  1.00  0.00     0.157 HD
HETATM    4  C1  UNL     1      12.107  37.382 -19.707  1.00  0.00     0.132 A 
HETATM    5  N2  UNL     1      12.976  38.461 -19.760  1.00  0.00    -0.176 N 
ATOM      6  H2  UNL     1      12.702  39.306 -20.262  1.00  0.00     0.186 HD
HETATM    7  C2  UNL     1      14.158  38.405 -19.163  1.00  0.00     0.685 A 
HETATM    8  N4  UNL     1      14.605  37.349 -18.480  1.00  0.00    -0.142 N 
HETATM    9  C9  UNL     1      13.780  36.245 -18.396  1.00  0.00     0.148 A 
HETATM   10  N5  UNL     1      14.199  35.164 -17.711  1.00  0.00    -0.321 N 
ATOM     11  H5  UNL     1      15.118  35.179 -17.269  1.00  0.00     0.169 HD
HETATM   12  C10 UNL     1      13.433  34.067 -17.598  1.00  0.00     0.159 A 
HETATM   13  C11 UNL     1      12.205  34.070 -18.196  1.00  0.00     0.103 A 
HETATM   14  C13 UNL     1      11.728  35.160 -18.912  1.00  0.00     0.207 A 
HETATM   15  O8  UNL     1      10.591  35.107 -19.441  1.00  0.00    -0.286 OA
HETATM   16  C14 UNL     1      12.545  36.295 -19.018  1.00  0.00     0.104 A 
ENDROOT
BRANCH   8  17
HETATM   17  C3  UNL     1      15.779  37.294 -17.724  1.00  0.00     0.115 C 
BRANCH  17  18
HETATM   18  C4  UNL     1      15.936  37.559 -16.465  1.00  0.00     0.018 C 
BRANCH  18  19
HETATM   19  C5  UNL     1      15.036  38.075 -15.453  1.00  0.00     0.210 C 
BRANCH  19  20
HETATM   20  O1  UNL     1      15.535  39.303 -14.873  1.00  0.00    -0.294 OA
BRANCH  20  21
HETATM   21  C6  UNL     1      15.304  39.650 -13.581  1.00  0.00     0.408 C 
HETATM   22  O2  UNL     1      15.057  40.841 -13.262  1.00  0.00    -0.229 OA
BRANCH  21  23
HETATM   23  O3  UNL     1      15.330  38.682 -12.540  1.00  0.00    -0.272 OA
BRANCH  23  24
HETATM   24  C7  UNL     1      16.581  38.177 -12.123  1.00  0.00     0.360 C 
BRANCH  24  25
HETATM   25  O4  UNL     1      16.327  37.241 -11.091  1.00  0.00    -0.302 OA
BRANCH  25  26
HETATM   26  C8  UNL     1      16.187  37.586  -9.762  1.00  0.00     0.400 C 
HETATM   27  O5  UNL     1      15.812  36.721  -8.934  1.00  0.00    -0.276 OA
ENDBRANCH  25  26
ENDBRANCH  24  25
ENDBRANCH  23  24
ENDBRANCH  21  23
ENDBRANCH  20  21
ENDBRANCH  19  20
ENDBRANCH  18  19
ENDBRANCH  17  18
ENDBRANCH   8  17
BRANCH   7  28
HETATM   28  N3  UNL     1      14.974  39.419 -19.372  1.00  0.00    -0.234 N 
ATOM     29  H32 UNL     1      14.683  40.162 -20.007  1.00  0.00     0.174 HD
ATOM     30  H31 UNL     1      15.822  39.448 -18.806  1.00  0.00     0.174 HD
ENDBRANCH   7  28
BRANCH  12  31
HETATM   31  O6  UNL     1      13.881  32.941 -16.879  1.00  0.00    -0.345 OA
ATOM     32  H6  UNL     1      14.660  32.985 -16.338  1.00  0.00     0.219 HD
ENDBRANCH  12  31
BRANCH  13  33
HETATM   33  C12 UNL     1      11.335  32.884 -18.094  1.00  0.00     0.278 C 
HETATM   34  O7  UNL     1      10.980  32.469 -16.962  1.00  0.00    -0.301 OA
ENDBRANCH  13  33
TORSDOF 12
ENDMDL
