MODEL 1
REMARK VINA RESULT: -9.152145148      0.000      0.000
REMARK  9 active torsions:
REMARK  status: ('A' for Active; 'I' for Inactive)
REMARK    1  A    between atoms: C5_5  and  O1_6 
REMARK    2  A    between atoms: C14_16  and  C15_17 
REMARK    3  A    between atoms: C15_17  and  C16_19 
REMARK    4  A    between atoms: C16_19  and  N1_20 
REMARK    5  A    between atoms: C16_19  and  C23_28 
REMARK    6  A    between atoms: N1_20  and  C17_22 
REMARK       I    between atoms: C23_28  and  N2_30 
REMARK    7  A    between atoms: N2_30  and  C24_32 
REMARK    8  A    between atoms: C24_32  and  C25_33 
REMARK    9  A    between atoms: C33_44  and  O4_45 
ROOT
HETATM    1  C1  UNL     1      -4.554  18.660 -10.377  1.00  0.00     0.025 C 
HETATM    2  C2  UNL     1      -5.141  17.549  -9.483  1.00  0.00     0.003 C 
HETATM    3  C3  UNL     1      -5.115  16.305 -10.333  1.00  0.00     0.021 C 
HETATM    4  C4  UNL     1      -3.799  16.135 -11.021  1.00  0.00     0.033 C 
HETATM    5  C5  UNL     1      -2.605  16.738 -10.405  1.00  0.00     0.122 C 
HETATM    6  C6  UNL     1      -2.684  17.191  -8.998  1.00  0.00     0.066 C 
HETATM    7  C7  UNL     1      -4.078  17.285  -8.468  1.00  0.00    -0.069 C 
HETATM    8  C8  UNL     1      -4.256  17.120  -7.198  1.00  0.00    -0.022 C 
HETATM    9  C9  UNL     1      -5.591  17.182  -6.617  1.00  0.00     0.037 C 
HETATM   10  C10 UNL     1      -6.401  18.196  -7.383  1.00  0.00     0.025 C 
HETATM   11  C11 UNL     1      -7.795  17.985  -6.970  1.00  0.00     0.024 C 
HETATM   12  C12 UNL     1      -8.261  17.983  -5.584  1.00  0.00     0.009 C 
HETATM   13  C13 UNL     1      -9.631  17.265  -5.705  1.00  0.00     0.014 C 
HETATM   14  C14 UNL     1     -10.371  17.416  -6.958  1.00  0.00     0.072 C 
HETATM   15  C28 UNL     1      -9.736  18.011  -8.178  1.00  0.00     0.011 C 
HETATM   16  C29 UNL     1     -10.632  18.812  -9.072  1.00  0.00     0.023 C 
HETATM   17  C30 UNL     1      -8.934  16.993  -8.998  1.00  0.00    -0.014 C 
HETATM   18  C31 UNL     1      -7.586  17.099  -9.372  1.00  0.00     0.001 C 
HETATM   19  C32 UNL     1      -6.463  17.911  -8.892  1.00  0.00    -0.063 C 
HETATM   20  C33 UNL     1      -8.679  18.933  -7.656  1.00  0.00     0.135 C 
ENDROOT
BRANCH  14  21
HETATM   21  C15 UNL     1     -11.693  18.026  -6.674  1.00  0.00     0.163 C 
HETATM   22  O2  UNL     1     -11.674  19.144  -6.205  1.00  0.00    -0.295 OA
BRANCH  21  23
HETATM   23  C16 UNL     1     -13.012  17.417  -6.898  1.00  0.00     0.240 C 
BRANCH  23  24
HETATM   24  N1  UNL     1     -13.702  16.819  -5.838  1.00  0.00    -0.399 N 
ATOM     25  H1  UNL     1     -14.589  17.260  -5.594  1.00  0.00     0.154 HD
BRANCH  24  26
HETATM   26  C17 UNL     1     -13.364  15.728  -5.080  1.00  0.00     0.077 C 
HETATM   27  C18 UNL     1     -14.266  15.243  -3.984  1.00  0.00     0.024 C 
HETATM   28  C19 UNL     1     -14.589  13.738  -4.201  1.00  0.00     0.002 C 
HETATM   29  C20 UNL     1     -13.304  12.989  -4.106  1.00  0.00     0.000 C 
HETATM   30  C21 UNL     1     -12.216  13.601  -4.966  1.00  0.00     0.002 C 
HETATM   31  C22 UNL     1     -12.910  14.537  -5.958  1.00  0.00     0.024 C 
ENDBRANCH  24  26
ENDBRANCH  23  24
BRANCH  23  32
HETATM   32  C23 UNL     1     -13.958  18.403  -7.571  1.00  0.00     0.248 C 
HETATM   33  O3  UNL     1     -15.145  18.336  -7.207  1.00  0.00    -0.271 OA
HETATM   34  N2  UNL     1     -13.533  19.308  -8.530  1.00  0.00    -0.341 N 
ATOM     35  H2  UNL     1     -12.538  19.279  -8.754  1.00  0.00     0.163 HD
BRANCH  34  36
HETATM   36  C24 UNL     1     -14.302  20.278  -9.250  1.00  0.00     0.131 A 
HETATM   37  C26 UNL     1     -14.691  21.554  -8.592  1.00  0.00     0.043 A 
HETATM   38  C27 UNL     1     -13.563  21.570  -9.577  1.00  0.00     0.043 A 
BRANCH  36  39
HETATM   39  C25 UNL     1     -15.263  19.811 -10.330  1.00  0.00     0.412 C 
HETATM   40  F1  UNL     1     -16.274  19.121  -9.717  1.00  0.00    -0.168 F 
HETATM   41  F2  UNL     1     -15.664  20.787 -11.188  1.00  0.00    -0.168 F 
HETATM   42  F3  UNL     1     -14.584  18.869 -11.118  1.00  0.00    -0.168 F 
ENDBRANCH  36  39
ENDBRANCH  34  36
ENDBRANCH  23  32
ENDBRANCH  21  23
ENDBRANCH  14  21
BRANCH  20  43
HETATM   43  O4  UNL     1      -9.175  19.950  -6.804  1.00  0.00    -0.394 OA
ATOM     44  H4  UNL     1      -9.143  20.815  -7.197  1.00  0.00     0.210 HD
ENDBRANCH  20  43
BRANCH   5  45
HETATM   45  O1  UNL     1      -1.548  15.790 -10.483  1.00  0.00    -0.395 OA
ATOM     46  H1  UNL     1      -1.022  15.874  -9.696  1.00  0.00     0.210 HD
ENDBRANCH   5  45
TORSDOF 9
ENDMDL
MODEL 2
REMARK VINA RESULT: -8.633141858      3.996      7.585
REMARK  9 active torsions:
REMARK  status: ('A' for Active; 'I' for Inactive)
REMARK    1  A    between atoms: C5_5  and  O1_6 
REMARK    2  A    between atoms: C14_16  and  C15_17 
REMARK    3  A    between atoms: C15_17  and  C16_19 
REMARK    4  A    between atoms: C16_19  and  N1_20 
REMARK    5  A    between atoms: C16_19  and  C23_28 
REMARK    6  A    between atoms: N1_20  and  C17_22 
REMARK       I    between atoms: C23_28  and  N2_30 
REMARK    7  A    between atoms: N2_30  and  C24_32 
REMARK    8  A    between atoms: C24_32  and  C25_33 
REMARK    9  A    between atoms: C33_44  and  O4_45 
ROOT
HETATM    1  C1  UNL     1     -12.283  25.737  -3.691  1.00  0.00     0.025 C 
HETATM    2  C2  UNL     1     -12.291  25.287  -5.166  1.00  0.00     0.003 C 
HETATM    3  C3  UNL     1     -13.720  25.450  -5.619  1.00  0.00     0.021 C 
HETATM    4  C4  UNL     1     -14.281  26.772  -5.205  1.00  0.00     0.033 C 
HETATM    5  C5  UNL     1     -13.350  27.894  -4.997  1.00  0.00     0.122 C 
HETATM    6  C6  UNL     1     -11.966  27.772  -5.511  1.00  0.00     0.066 C 
HETATM    7  C7  UNL     1     -11.581  26.380  -5.894  1.00  0.00    -0.069 C 
HETATM    8  C8  UNL     1     -10.689  26.230  -6.818  1.00  0.00    -0.022 C 
HETATM    9  C9  UNL     1     -10.279  24.902  -7.252  1.00  0.00     0.037 C 
HETATM   10  C10 UNL     1     -10.320  23.975  -6.064  1.00  0.00     0.025 C 
HETATM   11  C11 UNL     1     -10.213  22.617  -6.616  1.00  0.00     0.024 C 
HETATM   12  C12 UNL     1      -9.150  22.164  -7.511  1.00  0.00     0.009 C 
HETATM   13  C13 UNL     1      -9.772  20.885  -8.130  1.00  0.00     0.014 C 
HETATM   14  C14 UNL     1     -10.718  20.124  -7.314  1.00  0.00     0.072 C 
HETATM   15  C28 UNL     1     -11.279  20.678  -6.040  1.00  0.00     0.011 C 
HETATM   16  C29 UNL     1     -11.556  19.690  -4.949  1.00  0.00     0.023 C 
HETATM   17  C30 UNL     1     -12.495  21.586  -6.260  1.00  0.00    -0.014 C 
HETATM   18  C31 UNL     1     -12.638  22.911  -5.820  1.00  0.00     0.001 C 
HETATM   19  C32 UNL     1     -11.690  23.937  -5.370  1.00  0.00    -0.063 C 
HETATM   20  C33 UNL     1     -10.236  21.625  -5.536  1.00  0.00     0.135 C 
ENDROOT
BRANCH  14  21
HETATM   21  C15 UNL     1     -10.208  18.742  -7.135  1.00  0.00     0.163 C 
HETATM   22  O2  UNL     1      -9.145  18.637  -6.563  1.00  0.00    -0.295 OA
BRANCH  21  23
HETATM   23  C16 UNL     1     -10.854  17.499  -7.580  1.00  0.00     0.240 C 
BRANCH  23  24
HETATM   24  N1  UNL     1     -11.119  16.475  -6.666  1.00  0.00    -0.399 N 
ATOM     25  H1  UNL     1     -10.301  15.952  -6.351  1.00  0.00     0.154 HD
BRANCH  24  26
HETATM   26  C17 UNL     1     -12.314  16.068  -6.131  1.00  0.00     0.077 C 
HETATM   27  C18 UNL     1     -12.773  14.646  -6.264  1.00  0.00     0.024 C 
HETATM   28  C19 UNL     1     -13.090  14.066  -4.857  1.00  0.00     0.002 C 
HETATM   29  C20 UNL     1     -14.216  14.863  -4.291  1.00  0.00     0.000 C 
HETATM   30  C21 UNL     1     -13.973  16.356  -4.393  1.00  0.00     0.002 C 
HETATM   31  C22 UNL     1     -12.479  16.543  -4.667  1.00  0.00     0.024 C 
ENDBRANCH  24  26
ENDBRANCH  23  24
BRANCH  23  32
HETATM   32  C23 UNL     1     -12.146  17.798  -8.331  1.00  0.00     0.248 C 
HETATM   33  O3  UNL     1     -12.083  17.680  -9.567  1.00  0.00    -0.271 OA
HETATM   34  N2  UNL     1     -13.310  18.183  -7.687  1.00  0.00    -0.341 N 
ATOM     35  H2  UNL     1     -13.252  18.247  -6.670  1.00  0.00     0.163 HD
BRANCH  34  36
HETATM   36  C24 UNL     1     -14.585  18.503  -8.256  1.00  0.00     0.131 A 
HETATM   37  C26 UNL     1     -15.367  17.454  -8.962  1.00  0.00     0.043 A 
HETATM   38  C27 UNL     1     -15.777  17.842  -7.576  1.00  0.00     0.043 A 
BRANCH  36  39
HETATM   39  C25 UNL     1     -14.845  19.917  -8.748  1.00  0.00     0.412 C 
HETATM   40  F1  UNL     1     -15.612  19.829  -9.879  1.00  0.00    -0.168 F 
HETATM   41  F2  UNL     1     -15.311  20.768  -7.795  1.00  0.00    -0.168 F 
HETATM   42  F3  UNL     1     -13.615  20.450  -9.164  1.00  0.00    -0.168 F 
ENDBRANCH  36  39
ENDBRANCH  34  36
ENDBRANCH  23  32
ENDBRANCH  21  23
ENDBRANCH  14  21
BRANCH  20  43
HETATM   43  O4  UNL     1      -8.975  21.022  -5.306  1.00  0.00    -0.394 OA
ATOM     44  H4  UNL     1      -8.946  20.507  -4.508  1.00  0.00     0.210 HD
ENDBRANCH  20  43
BRANCH   5  45
HETATM   45  O1  UNL     1     -13.919  29.052  -5.593  1.00  0.00    -0.395 OA
ATOM     46  H1  UNL     1     -13.829  29.771  -4.979  1.00  0.00     0.210 HD
ENDBRANCH   5  45
TORSDOF 9
ENDMDL
MODEL 3
REMARK VINA RESULT: -8.422578501      3.971      9.285
REMARK  9 active torsions:
REMARK  status: ('A' for Active; 'I' for Inactive)
REMARK    1  A    between atoms: C5_5  and  O1_6 
REMARK    2  A    between atoms: C14_16  and  C15_17 
REMARK    3  A    between atoms: C15_17  and  C16_19 
REMARK    4  A    between atoms: C16_19  and  N1_20 
REMARK    5  A    between atoms: C16_19  and  C23_28 
REMARK    6  A    between atoms: N1_20  and  C17_22 
REMARK       I    between atoms: C23_28  and  N2_30 
REMARK    7  A    between atoms: N2_30  and  C24_32 
REMARK    8  A    between atoms: C24_32  and  C25_33 
REMARK    9  A    between atoms: C33_44  and  O4_45 
ROOT
HETATM    1  C1  UNL     1     -16.072  26.558  -8.967  1.00  0.00     0.025 C 
HETATM    2  C2  UNL     1     -14.905  25.929  -9.752  1.00  0.00     0.003 C 
HETATM    3  C3  UNL     1     -15.378  25.873 -11.183  1.00  0.00     0.021 C 
HETATM    4  C4  UNL     1     -15.995  27.166 -11.609  1.00  0.00     0.033 C 
HETATM    5  C5  UNL     1     -15.572  28.401 -10.928  1.00  0.00     0.122 C 
HETATM    6  C6  UNL     1     -14.345  28.371 -10.100  1.00  0.00     0.066 C 
HETATM    7  C7  UNL     1     -13.859  26.993  -9.786  1.00  0.00    -0.069 C 
HETATM    8  C8  UNL     1     -12.593  26.828  -9.583  1.00  0.00    -0.022 C 
HETATM    9  C9  UNL     1     -12.049  25.509  -9.289  1.00  0.00     0.037 C 
HETATM   10  C10 UNL     1     -13.063  24.741  -8.482  1.00  0.00     0.025 C 
HETATM   11  C11 UNL     1     -12.605  23.345  -8.493  1.00  0.00     0.024 C 
HETATM   12  C12 UNL     1     -11.272  22.903  -8.086  1.00  0.00     0.009 C 
HETATM   13  C13 UNL     1     -11.187  21.496  -8.732  1.00  0.00     0.014 C 
HETATM   14  C14 UNL     1     -12.431  20.743  -8.891  1.00  0.00     0.072 C 
HETATM   15  C28 UNL     1     -13.770  21.388  -8.692  1.00  0.00     0.011 C 
HETATM   16  C29 UNL     1     -14.849  20.520  -8.120  1.00  0.00     0.023 C 
HETATM   17  C30 UNL     1     -14.278  22.120  -9.940  1.00  0.00    -0.014 C 
HETATM   18  C31 UNL     1     -14.669  23.465 -10.017  1.00  0.00     0.001 C 
HETATM   19  C32 UNL     1     -14.434  24.638  -9.169  1.00  0.00    -0.063 C 
HETATM   20  C33 UNL     1     -13.525  22.501  -7.723  1.00  0.00     0.135 C 
ENDROOT
BRANCH  14  21
HETATM   21  C15 UNL     1     -12.325  19.461  -8.153  1.00  0.00     0.163 C 
HETATM   22  O2  UNL     1     -12.057  19.545  -6.974  1.00  0.00    -0.295 OA
BRANCH  21  23
HETATM   23  C16 UNL     1     -12.505  18.109  -8.703  1.00  0.00     0.240 C 
BRANCH  23  24
HETATM   24  N1  UNL     1     -11.406  17.390  -9.183  1.00  0.00    -0.399 N 
ATOM     25  H1  UNL     1     -11.613  16.443  -9.502  1.00  0.00     0.154 HD
BRANCH  24  26
HETATM   26  C17 UNL     1     -10.093  17.769  -9.291  1.00  0.00     0.077 C 
HETATM   27  C18 UNL     1      -9.142  17.585  -8.145  1.00  0.00     0.024 C 
HETATM   28  C19 UNL     1      -7.905  16.772  -8.620  1.00  0.00     0.002 C 
HETATM   29  C20 UNL     1      -7.216  17.581  -9.665  1.00  0.00     0.000 C 
HETATM   30  C21 UNL     1      -8.172  18.082 -10.729  1.00  0.00     0.002 C 
HETATM   31  C22 UNL     1      -9.451  17.251 -10.600  1.00  0.00     0.024 C 
ENDBRANCH  24  26
ENDBRANCH  23  24
BRANCH  23  32
HETATM   32  C23 UNL     1     -13.249  17.217  -7.717  1.00  0.00     0.248 C 
HETATM   33  O3  UNL     1     -14.469  17.096  -7.922  1.00  0.00    -0.271 OA
HETATM   34  N2  UNL     1     -12.616  16.588  -6.657  1.00  0.00    -0.341 N 
ATOM     35  H2  UNL     1     -11.612  16.753  -6.581  1.00  0.00     0.163 HD
BRANCH  34  36
HETATM   36  C24 UNL     1     -13.181  15.737  -5.653  1.00  0.00     0.131 A 
HETATM   37  C26 UNL     1     -13.580  14.346  -5.997  1.00  0.00     0.043 A 
HETATM   38  C27 UNL     1     -12.306  14.560  -5.241  1.00  0.00     0.043 A 
BRANCH  36  39
HETATM   39  C25 UNL     1     -13.979  16.356  -4.518  1.00  0.00     0.412 C 
HETATM   40  F1  UNL     1     -14.207  15.376  -3.588  1.00  0.00    -0.168 F 
HETATM   41  F2  UNL     1     -13.458  17.512  -4.028  1.00  0.00    -0.168 F 
HETATM   42  F3  UNL     1     -15.242  16.695  -5.028  1.00  0.00    -0.168 F 
ENDBRANCH  36  39
ENDBRANCH  34  36
ENDBRANCH  23  32
ENDBRANCH  21  23
ENDBRANCH  14  21
BRANCH  20  43
HETATM   43  O4  UNL     1     -12.986  22.075  -6.484  1.00  0.00    -0.394 OA
ATOM     44  H4  UNL     1     -13.214  21.179  -6.266  1.00  0.00     0.210 HD
ENDBRANCH  20  43
BRANCH   5  45
HETATM   45  O1  UNL     1     -15.386  29.405 -11.918  1.00  0.00    -0.395 OA
ATOM     46  H1  UNL     1     -16.166  29.429 -12.460  1.00  0.00     0.210 HD
ENDBRANCH   5  45
TORSDOF 9
ENDMDL
MODEL 4
REMARK VINA RESULT: -8.203544396      4.993      9.523
REMARK  9 active torsions:
REMARK  status: ('A' for Active; 'I' for Inactive)
REMARK    1  A    between atoms: C5_5  and  O1_6 
REMARK    2  A    between atoms: C14_16  and  C15_17 
REMARK    3  A    between atoms: C15_17  and  C16_19 
REMARK    4  A    between atoms: C16_19  and  N1_20 
REMARK    5  A    between atoms: C16_19  and  C23_28 
REMARK    6  A    between atoms: N1_20  and  C17_22 
REMARK       I    between atoms: C23_28  and  N2_30 
REMARK    7  A    between atoms: N2_30  and  C24_32 
REMARK    8  A    between atoms: C24_32  and  C25_33 
REMARK    9  A    between atoms: C33_44  and  O4_45 
ROOT
HETATM    1  C1  UNL     1     -16.137  26.650  -8.959  1.00  0.00     0.025 C 
HETATM    2  C2  UNL     1     -14.937  26.030  -9.701  1.00  0.00     0.003 C 
HETATM    3  C3  UNL     1     -15.368  25.942 -11.143  1.00  0.00     0.021 C 
HETATM    4  C4  UNL     1     -15.995  27.217 -11.607  1.00  0.00     0.033 C 
HETATM    5  C5  UNL     1     -15.614  28.471 -10.935  1.00  0.00     0.122 C 
HETATM    6  C6  UNL     1     -14.411  28.476 -10.073  1.00  0.00     0.066 C 
HETATM    7  C7  UNL     1     -13.909  27.112  -9.723  1.00  0.00    -0.069 C 
HETATM    8  C8  UNL     1     -12.646  26.974  -9.482  1.00  0.00    -0.022 C 
HETATM    9  C9  UNL     1     -12.087  25.671  -9.151  1.00  0.00     0.037 C 
HETATM   10  C10 UNL     1     -13.111  24.897  -8.360  1.00  0.00     0.025 C 
HETATM   11  C11 UNL     1     -12.627  23.509  -8.335  1.00  0.00     0.024 C 
HETATM   12  C12 UNL     1     -11.298  23.099  -7.884  1.00  0.00     0.009 C 
HETATM   13  C13 UNL     1     -11.170  21.683  -8.504  1.00  0.00     0.014 C 
HETATM   14  C14 UNL     1     -12.395  20.905  -8.686  1.00  0.00     0.072 C 
HETATM   15  C28 UNL     1     -13.750  21.528  -8.535  1.00  0.00     0.011 C 
HETATM   16  C29 UNL     1     -14.829  20.650  -7.980  1.00  0.00     0.023 C 
HETATM   17  C30 UNL     1     -14.236  22.231  -9.809  1.00  0.00    -0.014 C 
HETATM   18  C31 UNL     1     -14.649  23.567  -9.919  1.00  0.00     0.001 C 
HETATM   19  C32 UNL     1     -14.459  24.758  -9.083  1.00  0.00    -0.063 C 
HETATM   20  C33 UNL     1     -13.553  22.661  -7.578  1.00  0.00     0.135 C 
ENDROOT
BRANCH  14  21
HETATM   21  C15 UNL     1     -12.287  19.636  -7.924  1.00  0.00     0.163 C 
HETATM   22  O2  UNL     1     -11.938  19.738  -6.768  1.00  0.00    -0.295 OA
BRANCH  21  23
HETATM   23  C16 UNL     1     -12.552  18.281  -8.426  1.00  0.00     0.240 C 
BRANCH  23  24
HETATM   24  N1  UNL     1     -11.943  17.832  -9.602  1.00  0.00    -0.399 N 
ATOM     25  H1  UNL     1     -11.056  17.344  -9.472  1.00  0.00     0.154 HD
BRANCH  24  26
HETATM   26  C17 UNL     1     -12.361  17.948 -10.903  1.00  0.00     0.077 C 
HETATM   27  C18 UNL     1     -13.803  18.200 -11.229  1.00  0.00     0.024 C 
HETATM   28  C19 UNL     1     -13.921  19.462 -12.130  1.00  0.00     0.002 C 
HETATM   29  C20 UNL     1     -13.205  19.167 -13.403  1.00  0.00     0.000 C 
HETATM   30  C21 UNL     1     -11.817  18.606 -13.167  1.00  0.00     0.002 C 
HETATM   31  C22 UNL     1     -11.458  18.911 -11.711  1.00  0.00     0.024 C 
ENDBRANCH  24  26
ENDBRANCH  23  24
BRANCH  23  32
HETATM   32  C23 UNL     1     -12.296  17.241  -7.343  1.00  0.00     0.248 C 
HETATM   33  O3  UNL     1     -11.178  16.698  -7.379  1.00  0.00    -0.271 OA
HETATM   34  N2  UNL     1     -13.243  16.912  -6.387  1.00  0.00    -0.341 N 
ATOM     35  H2  UNL     1     -14.126  17.419  -6.447  1.00  0.00     0.163 HD
BRANCH  34  36
HETATM   36  C24 UNL     1     -13.148  15.956  -5.324  1.00  0.00     0.131 A 
HETATM   37  C26 UNL     1     -12.429  16.308  -4.071  1.00  0.00     0.043 A 
HETATM   38  C27 UNL     1     -13.926  16.316  -4.065  1.00  0.00     0.043 A 
BRANCH  36  39
HETATM   39  C25 UNL     1     -13.139  14.474  -5.657  1.00  0.00     0.412 C 
HETATM   40  F1  UNL     1     -11.832  14.080  -5.769  1.00  0.00    -0.168 F 
HETATM   41  F2  UNL     1     -13.908  13.708  -4.837  1.00  0.00    -0.168 F 
HETATM   42  F3  UNL     1     -13.691  14.328  -6.939  1.00  0.00    -0.168 F 
ENDBRANCH  36  39
ENDBRANCH  34  36
ENDBRANCH  23  32
ENDBRANCH  21  23
ENDBRANCH  14  21
BRANCH  20  43
HETATM   43  O4  UNL     1     -13.043  22.264  -6.317  1.00  0.00    -0.394 OA
ATOM     44  H4  UNL     1     -12.352  21.615  -6.381  1.00  0.00     0.210 HD
ENDBRANCH  20  43
BRANCH   5  45
HETATM   45  O1  UNL     1     -15.418  29.462 -11.936  1.00  0.00    -0.395 OA
ATOM     46  H1  UNL     1     -14.493  29.487 -12.146  1.00  0.00     0.210 HD
ENDBRANCH   5  45
TORSDOF 9
ENDMDL
MODEL 5
REMARK VINA RESULT: -8.178745295      4.869      8.852
REMARK  9 active torsions:
REMARK  status: ('A' for Active; 'I' for Inactive)
REMARK    1  A    between atoms: C5_5  and  O1_6 
REMARK    2  A    between atoms: C14_16  and  C15_17 
REMARK    3  A    between atoms: C15_17  and  C16_19 
REMARK    4  A    between atoms: C16_19  and  N1_20 
REMARK    5  A    between atoms: C16_19  and  C23_28 
REMARK    6  A    between atoms: N1_20  and  C17_22 
REMARK       I    between atoms: C23_28  and  N2_30 
REMARK    7  A    between atoms: N2_30  and  C24_32 
REMARK    8  A    between atoms: C24_32  and  C25_33 
REMARK    9  A    between atoms: C33_44  and  O4_45 
ROOT
HETATM    1  C1  UNL     1      -9.950  25.760  -4.008  1.00  0.00     0.025 C 
HETATM    2  C2  UNL     1     -11.306  25.027  -3.988  1.00  0.00     0.003 C 
HETATM    3  C3  UNL     1     -11.374  24.361  -2.637  1.00  0.00     0.021 C 
HETATM    4  C4  UNL     1     -10.980  25.299  -1.542  1.00  0.00     0.033 C 
HETATM    5  C5  UNL     1     -11.160  26.745  -1.759  1.00  0.00     0.122 C 
HETATM    6  C6  UNL     1     -12.010  27.193  -2.886  1.00  0.00     0.066 C 
HETATM    7  C7  UNL     1     -12.320  26.117  -3.877  1.00  0.00    -0.069 C 
HETATM    8  C8  UNL     1     -13.426  26.205  -4.540  1.00  0.00    -0.022 C 
HETATM    9  C9  UNL     1     -13.798  25.184  -5.510  1.00  0.00     0.037 C 
HETATM   10  C10 UNL     1     -12.544  24.668  -6.168  1.00  0.00     0.025 C 
HETATM   11  C11 UNL     1     -12.944  23.447  -6.881  1.00  0.00     0.024 C 
HETATM   12  C12 UNL     1     -14.033  23.369  -7.853  1.00  0.00     0.009 C 
HETATM   13  C13 UNL     1     -14.311  21.844  -7.907  1.00  0.00     0.014 C 
HETATM   14  C14 UNL     1     -13.188  20.938  -7.661  1.00  0.00     0.072 C 
HETATM   15  C28 UNL     1     -11.882  21.435  -7.119  1.00  0.00     0.011 C 
HETATM   16  C29 UNL     1     -10.651  20.729  -7.597  1.00  0.00     0.023 C 
HETATM   17  C30 UNL     1     -11.871  21.556  -5.590  1.00  0.00    -0.014 C 
HETATM   18  C31 UNL     1     -11.564  22.704  -4.845  1.00  0.00     0.001 C 
HETATM   19  C32 UNL     1     -11.507  24.135  -5.167  1.00  0.00    -0.063 C 
HETATM   20  C33 UNL     1     -11.790  22.859  -7.571  1.00  0.00     0.135 C 
ENDROOT
BRANCH  14  21
HETATM   21  C15 UNL     1     -12.994  20.067  -8.846  1.00  0.00     0.163 C 
HETATM   22  O2  UNL     1     -12.856  20.635  -9.908  1.00  0.00    -0.295 OA
BRANCH  21  23
HETATM   23  C16 UNL     1     -12.958  18.598  -8.864  1.00  0.00     0.240 C 
BRANCH  23  24
HETATM   24  N1  UNL     1     -11.812  17.925  -9.299  1.00  0.00    -0.399 N 
ATOM     25  H1  UNL     1     -11.254  17.496  -8.561  1.00  0.00     0.154 HD
BRANCH  24  26
HETATM   26  C17 UNL     1     -11.329  17.755 -10.571  1.00  0.00     0.077 C 
HETATM   27  C18 UNL     1     -12.254  17.742 -11.752  1.00  0.00     0.024 C 
HETATM   28  C19 UNL     1     -11.787  18.800 -12.791  1.00  0.00     0.002 C 
HETATM   29  C20 UNL     1     -10.433  18.392 -13.262  1.00  0.00     0.000 C 
HETATM   30  C21 UNL     1      -9.494  18.079 -12.115  1.00  0.00     0.002 C 
HETATM   31  C22 UNL     1     -10.121  18.680 -10.854  1.00  0.00     0.024 C 
ENDBRANCH  24  26
ENDBRANCH  23  24
BRANCH  23  32
HETATM   32  C23 UNL     1     -13.342  18.029  -7.504  1.00  0.00     0.248 C 
HETATM   33  O3  UNL     1     -14.563  17.909  -7.301  1.00  0.00    -0.271 OA
HETATM   34  N2  UNL     1     -12.401  17.676  -6.550  1.00  0.00    -0.341 N 
ATOM     35  H2  UNL     1     -11.426  17.814  -6.820  1.00  0.00     0.163 HD
BRANCH  34  36
HETATM   36  C24 UNL     1     -12.611  17.145  -5.237  1.00  0.00     0.131 A 
HETATM   37  C26 UNL     1     -11.587  17.352  -4.179  1.00  0.00     0.043 A 
HETATM   38  C27 UNL     1     -12.828  18.189  -4.149  1.00  0.00     0.043 A 
BRANCH  36  39
HETATM   39  C25 UNL     1     -13.438  15.881  -5.071  1.00  0.00     0.412 C 
HETATM   40  F1  UNL     1     -12.816  15.097  -4.136  1.00  0.00    -0.168 F 
HETATM   41  F2  UNL     1     -14.763  16.099  -4.857  1.00  0.00    -0.168 F 
HETATM   42  F3  UNL     1     -13.361  15.167  -6.277  1.00  0.00    -0.168 F 
ENDBRANCH  36  39
ENDBRANCH  34  36
ENDBRANCH  23  32
ENDBRANCH  21  23
ENDBRANCH  14  21
BRANCH  20  43
HETATM   43  O4  UNL     1     -11.841  23.018  -8.978  1.00  0.00    -0.394 OA
ATOM     44  H4  UNL     1     -12.167  22.249  -9.429  1.00  0.00     0.210 HD
ENDBRANCH  20  43
BRANCH   5  45
HETATM   45  O1  UNL     1     -11.711  27.300  -0.571  1.00  0.00    -0.395 OA
ATOM     46  H1  UNL     1     -12.183  26.612  -0.118  1.00  0.00     0.210 HD
ENDBRANCH   5  45
TORSDOF 9
ENDMDL
