MODEL 1
REMARK VINA RESULT: -6.236715994      0.000      0.000
REMARK  11 active torsions:
REMARK  status: ('A' for Active; 'I' for Inactive)
REMARK    1  A    between atoms: C2_2  and  C3_3 
REMARK    2  A    between atoms: C3_3  and  C4_4 
REMARK    3  A    between atoms: C5_5  and  C6_6 
REMARK    4  A    between atoms: C6_6  and  C7_7 
REMARK    5  A    between atoms: C7_7  and  C8_8 
REMARK    6  A    between atoms: C7_7  and  C9_11 
REMARK    7  A    between atoms: C8_8  and  O1_9 
REMARK    8  A    between atoms: C9_11  and  C10_12 
REMARK    9  A    between atoms: C11_13  and  C12_14 
REMARK   10  A    between atoms: C13_15  and  O2_16 
REMARK   11  A    between atoms: C16_20  and  O3_21 
ROOT
HETATM    1  C9  UNL     1      23.898 -16.505  -0.901  1.00  0.00     0.033 C 
ENDROOT
BRANCH   1   2
HETATM    2  C7  UNL     1      24.392 -17.901  -0.854  1.00  0.00     0.016 C 
BRANCH   2   3
HETATM    3  C6  UNL     1      25.421 -17.913   0.305  1.00  0.00     0.033 C 
BRANCH   3   4
HETATM    4  C5  UNL     1      26.802 -17.899  -0.198  1.00  0.00    -0.030 C 
HETATM    5  C4  UNL     1      27.709 -16.959  -0.016  1.00  0.00    -0.031 C 
BRANCH   5   6
HETATM    6  C3  UNL     1      27.548 -15.707   0.733  1.00  0.00     0.026 C 
BRANCH   6   7
HETATM    7  C2  UNL     1      28.000 -14.487  -0.020  1.00  0.00    -0.001 C 
HETATM    8  C1  UNL     1      27.163 -13.280   0.231  1.00  0.00     0.005 C 
ENDBRANCH   6   7
ENDBRANCH   5   6
ENDBRANCH   3   4
ENDBRANCH   2   3
BRANCH   2   9
HETATM    9  C8  UNL     1      23.307 -18.893  -0.506  1.00  0.00     0.169 C 
BRANCH   9  10
HETATM   10  O1  UNL     1      22.371 -19.035  -1.523  1.00  0.00    -0.400 OA
ATOM     11  H1  UNL     1      21.478 -19.026  -1.198  1.00  0.00     0.209 HD
ENDBRANCH   9  10
ENDBRANCH   2   9
ENDBRANCH   1   2
BRANCH   1  12
HETATM   12  C10 UNL     1      24.707 -15.472  -1.526  1.00  0.00    -0.030 C 
HETATM   13  C11 UNL     1      25.457 -15.556  -2.577  1.00  0.00    -0.021 C 
BRANCH  13  14
HETATM   14  C12 UNL     1      26.259 -14.493  -3.185  1.00  0.00     0.065 C 
HETATM   15  C13 UNL     1      27.186 -14.858  -4.281  1.00  0.00     0.128 C 
HETATM   16  C14 UNL     1      27.631 -13.441  -4.718  1.00  0.00     0.035 C 
HETATM   17  C15 UNL     1      26.271 -12.781  -4.892  1.00  0.00     0.035 C 
HETATM   18  C16 UNL     1      25.438 -13.338  -3.746  1.00  0.00     0.128 C 
BRANCH  15  19
HETATM   19  O2  UNL     1      26.616 -15.437  -5.401  1.00  0.00    -0.395 OA
ATOM     20  H2  UNL     1      26.721 -14.966  -6.220  1.00  0.00     0.210 HD
ENDBRANCH  15  19
BRANCH  18  21
HETATM   21  O3  UNL     1      24.207 -13.790  -4.179  1.00  0.00    -0.395 OA
ATOM     22  H3  UNL     1      24.229 -13.965  -5.113  1.00  0.00     0.210 HD
ENDBRANCH  18  21
ENDBRANCH  13  14
ENDBRANCH   1  12
TORSDOF 11
ENDMDL
MODEL 2
REMARK VINA RESULT: -5.986660624      4.592      7.344
REMARK  11 active torsions:
REMARK  status: ('A' for Active; 'I' for Inactive)
REMARK    1  A    between atoms: C2_2  and  C3_3 
REMARK    2  A    between atoms: C3_3  and  C4_4 
REMARK    3  A    between atoms: C5_5  and  C6_6 
REMARK    4  A    between atoms: C6_6  and  C7_7 
REMARK    5  A    between atoms: C7_7  and  C8_8 
REMARK    6  A    between atoms: C7_7  and  C9_11 
REMARK    7  A    between atoms: C8_8  and  O1_9 
REMARK    8  A    between atoms: C9_11  and  C10_12 
REMARK    9  A    between atoms: C11_13  and  C12_14 
REMARK   10  A    between atoms: C13_15  and  O2_16 
REMARK   11  A    between atoms: C16_20  and  O3_21 
ROOT
HETATM    1  C9  UNL     1      27.548 -14.771   0.291  1.00  0.00     0.033 C 
ENDROOT
BRANCH   1   2
HETATM    2  C7  UNL     1      28.289 -16.050   0.210  1.00  0.00     0.016 C 
BRANCH   2   3
HETATM    3  C6  UNL     1      27.433 -16.938  -0.730  1.00  0.00     0.033 C 
BRANCH   3   4
HETATM    4  C5  UNL     1      26.566 -17.850   0.030  1.00  0.00    -0.030 C 
HETATM    5  C4  UNL     1      25.249 -17.923  -0.016  1.00  0.00    -0.031 C 
BRANCH   5   6
HETATM    6  C3  UNL     1      24.345 -17.110  -0.838  1.00  0.00     0.026 C 
BRANCH   6   7
HETATM    7  C2  UNL     1      22.892 -17.290  -0.501  1.00  0.00    -0.001 C 
HETATM    8  C1  UNL     1      22.392 -18.678  -0.714  1.00  0.00     0.005 C 
ENDBRANCH   6   7
ENDBRANCH   5   6
ENDBRANCH   3   4
ENDBRANCH   2   3
BRANCH   2   9
HETATM    9  C8  UNL     1      29.650 -15.898  -0.429  1.00  0.00     0.169 C 
BRANCH   9  10
HETATM   10  O1  UNL     1      30.600 -16.736   0.142  1.00  0.00    -0.400 OA
ATOM     11  H1  UNL     1      30.698 -17.551  -0.336  1.00  0.00     0.209 HD
ENDBRANCH   9  10
ENDBRANCH   2   9
ENDBRANCH   1   2
BRANCH   1  12
HETATM   12  C10 UNL     1      27.593 -13.986   1.514  1.00  0.00    -0.030 C 
HETATM   13  C11 UNL     1      28.335 -14.157   2.559  1.00  0.00    -0.021 C 
BRANCH  13  14
HETATM   14  C12 UNL     1      28.358 -13.344   3.777  1.00  0.00     0.065 C 
HETATM   15  C13 UNL     1      27.754 -13.909   5.004  1.00  0.00     0.128 C 
HETATM   16  C14 UNL     1      28.187 -12.825   6.021  1.00  0.00     0.035 C 
HETATM   17  C15 UNL     1      29.677 -12.761   5.717  1.00  0.00     0.035 C 
HETATM   18  C16 UNL     1      29.754 -12.904   4.204  1.00  0.00     0.128 C 
BRANCH  15  19
HETATM   19  O2  UNL     1      28.294 -15.096   5.466  1.00  0.00    -0.395 OA
ATOM     20  H2  UNL     1      28.659 -15.082   6.343  1.00  0.00     0.210 HD
ENDBRANCH  15  19
BRANCH  18  21
HETATM   21  O3  UNL     1      30.691 -13.844   3.825  1.00  0.00    -0.395 OA
ATOM     22  H3  UNL     1      31.249 -14.070   4.560  1.00  0.00     0.210 HD
ENDBRANCH  18  21
ENDBRANCH  13  14
ENDBRANCH   1  12
TORSDOF 11
ENDMDL
MODEL 3
REMARK VINA RESULT: -5.920795014      2.149      4.422
REMARK  11 active torsions:
REMARK  status: ('A' for Active; 'I' for Inactive)
REMARK    1  A    between atoms: C2_2  and  C3_3 
REMARK    2  A    between atoms: C3_3  and  C4_4 
REMARK    3  A    between atoms: C5_5  and  C6_6 
REMARK    4  A    between atoms: C6_6  and  C7_7 
REMARK    5  A    between atoms: C7_7  and  C8_8 
REMARK    6  A    between atoms: C7_7  and  C9_11 
REMARK    7  A    between atoms: C8_8  and  O1_9 
REMARK    8  A    between atoms: C9_11  and  C10_12 
REMARK    9  A    between atoms: C11_13  and  C12_14 
REMARK   10  A    between atoms: C13_15  and  O2_16 
REMARK   11  A    between atoms: C16_20  and  O3_21 
ROOT
HETATM    1  C9  UNL     1      25.048 -16.826  -1.586  1.00  0.00     0.033 C 
ENDROOT
BRANCH   1   2
HETATM    2  C7  UNL     1      25.283 -17.250  -0.187  1.00  0.00     0.016 C 
BRANCH   2   3
HETATM    3  C6  UNL     1      24.191 -18.316   0.088  1.00  0.00     0.033 C 
BRANCH   3   4
HETATM    4  C5  UNL     1      23.205 -18.373  -1.000  1.00  0.00    -0.030 C 
HETATM    5  C4  UNL     1      21.934 -18.714  -0.910  1.00  0.00    -0.031 C 
BRANCH   5   6
HETATM    6  C3  UNL     1      21.209 -19.115   0.302  1.00  0.00     0.026 C 
BRANCH   6   7
HETATM    7  C2  UNL     1      19.903 -19.806   0.027  1.00  0.00    -0.001 C 
HETATM    8  C1  UNL     1      19.149 -20.179   1.257  1.00  0.00     0.005 C 
ENDBRANCH   6   7
ENDBRANCH   5   6
ENDBRANCH   3   4
ENDBRANCH   2   3
BRANCH   2   9
HETATM    9  C8  UNL     1      26.625 -17.919   0.003  1.00  0.00     0.169 C 
BRANCH   9  10
HETATM   10  O1  UNL     1      27.516 -17.127   0.716  1.00  0.00    -0.400 OA
ATOM     11  H1  UNL     1      27.281 -17.051   1.633  1.00  0.00     0.209 HD
ENDBRANCH   9  10
ENDBRANCH   2   9
ENDBRANCH   1   2
BRANCH   1  12
HETATM   12  C10 UNL     1      26.012 -15.967  -2.253  1.00  0.00    -0.030 C 
HETATM   13  C11 UNL     1      25.852 -14.763  -2.698  1.00  0.00    -0.021 C 
BRANCH  13  14
HETATM   14  C12 UNL     1      26.848 -13.921  -3.363  1.00  0.00     0.065 C 
HETATM   15  C13 UNL     1      27.739 -14.552  -4.363  1.00  0.00     0.128 C 
HETATM   16  C14 UNL     1      28.438 -13.283  -4.913  1.00  0.00     0.035 C 
HETATM   17  C15 UNL     1      27.219 -12.429  -5.229  1.00  0.00     0.035 C 
HETATM   18  C16 UNL     1      26.260 -12.712  -4.082  1.00  0.00     0.128 C 
BRANCH  15  19
HETATM   19  O2  UNL     1      27.122 -15.144  -5.450  1.00  0.00    -0.395 OA
ATOM     20  H2  UNL     1      27.447 -14.896  -6.308  1.00  0.00     0.210 HD
ENDBRANCH  15  19
BRANCH  18  21
HETATM   21  O3  UNL     1      24.987 -12.996  -4.536  1.00  0.00    -0.395 OA
ATOM     22  H3  UNL     1      25.002 -13.175  -5.470  1.00  0.00     0.210 HD
ENDBRANCH  18  21
ENDBRANCH  13  14
ENDBRANCH   1  12
TORSDOF 11
ENDMDL
MODEL 4
REMARK VINA RESULT: -5.867454149      0.984      1.670
REMARK  11 active torsions:
REMARK  status: ('A' for Active; 'I' for Inactive)
REMARK    1  A    between atoms: C2_2  and  C3_3 
REMARK    2  A    between atoms: C3_3  and  C4_4 
REMARK    3  A    between atoms: C5_5  and  C6_6 
REMARK    4  A    between atoms: C6_6  and  C7_7 
REMARK    5  A    between atoms: C7_7  and  C8_8 
REMARK    6  A    between atoms: C7_7  and  C9_11 
REMARK    7  A    between atoms: C8_8  and  O1_9 
REMARK    8  A    between atoms: C9_11  and  C10_12 
REMARK    9  A    between atoms: C11_13  and  C12_14 
REMARK   10  A    between atoms: C13_15  and  O2_16 
REMARK   11  A    between atoms: C16_20  and  O3_21 
ROOT
HETATM    1  C9  UNL     1      24.366 -16.281  -0.761  1.00  0.00     0.033 C 
ENDROOT
BRANCH   1   2
HETATM    2  C7  UNL     1      24.687 -17.725  -0.827  1.00  0.00     0.016 C 
BRANCH   2   3
HETATM    3  C6  UNL     1      25.794 -17.929   0.239  1.00  0.00     0.033 C 
BRANCH   3   4
HETATM    4  C5  UNL     1      27.132 -17.689  -0.319  1.00  0.00    -0.030 C 
HETATM    5  C4  UNL     1      27.928 -16.665  -0.076  1.00  0.00    -0.031 C 
BRANCH   5   6
HETATM    6  C3  UNL     1      27.659 -15.526   0.810  1.00  0.00     0.026 C 
BRANCH   6   7
HETATM    7  C2  UNL     1      27.565 -14.209   0.093  1.00  0.00    -0.001 C 
HETATM    8  C1  UNL     1      26.912 -13.134   0.892  1.00  0.00     0.005 C 
ENDBRANCH   6   7
ENDBRANCH   5   6
ENDBRANCH   3   4
ENDBRANCH   2   3
BRANCH   2   9
HETATM    9  C8  UNL     1      23.519 -18.602  -0.439  1.00  0.00     0.169 C 
BRANCH   9  10
HETATM   10  O1  UNL     1      22.753 -18.980  -1.534  1.00  0.00    -0.400 OA
ATOM     11  H1  UNL     1      21.821 -18.872  -1.380  1.00  0.00     0.209 HD
ENDBRANCH   9  10
ENDBRANCH   2   9
ENDBRANCH   1   2
BRANCH   1  12
HETATM   12  C10 UNL     1      24.662 -15.421  -1.895  1.00  0.00    -0.030 C 
HETATM   13  C11 UNL     1      25.646 -15.493  -2.730  1.00  0.00    -0.021 C 
BRANCH  13  14
HETATM   14  C12 UNL     1      25.915 -14.612  -3.868  1.00  0.00     0.065 C 
HETATM   15  C13 UNL     1      25.672 -13.161  -3.699  1.00  0.00     0.128 C 
HETATM   16  C14 UNL     1      26.269 -12.649  -5.033  1.00  0.00     0.035 C 
HETATM   17  C15 UNL     1      27.628 -13.329  -4.990  1.00  0.00     0.035 C 
HETATM   18  C16 UNL     1      27.339 -14.703  -4.403  1.00  0.00     0.128 C 
BRANCH  15  19
HETATM   19  O2  UNL     1      26.388 -12.530  -2.698  1.00  0.00    -0.395 OA
ATOM     20  H2  UNL     1      26.496 -11.590  -2.783  1.00  0.00     0.210 HD
ENDBRANCH  15  19
BRANCH  18  21
HETATM   21  O3  UNL     1      28.216 -15.020  -3.384  1.00  0.00    -0.395 OA
ATOM     22  H3  UNL     1      28.905 -14.368  -3.327  1.00  0.00     0.210 HD
ENDBRANCH  18  21
ENDBRANCH  13  14
ENDBRANCH   1  12
TORSDOF 11
ENDMDL
MODEL 5
REMARK VINA RESULT: -5.841870414      2.024      3.961
REMARK  11 active torsions:
REMARK  status: ('A' for Active; 'I' for Inactive)
REMARK    1  A    between atoms: C2_2  and  C3_3 
REMARK    2  A    between atoms: C3_3  and  C4_4 
REMARK    3  A    between atoms: C5_5  and  C6_6 
REMARK    4  A    between atoms: C6_6  and  C7_7 
REMARK    5  A    between atoms: C7_7  and  C8_8 
REMARK    6  A    between atoms: C7_7  and  C9_11 
REMARK    7  A    between atoms: C8_8  and  O1_9 
REMARK    8  A    between atoms: C9_11  and  C10_12 
REMARK    9  A    between atoms: C11_13  and  C12_14 
REMARK   10  A    between atoms: C13_15  and  O2_16 
REMARK   11  A    between atoms: C16_20  and  O3_21 
ROOT
HETATM    1  C9  UNL     1      26.949 -14.698   0.091  1.00  0.00     0.033 C 
ENDROOT
BRANCH   1   2
HETATM    2  C7  UNL     1      27.866 -15.829   0.363  1.00  0.00     0.016 C 
BRANCH   2   3
HETATM    3  C6  UNL     1      27.408 -16.946  -0.610  1.00  0.00     0.033 C 
BRANCH   3   4
HETATM    4  C5  UNL     1      26.501 -17.898   0.047  1.00  0.00    -0.030 C 
HETATM    5  C4  UNL     1      25.186 -17.947  -0.051  1.00  0.00    -0.031 C 
BRANCH   5   6
HETATM    6  C3  UNL     1      24.324 -17.060  -0.841  1.00  0.00     0.026 C 
BRANCH   6   7
HETATM    7  C2  UNL     1      22.855 -17.275  -0.607  1.00  0.00    -0.001 C 
HETATM    8  C1  UNL     1      22.448 -18.708  -0.611  1.00  0.00     0.005 C 
ENDBRANCH   6   7
ENDBRANCH   5   6
ENDBRANCH   3   4
ENDBRANCH   2   3
BRANCH   2   9
HETATM    9  C8  UNL     1      29.305 -15.507   0.036  1.00  0.00     0.169 C 
BRANCH   9  10
HETATM   10  O1  UNL     1      30.113 -16.637   0.026  1.00  0.00    -0.400 OA
ATOM     11  H1  UNL     1      30.825 -16.580   0.652  1.00  0.00     0.209 HD
ENDBRANCH   9  10
ENDBRANCH   2   9
ENDBRANCH   1   2
BRANCH   1  12
HETATM   12  C10 UNL     1      27.265 -13.749  -0.963  1.00  0.00    -0.030 C 
HETATM   13  C11 UNL     1      26.618 -13.507  -2.056  1.00  0.00    -0.021 C 
BRANCH  13  14
HETATM   14  C12 UNL     1      26.961 -12.538  -3.099  1.00  0.00     0.065 C 
HETATM   15  C13 UNL     1      28.100 -12.851  -3.993  1.00  0.00     0.128 C 
HETATM   16  C14 UNL     1      27.948 -11.691  -5.008  1.00  0.00     0.035 C 
HETATM   17  C15 UNL     1      26.477 -11.843  -5.363  1.00  0.00     0.035 C 
HETATM   18  C16 UNL     1      25.812 -12.206  -4.043  1.00  0.00     0.128 C 
BRANCH  15  19
HETATM   19  O2  UNL     1      27.999 -14.015  -4.734  1.00  0.00    -0.395 OA
ATOM     20  H2  UNL     1      27.436 -13.982  -5.499  1.00  0.00     0.210 HD
ENDBRANCH  15  19
BRANCH  18  21
HETATM   21  O3  UNL     1      24.970 -13.293  -4.175  1.00  0.00    -0.395 OA
ATOM     22  H3  UNL     1      24.301 -13.115  -4.826  1.00  0.00     0.210 HD
ENDBRANCH  18  21
ENDBRANCH  13  14
ENDBRANCH   1  12
TORSDOF 11
ENDMDL
