MODEL 1
REMARK VINA RESULT: -6.809938291      0.000      0.000
REMARK  6 active torsions:
REMARK  status: ('A' for Active; 'I' for Inactive)
REMARK    1  A    between atoms: N1_2  and  C2_4 
REMARK    2  A    between atoms: C16_18  and  O1_19 
REMARK    3  A    between atoms: C16_18  and  C17_21 
REMARK    4  A    between atoms: C18_22  and  C19_23 
REMARK    5  A    between atoms: C19_23  and  N2_24 
REMARK    6  A    between atoms: N2_24  and  N3_26 
ROOT
HETATM    1  C2  UNL     1      27.046 -14.837  -1.477  1.00  0.00     0.123 C 
HETATM    2  C3  UNL     1      27.575 -13.442  -1.587  1.00  0.00     0.029 C 
HETATM    3  C4  UNL     1      26.990 -12.440  -0.657  1.00  0.00     0.002 C 
HETATM    4  C5  UNL     1      28.072 -11.394  -0.345  1.00  0.00     0.000 C 
HETATM    5  C6  UNL     1      28.103 -10.286  -1.338  1.00  0.00     0.000 C 
HETATM    6  C7  UNL     1      29.022 -10.524  -2.510  1.00  0.00     0.000 C 
HETATM    7  C8  UNL     1      28.255 -10.119  -3.761  1.00  0.00     0.000 C 
HETATM    8  C9  UNL     1      29.000 -10.455  -5.026  1.00  0.00     0.000 C 
HETATM    9  C10 UNL     1      28.047 -11.087  -6.033  1.00  0.00     0.000 C 
HETATM   10  C11 UNL     1      28.538 -12.390  -6.565  1.00  0.00     0.000 C 
HETATM   11  C12 UNL     1      28.538 -13.513  -5.582  1.00  0.00     0.000 C 
HETATM   12  C13 UNL     1      27.224 -14.243  -5.508  1.00  0.00     0.000 C 
HETATM   13  C14 UNL     1      27.330 -15.251  -4.356  1.00  0.00     0.004 C 
HETATM   14  C15 UNL     1      26.026 -15.508  -3.710  1.00  0.00     0.053 C 
HETATM   15  C16 UNL     1      25.830 -15.115  -2.305  1.00  0.00     0.141 C 
ENDROOT
BRANCH  15  16
HETATM   16  O1  UNL     1      24.976 -13.999  -2.176  1.00  0.00    -0.375 OA
ATOM     17  H1  UNL     1      24.783 -13.692  -3.055  1.00  0.00     0.211 HD
ENDBRANCH  15  16
BRANCH  15  18
HETATM   18  C17 UNL     1      25.107 -16.219  -1.620  1.00  0.00    -0.064 C 
HETATM   19  C18 UNL     1      24.500 -17.106  -1.071  1.00  0.00    -0.082 C 
BRANCH  19  20
HETATM   20  C19 UNL     1      23.749 -18.191  -0.427  1.00  0.00     0.239 C 
BRANCH  20  21
HETATM   21  N2  UNL     1      22.393 -17.738  -0.277  1.00  0.00    -0.266 N 
ATOM     22  H2  UNL     1      22.197 -16.739  -0.214  1.00  0.00     0.187 HD
BRANCH  21  23
HETATM   23  N3  UNL     1      21.358 -18.640  -0.216  1.00  0.00    -0.043 N 
HETATM   24  O2  UNL     1      20.893 -18.950   0.896  1.00  0.00    -0.517 OA
HETATM   25  O3  UNL     1      20.790 -19.236  -1.336  1.00  0.00    -0.517 OA
ENDBRANCH  21  23
ENDBRANCH  20  21
ENDBRANCH  19  20
ENDBRANCH  15  18
BRANCH   1  26
HETATM   26  N1  UNL     1      26.763 -15.124  -0.116  1.00  0.00    -0.417 N 
HETATM   27  C1  UNL     1      27.827 -15.505   0.723  1.00  0.00     0.140 C 
ATOM     28  H1  UNL     1      25.812 -15.055   0.245  1.00  0.00     0.153 HD
ENDBRANCH   1  26
TORSDOF 6
ENDMDL
MODEL 2
REMARK VINA RESULT: -6.704052633      1.528      2.082
REMARK  6 active torsions:
REMARK  status: ('A' for Active; 'I' for Inactive)
REMARK    1  A    between atoms: N1_2  and  C2_4 
REMARK    2  A    between atoms: C16_18  and  O1_19 
REMARK    3  A    between atoms: C16_18  and  C17_21 
REMARK    4  A    between atoms: C18_22  and  C19_23 
REMARK    5  A    between atoms: C19_23  and  N2_24 
REMARK    6  A    between atoms: N2_24  and  N3_26 
ROOT
HETATM    1  C2  UNL     1      26.948 -13.756  -2.562  1.00  0.00     0.123 C 
HETATM    2  C3  UNL     1      27.030 -12.427  -3.242  1.00  0.00     0.029 C 
HETATM    3  C4  UNL     1      25.866 -11.519  -3.058  1.00  0.00     0.002 C 
HETATM    4  C5  UNL     1      26.382 -10.072  -3.102  1.00  0.00     0.000 C 
HETATM    5  C6  UNL     1      26.444  -9.527  -4.485  1.00  0.00     0.000 C 
HETATM    6  C7  UNL     1      27.759  -9.753  -5.186  1.00  0.00     0.000 C 
HETATM    7  C8  UNL     1      27.431 -10.229  -6.595  1.00  0.00     0.000 C 
HETATM    8  C9  UNL     1      28.659 -10.648  -7.360  1.00  0.00     0.000 C 
HETATM    9  C10 UNL     1      28.391 -11.960  -8.086  1.00  0.00     0.000 C 
HETATM   10  C11 UNL     1      29.416 -13.005  -7.802  1.00  0.00     0.000 C 
HETATM   11  C12 UNL     1      29.388 -13.554  -6.414  1.00  0.00     0.000 C 
HETATM   12  C13 UNL     1      28.430 -14.701  -6.242  1.00  0.00     0.000 C 
HETATM   13  C14 UNL     1      28.398 -15.046  -4.747  1.00  0.00     0.004 C 
HETATM   14  C15 UNL     1      27.092 -15.589  -4.322  1.00  0.00     0.053 C 
HETATM   15  C16 UNL     1      26.276 -14.830  -3.360  1.00  0.00     0.141 C 
ENDROOT
BRANCH  15  16
HETATM   16  O1  UNL     1      25.141 -14.248  -3.965  1.00  0.00    -0.375 OA
ATOM     17  H1  UNL     1      24.382 -14.530  -3.466  1.00  0.00     0.211 HD
ENDBRANCH  15  16
BRANCH  15  18
HETATM   18  C17 UNL     1      25.720 -15.793  -2.374  1.00  0.00    -0.064 C 
HETATM   19  C18 UNL     1      25.290 -16.584  -1.570  1.00  0.00    -0.082 C 
BRANCH  19  20
HETATM   20  C19 UNL     1      24.785 -17.536  -0.572  1.00  0.00     0.239 C 
BRANCH  20  21
HETATM   21  N2  UNL     1      23.696 -18.250  -1.180  1.00  0.00    -0.266 N 
ATOM     22  H2  UNL     1      23.886 -18.940  -1.907  1.00  0.00     0.187 HD
BRANCH  21  23
HETATM   23  N3  UNL     1      22.400 -18.010  -0.791  1.00  0.00    -0.043 N 
HETATM   24  O2  UNL     1      22.136 -16.950  -0.195  1.00  0.00    -0.517 OA
HETATM   25  O3  UNL     1      21.351 -18.892  -1.025  1.00  0.00    -0.517 OA
ENDBRANCH  21  23
ENDBRANCH  20  21
ENDBRANCH  19  20
ENDBRANCH  15  18
BRANCH   1  26
HETATM   26  N1  UNL     1      26.278 -13.606  -1.320  1.00  0.00    -0.417 N 
HETATM   27  C1  UNL     1      27.041 -13.275  -0.184  1.00  0.00     0.140 C 
ATOM     28  H1  UNL     1      25.269 -13.735  -1.252  1.00  0.00     0.153 HD
ENDBRANCH   1  26
TORSDOF 6
ENDMDL
MODEL 3
REMARK VINA RESULT: -6.504245639      1.352      1.711
REMARK  6 active torsions:
REMARK  status: ('A' for Active; 'I' for Inactive)
REMARK    1  A    between atoms: N1_2  and  C2_4 
REMARK    2  A    between atoms: C16_18  and  O1_19 
REMARK    3  A    between atoms: C16_18  and  C17_21 
REMARK    4  A    between atoms: C18_22  and  C19_23 
REMARK    5  A    between atoms: C19_23  and  N2_24 
REMARK    6  A    between atoms: N2_24  and  N3_26 
ROOT
HETATM    1  C2  UNL     1      27.223 -15.573  -1.896  1.00  0.00     0.123 C 
HETATM    2  C3  UNL     1      28.209 -14.454  -1.784  1.00  0.00     0.029 C 
HETATM    3  C4  UNL     1      28.605 -14.059  -0.406  1.00  0.00     0.002 C 
HETATM    4  C5  UNL     1      30.053 -13.545  -0.457  1.00  0.00     0.000 C 
HETATM    5  C6  UNL     1      30.137 -12.095  -0.776  1.00  0.00     0.000 C 
HETATM    6  C7  UNL     1      30.238 -11.784  -2.248  1.00  0.00     0.000 C 
HETATM    7  C8  UNL     1      29.273 -10.639  -2.524  1.00  0.00     0.000 C 
HETATM    8  C9  UNL     1      29.154 -10.330  -3.993  1.00  0.00     0.000 C 
HETATM    9  C10 UNL     1      27.689 -10.139  -4.362  1.00  0.00     0.000 C 
HETATM   10  C11 UNL     1      27.260 -10.986  -5.512  1.00  0.00     0.000 C 
HETATM   11  C12 UNL     1      27.188 -12.449  -5.224  1.00  0.00     0.000 C 
HETATM   12  C13 UNL     1      25.868 -12.881  -4.645  1.00  0.00     0.000 C 
HETATM   13  C14 UNL     1      26.004 -14.361  -4.260  1.00  0.00     0.004 C 
HETATM   14  C15 UNL     1      25.153 -14.724  -3.109  1.00  0.00     0.053 C 
HETATM   15  C16 UNL     1      25.787 -15.151  -1.851  1.00  0.00     0.141 C 
ENDROOT
BRANCH  15  16
HETATM   16  O1  UNL     1      25.673 -14.175  -0.837  1.00  0.00    -0.375 OA
ATOM     17  H1  UNL     1      25.649 -13.327  -1.266  1.00  0.00     0.211 HD
ENDBRANCH  15  16
BRANCH  15  18
HETATM   18  C17 UNL     1      25.028 -16.319  -1.331  1.00  0.00    -0.064 C 
HETATM   19  C18 UNL     1      24.394 -17.258  -0.916  1.00  0.00    -0.082 C 
BRANCH  19  20
HETATM   20  C19 UNL     1      23.609 -18.403  -0.437  1.00  0.00     0.239 C 
BRANCH  20  21
HETATM   21  N2  UNL     1      22.296 -17.914  -0.116  1.00  0.00    -0.266 N 
ATOM     22  H2  UNL     1      22.176 -16.949   0.192  1.00  0.00     0.187 HD
BRANCH  21  23
HETATM   23  N3  UNL     1      21.200 -18.736  -0.221  1.00  0.00    -0.043 N 
HETATM   24  O2  UNL     1      20.868 -19.158  -1.344  1.00  0.00    -0.517 OA
HETATM   25  O3  UNL     1      20.429 -19.133   0.865  1.00  0.00    -0.517 OA
ENDBRANCH  21  23
ENDBRANCH  20  21
ENDBRANCH  19  20
ENDBRANCH  15  18
BRANCH   1  26
HETATM   26  N1  UNL     1      27.467 -16.517  -0.864  1.00  0.00    -0.417 N 
HETATM   27  C1  UNL     1      28.704 -17.189  -0.853  1.00  0.00     0.140 C 
ATOM     28  H1  UNL     1      26.764 -16.703  -0.150  1.00  0.00     0.153 HD
ENDBRANCH   1  26
TORSDOF 6
ENDMDL
MODEL 4
REMARK VINA RESULT: -6.288558961      1.845      3.960
REMARK  6 active torsions:
REMARK  status: ('A' for Active; 'I' for Inactive)
REMARK    1  A    between atoms: N1_2  and  C2_4 
REMARK    2  A    between atoms: C16_18  and  O1_19 
REMARK    3  A    between atoms: C16_18  and  C17_21 
REMARK    4  A    between atoms: C18_22  and  C19_23 
REMARK    5  A    between atoms: C19_23  and  N2_24 
REMARK    6  A    between atoms: N2_24  and  N3_26 
ROOT
HETATM    1  C2  UNL     1      26.211 -14.544  -1.676  1.00  0.00     0.123 C 
HETATM    2  C3  UNL     1      27.195 -13.719  -2.442  1.00  0.00     0.029 C 
HETATM    3  C4  UNL     1      27.495 -14.168  -3.828  1.00  0.00     0.002 C 
HETATM    4  C5  UNL     1      27.826 -12.924  -4.668  1.00  0.00     0.000 C 
HETATM    5  C6  UNL     1      29.265 -12.551  -4.599  1.00  0.00     0.000 C 
HETATM    6  C7  UNL     1      29.607 -11.587  -3.491  1.00  0.00     0.000 C 
HETATM    7  C8  UNL     1      30.870 -12.113  -2.824  1.00  0.00     0.000 C 
HETATM    8  C9  UNL     1      31.238 -11.329  -1.591  1.00  0.00     0.000 C 
HETATM    9  C10 UNL     1      31.620 -12.284  -0.468  1.00  0.00     0.000 C 
HETATM   10  C11 UNL     1      30.869 -12.032   0.795  1.00  0.00     0.000 C 
HETATM   11  C12 UNL     1      29.417 -12.379   0.745  1.00  0.00     0.000 C 
HETATM   12  C13 UNL     1      29.134 -13.819   1.074  1.00  0.00     0.000 C 
HETATM   13  C14 UNL     1      27.638 -14.055   0.827  1.00  0.00     0.004 C 
HETATM   14  C15 UNL     1      27.347 -15.444   0.416  1.00  0.00     0.053 C 
HETATM   15  C16 UNL     1      26.806 -15.698  -0.929  1.00  0.00     0.141 C 
ENDROOT
BRANCH  15  16
HETATM   16  O1  UNL     1      27.756 -16.299  -1.782  1.00  0.00    -0.375 OA
ATOM     17  H1  UNL     1      28.566 -15.813  -1.686  1.00  0.00     0.211 HD
ENDBRANCH  15  16
BRANCH  15  18
HETATM   18  C17 UNL     1      25.724 -16.710  -0.801  1.00  0.00    -0.064 C 
HETATM   19  C18 UNL     1      24.860 -17.547  -0.707  1.00  0.00    -0.082 C 
BRANCH  19  20
HETATM   20  C19 UNL     1      23.826 -18.582  -0.579  1.00  0.00     0.239 C 
BRANCH  20  21
HETATM   21  N2  UNL     1      22.611 -17.923  -0.185  1.00  0.00    -0.266 N 
ATOM     22  H2  UNL     1      22.633 -16.939   0.083  1.00  0.00     0.187 HD
BRANCH  21  23
HETATM   23  N3  UNL     1      21.420 -18.607  -0.167  1.00  0.00    -0.043 N 
HETATM   24  O2  UNL     1      20.918 -18.972  -1.246  1.00  0.00    -0.517 OA
HETATM   25  O3  UNL     1      20.731 -18.922   0.998  1.00  0.00    -0.517 OA
ENDBRANCH  21  23
ENDBRANCH  20  21
ENDBRANCH  19  20
ENDBRANCH  15  18
BRANCH   1  26
HETATM   26  N1  UNL     1      25.212 -15.025  -2.563  1.00  0.00    -0.417 N 
HETATM   27  C1  UNL     1      24.259 -14.112  -3.054  1.00  0.00     0.140 C 
ATOM     28  H1  UNL     1      25.185 -16.006  -2.837  1.00  0.00     0.153 HD
ENDBRANCH   1  26
TORSDOF 6
ENDMDL
MODEL 5
REMARK VINA RESULT: -6.092178122      2.377      4.367
REMARK  6 active torsions:
REMARK  status: ('A' for Active; 'I' for Inactive)
REMARK    1  A    between atoms: N1_2  and  C2_4 
REMARK    2  A    between atoms: C16_18  and  O1_19 
REMARK    3  A    between atoms: C16_18  and  C17_21 
REMARK    4  A    between atoms: C18_22  and  C19_23 
REMARK    5  A    between atoms: C19_23  and  N2_24 
REMARK    6  A    between atoms: N2_24  and  N3_26 
ROOT
HETATM    1  C2  UNL     1      26.390 -14.391  -2.219  1.00  0.00     0.123 C 
HETATM    2  C3  UNL     1      27.701 -14.255  -2.926  1.00  0.00     0.029 C 
HETATM    3  C4  UNL     1      27.936 -15.181  -4.066  1.00  0.00     0.002 C 
HETATM    4  C5  UNL     1      28.835 -14.461  -5.084  1.00  0.00     0.000 C 
HETATM    5  C6  UNL     1      30.284 -14.634  -4.793  1.00  0.00     0.000 C 
HETATM    6  C7  UNL     1      30.871 -13.572  -3.898  1.00  0.00     0.000 C 
HETATM    7  C8  UNL     1      31.730 -14.291  -2.867  1.00  0.00     0.000 C 
HETATM    8  C9  UNL     1      32.253 -13.359  -1.806  1.00  0.00     0.000 C 
HETATM    9  C10 UNL     1      32.089 -13.997  -0.433  1.00  0.00     0.000 C 
HETATM   10  C11 UNL     1      31.378 -13.118   0.539  1.00  0.00     0.000 C 
HETATM   11  C12 UNL     1      29.926 -12.912   0.258  1.00  0.00     0.000 C 
HETATM   12  C13 UNL     1      29.044 -13.978   0.850  1.00  0.00     0.000 C 
HETATM   13  C14 UNL     1      27.618 -13.717   0.345  1.00  0.00     0.004 C 
HETATM   14  C15 UNL     1      26.829 -14.959   0.222  1.00  0.00     0.053 C 
HETATM   15  C16 UNL     1      26.377 -15.396  -1.109  1.00  0.00     0.141 C 
ENDROOT
BRANCH  15  16
HETATM   16  O1  UNL     1      27.081 -16.530  -1.567  1.00  0.00    -0.375 OA
ATOM     17  H1  UNL     1      27.482 -16.936  -0.807  1.00  0.00     0.211 HD
ENDBRANCH  15  16
BRANCH  15  18
HETATM   18  C17 UNL     1      24.968 -15.856  -0.984  1.00  0.00    -0.064 C 
HETATM   19  C18 UNL     1      23.823 -16.216  -0.865  1.00  0.00    -0.082 C 
BRANCH  19  20
HETATM   20  C19 UNL     1      22.421 -16.628  -0.720  1.00  0.00     0.239 C 
BRANCH  20  21
HETATM   21  N2  UNL     1      22.423 -17.950  -0.155  1.00  0.00    -0.266 N 
ATOM     22  H2  UNL     1      23.276 -18.321   0.264  1.00  0.00     0.187 HD
BRANCH  21  23
HETATM   23  N3  UNL     1      21.284 -18.719  -0.174  1.00  0.00    -0.043 N 
HETATM   24  O2  UNL     1      20.882 -19.174  -1.261  1.00  0.00    -0.517 OA
HETATM   25  O3  UNL     1      20.543 -19.026   0.961  1.00  0.00    -0.517 OA
ENDBRANCH  21  23
ENDBRANCH  20  21
ENDBRANCH  19  20
ENDBRANCH  15  18
BRANCH   1  26
HETATM   26  N1  UNL     1      25.382 -14.721  -3.163  1.00  0.00    -0.417 N 
HETATM   27  C1  UNL     1      24.727 -13.673  -3.835  1.00  0.00     0.140 C 
ATOM     28  H1  UNL     1      25.139 -15.694  -3.349  1.00  0.00     0.153 HD
ENDBRANCH   1  26
TORSDOF 6
ENDMDL
