MODEL 1
REMARK VINA RESULT: -7.719530475      0.000      0.000
REMARK  7 active torsions:
REMARK  status: ('A' for Active; 'I' for Inactive)
REMARK    1  A    between atoms: C4_4  and  C5_5 
REMARK    2  A    between atoms: C5_5  and  O1_6 
REMARK    3  A    between atoms: C6_8  and  O2_9 
REMARK    4  A    between atoms: C10_14  and  C11_15 
REMARK    5  A    between atoms: C11_15  and  C12_16 
REMARK    6  A    between atoms: C12_16  and  C13_17 
REMARK    7  A    between atoms: C17_22  and  O4_23 
ROOT
HETATM    1  C1  UNL     1      25.995  -9.801  -3.590  1.00  0.00     0.020 C 
HETATM    2  C2  UNL     1      26.345 -11.037  -3.324  1.00  0.00    -0.054 C 
HETATM    3  C3  UNL     1      26.277 -12.033  -4.384  1.00  0.00    -0.025 C 
HETATM    4  C4  UNL     1      26.760 -11.906  -5.559  1.00  0.00     0.009 C 
HETATM    5  C6  UNL     1      25.602 -13.326  -3.998  1.00  0.00     0.152 C 
HETATM    6  C7  UNL     1      25.615 -13.526  -2.517  1.00  0.00     0.051 C 
HETATM    7  C8  UNL     1      26.902 -12.979  -1.925  1.00  0.00    -0.010 C 
HETATM    8  C9  UNL     1      28.061 -13.510  -2.700  1.00  0.00     0.021 C 
HETATM    9  C10 UNL     1      27.052 -13.329  -0.485  1.00  0.00    -0.069 C 
HETATM   10  C18 UNL     1      27.629 -12.445   0.347  1.00  0.00    -0.081 C 
HETATM   11  C19 UNL     1      27.761 -12.836   1.787  1.00  0.00     0.043 C 
HETATM   12  C20 UNL     1      28.151 -11.126  -0.041  1.00  0.00     0.034 C 
HETATM   13  C21 UNL     1      28.039 -10.837  -1.524  1.00  0.00     0.015 C 
HETATM   14  C22 UNL     1      26.780 -11.467  -1.993  1.00  0.00     0.031 C 
ENDROOT
BRANCH   9  15
HETATM   15  C11 UNL     1      26.574 -14.640   0.067  1.00  0.00     0.040 C 
BRANCH  15  16
HETATM   16  C12 UNL     1      26.494 -15.720  -0.972  1.00  0.00     0.048 C 
BRANCH  16  17
HETATM   17  C13 UNL     1      25.513 -16.761  -0.654  1.00  0.00     0.003 A 
HETATM   18  C14 UNL     1      24.159 -16.684  -0.904  1.00  0.00     0.044 A 
HETATM   19  C15 UNL     1      23.618 -17.880  -0.448  1.00  0.00     0.052 A 
HETATM   20  C16 UNL     1      22.187 -18.272  -0.499  1.00  0.00     0.077 C 
HETATM   21  O3  UNL     1      24.599 -18.582   0.026  1.00  0.00    -0.292 OA
HETATM   22  C17 UNL     1      25.743 -17.986  -0.062  1.00  0.00     0.189 A 
BRANCH  22  23
HETATM   23  O4  UNL     1      26.995 -18.441   0.344  1.00  0.00    -0.340 OA
ATOM     24  H4  UNL     1      27.358 -19.288   0.115  1.00  0.00     0.220 HD
ENDBRANCH  22  23
ENDBRANCH  16  17
ENDBRANCH  15  16
ENDBRANCH   9  15
BRANCH   5  25
HETATM   25  O2  UNL     1      24.282 -13.217  -4.422  1.00  0.00    -0.391 OA
ATOM     26  H2  UNL     1      23.889 -14.072  -4.292  1.00  0.00     0.210 HD
ENDBRANCH   5  25
BRANCH   4  27
HETATM   27  C5  UNL     1      27.484 -10.754  -6.089  1.00  0.00     0.192 C 
BRANCH  27  28
HETATM   28  O1  UNL     1      26.745 -10.084  -7.094  1.00  0.00    -0.397 OA
ATOM     29  H1  UNL     1      26.084  -9.511  -6.724  1.00  0.00     0.209 HD
ENDBRANCH  27  28
ENDBRANCH   4  27
TORSDOF 7
ENDMDL
MODEL 2
REMARK VINA RESULT: -7.645630353      2.912      4.135
REMARK  7 active torsions:
REMARK  status: ('A' for Active; 'I' for Inactive)
REMARK    1  A    between atoms: C4_4  and  C5_5 
REMARK    2  A    between atoms: C5_5  and  O1_6 
REMARK    3  A    between atoms: C6_8  and  O2_9 
REMARK    4  A    between atoms: C10_14  and  C11_15 
REMARK    5  A    between atoms: C11_15  and  C12_16 
REMARK    6  A    between atoms: C12_16  and  C13_17 
REMARK    7  A    between atoms: C17_22  and  O4_23 
ROOT
HETATM    1  C1  UNL     1      29.121 -12.506  -7.945  1.00  0.00     0.020 C 
HETATM    2  C2  UNL     1      29.075 -13.140  -6.797  1.00  0.00    -0.054 C 
HETATM    3  C3  UNL     1      30.251 -13.870  -6.346  1.00  0.00    -0.025 C 
HETATM    4  C4  UNL     1      31.443 -13.413  -6.308  1.00  0.00     0.009 C 
HETATM    5  C6  UNL     1      29.980 -15.271  -5.854  1.00  0.00     0.152 C 
HETATM    6  C7  UNL     1      28.554 -15.435  -5.441  1.00  0.00     0.051 C 
HETATM    7  C8  UNL     1      28.038 -14.153  -4.813  1.00  0.00    -0.010 C 
HETATM    8  C9  UNL     1      29.006 -13.694  -3.774  1.00  0.00     0.021 C 
HETATM    9  C10 UNL     1      26.688 -14.326  -4.206  1.00  0.00    -0.069 C 
HETATM   10  C18 UNL     1      25.809 -13.312  -4.264  1.00  0.00    -0.081 C 
HETATM   11  C19 UNL     1      24.463 -13.527  -3.643  1.00  0.00     0.043 C 
HETATM   12  C20 UNL     1      26.061 -12.001  -4.881  1.00  0.00     0.034 C 
HETATM   13  C21 UNL     1      27.466 -11.843  -5.426  1.00  0.00     0.015 C 
HETATM   14  C22 UNL     1      27.875 -13.167  -5.956  1.00  0.00     0.031 C 
ENDROOT
BRANCH   9  15
HETATM   15  C11 UNL     1      26.278 -15.604  -3.534  1.00  0.00     0.040 C 
BRANCH  15  16
HETATM   16  C12 UNL     1      26.645 -15.647  -2.080  1.00  0.00     0.048 C 
BRANCH  16  17
HETATM   17  C13 UNL     1      25.839 -16.593  -1.304  1.00  0.00     0.003 A 
HETATM   18  C14 UNL     1      24.465 -16.700  -1.355  1.00  0.00     0.044 A 
HETATM   19  C15 UNL     1      24.127 -17.714  -0.468  1.00  0.00     0.052 A 
HETATM   20  C16 UNL     1      22.757 -18.202  -0.172  1.00  0.00     0.077 C 
HETATM   21  O3  UNL     1      25.234 -18.148   0.048  1.00  0.00    -0.292 OA
HETATM   22  C17 UNL     1      26.281 -17.534  -0.398  1.00  0.00     0.189 A 
BRANCH  22  23
HETATM   23  O4  UNL     1      27.618 -17.739  -0.065  1.00  0.00    -0.340 OA
ATOM     24  H4  UNL     1      28.071 -18.569  -0.151  1.00  0.00     0.220 HD
ENDBRANCH  22  23
ENDBRANCH  16  17
ENDBRANCH  15  16
ENDBRANCH   9  15
BRANCH   5  25
HETATM   25  O2  UNL     1      30.234 -16.116  -6.930  1.00  0.00    -0.391 OA
ATOM     26  H2  UNL     1      30.342 -16.986  -6.564  1.00  0.00     0.210 HD
ENDBRANCH   5  25
BRANCH   4  27
HETATM   27  C5  UNL     1      31.881 -12.075  -6.694  1.00  0.00     0.192 C 
BRANCH  27  28
HETATM   28  O1  UNL     1      32.669 -12.098  -7.870  1.00  0.00    -0.397 OA
ATOM     29  H1  UNL     1      32.298 -11.554  -8.555  1.00  0.00     0.209 HD
ENDBRANCH  27  28
ENDBRANCH   4  27
TORSDOF 7
ENDMDL
MODEL 3
REMARK VINA RESULT: -7.392337134      1.411      1.544
REMARK  7 active torsions:
REMARK  status: ('A' for Active; 'I' for Inactive)
REMARK    1  A    between atoms: C4_4  and  C5_5 
REMARK    2  A    between atoms: C5_5  and  O1_6 
REMARK    3  A    between atoms: C6_8  and  O2_9 
REMARK    4  A    between atoms: C10_14  and  C11_15 
REMARK    5  A    between atoms: C11_15  and  C12_16 
REMARK    6  A    between atoms: C12_16  and  C13_17 
REMARK    7  A    between atoms: C17_22  and  O4_23 
ROOT
HETATM    1  C1  UNL     1      28.000  -9.195  -3.739  1.00  0.00     0.020 C 
HETATM    2  C2  UNL     1      27.805 -10.492  -3.683  1.00  0.00    -0.054 C 
HETATM    3  C3  UNL     1      27.743 -11.250  -4.924  1.00  0.00    -0.025 C 
HETATM    4  C4  UNL     1      28.588 -11.186  -5.880  1.00  0.00     0.009 C 
HETATM    5  C6  UNL     1      26.583 -12.210  -5.026  1.00  0.00     0.152 C 
HETATM    6  C7  UNL     1      26.056 -12.570  -3.674  1.00  0.00     0.051 C 
HETATM    7  C8  UNL     1      27.192 -12.645  -2.671  1.00  0.00    -0.010 C 
HETATM    8  C9  UNL     1      28.284 -13.494  -3.231  1.00  0.00     0.021 C 
HETATM    9  C10 UNL     1      26.748 -13.192  -1.357  1.00  0.00    -0.069 C 
HETATM   10  C18 UNL     1      27.295 -12.709  -0.229  1.00  0.00    -0.081 C 
HETATM   11  C19 UNL     1      26.820 -13.285   1.070  1.00  0.00     0.043 C 
HETATM   12  C20 UNL     1      28.329 -11.666  -0.162  1.00  0.00     0.034 C 
HETATM   13  C21 UNL     1      28.799 -11.185  -1.519  1.00  0.00     0.015 C 
HETATM   14  C22 UNL     1      27.620 -11.210  -2.420  1.00  0.00     0.031 C 
ENDROOT
BRANCH   9  15
HETATM   15  C11 UNL     1      25.703 -14.265  -1.257  1.00  0.00     0.040 C 
BRANCH  15  16
HETATM   16  C12 UNL     1      26.262 -15.646  -1.437  1.00  0.00     0.048 C 
BRANCH  16  17
HETATM   17  C13 UNL     1      25.396 -16.698  -0.897  1.00  0.00     0.003 A 
HETATM   18  C14 UNL     1      24.023 -16.744  -1.022  1.00  0.00     0.044 A 
HETATM   19  C15 UNL     1      23.619 -17.902  -0.370  1.00  0.00     0.052 A 
HETATM   20  C16 UNL     1      22.224 -18.390  -0.232  1.00  0.00     0.077 C 
HETATM   21  O3  UNL     1      24.689 -18.468   0.092  1.00  0.00    -0.292 OA
HETATM   22  C17 UNL     1      25.771 -17.816  -0.181  1.00  0.00     0.189 A 
BRANCH  22  23
HETATM   23  O4  UNL     1      27.085 -18.130   0.156  1.00  0.00    -0.340 OA
ATOM     24  H4  UNL     1      27.586 -17.689   0.833  1.00  0.00     0.220 HD
ENDBRANCH  22  23
ENDBRANCH  16  17
ENDBRANCH  15  16
ENDBRANCH   9  15
BRANCH   5  25
HETATM   25  O2  UNL     1      25.587 -11.542  -5.731  1.00  0.00    -0.391 OA
ATOM     26  H2  UNL     1      25.152 -10.977  -5.104  1.00  0.00     0.210 HD
ENDBRANCH   5  25
BRANCH   4  27
HETATM   27  C5  UNL     1      29.788 -10.358  -5.934  1.00  0.00     0.192 C 
BRANCH  27  28
HETATM   28  O1  UNL     1      30.901 -11.003  -5.341  1.00  0.00    -0.397 OA
ATOM     29  H1  UNL     1      31.284 -10.479  -4.647  1.00  0.00     0.209 HD
ENDBRANCH  27  28
ENDBRANCH   4  27
TORSDOF 7
ENDMDL
MODEL 4
REMARK VINA RESULT: -7.145164148      2.705      4.594
REMARK  7 active torsions:
REMARK  status: ('A' for Active; 'I' for Inactive)
REMARK    1  A    between atoms: C4_4  and  C5_5 
REMARK    2  A    between atoms: C5_5  and  O1_6 
REMARK    3  A    between atoms: C6_8  and  O2_9 
REMARK    4  A    between atoms: C10_14  and  C11_15 
REMARK    5  A    between atoms: C11_15  and  C12_16 
REMARK    6  A    between atoms: C12_16  and  C13_17 
REMARK    7  A    between atoms: C17_22  and  O4_23 
ROOT
HETATM    1  C1  UNL     1      30.682 -12.832  -1.390  1.00  0.00     0.020 C 
HETATM    2  C2  UNL     1      29.557 -13.323  -0.925  1.00  0.00    -0.054 C 
HETATM    3  C3  UNL     1      29.548 -13.938   0.394  1.00  0.00    -0.025 C 
HETATM    4  C4  UNL     1      30.032 -13.427   1.459  1.00  0.00     0.009 C 
HETATM    5  C6  UNL     1      28.859 -15.279   0.465  1.00  0.00     0.152 C 
HETATM    6  C7  UNL     1      27.896 -15.456  -0.665  1.00  0.00     0.051 C 
HETATM    7  C8  UNL     1      27.238 -14.131  -1.006  1.00  0.00    -0.010 C 
HETATM    8  C9  UNL     1      26.721 -13.505   0.247  1.00  0.00     0.021 C 
HETATM    9  C10 UNL     1      26.129 -14.289  -1.988  1.00  0.00    -0.069 C 
HETATM   10  C18 UNL     1      25.927 -13.330  -2.907  1.00  0.00    -0.081 C 
HETATM   11  C19 UNL     1      24.802 -13.528  -3.876  1.00  0.00     0.043 C 
HETATM   12  C20 UNL     1      26.713 -12.094  -3.036  1.00  0.00     0.034 C 
HETATM   13  C21 UNL     1      27.787 -11.941  -1.978  1.00  0.00     0.015 C 
HETATM   14  C22 UNL     1      28.308 -13.300  -1.691  1.00  0.00     0.031 C 
ENDROOT
BRANCH   9  15
HETATM   15  C11 UNL     1      25.233 -15.493  -1.985  1.00  0.00     0.040 C 
BRANCH  15  16
HETATM   16  C12 UNL     1      24.246 -15.487  -0.854  1.00  0.00     0.048 C 
BRANCH  16  17
HETATM   17  C13 UNL     1      23.609 -16.788  -0.631  1.00  0.00     0.003 A 
HETATM   18  C14 UNL     1      22.250 -17.017  -0.606  1.00  0.00     0.044 A 
HETATM   19  C15 UNL     1      22.095 -18.376  -0.369  1.00  0.00     0.052 A 
HETATM   20  C16 UNL     1      20.808 -19.107  -0.256  1.00  0.00     0.077 C 
HETATM   21  O3  UNL     1      23.285 -18.879  -0.267  1.00  0.00    -0.292 OA
HETATM   22  C17 UNL     1      24.224 -18.003  -0.410  1.00  0.00     0.189 A 
BRANCH  22  23
HETATM   23  O4  UNL     1      25.604 -18.189  -0.360  1.00  0.00    -0.340 OA
ATOM     24  H4  UNL     1      26.243 -17.515  -0.556  1.00  0.00     0.220 HD
ENDBRANCH  22  23
ENDBRANCH  16  17
ENDBRANCH  15  16
ENDBRANCH   9  15
BRANCH   5  25
HETATM   25  O2  UNL     1      29.861 -16.237   0.351  1.00  0.00    -0.391 OA
ATOM     26  H2  UNL     1      29.422 -17.062   0.180  1.00  0.00     0.210 HD
ENDBRANCH   5  25
BRANCH   4  27
HETATM   27  C5  UNL     1      30.685 -12.128   1.589  1.00  0.00     0.192 C 
BRANCH  27  28
HETATM   28  O1  UNL     1      29.746 -11.080   1.749  1.00  0.00    -0.397 OA
ATOM     29  H1  UNL     1      29.127 -11.264   2.445  1.00  0.00     0.209 HD
ENDBRANCH  27  28
ENDBRANCH   4  27
TORSDOF 7
ENDMDL
MODEL 5
REMARK VINA RESULT: -7.068597332      2.928      5.857
REMARK  7 active torsions:
REMARK  status: ('A' for Active; 'I' for Inactive)
REMARK    1  A    between atoms: C4_4  and  C5_5 
REMARK    2  A    between atoms: C5_5  and  O1_6 
REMARK    3  A    between atoms: C6_8  and  O2_9 
REMARK    4  A    between atoms: C10_14  and  C11_15 
REMARK    5  A    between atoms: C11_15  and  C12_16 
REMARK    6  A    between atoms: C12_16  and  C13_17 
REMARK    7  A    between atoms: C17_22  and  O4_23 
ROOT
HETATM    1  C1  UNL     1      30.919 -12.067   3.072  1.00  0.00     0.020 C 
HETATM    2  C2  UNL     1      29.654 -12.187   2.743  1.00  0.00    -0.054 C 
HETATM    3  C3  UNL     1      28.675 -12.445   3.789  1.00  0.00    -0.025 C 
HETATM    4  C4  UNL     1      28.567 -11.798   4.885  1.00  0.00     0.009 C 
HETATM    5  C6  UNL     1      27.701 -13.557   3.488  1.00  0.00     0.152 C 
HETATM    6  C7  UNL     1      27.596 -13.805   2.018  1.00  0.00     0.051 C 
HETATM    7  C8  UNL     1      27.724 -12.499   1.255  1.00  0.00    -0.010 C 
HETATM    8  C9  UNL     1      26.796 -11.493   1.850  1.00  0.00     0.021 C 
HETATM    9  C10 UNL     1      27.430 -12.663  -0.196  1.00  0.00    -0.069 C 
HETATM   10  C18 UNL     1      28.122 -11.939  -1.091  1.00  0.00    -0.081 C 
HETATM   11  C19 UNL     1      27.796 -12.134  -2.540  1.00  0.00     0.043 C 
HETATM   12  C20 UNL     1      29.170 -10.960  -0.766  1.00  0.00     0.034 C 
HETATM   13  C21 UNL     1      29.392 -10.775   0.722  1.00  0.00     0.015 C 
HETATM   14  C22 UNL     1      29.185 -12.099   1.358  1.00  0.00     0.031 C 
ENDROOT
BRANCH   9  15
HETATM   15  C11 UNL     1      26.383 -13.620  -0.690  1.00  0.00     0.040 C 
BRANCH  15  16
HETATM   16  C12 UNL     1      26.964 -14.834  -1.354  1.00  0.00     0.048 C 
BRANCH  16  17
HETATM   17  C13 UNL     1      26.321 -16.085  -0.944  1.00  0.00     0.003 A 
HETATM   18  C14 UNL     1      24.965 -16.334  -0.979  1.00  0.00     0.044 A 
HETATM   19  C15 UNL     1      24.802 -17.630  -0.509  1.00  0.00     0.052 A 
HETATM   20  C16 UNL     1      23.515 -18.355  -0.360  1.00  0.00     0.077 C 
HETATM   21  O3  UNL     1      25.984 -18.081  -0.227  1.00  0.00    -0.292 OA
HETATM   22  C17 UNL     1      26.925 -17.226  -0.458  1.00  0.00     0.189 A 
BRANCH  22  23
HETATM   23  O4  UNL     1      28.298 -17.371  -0.273  1.00  0.00    -0.340 OA
ATOM     24  H4  UNL     1      28.724 -17.405   0.576  1.00  0.00     0.220 HD
ENDBRANCH  22  23
ENDBRANCH  16  17
ENDBRANCH  15  16
ENDBRANCH   9  15
BRANCH   5  25
HETATM   25  O2  UNL     1      28.213 -14.698   4.098  1.00  0.00    -0.391 OA
ATOM     26  H2  UNL     1      27.636 -14.891   4.827  1.00  0.00     0.210 HD
ENDBRANCH   5  25
BRANCH   4  27
HETATM   27  C5  UNL     1      29.383 -10.668   5.320  1.00  0.00     0.192 C 
BRANCH  27  28
HETATM   28  O1  UNL     1      28.602  -9.662   5.938  1.00  0.00    -0.397 OA
ATOM     29  H1  UNL     1      29.142  -8.974   6.309  1.00  0.00     0.209 HD
ENDBRANCH  27  28
ENDBRANCH   4  27
TORSDOF 7
ENDMDL
