MODEL 1
REMARK VINA RESULT: -11.060677893      0.000      0.000
REMARK  5 active torsions:
REMARK  status: ('A' for Active; 'I' for Inactive)
REMARK       I    between atoms: C1_2  and  N1_3 
REMARK       I    between atoms: C1_2  and  N3_21 
REMARK    1  A    between atoms: N1_3  and  C2_5 
REMARK    2  A    between atoms: C5_9  and  C6_10 
REMARK    3  A    between atoms: C7_13  and  C8_14 
REMARK    4  A    between atoms: C15_24  and  O2_25 
REMARK    5  A    between atoms: O2_25  and  C16_26 
REMARK       I    between atoms: C16_26  and  N4_28 
ROOT
HETATM    1  O1  UNL     1     -13.871 -45.123  25.661  1.00  0.00    -0.247 OA
HETATM    2  C1  UNL     1     -14.504 -44.618  26.609  1.00  0.00     0.322 C 
HETATM    3  N1  UNL     1     -15.438 -43.604  26.427  1.00  0.00    -0.307 N 
ATOM      4  H1  UNL     1     -15.896 -43.265  27.273  1.00  0.00     0.170 HD
HETATM    5  N3  UNL     1     -14.210 -45.151  27.905  1.00  0.00    -0.334 N 
HETATM    6  C13 UNL     1     -14.837 -44.710  29.121  1.00  0.00     0.130 C 
HETATM    7  C14 UNL     1     -13.707 -44.062  29.939  1.00  0.00     0.052 C 
HETATM    8  C15 UNL     1     -12.757 -45.225  30.253  1.00  0.00     0.137 C 
HETATM    9  C19 UNL     1     -12.107 -45.732  29.023  1.00  0.00     0.052 C 
HETATM   10  C20 UNL     1     -13.215 -46.202  28.065  1.00  0.00     0.130 C 
ENDROOT
BRANCH   3  11
HETATM   11  C2  UNL     1     -15.846 -42.963  25.189  1.00  0.00     0.056 A 
HETATM   12  C3  UNL     1     -14.919 -42.491  24.312  1.00  0.00     0.038 A 
HETATM   13  C4  UNL     1     -15.372 -41.897  23.160  1.00  0.00     0.053 A 
HETATM   14  S1  UNL     1     -17.053 -42.002  23.311  1.00  0.00    -0.097 SA
HETATM   15  C5  UNL     1     -17.149 -42.790  24.817  1.00  0.00     0.065 A 
BRANCH  15  16
HETATM   16  C6  UNL     1     -18.407 -43.167  25.503  1.00  0.00     0.094 A 
HETATM   17  N2  UNL     1     -19.279 -44.047  25.016  1.00  0.00    -0.348 N 
HETATM   18  C7  UNL     1     -20.349 -44.317  25.681  1.00  0.00     0.057 A 
ATOM     19  H2  UNL     1     -19.100 -44.505  24.123  1.00  0.00     0.166 HD
HETATM   20  C12 UNL     1     -20.539 -43.673  26.878  1.00  0.00     0.082 A 
HETATM   21  S3  UNL     1     -19.139 -42.708  26.961  1.00  0.00    -0.081 SA
BRANCH  18  22
HETATM   22  C8  UNL     1     -21.368 -45.298  25.184  1.00  0.00     0.032 A 
HETATM   23  C9  UNL     1     -21.392 -46.641  25.353  1.00  0.00     0.021 A 
HETATM   24  C10 UNL     1     -22.417 -47.315  24.810  1.00  0.00     0.008 A 
HETATM   25  C11 UNL     1     -23.357 -46.591  24.129  1.00  0.00     0.050 A 
HETATM   26  S2  UNL     1     -22.780 -44.991  24.268  1.00  0.00    -0.100 SA
ENDBRANCH  18  22
ENDBRANCH  15  16
ENDBRANCH   3  11
BRANCH   8  27
HETATM   27  O2  UNL     1     -11.937 -44.835  31.285  1.00  0.00    -0.298 OA
BRANCH  27  28
HETATM   28  C16 UNL     1     -10.829 -44.021  31.212  1.00  0.00     0.378 C 
HETATM   29  O3  UNL     1     -11.017 -42.801  31.262  1.00  0.00    -0.237 OA
HETATM   30  N4  UNL     1      -9.555 -44.620  31.086  1.00  0.00    -0.202 N 
HETATM   31  C17 UNL     1      -9.210 -46.026  31.017  1.00  0.00     0.169 C 
HETATM   32  S4  UNL     1      -8.016 -43.806  30.976  1.00  0.00     0.325 S 
HETATM   33  C18 UNL     1      -7.845 -46.172  31.654  1.00  0.00     0.154 C 
HETATM   34  N5  UNL     1      -6.965 -45.203  31.035  1.00  0.00    -0.301 N 
ATOM     35  H5  UNL     1      -6.001 -45.307  30.721  1.00  0.00     0.173 HD
HETATM   36  O4  UNL     1      -7.817 -43.176  29.647  1.00  0.00    -0.182 OA
HETATM   37  O5  UNL     1      -7.791 -42.898  32.126  1.00  0.00    -0.182 OA
ENDBRANCH  27  28
ENDBRANCH   8  27
TORSDOF 5
ENDMDL
MODEL 2
REMARK VINA RESULT: -10.715675901      1.115      1.429
REMARK  5 active torsions:
REMARK  status: ('A' for Active; 'I' for Inactive)
REMARK       I    between atoms: C1_2  and  N1_3 
REMARK       I    between atoms: C1_2  and  N3_21 
REMARK    1  A    between atoms: N1_3  and  C2_5 
REMARK    2  A    between atoms: C5_9  and  C6_10 
REMARK    3  A    between atoms: C7_13  and  C8_14 
REMARK    4  A    between atoms: C15_24  and  O2_25 
REMARK    5  A    between atoms: O2_25  and  C16_26 
REMARK       I    between atoms: C16_26  and  N4_28 
ROOT
HETATM    1  O1  UNL     1     -13.866 -44.798  25.181  1.00  0.00    -0.247 OA
HETATM    2  C1  UNL     1     -14.572 -44.457  26.149  1.00  0.00     0.322 C 
HETATM    3  N1  UNL     1     -15.630 -43.563  26.024  1.00  0.00    -0.307 N 
ATOM      4  H1  UNL     1     -16.140 -43.355  26.883  1.00  0.00     0.170 HD
HETATM    5  N3  UNL     1     -14.225 -45.046  27.408  1.00  0.00    -0.334 N 
HETATM    6  C13 UNL     1     -14.921 -44.787  28.639  1.00  0.00     0.130 C 
HETATM    7  C14 UNL     1     -13.897 -44.063  29.529  1.00  0.00     0.052 C 
HETATM    8  C15 UNL     1     -12.804 -45.111  29.775  1.00  0.00     0.137 C 
HETATM    9  C19 UNL     1     -12.078 -45.431  28.525  1.00  0.00     0.052 C 
HETATM   10  C20 UNL     1     -13.102 -45.966  27.510  1.00  0.00     0.130 C 
ENDROOT
BRANCH   3  11
HETATM   11  C2  UNL     1     -16.104 -42.887  24.829  1.00  0.00     0.056 A 
HETATM   12  C3  UNL     1     -15.227 -42.385  23.919  1.00  0.00     0.038 A 
HETATM   13  C4  UNL     1     -15.742 -41.759  22.811  1.00  0.00     0.053 A 
HETATM   14  S1  UNL     1     -17.412 -41.874  23.048  1.00  0.00    -0.097 SA
HETATM   15  C5  UNL     1     -17.426 -42.707  24.532  1.00  0.00     0.065 A 
BRANCH  15  16
HETATM   16  C6  UNL     1     -18.645 -43.110  25.272  1.00  0.00     0.094 A 
HETATM   17  N2  UNL     1     -19.472 -44.070  24.866  1.00  0.00    -0.348 N 
HETATM   18  C7  UNL     1     -20.511 -44.356  25.573  1.00  0.00     0.057 A 
ATOM     19  H2  UNL     1     -19.285 -44.576  24.001  1.00  0.00     0.166 HD
HETATM   20  C12 UNL     1     -20.715 -43.644  26.729  1.00  0.00     0.082 A 
HETATM   21  S3  UNL     1     -19.374 -42.596  26.714  1.00  0.00    -0.081 SA
BRANCH  18  22
HETATM   22  C8  UNL     1     -21.480 -45.426  25.168  1.00  0.00     0.032 A 
HETATM   23  C9  UNL     1     -21.322 -46.769  25.234  1.00  0.00     0.021 A 
HETATM   24  C10 UNL     1     -22.339 -47.534  24.808  1.00  0.00     0.008 A 
HETATM   25  C11 UNL     1     -23.454 -46.894  24.340  1.00  0.00     0.050 A 
HETATM   26  S2  UNL     1     -23.048 -45.245  24.511  1.00  0.00    -0.100 SA
ENDBRANCH  18  22
ENDBRANCH  15  16
ENDBRANCH   3  11
BRANCH   8  27
HETATM   27  O2  UNL     1     -12.056 -44.698  30.852  1.00  0.00    -0.298 OA
BRANCH  27  28
HETATM   28  C16 UNL     1     -10.828 -45.174  31.249  1.00  0.00     0.378 C 
HETATM   29  O3  UNL     1     -10.806 -46.241  31.872  1.00  0.00    -0.237 OA
HETATM   30  N4  UNL     1      -9.673 -44.424  30.926  1.00  0.00    -0.202 N 
HETATM   31  C17 UNL     1      -9.571 -43.170  30.207  1.00  0.00     0.169 C 
HETATM   32  S4  UNL     1      -8.019 -44.819  31.318  1.00  0.00     0.325 S 
HETATM   33  C18 UNL     1      -8.247 -43.194  29.475  1.00  0.00     0.154 C 
HETATM   34  N5  UNL     1      -7.219 -43.538  30.434  1.00  0.00    -0.301 N 
ATOM     35  H5  UNL     1      -6.287 -43.143  30.560  1.00  0.00     0.173 HD
HETATM   36  O4  UNL     1      -7.723 -44.597  32.755  1.00  0.00    -0.182 OA
HETATM   37  O5  UNL     1      -7.639 -46.159  30.812  1.00  0.00    -0.182 OA
ENDBRANCH  27  28
ENDBRANCH   8  27
TORSDOF 5
ENDMDL
MODEL 3
REMARK VINA RESULT: -10.610939253      2.494      3.159
REMARK  5 active torsions:
REMARK  status: ('A' for Active; 'I' for Inactive)
REMARK       I    between atoms: C1_2  and  N1_3 
REMARK       I    between atoms: C1_2  and  N3_21 
REMARK    1  A    between atoms: N1_3  and  C2_5 
REMARK    2  A    between atoms: C5_9  and  C6_10 
REMARK    3  A    between atoms: C7_13  and  C8_14 
REMARK    4  A    between atoms: C15_24  and  O2_25 
REMARK    5  A    between atoms: O2_25  and  C16_26 
REMARK       I    between atoms: C16_26  and  N4_28 
ROOT
HETATM    1  O1  UNL     1     -13.849 -44.336  24.776  1.00  0.00    -0.247 OA
HETATM    2  C1  UNL     1     -14.592 -44.163  25.761  1.00  0.00     0.322 C 
HETATM    3  N1  UNL     1     -15.785 -43.453  25.681  1.00  0.00    -0.307 N 
ATOM      4  H1  UNL     1     -16.314 -43.374  26.550  1.00  0.00     0.170 HD
HETATM    5  N3  UNL     1     -14.141 -44.747  26.989  1.00  0.00    -0.334 N 
HETATM    6  C13 UNL     1     -14.858 -44.667  28.232  1.00  0.00     0.130 C 
HETATM    7  C14 UNL     1     -13.959 -43.826  29.155  1.00  0.00     0.052 C 
HETATM    8  C15 UNL     1     -12.706 -44.689  29.348  1.00  0.00     0.137 C 
HETATM    9  C19 UNL     1     -11.949 -44.823  28.082  1.00  0.00     0.052 C 
HETATM   10  C20 UNL     1     -12.879 -45.471  27.043  1.00  0.00     0.130 C 
ENDROOT
BRANCH   3  11
HETATM   11  C2  UNL     1     -16.376 -42.808  24.521  1.00  0.00     0.056 A 
HETATM   12  C3  UNL     1     -15.592 -42.297  23.534  1.00  0.00     0.038 A 
HETATM   13  C4  UNL     1     -16.215 -41.702  22.466  1.00  0.00     0.053 A 
HETATM   14  S1  UNL     1     -17.856 -41.859  22.844  1.00  0.00    -0.097 SA
HETATM   15  C5  UNL     1     -17.723 -42.668  24.334  1.00  0.00     0.065 A 
BRANCH  15  16
HETATM   16  C6  UNL     1     -18.864 -43.092  25.179  1.00  0.00     0.094 A 
HETATM   17  N2  UNL     1     -19.691 -44.084  24.860  1.00  0.00    -0.348 N 
HETATM   18  C7  UNL     1     -20.660 -44.386  25.655  1.00  0.00     0.057 A 
ATOM     19  H2  UNL     1     -19.560 -44.601  23.991  1.00  0.00     0.166 HD
HETATM   20  C12 UNL     1     -20.790 -43.658  26.811  1.00  0.00     0.082 A 
HETATM   21  S3  UNL     1     -19.487 -42.572  26.667  1.00  0.00    -0.081 SA
BRANCH  18  22
HETATM   22  C8  UNL     1     -21.625 -45.492  25.350  1.00  0.00     0.032 A 
HETATM   23  C9  UNL     1     -21.351 -46.775  25.015  1.00  0.00     0.021 A 
HETATM   24  C10 UNL     1     -22.392 -47.590  24.785  1.00  0.00     0.008 A 
HETATM   25  C11 UNL     1     -23.647 -47.058  24.906  1.00  0.00     0.050 A 
HETATM   26  S2  UNL     1     -23.334 -45.437  25.339  1.00  0.00    -0.100 SA
ENDBRANCH  18  22
ENDBRANCH  15  16
ENDBRANCH   3  11
BRANCH   8  27
HETATM   27  O2  UNL     1     -12.026 -44.210  30.442  1.00  0.00    -0.298 OA
BRANCH  27  28
HETATM   28  C16 UNL     1     -12.411 -43.193  31.287  1.00  0.00     0.378 C 
HETATM   29  O3  UNL     1     -12.058 -42.046  30.992  1.00  0.00    -0.237 OA
HETATM   30  N4  UNL     1     -13.178 -43.514  32.430  1.00  0.00    -0.202 N 
HETATM   31  C17 UNL     1     -13.649 -44.809  32.878  1.00  0.00     0.169 C 
HETATM   32  S4  UNL     1     -13.779 -42.409  33.638  1.00  0.00     0.325 S 
HETATM   33  C18 UNL     1     -14.962 -44.573  33.591  1.00  0.00     0.154 C 
HETATM   34  N5  UNL     1     -14.751 -43.527  34.569  1.00  0.00    -0.301 N 
ATOM     35  H5  UNL     1     -15.078 -43.460  35.532  1.00  0.00     0.173 HD
HETATM   36  O4  UNL     1     -12.698 -41.930  34.536  1.00  0.00    -0.182 OA
HETATM   37  O5  UNL     1     -14.600 -41.331  33.038  1.00  0.00    -0.182 OA
ENDBRANCH  27  28
ENDBRANCH   8  27
TORSDOF 5
ENDMDL
MODEL 4
REMARK VINA RESULT: -10.583849626      3.035      3.754
REMARK  5 active torsions:
REMARK  status: ('A' for Active; 'I' for Inactive)
REMARK       I    between atoms: C1_2  and  N1_3 
REMARK       I    between atoms: C1_2  and  N3_21 
REMARK    1  A    between atoms: N1_3  and  C2_5 
REMARK    2  A    between atoms: C5_9  and  C6_10 
REMARK    3  A    between atoms: C7_13  and  C8_14 
REMARK    4  A    between atoms: C15_24  and  O2_25 
REMARK    5  A    between atoms: O2_25  and  C16_26 
REMARK       I    between atoms: C16_26  and  N4_28 
ROOT
HETATM    1  O1  UNL     1     -14.343 -42.249  24.939  1.00  0.00    -0.247 OA
HETATM    2  C1  UNL     1     -14.855 -43.141  25.642  1.00  0.00     0.322 C 
HETATM    3  N1  UNL     1     -16.214 -43.435  25.604  1.00  0.00    -0.307 N 
ATOM      4  H1  UNL     1     -16.524 -44.185  26.222  1.00  0.00     0.170 HD
HETATM    5  N3  UNL     1     -13.952 -43.851  26.499  1.00  0.00    -0.334 N 
HETATM    6  C13 UNL     1     -14.345 -44.918  27.378  1.00  0.00     0.130 C 
HETATM    7  C14 UNL     1     -14.100 -44.374  28.796  1.00  0.00     0.052 C 
HETATM    8  C15 UNL     1     -12.579 -44.191  28.870  1.00  0.00     0.137 C 
HETATM    9  C19 UNL     1     -12.124 -43.118  27.957  1.00  0.00     0.052 C 
HETATM   10  C20 UNL     1     -12.538 -43.510  26.528  1.00  0.00     0.130 C 
ENDROOT
BRANCH   3  11
HETATM   11  C2  UNL     1     -17.250 -42.813  24.797  1.00  0.00     0.056 A 
HETATM   12  C3  UNL     1     -16.981 -42.373  23.538  1.00  0.00     0.038 A 
HETATM   13  C4  UNL     1     -18.005 -41.796  22.830  1.00  0.00     0.053 A 
HETATM   14  S1  UNL     1     -19.306 -41.871  23.908  1.00  0.00    -0.097 SA
HETATM   15  C5  UNL     1     -18.535 -42.627  25.223  1.00  0.00     0.065 A 
BRANCH  15  16
HETATM   16  C6  UNL     1     -19.184 -42.971  26.510  1.00  0.00     0.094 A 
HETATM   17  N2  UNL     1     -20.345 -43.616  26.602  1.00  0.00    -0.348 N 
HETATM   18  C7  UNL     1     -20.839 -43.875  27.764  1.00  0.00     0.057 A 
ATOM     19  H2  UNL     1     -20.840 -43.903  25.758  1.00  0.00     0.166 HD
HETATM   20  C12 UNL     1     -20.130 -43.467  28.866  1.00  0.00     0.082 A 
HETATM   21  S3  UNL     1     -18.782 -42.726  28.138  1.00  0.00    -0.081 SA
BRANCH  18  22
HETATM   22  C8  UNL     1     -22.141 -44.597  27.932  1.00  0.00     0.032 A 
HETATM   23  C9  UNL     1     -22.744 -44.983  29.081  1.00  0.00     0.021 A 
HETATM   24  C10 UNL     1     -23.919 -45.622  28.980  1.00  0.00     0.008 A 
HETATM   25  C11 UNL     1     -24.414 -45.833  27.722  1.00  0.00     0.050 A 
HETATM   26  S2  UNL     1     -23.223 -45.132  26.721  1.00  0.00    -0.100 SA
ENDBRANCH  18  22
ENDBRANCH  15  16
ENDBRANCH   3  11
BRANCH   8  27
HETATM   27  O2  UNL     1     -12.231 -44.081  30.195  1.00  0.00    -0.298 OA
BRANCH  27  28
HETATM   28  C16 UNL     1     -12.619 -43.106  31.085  1.00  0.00     0.378 C 
HETATM   29  O3  UNL     1     -12.315 -41.938  30.816  1.00  0.00    -0.237 OA
HETATM   30  N4  UNL     1     -13.334 -43.489  32.243  1.00  0.00    -0.202 N 
HETATM   31  C17 UNL     1     -13.746 -44.813  32.664  1.00  0.00     0.169 C 
HETATM   32  S4  UNL     1     -13.929 -42.443  33.506  1.00  0.00     0.325 S 
HETATM   33  C18 UNL     1     -15.041 -44.645  33.428  1.00  0.00     0.154 C 
HETATM   34  N5  UNL     1     -14.830 -43.623  34.432  1.00  0.00    -0.301 N 
ATOM     35  H5  UNL     1     -15.125 -43.598  35.408  1.00  0.00     0.173 HD
HETATM   36  O4  UNL     1     -12.834 -41.956  34.382  1.00  0.00    -0.182 OA
HETATM   37  O5  UNL     1     -14.806 -41.377  32.969  1.00  0.00    -0.182 OA
ENDBRANCH  27  28
ENDBRANCH   8  27
TORSDOF 5
ENDMDL
MODEL 5
REMARK VINA RESULT: -10.519642270      1.132      1.351
REMARK  5 active torsions:
REMARK  status: ('A' for Active; 'I' for Inactive)
REMARK       I    between atoms: C1_2  and  N1_3 
REMARK       I    between atoms: C1_2  and  N3_21 
REMARK    1  A    between atoms: N1_3  and  C2_5 
REMARK    2  A    between atoms: C5_9  and  C6_10 
REMARK    3  A    between atoms: C7_13  and  C8_14 
REMARK    4  A    between atoms: C15_24  and  O2_25 
REMARK    5  A    between atoms: O2_25  and  C16_26 
REMARK       I    between atoms: C16_26  and  N4_28 
ROOT
HETATM    1  O1  UNL     1     -13.941 -45.027  25.133  1.00  0.00    -0.247 OA
HETATM    2  C1  UNL     1     -14.510 -44.544  26.131  1.00  0.00     0.322 C 
HETATM    3  N1  UNL     1     -15.464 -43.538  26.033  1.00  0.00    -0.307 N 
ATOM      4  H1  UNL     1     -15.865 -43.217  26.915  1.00  0.00     0.170 HD
HETATM    5  N3  UNL     1     -14.119 -45.094  27.395  1.00  0.00    -0.334 N 
HETATM    6  C13 UNL     1     -14.663 -44.679  28.659  1.00  0.00     0.130 C 
HETATM    7  C14 UNL     1     -13.484 -44.032  29.406  1.00  0.00     0.052 C 
HETATM    8  C15 UNL     1     -12.503 -45.188  29.632  1.00  0.00     0.137 C 
HETATM    9  C19 UNL     1     -11.937 -45.669  28.351  1.00  0.00     0.052 C 
HETATM   10  C20 UNL     1     -13.105 -46.136  27.467  1.00  0.00     0.130 C 
ENDROOT
BRANCH   3  11
HETATM   11  C2  UNL     1     -15.965 -42.882  24.837  1.00  0.00     0.056 A 
HETATM   12  C3  UNL     1     -15.108 -42.374  23.911  1.00  0.00     0.038 A 
HETATM   13  C4  UNL     1     -15.648 -41.768  22.804  1.00  0.00     0.053 A 
HETATM   14  S1  UNL     1     -17.313 -41.912  23.063  1.00  0.00    -0.097 SA
HETATM   15  C5  UNL     1     -17.294 -42.730  24.555  1.00  0.00     0.065 A 
BRANCH  15  16
HETATM   16  C6  UNL     1     -18.496 -43.147  25.314  1.00  0.00     0.094 A 
HETATM   17  N2  UNL     1     -19.391 -44.020  24.858  1.00  0.00    -0.348 N 
HETATM   18  C7  UNL     1     -20.409 -44.327  25.586  1.00  0.00     0.057 A 
ATOM     19  H2  UNL     1     -19.271 -44.445  23.939  1.00  0.00     0.166 HD
HETATM   20  C12 UNL     1     -20.520 -43.727  26.816  1.00  0.00     0.082 A 
HETATM   21  S3  UNL     1     -19.128 -42.749  26.835  1.00  0.00    -0.081 SA
BRANCH  18  22
HETATM   22  C8  UNL     1     -21.450 -45.303  25.128  1.00  0.00     0.032 A 
HETATM   23  C9  UNL     1     -21.515 -46.634  25.367  1.00  0.00     0.021 A 
HETATM   24  C10 UNL     1     -22.553 -47.307  24.847  1.00  0.00     0.008 A 
HETATM   25  C11 UNL     1     -23.463 -46.593  24.115  1.00  0.00     0.050 A 
HETATM   26  S2  UNL     1     -22.840 -45.005  24.177  1.00  0.00    -0.100 SA
ENDBRANCH  18  22
ENDBRANCH  15  16
ENDBRANCH   3  11
BRANCH   8  27
HETATM   27  O2  UNL     1     -11.616 -44.805  30.610  1.00  0.00    -0.298 OA
BRANCH  27  28
HETATM   28  C16 UNL     1     -10.257 -44.628  30.484  1.00  0.00     0.378 C 
HETATM   29  O3  UNL     1      -9.753 -44.864  29.380  1.00  0.00    -0.237 OA
HETATM   30  N4  UNL     1      -9.522 -44.193  31.611  1.00  0.00    -0.202 N 
HETATM   31  C17 UNL     1      -9.995 -43.887  32.946  1.00  0.00     0.169 C 
HETATM   32  S4  UNL     1      -7.804 -43.899  31.697  1.00  0.00     0.325 S 
HETATM   33  C18 UNL     1      -9.095 -42.798  33.488  1.00  0.00     0.154 C 
HETATM   34  N5  UNL     1      -7.725 -43.230  33.312  1.00  0.00    -0.301 N 
ATOM     35  H5  UNL     1      -6.934 -43.163  33.951  1.00  0.00     0.173 HD
HETATM   36  O4  UNL     1      -7.027 -45.163  31.718  1.00  0.00    -0.182 OA
HETATM   37  O5  UNL     1      -7.361 -42.923  30.674  1.00  0.00    -0.182 OA
ENDBRANCH  27  28
ENDBRANCH   8  27
TORSDOF 5
ENDMDL
