MODEL 1
REMARK VINA RESULT: -5.784124745      0.000      0.000
REMARK  5 active torsions:
REMARK  status: ('A' for Active; 'I' for Inactive)
REMARK    1  A    between atoms: C2_2  and  C3_3 
REMARK    2  A    between atoms: C3_3  and  N1_4 
REMARK    3  A    between atoms: N1_4  and  C4_6 
REMARK    4  A    between atoms: C12_15  and  O2_16 
REMARK    5  A    between atoms: C18_23  and  O3_24 
ROOT
HETATM    1  C4  UNL     1       5.976   5.241  23.038  1.00  0.00     0.061 C 
HETATM    2  C5  UNL     1       5.484   5.919  24.328  1.00  0.00     0.041 C 
HETATM    3  C6  UNL     1       4.724   4.893  22.310  1.00  0.00     0.111 C 
HETATM    4  C7  UNL     1       4.307   5.950  21.336  1.00  0.00     0.129 C 
HETATM    5  O1  UNL     1       3.375   6.688  21.604  1.00  0.00    -0.298 OA
HETATM    6  C8  UNL     1       4.896   6.257  20.002  1.00  0.00     0.083 C 
HETATM    7  C9  UNL     1       6.191   5.491  19.953  1.00  0.00    -0.002 C 
HETATM    8  C10 UNL     1       6.723   5.244  18.589  1.00  0.00     0.011 C 
HETATM    9  C11 UNL     1       7.167   6.057  20.889  1.00  0.00     0.056 C 
HETATM   10  C12 UNL     1       7.596   7.452  20.400  1.00  0.00     0.125 C 
HETATM   11  C13 UNL     1       9.026   7.614  20.899  1.00  0.00     0.033 C 
HETATM   12  C14 UNL     1       9.038   7.461  22.351  1.00  0.00     0.014 C 
HETATM   13  C15 UNL     1       8.276   6.275  22.939  1.00  0.00    -0.014 C 
HETATM   14  C16 UNL     1       8.300   6.635  24.429  1.00  0.00     0.018 C 
HETATM   15  C17 UNL     1       9.158   5.084  22.870  1.00  0.00     0.018 C 
HETATM   16  C18 UNL     1       6.913   6.155  22.328  1.00  0.00     0.096 C 
ENDROOT
BRANCH   1  17
HETATM   17  N1  UNL     1       6.633   3.996  23.387  1.00  0.00    -0.407 N 
ATOM     18  H1  UNL     1       7.308   3.543  22.771  1.00  0.00     0.154 HD
BRANCH  17  19
HETATM   19  C3  UNL     1       6.267   3.451  24.654  1.00  0.00     0.141 C 
BRANCH  19  20
HETATM   20  C2  UNL     1       7.473   3.199  25.487  1.00  0.00    -0.018 C 
HETATM   21  C1  UNL     1       7.363   2.761  26.734  1.00  0.00     0.008 C 
ENDBRANCH  19  20
ENDBRANCH  17  19
ENDBRANCH   1  17
BRANCH  16  22
HETATM   22  O3  UNL     1       6.287   7.419  22.510  1.00  0.00    -0.386 OA
ATOM     23  H3  UNL     1       6.742   7.957  21.874  1.00  0.00     0.210 HD
ENDBRANCH  16  22
BRANCH  10  24
HETATM   24  O2  UNL     1       7.531   7.619  19.046  1.00  0.00    -0.395 OA
ATOM     25  H2  UNL     1       8.347   7.891  18.645  1.00  0.00     0.210 HD
ENDBRANCH  10  24
TORSDOF 5
ENDMDL
MODEL 2
REMARK VINA RESULT: -5.202298739      1.655      4.393
REMARK  5 active torsions:
REMARK  status: ('A' for Active; 'I' for Inactive)
REMARK    1  A    between atoms: C2_2  and  C3_3 
REMARK    2  A    between atoms: C3_3  and  N1_4 
REMARK    3  A    between atoms: N1_4  and  C4_6 
REMARK    4  A    between atoms: C12_15  and  O2_16 
REMARK    5  A    between atoms: C18_23  and  O3_24 
ROOT
HETATM    1  C4  UNL     1       7.079   5.717  22.930  1.00  0.00     0.061 C 
HETATM    2  C5  UNL     1       8.255   4.751  22.708  1.00  0.00     0.041 C 
HETATM    3  C6  UNL     1       7.115   6.612  21.740  1.00  0.00     0.111 C 
HETATM    4  C7  UNL     1       6.230   6.135  20.631  1.00  0.00     0.129 C 
HETATM    5  O1  UNL     1       6.720   5.609  19.648  1.00  0.00    -0.298 OA
HETATM    6  C8  UNL     1       4.744   6.213  20.539  1.00  0.00     0.083 C 
HETATM    7  C9  UNL     1       4.280   6.594  21.919  1.00  0.00    -0.002 C 
HETATM    8  C10 UNL     1       2.923   7.193  21.984  1.00  0.00     0.011 C 
HETATM    9  C11 UNL     1       4.500   5.495  22.865  1.00  0.00     0.056 C 
HETATM   10  C12 UNL     1       3.563   4.325  22.516  1.00  0.00     0.125 C 
HETATM   11  C13 UNL     1       3.292   3.637  23.849  1.00  0.00     0.033 C 
HETATM   12  C14 UNL     1       4.565   3.228  24.434  1.00  0.00     0.014 C 
HETATM   13  C15 UNL     1       5.694   4.257  24.453  1.00  0.00    -0.014 C 
HETATM   14  C16 UNL     1       6.876   3.372  24.864  1.00  0.00     0.018 C 
HETATM   15  C17 UNL     1       5.501   5.127  25.639  1.00  0.00     0.018 C 
HETATM   16  C18 UNL     1       5.828   4.932  23.122  1.00  0.00     0.096 C 
ENDROOT
BRANCH   1  17
HETATM   17  N1  UNL     1       7.360   6.534  24.094  1.00  0.00    -0.407 N 
ATOM     18  H1  UNL     1       6.649   7.112  24.541  1.00  0.00     0.154 HD
BRANCH  17  19
HETATM   19  C3  UNL     1       8.705   6.472  24.569  1.00  0.00     0.141 C 
BRANCH  19  20
HETATM   20  C2  UNL     1       9.341   7.816  24.528  1.00  0.00    -0.018 C 
HETATM   21  C1  UNL     1      10.065   8.197  23.484  1.00  0.00     0.008 C 
ENDBRANCH  19  20
ENDBRANCH  17  19
ENDBRANCH   1  17
BRANCH  16  22
HETATM   22  O3  UNL     1       5.982   3.891  22.166  1.00  0.00    -0.386 OA
ATOM     23  H3  UNL     1       5.279   3.299  22.404  1.00  0.00     0.210 HD
ENDBRANCH  16  22
BRANCH  10  24
HETATM   24  O2  UNL     1       2.395   4.698  21.915  1.00  0.00    -0.395 OA
ATOM     25  H2  UNL     1       2.480   5.428  21.313  1.00  0.00     0.210 HD
ENDBRANCH  10  24
TORSDOF 5
ENDMDL
MODEL 3
REMARK VINA RESULT: -5.162557848      4.756      6.935
REMARK  5 active torsions:
REMARK  status: ('A' for Active; 'I' for Inactive)
REMARK    1  A    between atoms: C2_2  and  C3_3 
REMARK    2  A    between atoms: C3_3  and  N1_4 
REMARK    3  A    between atoms: N1_4  and  C4_6 
REMARK    4  A    between atoms: C12_15  and  O2_16 
REMARK    5  A    between atoms: C18_23  and  O3_24 
ROOT
HETATM    1  C4  UNL     1       8.734   8.282  17.745  1.00  0.00     0.061 C 
HETATM    2  C5  UNL     1       8.753   8.786  19.198  1.00  0.00     0.041 C 
HETATM    3  C6  UNL     1       7.514   8.906  17.161  1.00  0.00     0.111 C 
HETATM    4  C7  UNL     1       7.801  10.206  16.476  1.00  0.00     0.129 C 
HETATM    5  O1  UNL     1       7.494  11.255  17.013  1.00  0.00    -0.298 OA
HETATM    6  C8  UNL     1       8.446  10.426  15.150  1.00  0.00     0.083 C 
HETATM    7  C9  UNL     1       9.029   9.093  14.766  1.00  0.00    -0.002 C 
HETATM    8  C10 UNL     1       9.298   8.919  13.315  1.00  0.00     0.011 C 
HETATM    9  C11 UNL     1      10.159   8.747  15.634  1.00  0.00     0.056 C 
HETATM   10  C12 UNL     1      11.329   9.708  15.357  1.00  0.00     0.125 C 
HETATM   11  C13 UNL     1      12.579   8.890  15.658  1.00  0.00     0.033 C 
HETATM   12  C14 UNL     1      12.510   8.416  17.038  1.00  0.00     0.014 C 
HETATM   13  C15 UNL     1      11.196   7.787  17.500  1.00  0.00    -0.014 C 
HETATM   14  C16 UNL     1      11.442   7.698  19.010  1.00  0.00     0.018 C 
HETATM   15  C17 UNL     1      11.195   6.366  17.078  1.00  0.00     0.018 C 
HETATM   16  C18 UNL     1      10.025   8.626  17.087  1.00  0.00     0.096 C 
ENDROOT
BRANCH   1  17
HETATM   17  N1  UNL     1       8.523   6.848  17.752  1.00  0.00    -0.407 N 
ATOM     18  H1  UNL     1       9.245   6.190  18.048  1.00  0.00     0.154 HD
BRANCH  17  19
HETATM   19  C3  UNL     1       7.233   6.421  17.315  1.00  0.00     0.141 C 
BRANCH  19  20
HETATM   20  C2  UNL     1       6.627   5.483  18.297  1.00  0.00    -0.018 C 
HETATM   21  C1  UNL     1       6.234   5.904  19.491  1.00  0.00     0.008 C 
ENDBRANCH  19  20
ENDBRANCH  17  19
ENDBRANCH   1  17
BRANCH  16  22
HETATM   22  O3  UNL     1      10.276   9.930  17.595  1.00  0.00    -0.386 OA
ATOM     23  H3  UNL     1      10.887   9.753  18.300  1.00  0.00     0.210 HD
ENDBRANCH  16  22
BRANCH  10  24
HETATM   24  O2  UNL     1      11.365  10.200  14.084  1.00  0.00    -0.395 OA
ATOM     25  H2  UNL     1      12.239  10.302  13.728  1.00  0.00     0.210 HD
ENDBRANCH  10  24
TORSDOF 5
ENDMDL
MODEL 4
REMARK VINA RESULT: -5.077803557      1.149      1.412
REMARK  5 active torsions:
REMARK  status: ('A' for Active; 'I' for Inactive)
REMARK    1  A    between atoms: C2_2  and  C3_3 
REMARK    2  A    between atoms: C3_3  and  N1_4 
REMARK    3  A    between atoms: N1_4  and  C4_6 
REMARK    4  A    between atoms: C12_15  and  O2_16 
REMARK    5  A    between atoms: C18_23  and  O3_24 
ROOT
HETATM    1  C4  UNL     1       4.898   5.428  22.107  1.00  0.00     0.061 C 
HETATM    2  C5  UNL     1       4.219   6.262  23.206  1.00  0.00     0.041 C 
HETATM    3  C6  UNL     1       3.816   5.189  21.112  1.00  0.00     0.111 C 
HETATM    4  C7  UNL     1       3.797   6.212  20.020  1.00  0.00     0.129 C 
HETATM    5  O1  UNL     1       2.946   7.083  20.018  1.00  0.00    -0.298 OA
HETATM    6  C8  UNL     1       4.722   6.335  18.857  1.00  0.00     0.083 C 
HETATM    7  C9  UNL     1       5.867   5.406  19.160  1.00  0.00    -0.002 C 
HETATM    8  C10 UNL     1       6.664   4.985  17.980  1.00  0.00     0.011 C 
HETATM    9  C11 UNL     1       6.667   5.912  20.280  1.00  0.00     0.056 C 
HETATM   10  C12 UNL     1       7.396   7.197  19.848  1.00  0.00     0.125 C 
HETATM   11  C13 UNL     1       8.677   7.211  20.674  1.00  0.00     0.033 C 
HETATM   12  C14 UNL     1       8.324   7.172  22.090  1.00  0.00     0.014 C 
HETATM   13  C15 UNL     1       7.281   6.144  22.527  1.00  0.00    -0.014 C 
HETATM   14  C16 UNL     1       7.005   6.614  23.960  1.00  0.00     0.018 C 
HETATM   15  C17 UNL     1       7.973   4.848  22.728  1.00  0.00     0.018 C 
HETATM   16  C18 UNL     1       6.098   6.154  21.607  1.00  0.00     0.096 C 
ENDROOT
BRANCH   1  17
HETATM   17  N1  UNL     1       5.267   4.140  22.661  1.00  0.00    -0.407 N 
ATOM     18  H1  UNL     1       6.150   3.681  22.438  1.00  0.00     0.154 HD
BRANCH  17  19
HETATM   19  C3  UNL     1       4.305   3.560  23.541  1.00  0.00     0.141 C 
BRANCH  19  20
HETATM   20  C2  UNL     1       4.771   3.631  24.952  1.00  0.00    -0.018 C 
HETATM   21  C1  UNL     1       6.020   3.326  25.275  1.00  0.00     0.008 C 
ENDBRANCH  19  20
ENDBRANCH  17  19
ENDBRANCH   1  17
BRANCH  16  22
HETATM   22  O3  UNL     1       5.637   7.499  21.574  1.00  0.00    -0.386 OA
ATOM     23  H3  UNL     1       6.299   7.922  21.042  1.00  0.00     0.210 HD
ENDBRANCH  16  22
BRANCH  10  24
HETATM   24  O2  UNL     1       7.676   7.265  18.514  1.00  0.00    -0.395 OA
ATOM     25  H2  UNL     1       8.576   7.493  18.313  1.00  0.00     0.210 HD
ENDBRANCH  10  24
TORSDOF 5
ENDMDL
MODEL 5
REMARK VINA RESULT: -5.074243152      4.970      7.915
REMARK  5 active torsions:
REMARK  status: ('A' for Active; 'I' for Inactive)
REMARK    1  A    between atoms: C2_2  and  C3_3 
REMARK    2  A    between atoms: C3_3  and  N1_4 
REMARK    3  A    between atoms: N1_4  and  C4_6 
REMARK    4  A    between atoms: C12_15  and  O2_16 
REMARK    5  A    between atoms: C18_23  and  O3_24 
ROOT
HETATM    1  C4  UNL     1       9.073   8.260  16.119  1.00  0.00     0.061 C 
HETATM    2  C5  UNL     1       9.308   7.347  14.904  1.00  0.00     0.041 C 
HETATM    3  C6  UNL     1       7.679   7.949  16.543  1.00  0.00     0.111 C 
HETATM    4  C7  UNL     1       7.618   6.891  17.601  1.00  0.00     0.129 C 
HETATM    5  O1  UNL     1       7.268   5.761  17.309  1.00  0.00    -0.298 OA
HETATM    6  C8  UNL     1       7.940   7.019  19.051  1.00  0.00     0.083 C 
HETATM    7  C9  UNL     1       8.631   8.349  19.188  1.00  0.00    -0.002 C 
HETATM    8  C10 UNL     1       8.624   8.922  20.559  1.00  0.00     0.011 C 
HETATM    9  C11 UNL     1       9.952   8.319  18.553  1.00  0.00     0.056 C 
HETATM   10  C12 UNL     1      10.881   7.384  19.350  1.00  0.00     0.125 C 
HETATM   11  C13 UNL     1      12.276   7.961  19.146  1.00  0.00     0.033 C 
HETATM   12  C14 UNL     1      12.561   8.007  17.714  1.00  0.00     0.014 C 
HETATM   13  C15 UNL     1      11.481   8.584  16.801  1.00  0.00    -0.014 C 
HETATM   14  C16 UNL     1      12.038   8.197  15.426  1.00  0.00     0.018 C 
HETATM   15  C17 UNL     1      11.613  10.061  16.811  1.00  0.00     0.018 C 
HETATM   16  C18 UNL     1      10.135   8.014  17.133  1.00  0.00     0.096 C 
ENDROOT
BRANCH   1  17
HETATM   17  N1  UNL     1       9.091   9.640  15.675  1.00  0.00    -0.407 N 
ATOM     18  H1  UNL     1       9.948  10.108  15.381  1.00  0.00     0.154 HD
BRANCH  17  19
HETATM   19  C3  UNL     1       7.823  10.295  15.680  1.00  0.00     0.141 C 
BRANCH  19  20
HETATM   20  C2  UNL     1       7.428  10.685  14.300  1.00  0.00    -0.018 C 
HETATM   21  C1  UNL     1       8.315  10.707  13.315  1.00  0.00     0.008 C 
ENDBRANCH  19  20
ENDBRANCH  17  19
ENDBRANCH   1  17
BRANCH  16  22
HETATM   22  O3  UNL     1      10.281   6.601  17.071  1.00  0.00    -0.386 OA
ATOM     23  H3  UNL     1       9.714   6.375  16.344  1.00  0.00     0.210 HD
ENDBRANCH  16  22
BRANCH  10  24
HETATM   24  O2  UNL     1      10.582   7.292  20.679  1.00  0.00    -0.395 OA
ATOM     25  H2  UNL     1      10.415   8.126  21.102  1.00  0.00     0.210 HD
ENDBRANCH  10  24
TORSDOF 5
ENDMDL
