MODEL 1
REMARK VINA RESULT: -7.648380576      0.000      0.000
REMARK  9 active torsions:
REMARK  status: ('A' for Active; 'I' for Inactive)
REMARK    1  A    between atoms: C5_5  and  O1_6 
REMARK    2  A    between atoms: C8_10  and  O2_11 
REMARK    3  A    between atoms: C10_14  and  O3_15 
REMARK    4  A    between atoms: O3_15  and  C11_16 
REMARK    5  A    between atoms: C11_16  and  C12_17 
REMARK    6  A    between atoms: C12_17  and  O4_18 
REMARK    7  A    between atoms: O4_18  and  C13_19 
REMARK    8  A    between atoms: C13_19  and  C14_20 
REMARK    9  A    between atoms: C14_20  and  O5_21 
ROOT
HETATM    1  C1  UNL     1      -7.499  12.765  17.332  1.00  0.00     0.010 C 
HETATM    2  C2  UNL     1      -8.025  11.462  16.777  1.00  0.00    -0.012 C 
HETATM    3  C3  UNL     1      -8.430  11.642  15.335  1.00  0.00     0.046 C 
HETATM    4  C4  UNL     1      -7.397  11.124  14.405  1.00  0.00    -0.013 A 
HETATM    5  C5  UNL     1      -7.029  11.845  13.321  1.00  0.00     0.079 A 
HETATM    6  C6  UNL     1      -6.020  11.404  12.447  1.00  0.00    -0.015 A 
HETATM    7  C7  UNL     1      -5.432  10.196  12.768  1.00  0.00    -0.011 A 
HETATM    8  C8  UNL     1      -5.805   9.451  13.877  1.00  0.00     0.082 A 
HETATM    9  C9  UNL     1      -6.784   9.880  14.718  1.00  0.00     0.014 A 
HETATM   10  C10 UNL     1      -7.337   9.279  15.910  1.00  0.00     0.164 C 
HETATM   11  C15 UNL     1      -7.056  10.335  17.023  1.00  0.00     0.042 C 
HETATM   12  C16 UNL     1      -4.329   9.641  11.914  1.00  0.00     0.018 C 
HETATM   13  C17 UNL     1      -4.809   8.569  10.981  1.00  0.00     0.015 C 
HETATM   14  C18 UNL     1      -3.730  10.761  11.080  1.00  0.00     0.009 C 
HETATM   15  C19 UNL     1      -4.809  11.462  10.323  1.00  0.00     0.005 C 
HETATM   16  C20 UNL     1      -5.676  12.231  11.274  1.00  0.00     0.042 C 
ENDROOT
BRANCH  10  17
HETATM   17  O3  UNL     1      -7.065   8.035  16.318  1.00  0.00    -0.351 OA
BRANCH  17  18
HETATM   18  C11 UNL     1      -7.695   7.005  15.719  1.00  0.00     0.159 C 
BRANCH  18  19
HETATM   19  C12 UNL     1      -7.027   5.766  15.293  1.00  0.00     0.158 C 
BRANCH  19  20
HETATM   20  O4  UNL     1      -6.610   4.832  16.161  1.00  0.00    -0.359 OA
BRANCH  20  21
HETATM   21  C13 UNL     1      -5.610   4.034  15.759  1.00  0.00     0.200 C 
BRANCH  21  22
HETATM   22  C14 UNL     1      -6.090   2.657  15.295  1.00  0.00     0.190 C 
BRANCH  22  23
HETATM   23  O5  UNL     1      -6.606   1.935  16.369  1.00  0.00    -0.399 OA
ATOM     24  H5  UNL     1      -7.374   2.370  16.721  1.00  0.00     0.209 HD
ENDBRANCH  22  23
ENDBRANCH  21  22
ENDBRANCH  20  21
ENDBRANCH  19  20
ENDBRANCH  18  19
ENDBRANCH  17  18
ENDBRANCH  10  17
BRANCH   8  25
HETATM   25  O2  UNL     1      -5.159   8.273  14.109  1.00  0.00    -0.359 OA
ATOM     26  H2  UNL     1      -5.620   7.594  14.588  1.00  0.00     0.217 HD
ENDBRANCH   8  25
BRANCH   5  27
HETATM   27  O1  UNL     1      -7.634  13.073  13.015  1.00  0.00    -0.360 OA
ATOM     28  H1  UNL     1      -7.150  13.890  13.049  1.00  0.00     0.217 HD
ENDBRANCH   5  27
TORSDOF 9
ENDMDL
MODEL 2
REMARK VINA RESULT: -6.907526832      0.850      1.250
REMARK  9 active torsions:
REMARK  status: ('A' for Active; 'I' for Inactive)
REMARK    1  A    between atoms: C5_5  and  O1_6 
REMARK    2  A    between atoms: C8_10  and  O2_11 
REMARK    3  A    between atoms: C10_14  and  O3_15 
REMARK    4  A    between atoms: O3_15  and  C11_16 
REMARK    5  A    between atoms: C11_16  and  C12_17 
REMARK    6  A    between atoms: C12_17  and  O4_18 
REMARK    7  A    between atoms: O4_18  and  C13_19 
REMARK    8  A    between atoms: C13_19  and  C14_20 
REMARK    9  A    between atoms: C14_20  and  O5_21 
ROOT
HETATM    1  C1  UNL     1      -7.361  12.974  17.314  1.00  0.00     0.010 C 
HETATM    2  C2  UNL     1      -7.931  11.676  16.791  1.00  0.00    -0.012 C 
HETATM    3  C3  UNL     1      -8.367  11.845  15.357  1.00  0.00     0.046 C 
HETATM    4  C4  UNL     1      -7.369  11.288  14.410  1.00  0.00    -0.013 A 
HETATM    5  C5  UNL     1      -7.010  11.984  13.307  1.00  0.00     0.079 A 
HETATM    6  C6  UNL     1      -6.033  11.506  12.416  1.00  0.00    -0.015 A 
HETATM    7  C7  UNL     1      -5.467  10.290  12.741  1.00  0.00    -0.011 A 
HETATM    8  C8  UNL     1      -5.830   9.570  13.870  1.00  0.00     0.082 A 
HETATM    9  C9  UNL     1      -6.779  10.035  14.727  1.00  0.00     0.014 A 
HETATM   10  C10 UNL     1      -7.317   9.465  15.941  1.00  0.00     0.164 C 
HETATM   11  C15 UNL     1      -6.984  10.530  17.031  1.00  0.00     0.042 C 
HETATM   12  C16 UNL     1      -4.399   9.695  11.870  1.00  0.00     0.018 C 
HETATM   13  C17 UNL     1      -4.927   8.621  10.965  1.00  0.00     0.015 C 
HETATM   14  C18 UNL     1      -3.793  10.788  11.005  1.00  0.00     0.009 C 
HETATM   15  C19 UNL     1      -4.873  11.504  10.263  1.00  0.00     0.005 C 
HETATM   16  C20 UNL     1      -5.699  12.307  11.222  1.00  0.00     0.042 C 
ENDROOT
BRANCH  10  17
HETATM   17  O3  UNL     1      -7.065   8.221  16.361  1.00  0.00    -0.351 OA
BRANCH  17  18
HETATM   18  C11 UNL     1      -7.883   7.226  15.966  1.00  0.00     0.159 C 
BRANCH  18  19
HETATM   19  C12 UNL     1      -7.418   5.905  15.516  1.00  0.00     0.158 C 
BRANCH  19  20
HETATM   20  O4  UNL     1      -6.617   5.127  16.260  1.00  0.00    -0.359 OA
BRANCH  20  21
HETATM   21  C13 UNL     1      -5.477   4.710  15.689  1.00  0.00     0.200 C 
BRANCH  21  22
HETATM   22  C14 UNL     1      -4.527   5.856  15.334  1.00  0.00     0.190 C 
BRANCH  22  23
HETATM   23  O5  UNL     1      -3.251   5.600  15.832  1.00  0.00    -0.399 OA
ATOM     24  H5  UNL     1      -2.768   5.045  15.232  1.00  0.00     0.209 HD
ENDBRANCH  22  23
ENDBRANCH  21  22
ENDBRANCH  20  21
ENDBRANCH  19  20
ENDBRANCH  18  19
ENDBRANCH  17  18
ENDBRANCH  10  17
BRANCH   8  25
HETATM   25  O2  UNL     1      -5.207   8.379  14.104  1.00  0.00    -0.359 OA
ATOM     26  H2  UNL     1      -4.366   8.224  13.693  1.00  0.00     0.217 HD
ENDBRANCH   8  25
BRANCH   5  27
HETATM   27  O1  UNL     1      -7.593  13.222  12.997  1.00  0.00    -0.360 OA
ATOM     28  H1  UNL     1      -7.118  13.890  12.516  1.00  0.00     0.217 HD
ENDBRANCH   5  27
TORSDOF 9
ENDMDL
MODEL 3
REMARK VINA RESULT: -6.151000555      3.020      6.685
REMARK  9 active torsions:
REMARK  status: ('A' for Active; 'I' for Inactive)
REMARK    1  A    between atoms: C5_5  and  O1_6 
REMARK    2  A    between atoms: C8_10  and  O2_11 
REMARK    3  A    between atoms: C10_14  and  O3_15 
REMARK    4  A    between atoms: O3_15  and  C11_16 
REMARK    5  A    between atoms: C11_16  and  C12_17 
REMARK    6  A    between atoms: C12_17  and  O4_18 
REMARK    7  A    between atoms: O4_18  and  C13_19 
REMARK    8  A    between atoms: C13_19  and  C14_20 
REMARK    9  A    between atoms: C14_20  and  O5_21 
ROOT
HETATM    1  C1  UNL     1      -2.873   6.430  15.648  1.00  0.00     0.010 C 
HETATM    2  C2  UNL     1      -3.505   6.685  14.300  1.00  0.00    -0.012 C 
HETATM    3  C3  UNL     1      -5.008   6.681  14.426  1.00  0.00     0.046 C 
HETATM    4  C4  UNL     1      -5.560   8.058  14.464  1.00  0.00    -0.013 A 
HETATM    5  C5  UNL     1      -6.512   8.388  15.367  1.00  0.00     0.079 A 
HETATM    6  C6  UNL     1      -7.021   9.695  15.460  1.00  0.00    -0.015 A 
HETATM    7  C7  UNL     1      -6.487  10.613  14.578  1.00  0.00    -0.011 A 
HETATM    8  C8  UNL     1      -5.511  10.282  13.649  1.00  0.00     0.082 A 
HETATM    9  C9  UNL     1      -5.024   9.015  13.560  1.00  0.00     0.014 A 
HETATM   10  C10 UNL     1      -4.030   8.444  12.680  1.00  0.00     0.164 C 
HETATM   11  C15 UNL     1      -2.930   7.919  13.654  1.00  0.00     0.042 C 
HETATM   12  C16 UNL     1      -6.944  12.043  14.605  1.00  0.00     0.018 C 
HETATM   13  C17 UNL     1      -7.931  12.351  13.518  1.00  0.00     0.015 C 
HETATM   14  C18 UNL     1      -7.604  12.333  15.942  1.00  0.00     0.009 C 
HETATM   15  C19 UNL     1      -8.681  11.331  16.202  1.00  0.00     0.005 C 
HETATM   16  C20 UNL     1      -8.070   9.986  16.457  1.00  0.00     0.042 C 
ENDROOT
BRANCH  10  17
HETATM   17  O3  UNL     1      -3.506   9.080  11.627  1.00  0.00    -0.351 OA
BRANCH  17  18
HETATM   18  C11 UNL     1      -4.243   9.186  10.504  1.00  0.00     0.159 C 
BRANCH  18  19
HETATM   19  C12 UNL     1      -4.090  10.266   9.517  1.00  0.00     0.158 C 
BRANCH  19  20
HETATM   20  O4  UNL     1      -3.942  10.033   8.204  1.00  0.00    -0.359 OA
BRANCH  20  21
HETATM   21  C13 UNL     1      -4.036   8.758   7.800  1.00  0.00     0.200 C 
BRANCH  21  22
HETATM   22  C14 UNL     1      -4.453   8.621   6.334  1.00  0.00     0.190 C 
BRANCH  22  23
HETATM   23  O5  UNL     1      -3.447   9.099   5.497  1.00  0.00    -0.399 OA
ATOM     24  H5  UNL     1      -3.570   8.773   4.613  1.00  0.00     0.209 HD
ENDBRANCH  22  23
ENDBRANCH  21  22
ENDBRANCH  20  21
ENDBRANCH  19  20
ENDBRANCH  18  19
ENDBRANCH  17  18
ENDBRANCH  10  17
BRANCH   8  25
HETATM   25  O2  UNL     1      -5.045  11.263  12.825  1.00  0.00    -0.359 OA
ATOM     26  H2  UNL     1      -4.308  11.785  13.120  1.00  0.00     0.217 HD
ENDBRANCH   8  25
BRANCH   5  27
HETATM   27  O1  UNL     1      -7.039   7.442  16.259  1.00  0.00    -0.360 OA
ATOM     28  H1  UNL     1      -7.853   6.987  16.078  1.00  0.00     0.217 HD
ENDBRANCH   5  27
TORSDOF 9
ENDMDL
MODEL 4
REMARK VINA RESULT: -5.685544353      2.411      5.343
REMARK  9 active torsions:
REMARK  status: ('A' for Active; 'I' for Inactive)
REMARK    1  A    between atoms: C5_5  and  O1_6 
REMARK    2  A    between atoms: C8_10  and  O2_11 
REMARK    3  A    between atoms: C10_14  and  O3_15 
REMARK    4  A    between atoms: O3_15  and  C11_16 
REMARK    5  A    between atoms: C11_16  and  C12_17 
REMARK    6  A    between atoms: C12_17  and  O4_18 
REMARK    7  A    between atoms: O4_18  and  C13_19 
REMARK    8  A    between atoms: C13_19  and  C14_20 
REMARK    9  A    between atoms: C14_20  and  O5_21 
ROOT
HETATM    1  C1  UNL     1      -6.311   5.664  14.582  1.00  0.00     0.010 C 
HETATM    2  C2  UNL     1      -6.075   6.958  15.325  1.00  0.00    -0.012 C 
HETATM    3  C3  UNL     1      -4.801   7.605  14.841  1.00  0.00     0.046 C 
HETATM    4  C4  UNL     1      -5.073   8.706  13.883  1.00  0.00    -0.013 A 
HETATM    5  C5  UNL     1      -4.350   8.816  12.745  1.00  0.00     0.079 A 
HETATM    6  C6  UNL     1      -4.614   9.818  11.795  1.00  0.00    -0.015 A 
HETATM    7  C7  UNL     1      -5.654  10.674  12.098  1.00  0.00    -0.011 A 
HETATM    8  C8  UNL     1      -6.399  10.568  13.263  1.00  0.00     0.082 A 
HETATM    9  C9  UNL     1      -6.137   9.598  14.180  1.00  0.00     0.014 A 
HETATM   10  C10 UNL     1      -6.764   9.304  15.449  1.00  0.00     0.164 C 
HETATM   11  C15 UNL     1      -7.291   7.846  15.273  1.00  0.00     0.042 C 
HETATM   12  C16 UNL     1      -6.035  11.769  11.143  1.00  0.00     0.018 C 
HETATM   13  C17 UNL     1      -5.499  13.107  11.560  1.00  0.00     0.015 C 
HETATM   14  C18 UNL     1      -5.484  11.446   9.765  1.00  0.00     0.009 C 
HETATM   15  C19 UNL     1      -4.017  11.183   9.855  1.00  0.00     0.005 C 
HETATM   16  C20 UNL     1      -3.777   9.893  10.581  1.00  0.00     0.042 C 
ENDROOT
BRANCH  10  17
HETATM   17  O3  UNL     1      -7.664  10.094  16.042  1.00  0.00    -0.351 OA
BRANCH  17  18
HETATM   18  C11 UNL     1      -7.992   9.851  17.327  1.00  0.00     0.159 C 
BRANCH  18  19
HETATM   19  C12 UNL     1      -8.720  10.798  18.185  1.00  0.00     0.158 C 
BRANCH  19  20
HETATM   20  O4  UNL     1      -9.084  12.021  17.770  1.00  0.00    -0.359 OA
BRANCH  20  21
HETATM   21  C13 UNL     1      -8.374  13.058  18.241  1.00  0.00     0.200 C 
BRANCH  21  22
HETATM   22  C14 UNL     1      -6.952  13.117  17.679  1.00  0.00     0.190 C 
BRANCH  22  23
HETATM   23  O5  UNL     1      -6.030  12.729  18.649  1.00  0.00    -0.399 OA
ATOM     24  H5  UNL     1      -6.442  12.704  19.505  1.00  0.00     0.209 HD
ENDBRANCH  22  23
ENDBRANCH  21  22
ENDBRANCH  20  21
ENDBRANCH  19  20
ENDBRANCH  18  19
ENDBRANCH  17  18
ENDBRANCH  10  17
BRANCH   8  25
HETATM   25  O2  UNL     1      -7.410  11.461  13.466  1.00  0.00    -0.359 OA
ATOM     26  H2  UNL     1      -7.275  12.362  13.199  1.00  0.00     0.217 HD
ENDBRANCH   8  25
BRANCH   5  27
HETATM   27  O1  UNL     1      -3.300   7.933  12.453  1.00  0.00    -0.360 OA
ATOM     28  H1  UNL     1      -2.602   8.170  11.852  1.00  0.00     0.217 HD
ENDBRANCH   5  27
TORSDOF 9
ENDMDL
MODEL 5
REMARK VINA RESULT: -5.606803725      2.005      6.589
REMARK  9 active torsions:
REMARK  status: ('A' for Active; 'I' for Inactive)
REMARK    1  A    between atoms: C5_5  and  O1_6 
REMARK    2  A    between atoms: C8_10  and  O2_11 
REMARK    3  A    between atoms: C10_14  and  O3_15 
REMARK    4  A    between atoms: O3_15  and  C11_16 
REMARK    5  A    between atoms: C11_16  and  C12_17 
REMARK    6  A    between atoms: C12_17  and  O4_18 
REMARK    7  A    between atoms: O4_18  and  C13_19 
REMARK    8  A    between atoms: C13_19  and  C14_20 
REMARK    9  A    between atoms: C14_20  and  O5_21 
ROOT
HETATM    1  C1  UNL     1      -3.528   5.922  15.893  1.00  0.00     0.010 C 
HETATM    2  C2  UNL     1      -4.060   6.346  14.544  1.00  0.00    -0.012 C 
HETATM    3  C3  UNL     1      -5.558   6.505  14.606  1.00  0.00     0.046 C 
HETATM    4  C4  UNL     1      -5.955   7.930  14.729  1.00  0.00    -0.013 A 
HETATM    5  C5  UNL     1      -6.908   8.299  15.615  1.00  0.00     0.079 A 
HETATM    6  C6  UNL     1      -7.273   9.647  15.789  1.00  0.00    -0.015 A 
HETATM    7  C7  UNL     1      -6.596  10.559  15.005  1.00  0.00    -0.011 A 
HETATM    8  C8  UNL     1      -5.619  10.187  14.094  1.00  0.00     0.082 A 
HETATM    9  C9  UNL     1      -5.272   8.882  13.926  1.00  0.00     0.014 A 
HETATM   10  C10 UNL     1      -4.304   8.267  13.047  1.00  0.00     0.164 C 
HETATM   11  C15 UNL     1      -3.320   7.550  14.021  1.00  0.00     0.042 C 
HETATM   12  C16 UNL     1      -6.892  12.026  15.124  1.00  0.00     0.018 C 
HETATM   13  C17 UNL     1      -7.784  12.524  14.025  1.00  0.00     0.015 C 
HETATM   14  C18 UNL     1      -7.583  12.291  16.451  1.00  0.00     0.009 C 
HETATM   15  C19 UNL     1      -8.776  11.403  16.587  1.00  0.00     0.005 C 
HETATM   16  C20 UNL     1      -8.332   9.982  16.761  1.00  0.00     0.042 C 
ENDROOT
BRANCH  10  17
HETATM   17  O3  UNL     1      -3.661   8.914  12.069  1.00  0.00    -0.351 OA
BRANCH  17  18
HETATM   18  C11 UNL     1      -4.251   9.015  10.862  1.00  0.00     0.159 C 
BRANCH  18  19
HETATM   19  C12 UNL     1      -4.186  10.211  10.009  1.00  0.00     0.158 C 
BRANCH  19  20
HETATM   20  O4  UNL     1      -4.616  11.415  10.416  1.00  0.00    -0.359 OA
BRANCH  20  21
HETATM   21  C13 UNL     1      -5.841  11.789  10.015  1.00  0.00     0.200 C 
BRANCH  21  22
HETATM   22  C14 UNL     1      -6.606  12.578  11.079  1.00  0.00     0.190 C 
BRANCH  22  23
HETATM   23  O5  UNL     1      -5.908  13.735  11.421  1.00  0.00    -0.399 OA
ATOM     24  H5  UNL     1      -6.457  14.500  11.298  1.00  0.00     0.209 HD
ENDBRANCH  22  23
ENDBRANCH  21  22
ENDBRANCH  20  21
ENDBRANCH  19  20
ENDBRANCH  18  19
ENDBRANCH  17  18
ENDBRANCH  10  17
BRANCH   8  25
HETATM   25  O2  UNL     1      -5.005  11.166  13.370  1.00  0.00    -0.359 OA
ATOM     26  H2  UNL     1      -5.195  12.071  13.585  1.00  0.00     0.217 HD
ENDBRANCH   8  25
BRANCH   5  27
HETATM   27  O1  UNL     1      -7.581   7.358  16.407  1.00  0.00    -0.360 OA
ATOM     28  H1  UNL     1      -8.530   7.336  16.457  1.00  0.00     0.217 HD
ENDBRANCH   5  27
TORSDOF 9
ENDMDL
