MODEL 1
REMARK VINA RESULT: -6.552299937      0.000      0.000
REMARK  5 active torsions:
REMARK  status: ('A' for Active; 'I' for Inactive)
REMARK    1  A    between atoms: N2_7  and  C5_9 
REMARK    2  A    between atoms: C9_13  and  C10_14 
REMARK    3  A    between atoms: C10_14  and  C11_15 
REMARK    4  A    between atoms: C12_19  and  C14_22 
REMARK    5  A    between atoms: C14_22  and  C15_23 
ROOT
HETATM    1  C1  UNL     1       8.956   7.625  22.663  1.00  0.00     0.041 C 
HETATM    2  C2  UNL     1       9.789   6.479  22.016  1.00  0.00     0.055 C 
HETATM    3  C3  UNL     1      11.071   6.441  22.730  1.00  0.00     0.041 C 
HETATM    4  N1  UNL     1       8.987   5.315  22.315  1.00  0.00    -0.360 N 
ATOM      5  H1  UNL     1       9.301   4.565  22.931  1.00  0.00     0.162 HD
HETATM    6  C4  UNL     1       7.730   5.311  21.676  1.00  0.00     0.138 C 
HETATM    7  N2  UNL     1       6.653   4.745  22.008  1.00  0.00    -0.366 N 
ATOM      8  H2  UNL     1       5.858   4.885  21.383  1.00  0.00     0.162 HD
HETATM    9  S1  UNL     1       7.956   6.321  20.217  1.00  0.00    -0.066 SA
HETATM   10  C12 UNL     1       9.747   6.724  20.574  1.00  0.00     0.135 C 
HETATM   11  C13 UNL     1       9.874   8.157  20.226  1.00  0.00     0.083 C 
HETATM   12  N3  UNL     1       9.980   9.280  19.974  1.00  0.00    -0.195 NA
ENDROOT
BRANCH  10  13
HETATM   13  C14 UNL     1      10.486   5.881  19.633  1.00  0.00     0.115 C 
BRANCH  13  14
HETATM   14  C15 UNL     1      10.898   6.396  18.344  1.00  0.00     0.083 A 
HETATM   15  N4  UNL     1      10.151   6.521  17.246  1.00  0.00    -0.354 N 
HETATM   16  C16 UNL     1      10.917   7.006  16.270  1.00  0.00     0.106 A 
ATOM     17  H4  UNL     1       9.162   6.285  17.166  1.00  0.00     0.166 HD
HETATM   18  C17 UNL     1      12.172   7.192  16.759  1.00  0.00     0.106 A 
HETATM   19  N5  UNL     1      12.130   6.810  18.031  1.00  0.00    -0.354 N 
ATOM     20  H5  UNL     1      12.922   6.829  18.674  1.00  0.00     0.166 HD
ENDBRANCH  13  14
ENDBRANCH  10  13
BRANCH   7  21
HETATM   21  C5  UNL     1       6.418   3.931  23.156  1.00  0.00     0.088 C 
HETATM   22  C6  UNL     1       4.913   3.632  23.194  1.00  0.00     0.025 C 
HETATM   23  C7  UNL     1       4.376   5.060  23.339  1.00  0.00     0.002 C 
HETATM   24  C8  UNL     1       5.293   5.620  24.383  1.00  0.00     0.007 C 
HETATM   25  C9  UNL     1       6.549   4.814  24.386  1.00  0.00     0.018 C 
BRANCH  25  26
HETATM   26  C10 UNL     1       6.609   4.003  25.656  1.00  0.00     0.119 C 
BRANCH  26  27
HETATM   27  C11 UNL     1       7.934   3.332  25.687  1.00  0.00     0.172 C 
HETATM   28  O1  UNL     1       8.098   2.162  26.132  1.00  0.00    -0.648 OA
HETATM   29  O2  UNL     1       9.093   3.964  25.220  1.00  0.00    -0.648 OA
ENDBRANCH  26  27
ENDBRANCH  25  26
ENDBRANCH   7  21
TORSDOF 5
ENDMDL
MODEL 2
REMARK VINA RESULT: -6.374321819      1.403      1.659
REMARK  5 active torsions:
REMARK  status: ('A' for Active; 'I' for Inactive)
REMARK    1  A    between atoms: N2_7  and  C5_9 
REMARK    2  A    between atoms: C9_13  and  C10_14 
REMARK    3  A    between atoms: C10_14  and  C11_15 
REMARK    4  A    between atoms: C12_19  and  C14_22 
REMARK    5  A    between atoms: C14_22  and  C15_23 
ROOT
HETATM    1  C1  UNL     1      10.432   6.831  22.834  1.00  0.00     0.041 C 
HETATM    2  C2  UNL     1      10.456   5.883  21.598  1.00  0.00     0.055 C 
HETATM    3  C3  UNL     1      11.751   5.191  21.628  1.00  0.00     0.041 C 
HETATM    4  N1  UNL     1       9.370   4.976  21.891  1.00  0.00    -0.360 N 
ATOM      5  H1  UNL     1       9.507   3.981  22.073  1.00  0.00     0.162 HD
HETATM    6  C4  UNL     1       8.102   5.592  21.903  1.00  0.00     0.138 C 
HETATM    7  N2  UNL     1       7.046   5.265  22.509  1.00  0.00    -0.366 N 
ATOM      8  H2  UNL     1       6.237   5.871  22.368  1.00  0.00     0.162 HD
HETATM    9  S1  UNL     1       8.276   7.016  20.834  1.00  0.00    -0.066 SA
HETATM   10  C12 UNL     1      10.082   6.714  20.454  1.00  0.00     0.135 C 
HETATM   11  C13 UNL     1      10.693   8.062  20.493  1.00  0.00     0.083 C 
HETATM   12  N3  UNL     1      11.183   9.107  20.537  1.00  0.00    -0.195 NA
ENDROOT
BRANCH  10  13
HETATM   13  C14 UNL     1      10.064   6.178  19.092  1.00  0.00     0.115 C 
BRANCH  13  14
HETATM   14  C15 UNL     1       9.004   6.530  18.171  1.00  0.00     0.083 A 
HETATM   15  N4  UNL     1       7.937   5.799  17.847  1.00  0.00    -0.354 N 
HETATM   16  C16 UNL     1       7.226   6.472  16.944  1.00  0.00     0.106 A 
ATOM     17  H4  UNL     1       7.705   4.880  18.225  1.00  0.00     0.166 HD
HETATM   18  C17 UNL     1       7.854   7.651  16.692  1.00  0.00     0.106 A 
HETATM   19  N5  UNL     1       8.940   7.658  17.457  1.00  0.00    -0.354 N 
ATOM     20  H5  UNL     1       9.624   8.414  17.494  1.00  0.00     0.166 HD
ENDBRANCH  13  14
ENDBRANCH  10  13
BRANCH   7  21
HETATM   21  C5  UNL     1       6.851   4.143  23.371  1.00  0.00     0.088 C 
HETATM   22  C6  UNL     1       5.418   3.644  23.142  1.00  0.00     0.025 C 
HETATM   23  C7  UNL     1       4.644   4.892  23.581  1.00  0.00     0.002 C 
HETATM   24  C8  UNL     1       5.365   5.264  24.840  1.00  0.00     0.007 C 
HETATM   25  C9  UNL     1       6.731   4.666  24.793  1.00  0.00     0.018 C 
BRANCH  25  26
HETATM   26  C10 UNL     1       6.816   3.555  25.809  1.00  0.00     0.119 C 
BRANCH  26  27
HETATM   27  C11 UNL     1       8.244   3.154  25.904  1.00  0.00     0.172 C 
HETATM   28  O1  UNL     1       8.607   1.978  26.186  1.00  0.00    -0.648 OA
HETATM   29  O2  UNL     1       9.284   4.067  25.685  1.00  0.00    -0.648 OA
ENDBRANCH  26  27
ENDBRANCH  25  26
ENDBRANCH   7  21
TORSDOF 5
ENDMDL
MODEL 3
REMARK VINA RESULT: -6.300452616      0.917      1.142
REMARK  5 active torsions:
REMARK  status: ('A' for Active; 'I' for Inactive)
REMARK    1  A    between atoms: N2_7  and  C5_9 
REMARK    2  A    between atoms: C9_13  and  C10_14 
REMARK    3  A    between atoms: C10_14  and  C11_15 
REMARK    4  A    between atoms: C12_19  and  C14_22 
REMARK    5  A    between atoms: C14_22  and  C15_23 
ROOT
HETATM    1  C1  UNL     1       8.926   7.643  22.720  1.00  0.00     0.041 C 
HETATM    2  C2  UNL     1       9.807   6.502  22.129  1.00  0.00     0.055 C 
HETATM    3  C3  UNL     1      11.054   6.495  22.903  1.00  0.00     0.041 C 
HETATM    4  N1  UNL     1       9.010   5.329  22.408  1.00  0.00    -0.360 N 
ATOM      5  H1  UNL     1       9.306   4.593  23.049  1.00  0.00     0.162 HD
HETATM    6  C4  UNL     1       7.785   5.296  21.711  1.00  0.00     0.138 C 
HETATM    7  N2  UNL     1       6.702   4.716  22.000  1.00  0.00    -0.366 N 
ATOM      8  H2  UNL     1       5.935   4.834  21.337  1.00  0.00     0.162 HD
HETATM    9  S1  UNL     1       8.063   6.288  20.250  1.00  0.00    -0.066 SA
HETATM   10  C12 UNL     1       9.828   6.726  20.684  1.00  0.00     0.135 C 
HETATM   11  C13 UNL     1       9.948   8.156  20.321  1.00  0.00     0.083 C 
HETATM   12  N3  UNL     1      10.049   9.277  20.058  1.00  0.00    -0.195 NA
ENDROOT
BRANCH  10  13
HETATM   13  C14 UNL     1      10.624   5.883  19.791  1.00  0.00     0.115 C 
BRANCH  13  14
HETATM   14  C15 UNL     1      11.920   6.322  19.317  1.00  0.00     0.083 A 
HETATM   15  N4  UNL     1      12.212   6.840  18.123  1.00  0.00    -0.354 N 
HETATM   16  C16 UNL     1      13.521   7.082  18.079  1.00  0.00     0.106 A 
ATOM     17  H4  UNL     1      11.547   7.019  17.371  1.00  0.00     0.166 HD
HETATM   18  C17 UNL     1      14.068   6.711  19.267  1.00  0.00     0.106 A 
HETATM   19  N5  UNL     1      13.063   6.249  20.005  1.00  0.00    -0.354 N 
ATOM     20  H5  UNL     1      13.152   5.892  20.956  1.00  0.00     0.166 HD
ENDBRANCH  13  14
ENDBRANCH  10  13
BRANCH   7  21
HETATM   21  C5  UNL     1       6.426   3.914  23.148  1.00  0.00     0.088 C 
HETATM   22  C6  UNL     1       4.917   3.632  23.147  1.00  0.00     0.025 C 
HETATM   23  C7  UNL     1       4.393   5.068  23.265  1.00  0.00     0.002 C 
HETATM   24  C8  UNL     1       5.287   5.626  24.330  1.00  0.00     0.007 C 
HETATM   25  C9  UNL     1       6.533   4.806  24.374  1.00  0.00     0.018 C 
BRANCH  25  26
HETATM   26  C10 UNL     1       6.549   4.006  25.652  1.00  0.00     0.119 C 
BRANCH  26  27
HETATM   27  C11 UNL     1       7.865   3.320  25.725  1.00  0.00     0.172 C 
HETATM   28  O1  UNL     1       7.996   2.132  26.132  1.00  0.00    -0.648 OA
HETATM   29  O2  UNL     1       9.052   3.957  25.343  1.00  0.00    -0.648 OA
ENDBRANCH  26  27
ENDBRANCH  25  26
ENDBRANCH   7  21
TORSDOF 5
ENDMDL
MODEL 4
REMARK VINA RESULT: -6.125293963      3.324      4.972
REMARK  5 active torsions:
REMARK  status: ('A' for Active; 'I' for Inactive)
REMARK    1  A    between atoms: N2_7  and  C5_9 
REMARK    2  A    between atoms: C9_13  and  C10_14 
REMARK    3  A    between atoms: C10_14  and  C11_15 
REMARK    4  A    between atoms: C12_19  and  C14_22 
REMARK    5  A    between atoms: C14_22  and  C15_23 
ROOT
HETATM    1  C1  UNL     1       9.759   7.704  21.041  1.00  0.00     0.041 C 
HETATM    2  C2  UNL     1      10.158   7.389  22.514  1.00  0.00     0.055 C 
HETATM    3  C3  UNL     1      10.645   8.647  23.092  1.00  0.00     0.041 C 
HETATM    4  N1  UNL     1       8.892   7.000  23.094  1.00  0.00    -0.360 N 
ATOM      5  H1  UNL     1       8.425   7.538  23.825  1.00  0.00     0.162 HD
HETATM    6  C4  UNL     1       8.361   5.810  22.556  1.00  0.00     0.138 C 
HETATM    7  N2  UNL     1       7.166   5.416  22.480  1.00  0.00    -0.366 N 
ATOM      8  H2  UNL     1       7.017   4.506  22.042  1.00  0.00     0.162 HD
HETATM    9  S1  UNL     1       9.784   4.904  21.961  1.00  0.00    -0.066 SA
HETATM   10  C12 UNL     1      11.027   6.214  22.447  1.00  0.00     0.135 C 
HETATM   11  C13 UNL     1      11.973   6.258  21.310  1.00  0.00     0.083 C 
HETATM   12  N3  UNL     1      12.709   6.313  20.421  1.00  0.00    -0.195 NA
ENDROOT
BRANCH  10  13
HETATM   13  C14 UNL     1      11.661   5.662  23.646  1.00  0.00     0.115 C 
BRANCH  13  14
HETATM   14  C15 UNL     1      11.907   4.240  23.765  1.00  0.00     0.083 A 
HETATM   15  N4  UNL     1      11.256   3.369  24.538  1.00  0.00    -0.354 N 
HETATM   16  C16 UNL     1      11.813   2.169  24.377  1.00  0.00     0.106 A 
ATOM     17  H4  UNL     1      10.468   3.584  25.148  1.00  0.00     0.166 HD
HETATM   18  C17 UNL     1      12.834   2.283  23.487  1.00  0.00     0.106 A 
HETATM   19  N5  UNL     1      12.867   3.563  23.130  1.00  0.00    -0.354 N 
ATOM     20  H5  UNL     1      13.529   3.968  22.468  1.00  0.00     0.166 HD
ENDBRANCH  13  14
ENDBRANCH  10  13
BRANCH   7  21
HETATM   21  C5  UNL     1       5.997   6.095  22.938  1.00  0.00     0.088 C 
HETATM   22  C6  UNL     1       5.776   5.677  24.397  1.00  0.00     0.025 C 
HETATM   23  C7  UNL     1       5.568   4.171  24.199  1.00  0.00     0.002 C 
HETATM   24  C8  UNL     1       4.643   4.150  23.021  1.00  0.00     0.007 C 
HETATM   25  C9  UNL     1       4.793   5.439  22.283  1.00  0.00     0.018 C 
BRANCH  25  26
HETATM   26  C10 UNL     1       3.538   6.256  22.466  1.00  0.00     0.119 C 
BRANCH  26  27
HETATM   27  C11 UNL     1       2.622   5.909  21.348  1.00  0.00     0.172 C 
HETATM   28  O1  UNL     1       1.729   5.021  21.446  1.00  0.00    -0.648 OA
HETATM   29  O2  UNL     1       2.695   6.552  20.106  1.00  0.00    -0.648 OA
ENDBRANCH  26  27
ENDBRANCH  25  26
ENDBRANCH   7  21
TORSDOF 5
ENDMDL
MODEL 5
REMARK VINA RESULT: -6.113562233      3.465      7.417
REMARK  5 active torsions:
REMARK  status: ('A' for Active; 'I' for Inactive)
REMARK    1  A    between atoms: N2_7  and  C5_9 
REMARK    2  A    between atoms: C9_13  and  C10_14 
REMARK    3  A    between atoms: C10_14  and  C11_15 
REMARK    4  A    between atoms: C12_19  and  C14_22 
REMARK    5  A    between atoms: C14_22  and  C15_23 
ROOT
HETATM    1  C1  UNL     1       9.323   7.938  22.246  1.00  0.00     0.041 C 
HETATM    2  C2  UNL     1       8.174   6.914  22.003  1.00  0.00     0.055 C 
HETATM    3  C3  UNL     1       7.032   7.370  22.804  1.00  0.00     0.041 C 
HETATM    4  N1  UNL     1       7.920   7.074  20.588  1.00  0.00    -0.360 N 
ATOM      5  H1  UNL     1       7.044   7.441  20.217  1.00  0.00     0.162 HD
HETATM    6  C4  UNL     1       8.997   6.676  19.769  1.00  0.00     0.138 C 
HETATM    7  N2  UNL     1       9.314   7.050  18.607  1.00  0.00    -0.366 N 
ATOM      8  H2  UNL     1      10.147   6.619  18.205  1.00  0.00     0.162 HD
HETATM    9  S1  UNL     1       9.888   5.468  20.741  1.00  0.00    -0.066 SA
HETATM   10  C12 UNL     1       8.764   5.594  22.230  1.00  0.00     0.135 C 
HETATM   11  C13 UNL     1       9.687   5.565  23.387  1.00  0.00     0.083 C 
HETATM   12  N3  UNL     1      10.399   5.559  24.297  1.00  0.00    -0.195 NA
ENDROOT
BRANCH  10  13
HETATM   13  C14 UNL     1       7.959   4.374  22.161  1.00  0.00     0.115 C 
BRANCH  13  14
HETATM   14  C15 UNL     1       6.764   4.229  22.965  1.00  0.00     0.083 A 
HETATM   15  N4  UNL     1       6.689   4.140  24.294  1.00  0.00    -0.354 N 
HETATM   16  C16 UNL     1       5.409   3.986  24.632  1.00  0.00     0.106 A 
ATOM     17  H4  UNL     1       7.476   4.183  24.941  1.00  0.00     0.166 HD
HETATM   18  C17 UNL     1       4.661   3.977  23.498  1.00  0.00     0.106 A 
HETATM   19  N5  UNL     1       5.518   4.127  22.493  1.00  0.00    -0.354 N 
ATOM     20  H5  UNL     1       5.262   4.160  21.506  1.00  0.00     0.166 HD
ENDBRANCH  13  14
ENDBRANCH  10  13
BRANCH   7  21
HETATM   21  C5  UNL     1       8.640   8.006  17.789  1.00  0.00     0.088 C 
HETATM   22  C6  UNL     1       9.218   7.873  16.374  1.00  0.00     0.025 C 
HETATM   23  C7  UNL     1      10.679   8.238  16.662  1.00  0.00     0.002 C 
HETATM   24  C8  UNL     1      10.518   9.435  17.549  1.00  0.00     0.007 C 
HETATM   25  C9  UNL     1       9.159   9.385  18.164  1.00  0.00     0.018 C 
BRANCH  25  26
HETATM   26  C10 UNL     1       8.313  10.484  17.572  1.00  0.00     0.119 C 
BRANCH  26  27
HETATM   27  C11 UNL     1       7.740  11.255  18.706  1.00  0.00     0.172 C 
HETATM   28  O1  UNL     1       7.403  10.717  19.798  1.00  0.00    -0.648 OA
HETATM   29  O2  UNL     1       7.535  12.638  18.631  1.00  0.00    -0.648 OA
ENDBRANCH  26  27
ENDBRANCH  25  26
ENDBRANCH   7  21
TORSDOF 5
ENDMDL
