MODEL 1
REMARK VINA RESULT: -7.696386587      0.000      0.000
REMARK  10 active torsions:
REMARK  status: ('A' for Active; 'I' for Inactive)
REMARK    1  A    between atoms: N1_2  and  C2_3 
REMARK    2  A    between atoms: N1_2  and  C12_23 
REMARK    3  A    between atoms: N2_4  and  N3_6 
REMARK    4  A    between atoms: N3_6  and  C3_8 
REMARK    5  A    between atoms: C3_8  and  O1_9 
REMARK    6  A    between atoms: C3_8  and  C4_11 
REMARK    7  A    between atoms: C4_11  and  C5_12 
REMARK    8  A    between atoms: C5_12  and  C6_13 
REMARK       I    between atoms: C6_13  and  N4_15 
REMARK    9  A    between atoms: C10_19  and  C11_20 
REMARK   10  A    between atoms: C12_23  and  C13_24 
ROOT
HETATM    1  N3  UNL     1      19.849   5.441  13.928  1.00  0.00    -0.279 N 
ATOM      2  H3  UNL     1      20.507   5.803  14.617  1.00  0.00     0.189 HD
ENDROOT
BRANCH   1   3
HETATM    3  N2  UNL     1      20.138   4.266  13.123  1.00  0.00    -0.294 N 
HETATM    4  C2  UNL     1      20.333   4.455  11.858  1.00  0.00     0.195 C 
ATOM      5  H2  UNL     1      20.185   3.335  13.537  1.00  0.00     0.187 HD
BRANCH   4   6
HETATM    6  N1  UNL     1      20.617   3.332  11.046  1.00  0.00    -0.376 N 
HETATM    7  C1  UNL     1      21.129   3.582   9.702  1.00  0.00     0.150 C 
BRANCH   6   8
HETATM    8  C12 UNL     1      20.413   1.993  11.522  1.00  0.00     0.183 C 
BRANCH   8   9
HETATM    9  C13 UNL     1      18.998   1.507  11.275  1.00  0.00     0.277 C 
HETATM   10  O4  UNL     1      19.017   0.119  11.324  1.00  0.00    -0.360 OA
HETATM   11  C14 UNL     1      18.097  -0.486  10.503  1.00  0.00     0.171 C 
HETATM   12  C15 UNL     1      16.855   0.326  10.265  1.00  0.00     0.028 C 
HETATM   13  C16 UNL     1      16.280   0.944  11.497  1.00  0.00     0.028 C 
HETATM   14  C17 UNL     1      17.247   1.012  12.648  1.00  0.00     0.171 C 
HETATM   15  O5  UNL     1      18.210   1.958  12.325  1.00  0.00    -0.360 OA
ENDBRANCH   8   9
ENDBRANCH   6   8
ENDBRANCH   4   6
ENDBRANCH   1   3
BRANCH   1  16
HETATM   16  C3  UNL     1      18.626   6.031  13.696  1.00  0.00     0.154 C 
BRANCH  16  17
HETATM   17  O1  UNL     1      18.691   7.343  13.420  1.00  0.00    -0.345 OA
ATOM     18  H1  UNL     1      18.209   7.602  12.643  1.00  0.00     0.219 HD
ENDBRANCH  16  17
BRANCH  16  19
HETATM   19  C4  UNL     1      17.304   5.529  13.691  1.00  0.00     0.062 C 
BRANCH  19  20
HETATM   20  C5  UNL     1      16.699   4.535  14.174  1.00  0.00     0.078 C 
BRANCH  20  21
HETATM   21  C6  UNL     1      16.980   3.590  15.192  1.00  0.00     0.244 C 
HETATM   22  O2  UNL     1      18.097   3.145  15.453  1.00  0.00    -0.268 OA
HETATM   23  N4  UNL     1      15.910   3.066  16.030  1.00  0.00    -0.336 N 
HETATM   24  C7  UNL     1      14.532   3.422  15.954  1.00  0.00     0.127 C 
HETATM   25  C10 UNL     1      16.128   2.089  17.066  1.00  0.00     0.176 C 
HETATM   26  C8  UNL     1      14.063   3.226  17.406  1.00  0.00     0.022 C 
HETATM   27  C9  UNL     1      14.833   2.012  17.827  1.00  0.00     0.036 C 
BRANCH  25  28
HETATM   28  C11 UNL     1      16.478   0.756  16.491  1.00  0.00     0.254 C 
HETATM   29  N5  UNL     1      15.447  -0.162  16.243  1.00  0.00    -0.060 NA
HETATM   30  O3  UNL     1      17.673   0.502  16.248  1.00  0.00    -0.275 OA
ENDBRANCH  25  28
ENDBRANCH  20  21
ENDBRANCH  19  20
ENDBRANCH  16  19
ENDBRANCH   1  16
TORSDOF 10
ENDMDL
MODEL 2
REMARK VINA RESULT: -7.651452420      1.647      4.269
REMARK  10 active torsions:
REMARK  status: ('A' for Active; 'I' for Inactive)
REMARK    1  A    between atoms: N1_2  and  C2_3 
REMARK    2  A    between atoms: N1_2  and  C12_23 
REMARK    3  A    between atoms: N2_4  and  N3_6 
REMARK    4  A    between atoms: N3_6  and  C3_8 
REMARK    5  A    between atoms: C3_8  and  O1_9 
REMARK    6  A    between atoms: C3_8  and  C4_11 
REMARK    7  A    between atoms: C4_11  and  C5_12 
REMARK    8  A    between atoms: C5_12  and  C6_13 
REMARK       I    between atoms: C6_13  and  N4_15 
REMARK    9  A    between atoms: C10_19  and  C11_20 
REMARK   10  A    between atoms: C12_23  and  C13_24 
ROOT
HETATM    1  N3  UNL     1      19.557   0.997  11.561  1.00  0.00    -0.279 N 
ATOM      2  H3  UNL     1      20.250   0.249  11.569  1.00  0.00     0.189 HD
ENDROOT
BRANCH   1   3
HETATM    3  N2  UNL     1      19.926   2.397  11.695  1.00  0.00    -0.294 N 
HETATM    4  C2  UNL     1      19.837   3.131  10.634  1.00  0.00     0.195 C 
ATOM      5  H2  UNL     1      20.240   2.782  12.585  1.00  0.00     0.187 HD
BRANCH   4   6
HETATM    6  N1  UNL     1      20.188   4.498  10.730  1.00  0.00    -0.376 N 
HETATM    7  C1  UNL     1      19.968   5.336   9.555  1.00  0.00     0.150 C 
BRANCH   6   8
HETATM    8  C12 UNL     1      20.738   5.046  11.937  1.00  0.00     0.183 C 
BRANCH   8   9
HETATM    9  C13 UNL     1      19.667   5.629  12.839  1.00  0.00     0.277 C 
HETATM   10  O4  UNL     1      19.600   4.835  13.978  1.00  0.00    -0.360 OA
HETATM   11  C14 UNL     1      18.348   4.757  14.537  1.00  0.00     0.171 C 
HETATM   12  C15 UNL     1      17.497   5.976  14.315  1.00  0.00     0.028 C 
HETATM   13  C16 UNL     1      18.205   7.270  14.549  1.00  0.00     0.028 C 
HETATM   14  C17 UNL     1      19.705   7.151  14.537  1.00  0.00     0.171 C 
HETATM   15  O5  UNL     1      20.089   6.893  13.228  1.00  0.00    -0.360 OA
ENDBRANCH   8   9
ENDBRANCH   6   8
ENDBRANCH   4   6
ENDBRANCH   1   3
BRANCH   1  16
HETATM   16  C3  UNL     1      18.210   0.750  11.423  1.00  0.00     0.154 C 
BRANCH  16  17
HETATM   17  O1  UNL     1      17.852   0.303  10.209  1.00  0.00    -0.345 OA
ATOM     18  H1  UNL     1      17.689   0.990   9.572  1.00  0.00     0.219 HD
ENDBRANCH  16  17
BRANCH  16  19
HETATM   19  C4  UNL     1      17.116   0.872  12.312  1.00  0.00     0.062 C 
BRANCH  19  20
HETATM   20  C5  UNL     1      16.808   1.604  13.290  1.00  0.00     0.078 C 
BRANCH  20  21
HETATM   21  C6  UNL     1      16.625   1.394  14.679  1.00  0.00     0.244 C 
HETATM   22  O2  UNL     1      17.203   0.537  15.346  1.00  0.00    -0.268 OA
HETATM   23  N4  UNL     1      15.696   2.223  15.436  1.00  0.00    -0.336 N 
HETATM   24  C7  UNL     1      14.911   3.295  14.918  1.00  0.00     0.127 C 
HETATM   25  C10 UNL     1      15.450   2.045  16.844  1.00  0.00     0.176 C 
HETATM   26  C8  UNL     1      14.769   4.217  16.141  1.00  0.00     0.022 C 
HETATM   27  C9  UNL     1      14.632   3.236  17.264  1.00  0.00     0.036 C 
BRANCH  25  28
HETATM   28  C11 UNL     1      14.708   0.778  17.111  1.00  0.00     0.254 C 
HETATM   29  N5  UNL     1      15.417  -0.327  17.605  1.00  0.00    -0.060 NA
HETATM   30  O3  UNL     1      13.483   0.741  16.887  1.00  0.00    -0.275 OA
ENDBRANCH  25  28
ENDBRANCH  20  21
ENDBRANCH  19  20
ENDBRANCH  16  19
ENDBRANCH   1  16
TORSDOF 10
ENDMDL
MODEL 3
REMARK VINA RESULT: -7.546049652      1.755      4.164
REMARK  10 active torsions:
REMARK  status: ('A' for Active; 'I' for Inactive)
REMARK    1  A    between atoms: N1_2  and  C2_3 
REMARK    2  A    between atoms: N1_2  and  C12_23 
REMARK    3  A    between atoms: N2_4  and  N3_6 
REMARK    4  A    between atoms: N3_6  and  C3_8 
REMARK    5  A    between atoms: C3_8  and  O1_9 
REMARK    6  A    between atoms: C3_8  and  C4_11 
REMARK    7  A    between atoms: C4_11  and  C5_12 
REMARK    8  A    between atoms: C5_12  and  C6_13 
REMARK       I    between atoms: C6_13  and  N4_15 
REMARK    9  A    between atoms: C10_19  and  C11_20 
REMARK   10  A    between atoms: C12_23  and  C13_24 
ROOT
HETATM    1  N3  UNL     1      18.921   0.068  11.137  1.00  0.00    -0.279 N 
ATOM      2  H3  UNL     1      19.571  -0.718  11.124  1.00  0.00     0.189 HD
ENDROOT
BRANCH   1   3
HETATM    3  N2  UNL     1      19.239   1.347  10.524  1.00  0.00    -0.294 N 
HETATM    4  C2  UNL     1      20.014   2.140  11.190  1.00  0.00     0.195 C 
ATOM      5  H2  UNL     1      18.867   1.607   9.610  1.00  0.00     0.187 HD
BRANCH   4   6
HETATM    6  N1  UNL     1      20.343   3.393  10.621  1.00  0.00    -0.376 N 
HETATM    7  C1  UNL     1      21.697   3.565  10.103  1.00  0.00     0.150 C 
BRANCH   6   8
HETATM    8  C12 UNL     1      19.383   4.459  10.552  1.00  0.00     0.183 C 
BRANCH   8   9
HETATM    9  C13 UNL     1      18.785   4.778  11.908  1.00  0.00     0.277 C 
HETATM   10  O4  UNL     1      19.797   5.310  12.698  1.00  0.00    -0.360 OA
HETATM   11  C14 UNL     1      19.674   5.027  14.037  1.00  0.00     0.171 C 
HETATM   12  C15 UNL     1      18.255   4.849  14.501  1.00  0.00     0.028 C 
HETATM   13  C16 UNL     1      17.308   5.886  13.993  1.00  0.00     0.028 C 
HETATM   14  C17 UNL     1      17.823   6.643  12.798  1.00  0.00     0.171 C 
HETATM   15  O5  UNL     1      17.828   5.766  11.723  1.00  0.00    -0.360 OA
ENDBRANCH   8   9
ENDBRANCH   6   8
ENDBRANCH   4   6
ENDBRANCH   1   3
BRANCH   1  16
HETATM   16  C3  UNL     1      17.684  -0.010  11.736  1.00  0.00     0.154 C 
BRANCH  16  17
HETATM   17  O1  UNL     1      17.187  -1.255  11.816  1.00  0.00    -0.345 OA
ATOM     18  H1  UNL     1      17.570  -1.784  12.506  1.00  0.00     0.219 HD
ENDBRANCH  16  17
BRANCH  16  19
HETATM   19  C4  UNL     1      16.823   0.966  12.291  1.00  0.00     0.062 C 
BRANCH  19  20
HETATM   20  C5  UNL     1      16.804   1.691  13.322  1.00  0.00     0.078 C 
BRANCH  20  21
HETATM   21  C6  UNL     1      16.621   1.458  14.707  1.00  0.00     0.244 C 
HETATM   22  O2  UNL     1      17.210   0.599  15.362  1.00  0.00    -0.268 OA
HETATM   23  N4  UNL     1      15.680   2.263  15.474  1.00  0.00    -0.336 N 
HETATM   24  C7  UNL     1      14.882   3.332  14.971  1.00  0.00     0.127 C 
HETATM   25  C10 UNL     1      15.434   2.061  16.879  1.00  0.00     0.176 C 
HETATM   26  C8  UNL     1      14.726   4.233  16.207  1.00  0.00     0.022 C 
HETATM   27  C9  UNL     1      14.599   3.234  17.315  1.00  0.00     0.036 C 
BRANCH  25  28
HETATM   28  C11 UNL     1      14.708   0.780  17.125  1.00  0.00     0.254 C 
HETATM   29  N5  UNL     1      15.430  -0.320  17.612  1.00  0.00    -0.060 NA
HETATM   30  O3  UNL     1      13.486   0.729  16.893  1.00  0.00    -0.275 OA
ENDBRANCH  25  28
ENDBRANCH  20  21
ENDBRANCH  19  20
ENDBRANCH  16  19
ENDBRANCH   1  16
TORSDOF 10
ENDMDL
MODEL 4
REMARK VINA RESULT: -7.371438307      3.307      5.333
REMARK  10 active torsions:
REMARK  status: ('A' for Active; 'I' for Inactive)
REMARK    1  A    between atoms: N1_2  and  C2_3 
REMARK    2  A    between atoms: N1_2  and  C12_23 
REMARK    3  A    between atoms: N2_4  and  N3_6 
REMARK    4  A    between atoms: N3_6  and  C3_8 
REMARK    5  A    between atoms: C3_8  and  O1_9 
REMARK    6  A    between atoms: C3_8  and  C4_11 
REMARK    7  A    between atoms: C4_11  and  C5_12 
REMARK    8  A    between atoms: C5_12  and  C6_13 
REMARK       I    between atoms: C6_13  and  N4_15 
REMARK    9  A    between atoms: C10_19  and  C11_20 
REMARK   10  A    between atoms: C12_23  and  C13_24 
ROOT
HETATM    1  N3  UNL     1      16.391   0.841  10.465  1.00  0.00    -0.279 N 
ATOM      2  H3  UNL     1      16.017   0.454   9.599  1.00  0.00     0.189 HD
ENDROOT
BRANCH   1   3
HETATM    3  N2  UNL     1      16.255   2.246  10.809  1.00  0.00    -0.294 N 
HETATM    4  C2  UNL     1      17.287   3.001  10.611  1.00  0.00     0.195 C 
ATOM      5  H2  UNL     1      15.386   2.620  11.190  1.00  0.00     0.187 HD
BRANCH   4   6
HETATM    6  N1  UNL     1      17.188   4.375  10.936  1.00  0.00    -0.376 N 
HETATM    7  C1  UNL     1      17.089   4.730  12.348  1.00  0.00     0.150 C 
BRANCH   6   8
HETATM    8  C12 UNL     1      17.187   5.386   9.916  1.00  0.00     0.183 C 
BRANCH   8   9
HETATM    9  C13 UNL     1      16.132   6.447  10.164  1.00  0.00     0.277 C 
HETATM   10  O4  UNL     1      16.445   7.543   9.369  1.00  0.00    -0.360 OA
HETATM   11  C14 UNL     1      16.083   8.752   9.910  1.00  0.00     0.171 C 
HETATM   12  C15 UNL     1      14.885   8.689  10.815  1.00  0.00     0.028 C 
HETATM   13  C16 UNL     1      13.749   7.883  10.275  1.00  0.00     0.028 C 
HETATM   14  C17 UNL     1      14.145   6.947   9.165  1.00  0.00     0.171 C 
HETATM   15  O5  UNL     1      14.916   5.939   9.728  1.00  0.00    -0.360 OA
ENDBRANCH   8   9
ENDBRANCH   6   8
ENDBRANCH   4   6
ENDBRANCH   1   3
BRANCH   1  16
HETATM   16  C3  UNL     1      17.061   0.067  11.387  1.00  0.00     0.154 C 
BRANCH  16  17
HETATM   17  O1  UNL     1      17.831  -0.891  10.848  1.00  0.00    -0.345 OA
ATOM     18  H1  UNL     1      17.363  -1.687  10.621  1.00  0.00     0.219 HD
ENDBRANCH  16  17
BRANCH  16  19
HETATM   19  C4  UNL     1      17.101   0.079  12.801  1.00  0.00     0.062 C 
BRANCH  19  20
HETATM   20  C5  UNL     1      17.162   0.952  13.708  1.00  0.00     0.078 C 
BRANCH  20  21
HETATM   21  C6  UNL     1      16.839   0.987  15.087  1.00  0.00     0.244 C 
HETATM   22  O2  UNL     1      17.350   0.274  15.950  1.00  0.00    -0.268 OA
HETATM   23  N4  UNL     1      15.833   1.915  15.588  1.00  0.00    -0.336 N 
HETATM   24  C7  UNL     1      15.101   2.860  14.811  1.00  0.00     0.127 C 
HETATM   25  C10 UNL     1      15.446   1.983  16.973  1.00  0.00     0.176 C 
HETATM   26  C8  UNL     1      14.831   3.980  15.830  1.00  0.00     0.022 C 
HETATM   27  C9  UNL     1      14.584   3.210  17.091  1.00  0.00     0.036 C 
BRANCH  25  28
HETATM   28  C11 UNL     1      14.686   0.766  17.386  1.00  0.00     0.254 C 
HETATM   29  N5  UNL     1      15.383  -0.291  17.988  1.00  0.00    -0.060 NA
HETATM   30  O3  UNL     1      13.458   0.729  17.184  1.00  0.00    -0.275 OA
ENDBRANCH  25  28
ENDBRANCH  20  21
ENDBRANCH  19  20
ENDBRANCH  16  19
ENDBRANCH   1  16
TORSDOF 10
ENDMDL
MODEL 5
REMARK VINA RESULT: -7.319576569      1.673      4.512
REMARK  10 active torsions:
REMARK  status: ('A' for Active; 'I' for Inactive)
REMARK    1  A    between atoms: N1_2  and  C2_3 
REMARK    2  A    between atoms: N1_2  and  C12_23 
REMARK    3  A    between atoms: N2_4  and  N3_6 
REMARK    4  A    between atoms: N3_6  and  C3_8 
REMARK    5  A    between atoms: C3_8  and  O1_9 
REMARK    6  A    between atoms: C3_8  and  C4_11 
REMARK    7  A    between atoms: C4_11  and  C5_12 
REMARK    8  A    between atoms: C5_12  and  C6_13 
REMARK       I    between atoms: C6_13  and  N4_15 
REMARK    9  A    between atoms: C10_19  and  C11_20 
REMARK   10  A    between atoms: C12_23  and  C13_24 
ROOT
HETATM    1  N3  UNL     1      18.927   1.047  10.661  1.00  0.00    -0.279 N 
ATOM      2  H3  UNL     1      19.603   0.310  10.463  1.00  0.00     0.189 HD
ENDROOT
BRANCH   1   3
HETATM    3  N2  UNL     1      19.263   2.457  10.556  1.00  0.00    -0.294 N 
HETATM    4  C2  UNL     1      20.057   2.939  11.456  1.00  0.00     0.195 C 
ATOM      5  H2  UNL     1      18.890   3.040   9.807  1.00  0.00     0.187 HD
BRANCH   4   6
HETATM    6  N1  UNL     1      20.405   4.308  11.384  1.00  0.00    -0.376 N 
HETATM    7  C1  UNL     1      21.820   4.652  11.489  1.00  0.00     0.150 C 
BRANCH   6   8
HETATM    8  C12 UNL     1      19.407   5.326  11.210  1.00  0.00     0.183 C 
BRANCH   8   9
HETATM    9  C13 UNL     1      18.947   5.906  12.533  1.00  0.00     0.277 C 
HETATM   10  O4  UNL     1      18.638   7.244  12.319  1.00  0.00    -0.360 OA
HETATM   11  C14 UNL     1      18.868   8.056  13.403  1.00  0.00     0.171 C 
HETATM   12  C15 UNL     1      18.728   7.367  14.730  1.00  0.00     0.028 C 
HETATM   13  C16 UNL     1      17.516   6.500  14.847  1.00  0.00     0.028 C 
HETATM   14  C17 UNL     1      16.905   6.132  13.522  1.00  0.00     0.171 C 
HETATM   15  O5  UNL     1      17.777   5.253  12.894  1.00  0.00    -0.360 OA
ENDBRANCH   8   9
ENDBRANCH   6   8
ENDBRANCH   4   6
ENDBRANCH   1   3
BRANCH   1  16
HETATM   16  C3  UNL     1      17.633   0.774  11.045  1.00  0.00     0.154 C 
BRANCH  16  17
HETATM   17  O1  UNL     1      16.807   0.473  10.030  1.00  0.00    -0.345 OA
ATOM     18  H1  UNL     1      17.225   0.464   9.177  1.00  0.00     0.219 HD
ENDBRANCH  16  17
BRANCH  16  19
HETATM   19  C4  UNL     1      16.992   0.745  12.306  1.00  0.00     0.062 C 
BRANCH  19  20
HETATM   20  C5  UNL     1      16.881   1.517  13.295  1.00  0.00     0.078 C 
BRANCH  20  21
HETATM   21  C6  UNL     1      16.676   1.341  14.686  1.00  0.00     0.244 C 
HETATM   22  O2  UNL     1      17.242   0.499  15.382  1.00  0.00    -0.268 OA
HETATM   23  N4  UNL     1      15.737   2.189  15.408  1.00  0.00    -0.336 N 
HETATM   24  C7  UNL     1      14.963   3.250  14.853  1.00  0.00     0.127 C 
HETATM   25  C10 UNL     1      15.469   2.045  16.816  1.00  0.00     0.176 C 
HETATM   26  C8  UNL     1      14.805   4.201  16.051  1.00  0.00     0.022 C 
HETATM   27  C9  UNL     1      14.647   3.247  17.195  1.00  0.00     0.036 C 
BRANCH  25  28
HETATM   28  C11 UNL     1      14.719   0.786  17.101  1.00  0.00     0.254 C 
HETATM   29  N5  UNL     1      15.424  -0.319  17.602  1.00  0.00    -0.060 NA
HETATM   30  O3  UNL     1      13.493   0.756  16.887  1.00  0.00    -0.275 OA
ENDBRANCH  25  28
ENDBRANCH  20  21
ENDBRANCH  19  20
ENDBRANCH  16  19
ENDBRANCH   1  16
TORSDOF 10
ENDMDL
