MODEL 1
REMARK VINA RESULT: -6.718676368      0.000      0.000
REMARK  3 active torsions:
REMARK  status: ('A' for Active; 'I' for Inactive)
REMARK    1  A    between atoms: C5_6  and  N2_7 
REMARK       I    between atoms: N2_7  and  C6_9 
REMARK    2  A    between atoms: C6_9  and  C7_11 
REMARK    3  A    between atoms: C9_13  and  N3_14 
ROOT
HETATM    1  C7  UNL     1      18.810   3.577  12.489  1.00  0.00     0.279 C 
HETATM    2  C8  UNL     1      20.136   4.346  12.536  1.00  0.00     0.069 C 
HETATM    3  C9  UNL     1      20.993   3.613  11.527  1.00  0.00     0.107 C 
HETATM    4  C16 UNL     1      20.070   2.598  10.919  1.00  0.00     0.258 C 
HETATM    5  N4  UNL     1      19.195   2.254  12.039  1.00  0.00    -0.060 N 
ATOM      6  H41 UNL     1      18.427   1.620  11.820  1.00  0.00     0.278 HD
ATOM      7  H42 UNL     1      19.606   1.648  12.749  1.00  0.00     0.278 HD
ENDROOT
BRANCH   1   8
HETATM    8  C6  UNL     1      18.201   3.462  13.824  1.00  0.00     0.248 C 
HETATM    9  N2  UNL     1      16.982   2.738  14.032  1.00  0.00    -0.353 N 
ATOM     10  H2  UNL     1      16.521   2.291  13.239  1.00  0.00     0.163 HD
HETATM   11  O1  UNL     1      18.749   4.004  14.818  1.00  0.00    -0.271 OA
BRANCH   9  12
HETATM   12  C5  UNL     1      16.394   2.633  15.349  1.00  0.00     0.102 C 
HETATM   13  C4  UNL     1      15.245   3.585  15.450  1.00  0.00     0.028 C 
HETATM   14  C3  UNL     1      14.400   3.318  16.664  1.00  0.00     0.021 C 
HETATM   15  C2  UNL     1      14.066   1.879  16.851  1.00  0.00     0.116 C 
HETATM   16  N1  UNL     1      15.167   0.988  16.732  1.00  0.00    -0.415 N 
HETATM   17  C1  UNL     1      15.791   0.598  17.952  1.00  0.00     0.143 C 
HETATM   18  C17 UNL     1      16.037   1.209  15.629  1.00  0.00     0.141 C 
ENDBRANCH   9  12
ENDBRANCH   1   8
BRANCH   3  19
HETATM   19  N3  UNL     1      21.623   4.478  10.590  1.00  0.00    -0.402 N 
HETATM   20  C10 UNL     1      22.269   3.874   9.488  1.00  0.00     0.143 C 
HETATM   21  C11 UNL     1      23.760   3.928   9.469  1.00  0.00     0.188 C 
HETATM   22  O2  UNL     1      24.285   5.123   9.892  1.00  0.00    -0.377 OA
HETATM   23  C12 UNL     1      23.795   5.545  11.113  1.00  0.00     0.077 A 
HETATM   24  C13 UNL     1      24.572   5.236  12.371  1.00  0.00     0.042 A 
HETATM   25  C14 UNL     1      24.608   6.594  11.788  1.00  0.00     0.042 A 
HETATM   26  C15 UNL     1      22.311   5.529  11.241  1.00  0.00     0.155 C 
ENDBRANCH   3  19
TORSDOF 3
ENDMDL
MODEL 2
REMARK VINA RESULT: -6.511303825      2.125      8.940
REMARK  3 active torsions:
REMARK  status: ('A' for Active; 'I' for Inactive)
REMARK    1  A    between atoms: C5_6  and  N2_7 
REMARK       I    between atoms: N2_7  and  C6_9 
REMARK    2  A    between atoms: C6_9  and  C7_11 
REMARK    3  A    between atoms: C9_13  and  N3_14 
ROOT
HETATM    1  C7  UNL     1      18.760   4.017  12.770  1.00  0.00     0.279 C 
HETATM    2  C8  UNL     1      17.667   2.946  12.880  1.00  0.00     0.069 C 
HETATM    3  C9  UNL     1      17.293   2.989  14.346  1.00  0.00     0.107 C 
HETATM    4  C16 UNL     1      18.091   4.131  14.903  1.00  0.00     0.258 C 
HETATM    5  N4  UNL     1      19.317   4.080  14.107  1.00  0.00    -0.060 N 
ATOM      6  H41 UNL     1      19.983   4.834  14.273  1.00  0.00     0.278 HD
ATOM      7  H42 UNL     1      19.969   3.334  14.349  1.00  0.00     0.278 HD
ENDROOT
BRANCH   1   8
HETATM    8  C6  UNL     1      19.823   3.613  11.836  1.00  0.00     0.248 C 
HETATM    9  N2  UNL     1      20.105   4.366  10.650  1.00  0.00    -0.353 N 
ATOM     10  H2  UNL     1      19.559   5.203  10.445  1.00  0.00     0.163 HD
HETATM   11  O1  UNL     1      20.511   2.585  12.066  1.00  0.00    -0.271 OA
BRANCH   9  12
HETATM   12  C5  UNL     1      21.152   3.958   9.739  1.00  0.00     0.102 C 
HETATM   13  C4  UNL     1      20.581   3.828   8.363  1.00  0.00     0.028 C 
HETATM   14  C3  UNL     1      21.655   3.709   7.319  1.00  0.00     0.021 C 
HETATM   15  C2  UNL     1      22.748   4.710   7.473  1.00  0.00     0.116 C 
HETATM   16  N1  UNL     1      23.264   4.834   8.792  1.00  0.00    -0.415 N 
HETATM   17  C1  UNL     1      24.442   4.084   9.076  1.00  0.00     0.143 C 
HETATM   18  C17 UNL     1      22.303   4.906   9.839  1.00  0.00     0.141 C 
ENDBRANCH   9  12
ENDBRANCH   1   8
BRANCH   3  19
HETATM   19  N3  UNL     1      15.892   3.083  14.566  1.00  0.00    -0.402 N 
HETATM   20  C10 UNL     1      15.380   4.347  14.936  1.00  0.00     0.143 C 
HETATM   21  C11 UNL     1      14.895   4.493  16.340  1.00  0.00     0.188 C 
HETATM   22  O2  UNL     1      14.206   3.404  16.813  1.00  0.00    -0.377 OA
HETATM   23  C12 UNL     1      14.875   2.207  16.647  1.00  0.00     0.077 A 
HETATM   24  C13 UNL     1      15.700   1.655  17.787  1.00  0.00     0.042 A 
HETATM   25  C14 UNL     1      14.370   1.084  17.484  1.00  0.00     0.042 A 
HETATM   26  C15 UNL     1      15.405   1.961  15.278  1.00  0.00     0.155 C 
ENDBRANCH   3  19
TORSDOF 3
ENDMDL
MODEL 3
REMARK VINA RESULT: -6.445214207      1.262      1.801
REMARK  3 active torsions:
REMARK  status: ('A' for Active; 'I' for Inactive)
REMARK    1  A    between atoms: C5_6  and  N2_7 
REMARK       I    between atoms: N2_7  and  C6_9 
REMARK    2  A    between atoms: C6_9  and  C7_11 
REMARK    3  A    between atoms: C9_13  and  N3_14 
ROOT
HETATM    1  C7  UNL     1      18.429   2.524  11.454  1.00  0.00     0.279 C 
HETATM    2  C8  UNL     1      19.137   3.868  11.669  1.00  0.00     0.069 C 
HETATM    3  C9  UNL     1      20.586   3.541  11.376  1.00  0.00     0.107 C 
HETATM    4  C16 UNL     1      20.562   2.115  10.911  1.00  0.00     0.258 C 
HETATM    5  N4  UNL     1      19.469   1.544  11.698  1.00  0.00    -0.060 N 
ATOM      6  H41 UNL     1      19.225   0.578  11.478  1.00  0.00     0.278 HD
ATOM      7  H42 UNL     1      19.680   1.358  12.678  1.00  0.00     0.278 HD
ENDROOT
BRANCH   1   8
HETATM    8  C6  UNL     1      17.349   2.318  12.433  1.00  0.00     0.248 C 
HETATM    9  N2  UNL     1      17.620   1.858  13.763  1.00  0.00    -0.353 N 
ATOM     10  H2  UNL     1      18.583   1.669  14.042  1.00  0.00     0.163 HD
HETATM   11  O1  UNL     1      16.153   2.544  12.113  1.00  0.00    -0.271 OA
BRANCH   9  12
HETATM   12  C5  UNL     1      16.549   1.659  14.715  1.00  0.00     0.102 C 
HETATM   13  C4  UNL     1      16.815   0.411  15.495  1.00  0.00     0.028 C 
HETATM   14  C3  UNL     1      15.921   0.302  16.698  1.00  0.00     0.021 C 
HETATM   15  C2  UNL     1      15.840   1.557  17.495  1.00  0.00     0.116 C 
HETATM   16  N1  UNL     1      15.609   2.736  16.735  1.00  0.00    -0.415 N 
HETATM   17  C1  UNL     1      14.253   3.168  16.647  1.00  0.00     0.143 C 
HETATM   18  C17 UNL     1      16.389   2.885  15.554  1.00  0.00     0.141 C 
ENDBRANCH   9  12
ENDBRANCH   1   8
BRANCH   3  19
HETATM   19  N3  UNL     1      21.194   4.450  10.467  1.00  0.00    -0.402 N 
HETATM   20  C10 UNL     1      21.790   3.902   9.309  1.00  0.00     0.143 C 
HETATM   21  C11 UNL     1      23.281   3.938   9.238  1.00  0.00     0.188 C 
HETATM   22  O2  UNL     1      23.838   5.101   9.709  1.00  0.00    -0.377 OA
HETATM   23  C12 UNL     1      23.398   5.459  10.968  1.00  0.00     0.077 A 
HETATM   24  C13 UNL     1      24.216   5.070  12.177  1.00  0.00     0.042 A 
HETATM   25  C14 UNL     1      24.250   6.458  11.670  1.00  0.00     0.042 A 
HETATM   26  C15 UNL     1      21.920   5.454  11.149  1.00  0.00     0.155 C 
ENDBRANCH   3  19
TORSDOF 3
ENDMDL
MODEL 4
REMARK VINA RESULT: -6.423388123      4.301      7.912
REMARK  3 active torsions:
REMARK  status: ('A' for Active; 'I' for Inactive)
REMARK    1  A    between atoms: C5_6  and  N2_7 
REMARK       I    between atoms: N2_7  and  C6_9 
REMARK    2  A    between atoms: C6_9  and  C7_11 
REMARK    3  A    between atoms: C9_13  and  N3_14 
ROOT
HETATM    1  C7  UNL     1      18.249   5.444  14.483  1.00  0.00     0.279 C 
HETATM    2  C8  UNL     1      16.866   5.070  13.933  1.00  0.00     0.069 C 
HETATM    3  C9  UNL     1      17.177   3.959  12.954  1.00  0.00     0.107 C 
HETATM    4  C16 UNL     1      18.649   3.716  13.118  1.00  0.00     0.258 C 
HETATM    5  N4  UNL     1      19.158   5.052  13.425  1.00  0.00    -0.060 N 
ATOM      6  H41 UNL     1      20.151   5.104  13.653  1.00  0.00     0.278 HD
ATOM      7  H42 UNL     1      19.219   5.693  12.634  1.00  0.00     0.278 HD
ENDROOT
BRANCH   1   8
HETATM    8  C6  UNL     1      18.373   6.895  14.697  1.00  0.00     0.248 C 
HETATM    9  N2  UNL     1      19.345   7.676  13.991  1.00  0.00    -0.353 N 
ATOM     10  H2  UNL     1      19.967   7.220  13.324  1.00  0.00     0.163 HD
HETATM   11  O1  UNL     1      17.618   7.481  15.516  1.00  0.00    -0.271 OA
BRANCH   9  12
HETATM   12  C5  UNL     1      19.458   9.102  14.212  1.00  0.00     0.102 C 
HETATM   13  C4  UNL     1      20.606   9.365  15.133  1.00  0.00     0.028 C 
HETATM   14  C3  UNL     1      20.976  10.822  15.165  1.00  0.00     0.021 C 
HETATM   15  C2  UNL     1      21.076  11.440  13.814  1.00  0.00     0.116 C 
HETATM   16  N1  UNL     1      19.986  11.161  12.945  1.00  0.00    -0.415 N 
HETATM   17  C1  UNL     1      18.960  12.149  12.891  1.00  0.00     0.143 C 
HETATM   18  C17 UNL     1      19.550   9.807  12.898  1.00  0.00     0.141 C 
ENDBRANCH   9  12
ENDBRANCH   1   8
BRANCH   3  19
HETATM   19  N3  UNL     1      16.363   2.807  13.135  1.00  0.00    -0.402 N 
HETATM   20  C10 UNL     1      16.363   2.212  14.417  1.00  0.00     0.143 C 
HETATM   21  C11 UNL     1      17.037   0.886  14.544  1.00  0.00     0.188 C 
HETATM   22  O2  UNL     1      16.813   0.039  13.488  1.00  0.00    -0.377 OA
HETATM   23  C12 UNL     1      17.074   0.604  12.255  1.00  0.00     0.077 A 
HETATM   24  C13 UNL     1      18.420   0.382  11.607  1.00  0.00     0.042 A 
HETATM   25  C14 UNL     1      17.235  -0.368  11.140  1.00  0.00     0.042 A 
HETATM   26  C15 UNL     1      16.449   1.936  12.023  1.00  0.00     0.155 C 
ENDBRANCH   3  19
TORSDOF 3
ENDMDL
MODEL 5
REMARK VINA RESULT: -6.375976860      1.649      2.660
REMARK  3 active torsions:
REMARK  status: ('A' for Active; 'I' for Inactive)
REMARK    1  A    between atoms: C5_6  and  N2_7 
REMARK       I    between atoms: N2_7  and  C6_9 
REMARK    2  A    between atoms: C6_9  and  C7_11 
REMARK    3  A    between atoms: C9_13  and  N3_14 
ROOT
HETATM    1  C7  UNL     1      18.693   3.033  12.142  1.00  0.00     0.279 C 
HETATM    2  C8  UNL     1      20.003   3.826  12.041  1.00  0.00     0.069 C 
HETATM    3  C9  UNL     1      20.854   2.967  11.132  1.00  0.00     0.107 C 
HETATM    4  C16 UNL     1      19.941   1.856  10.704  1.00  0.00     0.258 C 
HETATM    5  N4  UNL     1      19.098   1.666  11.884  1.00  0.00    -0.060 N 
ATOM      6  H41 UNL     1      18.339   0.992  11.781  1.00  0.00     0.278 HD
ATOM      7  H42 UNL     1      19.537   1.180  12.666  1.00  0.00     0.278 HD
ENDROOT
BRANCH   1   8
HETATM    8  C6  UNL     1      18.116   3.107  13.494  1.00  0.00     0.248 C 
HETATM    9  N2  UNL     1      16.978   2.321  13.867  1.00  0.00    -0.353 N 
ATOM     10  H2  UNL     1      16.554   1.694  13.183  1.00  0.00     0.163 HD
HETATM   11  O1  UNL     1      18.621   3.872  14.356  1.00  0.00    -0.271 OA
BRANCH   9  12
HETATM   12  C5  UNL     1      16.420   2.403  15.200  1.00  0.00     0.102 C 
HETATM   13  C4  UNL     1      15.305   3.400  15.203  1.00  0.00     0.028 C 
HETATM   14  C3  UNL     1      14.484   3.318  16.458  1.00  0.00     0.021 C 
HETATM   15  C2  UNL     1      14.108   1.926  16.834  1.00  0.00     0.116 C 
HETATM   16  N1  UNL     1      15.177   0.989  16.805  1.00  0.00    -0.415 N 
HETATM   17  C1  UNL     1      15.819   0.734  18.051  1.00  0.00     0.143 C 
HETATM   18  C17 UNL     1      16.025   1.039  15.664  1.00  0.00     0.141 C 
ENDBRANCH   9  12
ENDBRANCH   1   8
BRANCH   3  19
HETATM   19  N3  UNL     1      21.443   3.694  10.062  1.00  0.00    -0.402 N 
HETATM   20  C10 UNL     1      22.135   4.881  10.391  1.00  0.00     0.143 C 
HETATM   21  C11 UNL     1      21.500   6.167   9.979  1.00  0.00     0.188 C 
HETATM   22  O2  UNL     1      20.922   6.135   8.735  1.00  0.00    -0.377 OA
HETATM   23  C12 UNL     1      20.050   5.078   8.554  1.00  0.00     0.077 A 
HETATM   24  C13 UNL     1      18.571   5.290   8.777  1.00  0.00     0.042 A 
HETATM   25  C14 UNL     1      19.116   5.225   7.405  1.00  0.00     0.042 A 
HETATM   26  C15 UNL     1      20.585   3.743   8.938  1.00  0.00     0.155 C 
ENDBRANCH   3  19
TORSDOF 3
ENDMDL
