MODEL 1
REMARK VINA RESULT: -8.251357767      0.000      0.000
REMARK  4 active torsions:
REMARK  status: ('A' for Active; 'I' for Inactive)
REMARK    1  A    between atoms: C1_2  and  C2_3 
REMARK    2  A    between atoms: C2_3  and  N1_4 
REMARK    3  A    between atoms: C2_3  and  C11_18 
REMARK       I    between atoms: N1_4  and  C3_6 
REMARK       I    between atoms: C3_6  and  N2_8 
REMARK       I    between atoms: C11_18  and  N3_20 
REMARK    4  A    between atoms: N3_20  and  C12_22 
ROOT
HETATM    1  N1  UNL     1      17.894   2.883  15.406  1.00  0.00    -0.322 N 
ATOM      2  H1  UNL     1      18.904   2.989  15.312  1.00  0.00     0.165 HD
HETATM    3  C3  UNL     1      17.057   3.966  15.035  1.00  0.00     0.343 C 
HETATM    4  O2  UNL     1      15.812   3.848  15.146  1.00  0.00    -0.245 OA
HETATM    5  N2  UNL     1      17.574   5.189  14.539  1.00  0.00    -0.207 N 
HETATM    6  C4  UNL     1      16.803   6.349  14.136  1.00  0.00     0.168 C 
HETATM    7  C5  UNL     1      17.914   7.414  14.087  1.00  0.00     0.040 C 
HETATM    8  C6  UNL     1      18.125   7.848  15.494  1.00  0.00     0.011 C 
HETATM    9  C7  UNL     1      19.402   8.497  15.815  1.00  0.00     0.027 C 
HETATM   10  C8  UNL     1      20.103   9.199  14.717  1.00  0.00     0.167 C 
HETATM   11  O3  UNL     1      20.072   8.598  13.492  1.00  0.00    -0.389 OA
HETATM   12  C9  UNL     1      20.339   7.221  13.681  1.00  0.00     0.202 C 
HETATM   13  C10 UNL     1      19.040   6.518  13.576  1.00  0.00     0.182 C 
HETATM   14  O4  UNL     1      18.898   5.419  14.380  1.00  0.00    -0.266 OA
ENDROOT
BRANCH   1  15
HETATM   15  C2  UNL     1      17.369   1.637  15.912  1.00  0.00     0.239 C 
BRANCH  15  16
HETATM   16  C1  UNL     1      16.222   1.801  16.825  1.00  0.00     0.266 C 
HETATM   17  O1  UNL     1      16.079   1.244  17.886  1.00  0.00    -0.304 OA
ENDBRANCH  15  16
BRANCH  15  18
HETATM   18  C11 UNL     1      17.038   0.696  14.813  1.00  0.00     0.247 C 
HETATM   19  O5  UNL     1      16.462  -0.397  15.063  1.00  0.00    -0.271 OA
HETATM   20  N3  UNL     1      17.354   0.987  13.459  1.00  0.00    -0.354 N 
ATOM     21  H3  UNL     1      17.820   1.867  13.235  1.00  0.00     0.162 HD
BRANCH  20  22
HETATM   22  C12 UNL     1      17.031   0.068  12.391  1.00  0.00     0.084 C 
HETATM   23  C13 UNL     1      16.413   0.849  11.251  1.00  0.00     0.025 C 
HETATM   24  C14 UNL     1      16.812   0.044  10.037  1.00  0.00     0.002 C 
HETATM   25  C15 UNL     1      18.244  -0.325  10.347  1.00  0.00     0.002 C 
HETATM   26  C16 UNL     1      18.305  -0.542  11.829  1.00  0.00     0.025 C 
ENDBRANCH  20  22
ENDBRANCH  15  18
ENDBRANCH   1  15
TORSDOF 4
ENDMDL
MODEL 2
REMARK VINA RESULT: -7.893155406      3.750      5.515
REMARK  4 active torsions:
REMARK  status: ('A' for Active; 'I' for Inactive)
REMARK    1  A    between atoms: C1_2  and  C2_3 
REMARK    2  A    between atoms: C2_3  and  N1_4 
REMARK    3  A    between atoms: C2_3  and  C11_18 
REMARK       I    between atoms: N1_4  and  C3_6 
REMARK       I    between atoms: C3_6  and  N2_8 
REMARK       I    between atoms: C11_18  and  N3_20 
REMARK    4  A    between atoms: N3_20  and  C12_22 
ROOT
HETATM    1  N1  UNL     1      18.779   2.109  11.737  1.00  0.00    -0.322 N 
ATOM      2  H1  UNL     1      19.701   1.902  12.123  1.00  0.00     0.165 HD
HETATM    3  C3  UNL     1      18.684   2.992  10.632  1.00  0.00     0.343 C 
HETATM    4  O2  UNL     1      17.557   3.255  10.149  1.00  0.00    -0.245 OA
HETATM    5  N2  UNL     1      19.824   3.598  10.045  1.00  0.00    -0.207 N 
HETATM    6  C4  UNL     1      19.829   4.512   8.919  1.00  0.00     0.168 C 
HETATM    7  C5  UNL     1      21.254   5.084   9.037  1.00  0.00     0.040 C 
HETATM    8  C6  UNL     1      21.187   6.134  10.089  1.00  0.00     0.011 C 
HETATM    9  C7  UNL     1      22.447   6.524  10.732  1.00  0.00     0.027 C 
HETATM   10  C8  UNL     1      23.693   6.343   9.955  1.00  0.00     0.167 C 
HETATM   11  O3  UNL     1      23.778   5.211   9.196  1.00  0.00    -0.389 OA
HETATM   12  C9  UNL     1      23.320   4.129   9.985  1.00  0.00     0.202 C 
HETATM   13  C10 UNL     1      21.950   3.814   9.521  1.00  0.00     0.182 C 
HETATM   14  O4  UNL     1      21.084   3.382  10.489  1.00  0.00    -0.266 OA
ENDROOT
BRANCH   1  15
HETATM   15  C2  UNL     1      17.620   1.491  12.337  1.00  0.00     0.239 C 
BRANCH  15  16
HETATM   16  C1  UNL     1      17.654   0.016  12.315  1.00  0.00     0.266 C 
HETATM   17  O1  UNL     1      16.783  -0.715  12.720  1.00  0.00    -0.304 OA
ENDBRANCH  15  16
BRANCH  15  18
HETATM   18  C11 UNL     1      17.383   1.993  13.713  1.00  0.00     0.247 C 
HETATM   19  O5  UNL     1      17.999   3.009  14.135  1.00  0.00    -0.271 OA
HETATM   20  N3  UNL     1      16.468   1.357  14.593  1.00  0.00    -0.354 N 
ATOM     21  H3  UNL     1      15.959   0.533  14.271  1.00  0.00     0.162 HD
BRANCH  20  22
HETATM   22  C12 UNL     1      16.240   1.847  15.934  1.00  0.00     0.084 C 
HETATM   23  C13 UNL     1      15.065   2.802  15.907  1.00  0.00     0.025 C 
HETATM   24  C14 UNL     1      14.471   2.644  17.286  1.00  0.00     0.002 C 
HETATM   25  C15 UNL     1      14.554   1.152  17.508  1.00  0.00     0.002 C 
HETATM   26  C16 UNL     1      15.819   0.702  16.841  1.00  0.00     0.025 C 
ENDBRANCH  20  22
ENDBRANCH  15  18
ENDBRANCH   1  15
TORSDOF 4
ENDMDL
MODEL 3
REMARK VINA RESULT: -7.788763143      4.169      5.981
REMARK  4 active torsions:
REMARK  status: ('A' for Active; 'I' for Inactive)
REMARK    1  A    between atoms: C1_2  and  C2_3 
REMARK    2  A    between atoms: C2_3  and  N1_4 
REMARK    3  A    between atoms: C2_3  and  C11_18 
REMARK       I    between atoms: N1_4  and  C3_6 
REMARK       I    between atoms: C3_6  and  N2_8 
REMARK       I    between atoms: C11_18  and  N3_20 
REMARK    4  A    between atoms: N3_20  and  C12_22 
ROOT
HETATM    1  N1  UNL     1      17.128   5.255  12.417  1.00  0.00    -0.322 N 
ATOM      2  H1  UNL     1      16.646   6.027  12.877  1.00  0.00     0.165 HD
HETATM    3  C3  UNL     1      17.203   5.244  11.001  1.00  0.00     0.343 C 
HETATM    4  O2  UNL     1      17.793   4.299  10.423  1.00  0.00    -0.245 OA
HETATM    5  N2  UNL     1      16.633   6.268  10.203  1.00  0.00    -0.207 N 
HETATM    6  C4  UNL     1      16.657   6.345   8.755  1.00  0.00     0.168 C 
HETATM    7  C5  UNL     1      15.576   7.417   8.519  1.00  0.00     0.040 C 
HETATM    8  C6  UNL     1      14.271   6.709   8.617  1.00  0.00     0.011 C 
HETATM    9  C7  UNL     1      13.082   7.525   8.890  1.00  0.00     0.027 C 
HETATM   10  C8  UNL     1      13.118   8.943   8.471  1.00  0.00     0.167 C 
HETATM   11  O3  UNL     1      14.302   9.600   8.650  1.00  0.00    -0.389 OA
HETATM   12  C9  UNL     1      14.786   9.272   9.938  1.00  0.00     0.202 C 
HETATM   13  C10 UNL     1      15.867   8.279   9.746  1.00  0.00     0.182 C 
HETATM   14  O4  UNL     1      15.977   7.330  10.726  1.00  0.00    -0.266 OA
ENDROOT
BRANCH   1  15
HETATM   15  C2  UNL     1      17.707   4.213  13.231  1.00  0.00     0.239 C 
BRANCH  15  16
HETATM   16  C1  UNL     1      18.586   4.716  14.304  1.00  0.00     0.266 C 
HETATM   17  O1  UNL     1      19.448   4.084  14.864  1.00  0.00    -0.304 OA
ENDBRANCH  15  16
BRANCH  15  18
HETATM   18  C11 UNL     1      16.668   3.307  13.782  1.00  0.00     0.247 C 
HETATM   19  O5  UNL     1      15.706   2.930  13.060  1.00  0.00    -0.271 OA
HETATM   20  N3  UNL     1      16.719   2.838  15.121  1.00  0.00    -0.354 N 
ATOM     21  H3  UNL     1      17.490   3.131  15.722  1.00  0.00     0.162 HD
BRANCH  20  22
HETATM   22  C12 UNL     1      15.705   1.957  15.654  1.00  0.00     0.084 C 
HETATM   23  C13 UNL     1      16.387   0.835  16.409  1.00  0.00     0.025 C 
HETATM   24  C14 UNL     1      15.374   0.479  17.470  1.00  0.00     0.002 C 
HETATM   25  C15 UNL     1      14.874   1.835  17.912  1.00  0.00     0.002 C 
HETATM   26  C16 UNL     1      14.865   2.694  16.685  1.00  0.00     0.025 C 
ENDBRANCH  20  22
ENDBRANCH  15  18
ENDBRANCH   1  15
TORSDOF 4
ENDMDL
MODEL 4
REMARK VINA RESULT: -7.721861055      3.559      5.435
REMARK  4 active torsions:
REMARK  status: ('A' for Active; 'I' for Inactive)
REMARK    1  A    between atoms: C1_2  and  C2_3 
REMARK    2  A    between atoms: C2_3  and  N1_4 
REMARK    3  A    between atoms: C2_3  and  C11_18 
REMARK       I    between atoms: N1_4  and  C3_6 
REMARK       I    between atoms: C3_6  and  N2_8 
REMARK       I    between atoms: C11_18  and  N3_20 
REMARK    4  A    between atoms: N3_20  and  C12_22 
ROOT
HETATM    1  N1  UNL     1      18.566   3.537  11.771  1.00  0.00    -0.322 N 
ATOM      2  H1  UNL     1      19.234   2.779  11.634  1.00  0.00     0.165 HD
HETATM    3  C3  UNL     1      18.957   4.860  11.440  1.00  0.00     0.343 C 
HETATM    4  O2  UNL     1      18.144   5.802  11.605  1.00  0.00    -0.245 OA
HETATM    5  N2  UNL     1      20.242   5.164  10.925  1.00  0.00    -0.207 N 
HETATM    6  C4  UNL     1      20.734   6.478  10.560  1.00  0.00     0.168 C 
HETATM    7  C5  UNL     1      22.244   6.191  10.466  1.00  0.00     0.040 C 
HETATM    8  C6  UNL     1      22.752   6.217  11.864  1.00  0.00     0.011 C 
HETATM    9  C7  UNL     1      24.027   5.540  12.131  1.00  0.00     0.027 C 
HETATM   10  C8  UNL     1      24.980   5.416  11.006  1.00  0.00     0.167 C 
HETATM   11  O3  UNL     1      24.443   5.139   9.781  1.00  0.00    -0.389 OA
HETATM   12  C9  UNL     1      23.479   4.119   9.955  1.00  0.00     0.202 C 
HETATM   13  C10 UNL     1      22.152   4.774   9.904  1.00  0.00     0.182 C 
HETATM   14  O4  UNL     1      21.192   4.224  10.710  1.00  0.00    -0.266 OA
ENDROOT
BRANCH   1  15
HETATM   15  C2  UNL     1      17.258   3.225  12.296  1.00  0.00     0.239 C 
BRANCH  15  16
HETATM   16  C1  UNL     1      16.625   2.055  11.658  1.00  0.00     0.266 C 
HETATM   17  O1  UNL     1      15.510   2.019  11.198  1.00  0.00    -0.304 OA
ENDBRANCH  15  16
BRANCH  15  18
HETATM   18  C11 UNL     1      17.282   3.072  13.772  1.00  0.00     0.247 C 
HETATM   19  O5  UNL     1      18.262   3.500  14.440  1.00  0.00    -0.271 OA
HETATM   20  N3  UNL     1      16.218   2.448  14.476  1.00  0.00    -0.354 N 
ATOM     21  H3  UNL     1      15.415   2.096  13.955  1.00  0.00     0.162 HD
BRANCH  20  22
HETATM   22  C12 UNL     1      16.246   2.300  15.914  1.00  0.00     0.084 C 
HETATM   23  C13 UNL     1      14.880   2.654  16.463  1.00  0.00     0.025 C 
HETATM   24  C14 UNL     1      14.784   1.798  17.703  1.00  0.00     0.002 C 
HETATM   25  C15 UNL     1      15.377   0.487  17.241  1.00  0.00     0.002 C 
HETATM   26  C16 UNL     1      16.472   0.842  16.281  1.00  0.00     0.025 C 
ENDBRANCH  20  22
ENDBRANCH  15  18
ENDBRANCH   1  15
TORSDOF 4
ENDMDL
MODEL 5
REMARK VINA RESULT: -7.571563788      4.447      6.144
REMARK  4 active torsions:
REMARK  status: ('A' for Active; 'I' for Inactive)
REMARK    1  A    between atoms: C1_2  and  C2_3 
REMARK    2  A    between atoms: C2_3  and  N1_4 
REMARK    3  A    between atoms: C2_3  and  C11_18 
REMARK       I    between atoms: N1_4  and  C3_6 
REMARK       I    between atoms: C3_6  and  N2_8 
REMARK       I    between atoms: C11_18  and  N3_20 
REMARK    4  A    between atoms: N3_20  and  C12_22 
ROOT
HETATM    1  N1  UNL     1      17.313   4.905  11.713  1.00  0.00    -0.322 N 
ATOM      2  H1  UNL     1      16.998   5.703  12.266  1.00  0.00     0.165 HD
HETATM    3  C3  UNL     1      17.174   4.956  10.303  1.00  0.00     0.343 C 
HETATM    4  O2  UNL     1      17.558   3.982   9.611  1.00  0.00    -0.245 OA
HETATM    5  N2  UNL     1      16.614   6.074   9.635  1.00  0.00    -0.207 N 
HETATM    6  C4  UNL     1      16.429   6.219   8.204  1.00  0.00     0.168 C 
HETATM    7  C5  UNL     1      15.457   7.413   8.172  1.00  0.00     0.040 C 
HETATM    8  C6  UNL     1      14.108   6.849   8.447  1.00  0.00     0.011 C 
HETATM    9  C7  UNL     1      13.075   7.775   8.926  1.00  0.00     0.027 C 
HETATM   10  C8  UNL     1      13.212   9.200   8.552  1.00  0.00     0.167 C 
HETATM   11  O3  UNL     1      14.477   9.714   8.566  1.00  0.00    -0.389 OA
HETATM   12  C9  UNL     1      15.108   9.272   9.753  1.00  0.00     0.202 C 
HETATM   13  C10 UNL     1      16.026   8.177   9.365  1.00  0.00     0.182 C 
HETATM   14  O4  UNL     1      16.170   7.175  10.286  1.00  0.00    -0.266 OA
ENDROOT
BRANCH   1  15
HETATM   15  C2  UNL     1      17.883   3.768  12.395  1.00  0.00     0.239 C 
BRANCH  15  16
HETATM   16  C1  UNL     1      19.348   3.663  12.254  1.00  0.00     0.266 C 
HETATM   17  O1  UNL     1      19.979   2.636  12.193  1.00  0.00    -0.304 OA
ENDBRANCH  15  16
BRANCH  15  18
HETATM   18  C11 UNL     1      17.487   3.731  13.824  1.00  0.00     0.247 C 
HETATM   19  O5  UNL     1      17.709   4.722  14.572  1.00  0.00    -0.271 OA
HETATM   20  N3  UNL     1      16.853   2.596  14.396  1.00  0.00    -0.354 N 
ATOM     21  H3  UNL     1      16.664   1.784  13.808  1.00  0.00     0.162 HD
BRANCH  20  22
HETATM   22  C12 UNL     1      16.469   2.563  15.789  1.00  0.00     0.084 C 
HETATM   23  C13 UNL     1      14.984   2.837  15.889  1.00  0.00     0.025 C 
HETATM   24  C14 UNL     1      14.583   2.075  17.129  1.00  0.00     0.002 C 
HETATM   25  C15 UNL     1      15.365   0.790  16.988  1.00  0.00     0.002 C 
HETATM   26  C16 UNL     1      16.668   1.164  16.349  1.00  0.00     0.025 C 
ENDBRANCH  20  22
ENDBRANCH  15  18
ENDBRANCH   1  15
TORSDOF 4
ENDMDL
