MODEL 1
REMARK VINA RESULT: -7.507666037      0.000      0.000
REMARK  7 active torsions:
REMARK  status: ('A' for Active; 'I' for Inactive)
REMARK    1  A    between atoms: C2_3  and  C3_4 
REMARK    2  A    between atoms: C2_3  and  N2_9 
REMARK    3  A    between atoms: C3_4  and  C4_5 
REMARK    4  A    between atoms: C4_5  and  C5_6 
REMARK       I    between atoms: N2_9  and  C6_11 
REMARK    5  A    between atoms: C6_11  and  C7_13 
REMARK       I    between atoms: N3_18  and  C12_19 
REMARK    6  A    between atoms: C12_19  and  C13_21 
REMARK       I    between atoms: N4_25  and  C17_26 
REMARK    7  A    between atoms: C17_26  and  C18_28 
ROOT
HETATM    1  N1  UNL     1      -0.271   0.344  83.872  1.00  0.00    -0.195 NA
HETATM    2  C1  UNL     1      -0.595   1.143  84.643  1.00  0.00     0.084 C 
HETATM    3  C2  UNL     1      -0.990   2.167  85.645  1.00  0.00     0.192 C 
ENDROOT
BRANCH   3   4
HETATM    4  C3  UNL     1      -0.368   1.878  86.959  1.00  0.00     0.051 C 
BRANCH   4   5
HETATM    5  C4  UNL     1      -1.386   1.821  88.050  1.00  0.00     0.116 C 
BRANCH   5   6
HETATM    6  C5  UNL     1      -2.378   0.756  87.952  1.00  0.00     0.172 C 
HETATM    7  O1  UNL     1      -3.602   0.871  87.712  1.00  0.00    -0.648 OA
HETATM    8  O2  UNL     1      -1.929  -0.562  88.146  1.00  0.00    -0.648 OA
ENDBRANCH   5   6
ENDBRANCH   4   5
ENDBRANCH   3   4
BRANCH   3   9
HETATM    9  N2  UNL     1      -0.663   3.495  85.148  1.00  0.00    -0.342 N 
HETATM   10  C6  UNL     1      -1.442   4.638  85.395  1.00  0.00     0.241 C 
HETATM   11  O3  UNL     1      -2.484   4.509  86.086  1.00  0.00    -0.271 OA
ATOM     12  H2  UNL     1       0.182   3.603  84.587  1.00  0.00     0.163 HD
BRANCH  10  13
HETATM   13  C7  UNL     1      -1.103   5.971  84.891  1.00  0.00     0.180 C 
HETATM   14  C8  UNL     1      -0.882   6.965  86.060  1.00  0.00     0.042 C 
HETATM   15  C9  UNL     1       0.175   7.783  85.426  1.00  0.00     0.013 A 
HETATM   16  C10 UNL     1       1.575   7.785  85.428  1.00  0.00     0.032 A 
HETATM   17  C11 UNL     1       1.074   6.514  85.110  1.00  0.00     0.092 A 
HETATM   18  N3  UNL     1       0.163   5.992  84.174  1.00  0.00    -0.332 N 
HETATM   19  C12 UNL     1       0.373   5.579  82.859  1.00  0.00     0.244 C 
HETATM   20  O4  UNL     1      -0.622   5.138  82.186  1.00  0.00    -0.271 OA
BRANCH  19  21
HETATM   21  C13 UNL     1       1.677   5.611  82.161  1.00  0.00     0.179 C 
HETATM   22  C14 UNL     1       2.714   4.758  82.858  1.00  0.00     0.037 C 
HETATM   23  C15 UNL     1       2.352   3.358  82.388  1.00  0.00     0.022 C 
HETATM   24  C16 UNL     1       1.752   3.571  81.036  1.00  0.00     0.127 C 
HETATM   25  N4  UNL     1       1.571   4.985  80.867  1.00  0.00    -0.333 N 
HETATM   26  C17 UNL     1       1.328   5.648  79.619  1.00  0.00     0.282 C 
HETATM   27  O5  UNL     1       1.195   6.914  79.603  1.00  0.00    -0.265 OA
BRANCH  26  28
HETATM   28  C18 UNL     1       1.221   4.962  78.344  1.00  0.00     0.332 C 
HETATM   29  O6  UNL     1       0.555   5.386  77.359  1.00  0.00    -0.297 OA
ENDBRANCH  26  28
ENDBRANCH  19  21
ENDBRANCH  10  13
ENDBRANCH   3   9
TORSDOF 7
ENDMDL
MODEL 2
REMARK VINA RESULT: -7.403395204      1.008      1.101
REMARK  7 active torsions:
REMARK  status: ('A' for Active; 'I' for Inactive)
REMARK    1  A    between atoms: C2_3  and  C3_4 
REMARK    2  A    between atoms: C2_3  and  N2_9 
REMARK    3  A    between atoms: C3_4  and  C4_5 
REMARK    4  A    between atoms: C4_5  and  C5_6 
REMARK       I    between atoms: N2_9  and  C6_11 
REMARK    5  A    between atoms: C6_11  and  C7_13 
REMARK       I    between atoms: N3_18  and  C12_19 
REMARK    6  A    between atoms: C12_19  and  C13_21 
REMARK       I    between atoms: N4_25  and  C17_26 
REMARK    7  A    between atoms: C17_26  and  C18_28 
ROOT
HETATM    1  N1  UNL     1      -0.163   0.907  83.683  1.00  0.00    -0.195 NA
HETATM    2  C1  UNL     1      -0.522   1.559  84.569  1.00  0.00     0.084 C 
HETATM    3  C2  UNL     1      -0.961   2.392  85.718  1.00  0.00     0.192 C 
ENDROOT
BRANCH   3   4
HETATM    4  C3  UNL     1      -0.376   1.885  86.982  1.00  0.00     0.051 C 
BRANCH   4   5
HETATM    5  C4  UNL     1      -1.397   1.804  88.069  1.00  0.00     0.116 C 
BRANCH   5   6
HETATM    6  C5  UNL     1      -2.388   0.741  87.945  1.00  0.00     0.172 C 
HETATM    7  O1  UNL     1      -3.612   0.861  87.708  1.00  0.00    -0.648 OA
HETATM    8  O2  UNL     1      -1.938  -0.580  88.107  1.00  0.00    -0.648 OA
ENDBRANCH   5   6
ENDBRANCH   4   5
ENDBRANCH   3   4
BRANCH   3   9
HETATM    9  N2  UNL     1      -0.637   3.788  85.468  1.00  0.00    -0.342 N 
HETATM   10  C6  UNL     1      -1.579   4.751  85.068  1.00  0.00     0.241 C 
HETATM   11  O3  UNL     1      -2.773   4.387  84.916  1.00  0.00    -0.271 OA
ATOM     12  H2  UNL     1       0.330   4.085  85.590  1.00  0.00     0.163 HD
BRANCH  10  13
HETATM   13  C7  UNL     1      -1.243   6.155  84.820  1.00  0.00     0.180 C 
HETATM   14  C8  UNL     1      -0.745   6.842  86.117  1.00  0.00     0.042 C 
HETATM   15  C9  UNL     1       0.236   7.756  85.492  1.00  0.00     0.013 A 
HETATM   16  C10 UNL     1       1.610   7.719  85.227  1.00  0.00     0.032 A 
HETATM   17  C11 UNL     1       0.971   6.571  84.734  1.00  0.00     0.092 A 
HETATM   18  N3  UNL     1      -0.128   6.307  83.897  1.00  0.00    -0.332 N 
HETATM   19  C12 UNL     1      -0.188   6.208  82.507  1.00  0.00     0.244 C 
HETATM   20  O4  UNL     1      -1.316   5.963  81.956  1.00  0.00    -0.271 OA
BRANCH  19  21
HETATM   21  C13 UNL     1       0.968   6.366  81.598  1.00  0.00     0.179 C 
HETATM   22  C14 UNL     1       2.049   5.343  81.872  1.00  0.00     0.037 C 
HETATM   23  C15 UNL     1       1.507   4.104  81.176  1.00  0.00     0.022 C 
HETATM   24  C16 UNL     1       0.691   4.647  80.048  1.00  0.00     0.127 C 
HETATM   25  N4  UNL     1       0.586   6.065  80.241  1.00  0.00    -0.333 N 
HETATM   26  C17 UNL     1       0.171   7.011  79.246  1.00  0.00     0.282 C 
HETATM   27  O5  UNL     1       0.130   8.248  79.543  1.00  0.00    -0.265 OA
BRANCH  26  28
HETATM   28  C18 UNL     1      -0.213   6.649  77.893  1.00  0.00     0.332 C 
HETATM   29  O6  UNL     1      -1.326   6.928  77.369  1.00  0.00    -0.297 OA
ENDBRANCH  26  28
ENDBRANCH  19  21
ENDBRANCH  10  13
ENDBRANCH   3   9
TORSDOF 7
ENDMDL
MODEL 3
REMARK VINA RESULT: -7.330622156      2.106      2.722
REMARK  7 active torsions:
REMARK  status: ('A' for Active; 'I' for Inactive)
REMARK    1  A    between atoms: C2_3  and  C3_4 
REMARK    2  A    between atoms: C2_3  and  N2_9 
REMARK    3  A    between atoms: C3_4  and  C4_5 
REMARK    4  A    between atoms: C4_5  and  C5_6 
REMARK       I    between atoms: N2_9  and  C6_11 
REMARK    5  A    between atoms: C6_11  and  C7_13 
REMARK       I    between atoms: N3_18  and  C12_19 
REMARK    6  A    between atoms: C12_19  and  C13_21 
REMARK       I    between atoms: N4_25  and  C17_26 
REMARK    7  A    between atoms: C17_26  and  C18_28 
ROOT
HETATM    1  N1  UNL     1      -3.800   1.243  87.503  1.00  0.00    -0.195 NA
HETATM    2  C1  UNL     1      -2.923   1.967  87.285  1.00  0.00     0.084 C 
HETATM    3  C2  UNL     1      -1.786   2.878  86.995  1.00  0.00     0.192 C 
ENDROOT
BRANCH   3   4
HETATM    4  C3  UNL     1      -0.516   2.118  86.920  1.00  0.00     0.051 C 
BRANCH   4   5
HETATM    5  C4  UNL     1      -0.160   1.776  85.511  1.00  0.00     0.116 C 
BRANCH   5   6
HETATM    6  C5  UNL     1      -0.453   0.411  85.086  1.00  0.00     0.172 C 
HETATM    7  O1  UNL     1      -0.460  -0.041  83.917  1.00  0.00    -0.648 OA
HETATM    8  O2  UNL     1      -0.767  -0.522  86.089  1.00  0.00    -0.648 OA
ENDBRANCH   5   6
ENDBRANCH   4   5
ENDBRANCH   3   4
BRANCH   3   9
HETATM    9  N2  UNL     1      -2.060   3.637  85.784  1.00  0.00    -0.342 N 
HETATM   10  C6  UNL     1      -1.914   5.031  85.684  1.00  0.00     0.241 C 
HETATM   11  O3  UNL     1      -1.525   5.662  86.699  1.00  0.00    -0.271 OA
ATOM     12  H2  UNL     1      -2.376   3.127  84.960  1.00  0.00     0.163 HD
BRANCH  10  13
HETATM   13  C7  UNL     1      -2.192   5.786  84.460  1.00  0.00     0.180 C 
HETATM   14  C8  UNL     1      -2.726   7.203  84.793  1.00  0.00     0.042 C 
HETATM   15  C9  UNL     1      -2.116   7.918  83.651  1.00  0.00     0.013 A 
HETATM   16  C10 UNL     1      -0.934   8.636  83.437  1.00  0.00     0.032 A 
HETATM   17  C11 UNL     1      -0.663   7.375  83.990  1.00  0.00     0.092 A 
HETATM   18  N3  UNL     1      -0.992   6.044  83.678  1.00  0.00    -0.332 N 
HETATM   19  C12 UNL     1      -0.353   5.143  82.826  1.00  0.00     0.244 C 
HETATM   20  O4  UNL     1      -0.844   3.969  82.693  1.00  0.00    -0.271 OA
BRANCH  19  21
HETATM   21  C13 UNL     1       0.869   5.438  82.048  1.00  0.00     0.179 C 
HETATM   22  C14 UNL     1       1.858   6.267  82.837  1.00  0.00     0.037 C 
HETATM   23  C15 UNL     1       2.520   5.225  83.725  1.00  0.00     0.022 C 
HETATM   24  C16 UNL     1       2.450   3.966  82.923  1.00  0.00     0.127 C 
HETATM   25  N4  UNL     1       1.607   4.227  81.791  1.00  0.00    -0.333 N 
HETATM   26  C17 UNL     1       1.523   3.413  80.613  1.00  0.00     0.282 C 
HETATM   27  O5  UNL     1       0.740   3.762  79.672  1.00  0.00    -0.265 OA
BRANCH  26  28
HETATM   28  C18 UNL     1       2.286   2.194  80.414  1.00  0.00     0.332 C 
HETATM   29  O6  UNL     1       1.794   1.032  80.443  1.00  0.00    -0.297 OA
ENDBRANCH  26  28
ENDBRANCH  19  21
ENDBRANCH  10  13
ENDBRANCH   3   9
TORSDOF 7
ENDMDL
MODEL 4
REMARK VINA RESULT: -7.295753763      2.336      4.632
REMARK  7 active torsions:
REMARK  status: ('A' for Active; 'I' for Inactive)
REMARK    1  A    between atoms: C2_3  and  C3_4 
REMARK    2  A    between atoms: C2_3  and  N2_9 
REMARK    3  A    between atoms: C3_4  and  C4_5 
REMARK    4  A    between atoms: C4_5  and  C5_6 
REMARK       I    between atoms: N2_9  and  C6_11 
REMARK    5  A    between atoms: C6_11  and  C7_13 
REMARK       I    between atoms: N3_18  and  C12_19 
REMARK    6  A    between atoms: C12_19  and  C13_21 
REMARK       I    between atoms: N4_25  and  C17_26 
REMARK    7  A    between atoms: C17_26  and  C18_28 
ROOT
HETATM    1  N1  UNL     1      -0.457  -0.663  84.603  1.00  0.00    -0.195 NA
HETATM    2  C1  UNL     1      -0.565   0.428  84.971  1.00  0.00     0.084 C 
HETATM    3  C2  UNL     1      -0.685   1.827  85.459  1.00  0.00     0.192 C 
ENDROOT
BRANCH   3   4
HETATM    4  C3  UNL     1      -0.282   1.919  86.882  1.00  0.00     0.051 C 
BRANCH   4   5
HETATM    5  C4  UNL     1      -1.467   1.995  87.787  1.00  0.00     0.116 C 
BRANCH   5   6
HETATM    6  C5  UNL     1      -2.267   0.781  87.905  1.00  0.00     0.172 C 
HETATM    7  O1  UNL     1      -1.871  -0.370  88.200  1.00  0.00    -0.648 OA
HETATM    8  O2  UNL     1      -3.647   0.894  87.665  1.00  0.00    -0.648 OA
ENDBRANCH   5   6
ENDBRANCH   4   5
ENDBRANCH   3   4
BRANCH   3   9
HETATM    9  N2  UNL     1       0.080   2.717  84.598  1.00  0.00    -0.342 N 
HETATM   10  C6  UNL     1      -0.312   3.076  83.297  1.00  0.00     0.241 C 
HETATM   11  O3  UNL     1      -1.386   2.602  82.848  1.00  0.00    -0.271 OA
ATOM     12  H2  UNL     1       0.951   3.102  84.961  1.00  0.00     0.163 HD
BRANCH  10  13
HETATM   13  C7  UNL     1       0.465   3.974  82.440  1.00  0.00     0.180 C 
HETATM   14  C8  UNL     1       0.118   3.749  80.945  1.00  0.00     0.042 C 
HETATM   15  C9  UNL     1       0.278   5.147  80.492  1.00  0.00     0.013 A 
HETATM   16  C10 UNL     1      -0.573   6.245  80.315  1.00  0.00     0.032 A 
HETATM   17  C11 UNL     1      -0.717   5.699  81.600  1.00  0.00     0.092 A 
HETATM   18  N3  UNL     1       0.145   5.376  82.662  1.00  0.00    -0.332 N 
HETATM   19  C12 UNL     1       0.614   6.173  83.705  1.00  0.00     0.244 C 
HETATM   20  O4  UNL     1       1.407   5.657  84.566  1.00  0.00    -0.271 OA
BRANCH  19  21
HETATM   21  C13 UNL     1       0.265   7.597  83.903  1.00  0.00     0.179 C 
HETATM   22  C14 UNL     1      -1.202   7.782  84.222  1.00  0.00     0.037 C 
HETATM   23  C15 UNL     1      -1.261   7.429  85.700  1.00  0.00     0.022 C 
HETATM   24  C16 UNL     1       0.089   7.806  86.218  1.00  0.00     0.127 C 
HETATM   25  N4  UNL     1       0.911   8.114  85.083  1.00  0.00    -0.333 N 
HETATM   26  C17 UNL     1       2.161   8.817  85.130  1.00  0.00     0.282 C 
HETATM   27  O5  UNL     1       2.790   9.037  84.045  1.00  0.00    -0.265 OA
BRANCH  26  28
HETATM   28  C18 UNL     1       2.770   9.308  86.352  1.00  0.00     0.332 C 
HETATM   29  O6  UNL     1       3.763  10.086  86.392  1.00  0.00    -0.297 OA
ENDBRANCH  26  28
ENDBRANCH  19  21
ENDBRANCH  10  13
ENDBRANCH   3   9
TORSDOF 7
ENDMDL
MODEL 5
REMARK VINA RESULT: -7.278443264      2.408      4.136
REMARK  7 active torsions:
REMARK  status: ('A' for Active; 'I' for Inactive)
REMARK    1  A    between atoms: C2_3  and  C3_4 
REMARK    2  A    between atoms: C2_3  and  N2_9 
REMARK    3  A    between atoms: C3_4  and  C4_5 
REMARK    4  A    between atoms: C4_5  and  C5_6 
REMARK       I    between atoms: N2_9  and  C6_11 
REMARK    5  A    between atoms: C6_11  and  C7_13 
REMARK       I    between atoms: N3_18  and  C12_19 
REMARK    6  A    between atoms: C12_19  and  C13_21 
REMARK       I    between atoms: N4_25  and  C17_26 
REMARK    7  A    between atoms: C17_26  and  C18_28 
ROOT
HETATM    1  N1  UNL     1      -2.428   5.857  85.371  1.00  0.00    -0.195 NA
HETATM    2  C1  UNL     1      -2.069   4.814  85.721  1.00  0.00     0.084 C 
HETATM    3  C2  UNL     1      -1.631   3.466  86.169  1.00  0.00     0.192 C 
ENDROOT
BRANCH   3   4
HETATM    4  C3  UNL     1      -2.689   2.817  86.978  1.00  0.00     0.051 C 
BRANCH   4   5
HETATM    5  C4  UNL     1      -2.121   2.111  88.165  1.00  0.00     0.116 C 
BRANCH   5   6
HETATM    6  C5  UNL     1      -1.496   0.817  87.907  1.00  0.00     0.172 C 
HETATM    7  O1  UNL     1      -2.021  -0.316  87.997  1.00  0.00    -0.648 OA
HETATM    8  O2  UNL     1      -0.148   0.822  87.509  1.00  0.00    -0.648 OA
ENDBRANCH   5   6
ENDBRANCH   4   5
ENDBRANCH   3   4
BRANCH   3   9
HETATM    9  N2  UNL     1      -1.233   2.669  85.019  1.00  0.00    -0.342 N 
HETATM   10  C6  UNL     1       0.036   2.740  84.418  1.00  0.00     0.241 C 
HETATM   11  O3  UNL     1       0.878   3.539  84.900  1.00  0.00    -0.271 OA
ATOM     12  H2  UNL     1      -1.914   2.020  84.626  1.00  0.00     0.163 HD
BRANCH  10  13
HETATM   13  C7  UNL     1       0.427   1.932  83.261  1.00  0.00     0.180 C 
HETATM   14  C8  UNL     1      -0.466   0.670  83.140  1.00  0.00     0.042 C 
HETATM   15  C9  UNL     1      -0.489   0.585  81.664  1.00  0.00     0.013 A 
HETATM   16  C10 UNL     1      -1.343   1.036  80.650  1.00  0.00     0.032 A 
HETATM   17  C11 UNL     1      -0.985   2.085  81.510  1.00  0.00     0.092 A 
HETATM   18  N3  UNL     1       0.217   2.625  81.999  1.00  0.00    -0.332 N 
HETATM   19  C12 UNL     1       1.051   3.596  81.442  1.00  0.00     0.244 C 
HETATM   20  O4  UNL     1       2.112   3.930  82.074  1.00  0.00    -0.271 OA
BRANCH  19  21
HETATM   21  C13 UNL     1       0.806   4.284  80.156  1.00  0.00     0.179 C 
HETATM   22  C14 UNL     1      -0.288   5.323  80.269  1.00  0.00     0.037 C 
HETATM   23  C15 UNL     1       0.441   6.496  80.905  1.00  0.00     0.022 C 
HETATM   24  C16 UNL     1       1.850   6.350  80.428  1.00  0.00     0.127 C 
HETATM   25  N4  UNL     1       1.952   5.073  79.781  1.00  0.00    -0.333 N 
HETATM   26  C17 UNL     1       3.018   4.664  78.913  1.00  0.00     0.282 C 
HETATM   27  O5  UNL     1       2.985   3.503  78.392  1.00  0.00    -0.265 OA
BRANCH  26  28
HETATM   28  C18 UNL     1       4.156   5.500  78.577  1.00  0.00     0.332 C 
HETATM   29  O6  UNL     1       5.223   5.557  79.249  1.00  0.00    -0.297 OA
ENDBRANCH  26  28
ENDBRANCH  19  21
ENDBRANCH  10  13
ENDBRANCH   3   9
TORSDOF 7
ENDMDL
