MODEL 1
REMARK VINA RESULT: -7.036518317      0.000      0.000
REMARK  3 active torsions:
REMARK  status: ('A' for Active; 'I' for Inactive)
REMARK       I    between atoms: N1_7  and  C6_8 
REMARK       I    between atoms: C6_8  and  N2_10 
REMARK    1  A    between atoms: N2_10  and  C7_12 
REMARK    2  A    between atoms: C7_12  and  C8_13 
REMARK    3  A    between atoms: C8_13  and  N3_14 
ROOT
HETATM    1  O1  UNL     1      18.307   1.166  10.335  1.00  0.00    -0.273 OA
HETATM    2  C1  UNL     1      19.064   2.028  10.819  1.00  0.00     0.230 C 
HETATM    3  C2  UNL     1      20.531   2.114  10.518  1.00  0.00     0.144 C 
HETATM    4  C3  UNL     1      20.787   3.479   9.938  1.00  0.00     0.156 C 
HETATM    5  C4  UNL     1      19.983   4.566  10.549  1.00  0.00     0.062 C 
HETATM    6  C5  UNL     1      19.280   4.250  11.820  1.00  0.00     0.139 C 
HETATM    7  N1  UNL     1      18.563   3.021  11.720  1.00  0.00    -0.270 N 
HETATM    8  C6  UNL     1      17.369   2.740  12.481  1.00  0.00     0.325 C 
HETATM    9  O2  UNL     1      16.819   1.630  12.333  1.00  0.00    -0.247 OA
HETATM   10  N2  UNL     1      16.832   3.679  13.366  1.00  0.00    -0.341 N 
ATOM     11  H2  UNL     1      17.297   4.581  13.474  1.00  0.00     0.164 HD
HETATM   12  C13 UNL     1      22.262   3.813  10.086  1.00  0.00     0.207 C 
HETATM   13  O4  UNL     1      23.011   3.387   9.002  1.00  0.00    -0.387 OA
HETATM   14  C14 UNL     1      22.726   4.111   7.840  1.00  0.00     0.195 C 
HETATM   15  C15 UNL     1      21.253   4.514   7.901  1.00  0.00     0.259 C 
HETATM   16  N4  UNL     1      20.554   3.387   8.487  1.00  0.00    -0.062 N 
ATOM     17  H41 UNL     1      19.567   3.343   8.234  1.00  0.00     0.278 HD
ATOM     18  H42 UNL     1      20.824   2.488   8.088  1.00  0.00     0.278 HD
ENDROOT
BRANCH  10  19
HETATM   19  C7  UNL     1      15.656   3.414  14.119  1.00  0.00     0.144 C 
BRANCH  19  20
HETATM   20  C8  UNL     1      15.667   3.901  15.548  1.00  0.00     0.146 C 
BRANCH  20  21
HETATM   21  N3  UNL     1      15.806   2.748  16.377  1.00  0.00    -0.368 N 
HETATM   22  C9  UNL     1      14.639   2.207  16.945  1.00  0.00     0.089 C 
HETATM   23  C10 UNL     1      14.732   0.762  17.341  1.00  0.00     0.212 C 
HETATM   24  O3  UNL     1      16.031   0.387  17.701  1.00  0.00    -0.381 OA
HETATM   25  C11 UNL     1      16.790   0.490  16.518  1.00  0.00     0.212 C 
HETATM   26  C12 UNL     1      16.936   1.934  16.190  1.00  0.00     0.089 C 
ENDBRANCH  20  21
ENDBRANCH  19  20
ENDBRANCH  10  19
TORSDOF 3
ENDMDL
MODEL 2
REMARK VINA RESULT: -6.881487849      0.600      1.139
REMARK  3 active torsions:
REMARK  status: ('A' for Active; 'I' for Inactive)
REMARK       I    between atoms: N1_7  and  C6_8 
REMARK       I    between atoms: C6_8  and  N2_10 
REMARK    1  A    between atoms: N2_10  and  C7_12 
REMARK    2  A    between atoms: C7_12  and  C8_13 
REMARK    3  A    between atoms: C8_13  and  N3_14 
ROOT
HETATM    1  O1  UNL     1      17.860   1.978  10.230  1.00  0.00    -0.273 OA
HETATM    2  C1  UNL     1      18.748   2.613  10.828  1.00  0.00     0.230 C 
HETATM    3  C2  UNL     1      20.215   2.444  10.563  1.00  0.00     0.144 C 
HETATM    4  C3  UNL     1      20.752   3.790  10.159  1.00  0.00     0.156 C 
HETATM    5  C4  UNL     1      20.149   4.935  10.884  1.00  0.00     0.062 C 
HETATM    6  C5  UNL     1      19.349   4.618  12.095  1.00  0.00     0.139 C 
HETATM    7  N1  UNL     1      18.412   3.573  11.835  1.00  0.00    -0.270 N 
HETATM    8  C6  UNL     1      17.158   3.446  12.536  1.00  0.00     0.325 C 
HETATM    9  O2  UNL     1      16.410   2.490  12.245  1.00  0.00    -0.247 OA
HETATM   10  N2  UNL     1      16.776   4.363  13.520  1.00  0.00    -0.341 N 
ATOM     11  H2  UNL     1      17.402   5.137  13.745  1.00  0.00     0.164 HD
HETATM   12  C13 UNL     1      22.257   3.808  10.370  1.00  0.00     0.207 C 
HETATM   13  O4  UNL     1      22.952   3.373   9.256  1.00  0.00    -0.387 OA
HETATM   14  C14 UNL     1      22.859   4.269   8.185  1.00  0.00     0.195 C 
HETATM   15  C15 UNL     1      21.490   4.943   8.271  1.00  0.00     0.259 C 
HETATM   16  N4  UNL     1      20.564   3.914   8.704  1.00  0.00    -0.062 N 
ATOM     17  H41 UNL     1      19.598   4.095   8.431  1.00  0.00     0.278 HD
ATOM     18  H42 UNL     1      20.671   3.033   8.202  1.00  0.00     0.278 HD
ENDROOT
BRANCH  10  19
HETATM   19  C7  UNL     1      15.542   4.248  14.216  1.00  0.00     0.144 C 
BRANCH  19  20
HETATM   20  C8  UNL     1      15.645   4.053  15.710  1.00  0.00     0.146 C 
BRANCH  20  21
HETATM   21  N3  UNL     1      15.572   2.649  15.949  1.00  0.00    -0.368 N 
HETATM   22  C9  UNL     1      16.733   1.886  15.733  1.00  0.00     0.089 C 
HETATM   23  C10 UNL     1      16.787   0.581  16.471  1.00  0.00     0.212 C 
HETATM   24  O3  UNL     1      15.517   0.036  16.690  1.00  0.00    -0.381 OA
HETATM   25  C11 UNL     1      14.877   0.928  17.575  1.00  0.00     0.212 C 
HETATM   26  C12 UNL     1      14.580   2.181  16.829  1.00  0.00     0.089 C 
ENDBRANCH  20  21
ENDBRANCH  19  20
ENDBRANCH  10  19
TORSDOF 3
ENDMDL
MODEL 3
REMARK VINA RESULT: -6.622674900      1.933      2.403
REMARK  3 active torsions:
REMARK  status: ('A' for Active; 'I' for Inactive)
REMARK       I    between atoms: N1_7  and  C6_8 
REMARK       I    between atoms: C6_8  and  N2_10 
REMARK    1  A    between atoms: N2_10  and  C7_12 
REMARK    2  A    between atoms: C7_12  and  C8_13 
REMARK    3  A    between atoms: C8_13  and  N3_14 
ROOT
HETATM    1  O1  UNL     1      18.354   2.071  10.190  1.00  0.00    -0.273 OA
HETATM    2  C1  UNL     1      18.872   3.203  10.217  1.00  0.00     0.230 C 
HETATM    3  C2  UNL     1      19.752   3.744   9.129  1.00  0.00     0.144 C 
HETATM    4  C3  UNL     1      19.114   5.011   8.629  1.00  0.00     0.156 C 
HETATM    5  C4  UNL     1      18.470   5.833   9.684  1.00  0.00     0.062 C 
HETATM    6  C5  UNL     1      18.788   5.486  11.093  1.00  0.00     0.139 C 
HETATM    7  N1  UNL     1      18.651   4.085  11.324  1.00  0.00    -0.270 N 
HETATM    8  C6  UNL     1      18.304   3.526  12.608  1.00  0.00     0.325 C 
HETATM    9  O2  UNL     1      18.219   2.285  12.712  1.00  0.00    -0.247 OA
HETATM   10  N2  UNL     1      18.067   4.343  13.717  1.00  0.00    -0.341 N 
ATOM     11  H2  UNL     1      18.142   5.355  13.612  1.00  0.00     0.164 HD
HETATM   12  C13 UNL     1      20.164   5.851   7.921  1.00  0.00     0.207 C 
HETATM   13  O4  UNL     1      20.257   5.554   6.573  1.00  0.00    -0.387 OA
HETATM   14  C14 UNL     1      19.123   5.954   5.859  1.00  0.00     0.195 C 
HETATM   15  C15 UNL     1      17.924   5.829   6.798  1.00  0.00     0.259 C 
HETATM   16  N4  UNL     1      18.153   4.630   7.581  1.00  0.00    -0.062 N 
ATOM     17  H41 UNL     1      17.296   4.212   7.945  1.00  0.00     0.278 HD
ATOM     18  H42 UNL     1      18.453   3.831   7.024  1.00  0.00     0.278 HD
ENDROOT
BRANCH  10  19
HETATM   19  C7  UNL     1      17.723   3.803  14.986  1.00  0.00     0.144 C 
BRANCH  19  20
HETATM   20  C8  UNL     1      16.276   3.948  15.392  1.00  0.00     0.146 C 
BRANCH  20  21
HETATM   21  N3  UNL     1      15.821   2.650  15.771  1.00  0.00    -0.368 N 
HETATM   22  C9  UNL     1      16.768   1.612  15.814  1.00  0.00     0.089 C 
HETATM   23  C10 UNL     1      16.404   0.450  16.691  1.00  0.00     0.212 C 
HETATM   24  O3  UNL     1      15.020   0.258  16.779  1.00  0.00    -0.381 OA
HETATM   25  C11 UNL     1      14.530   1.393  17.456  1.00  0.00     0.212 C 
HETATM   26  C12 UNL     1      14.649   2.560  16.541  1.00  0.00     0.089 C 
ENDBRANCH  20  21
ENDBRANCH  19  20
ENDBRANCH  10  19
TORSDOF 3
ENDMDL
MODEL 4
REMARK VINA RESULT: -6.556965962      2.429      8.424
REMARK  3 active torsions:
REMARK  status: ('A' for Active; 'I' for Inactive)
REMARK       I    between atoms: N1_7  and  C6_8 
REMARK       I    between atoms: C6_8  and  N2_10 
REMARK    1  A    between atoms: N2_10  and  C7_12 
REMARK    2  A    between atoms: C7_12  and  C8_13 
REMARK    3  A    between atoms: C8_13  and  N3_14 
ROOT
HETATM    1  O1  UNL     1      18.667   1.712  12.166  1.00  0.00    -0.273 OA
HETATM    2  C1  UNL     1      18.202   2.669  12.813  1.00  0.00     0.230 C 
HETATM    3  C2  UNL     1      16.831   2.678  13.421  1.00  0.00     0.144 C 
HETATM    4  C3  UNL     1      17.002   2.900  14.899  1.00  0.00     0.156 C 
HETATM    5  C4  UNL     1      18.092   3.841  15.257  1.00  0.00     0.062 C 
HETATM    6  C5  UNL     1      18.660   4.662  14.157  1.00  0.00     0.139 C 
HETATM    7  N1  UNL     1      18.975   3.857  13.022  1.00  0.00    -0.270 N 
HETATM    8  C6  UNL     1      20.024   4.186  12.088  1.00  0.00     0.325 C 
HETATM    9  O2  UNL     1      20.215   3.424  11.118  1.00  0.00    -0.247 OA
HETATM   10  N2  UNL     1      20.814   5.327  12.252  1.00  0.00    -0.341 N 
ATOM     11  H2  UNL     1      20.642   5.938  13.051  1.00  0.00     0.164 HD
HETATM   12  C13 UNL     1      15.695   3.417  15.478  1.00  0.00     0.207 C 
HETATM   13  O4  UNL     1      14.859   2.394  15.889  1.00  0.00    -0.387 OA
HETATM   14  C14 UNL     1      15.355   1.717  17.009  1.00  0.00     0.195 C 
HETATM   15  C15 UNL     1      16.880   1.746  16.922  1.00  0.00     0.259 C 
HETATM   16  N4  UNL     1      17.203   1.580  15.518  1.00  0.00    -0.062 N 
ATOM     17  H41 UNL     1      18.133   1.192  15.357  1.00  0.00     0.278 HD
ATOM     18  H42 UNL     1      16.678   0.833  15.064  1.00  0.00     0.278 HD
ENDROOT
BRANCH  10  19
HETATM   19  C7  UNL     1      21.852   5.659  11.339  1.00  0.00     0.144 C 
BRANCH  19  20
HETATM   20  C8  UNL     1      23.237   5.769  11.930  1.00  0.00     0.146 C 
BRANCH  20  21
HETATM   21  N3  UNL     1      24.109   5.026  11.079  1.00  0.00    -0.368 N 
HETATM   22  C9  UNL     1      23.524   4.217  10.089  1.00  0.00     0.089 C 
HETATM   23  C10 UNL     1      24.411   3.892   8.923  1.00  0.00     0.212 C 
HETATM   24  O3  UNL     1      25.765   3.853   9.274  1.00  0.00    -0.381 OA
HETATM   25  C11 UNL     1      26.097   5.177   9.626  1.00  0.00     0.212 C 
HETATM   26  C12 UNL     1      25.425   5.491  10.916  1.00  0.00     0.089 C 
ENDBRANCH  20  21
ENDBRANCH  19  20
ENDBRANCH  10  19
TORSDOF 3
ENDMDL
MODEL 5
REMARK VINA RESULT: -6.554403414      1.570      1.975
REMARK  3 active torsions:
REMARK  status: ('A' for Active; 'I' for Inactive)
REMARK       I    between atoms: N1_7  and  C6_8 
REMARK       I    between atoms: C6_8  and  N2_10 
REMARK    1  A    between atoms: N2_10  and  C7_12 
REMARK    2  A    between atoms: C7_12  and  C8_13 
REMARK    3  A    between atoms: C8_13  and  N3_14 
ROOT
HETATM    1  O1  UNL     1      18.655   3.759   8.987  1.00  0.00    -0.273 OA
HETATM    2  C1  UNL     1      19.701   3.500   9.609  1.00  0.00     0.230 C 
HETATM    3  C2  UNL     1      21.029   3.273   8.950  1.00  0.00     0.144 C 
HETATM    4  C3  UNL     1      21.986   4.288   9.514  1.00  0.00     0.156 C 
HETATM    5  C4  UNL     1      21.795   4.576  10.958  1.00  0.00     0.062 C 
HETATM    6  C5  UNL     1      20.929   3.640  11.721  1.00  0.00     0.139 C 
HETATM    7  N1  UNL     1      19.700   3.402  11.038  1.00  0.00    -0.270 N 
HETATM    8  C6  UNL     1      18.471   3.069  11.718  1.00  0.00     0.325 C 
HETATM    9  O2  UNL     1      17.449   2.868  11.030  1.00  0.00    -0.247 OA
HETATM   10  N2  UNL     1      18.412   2.972  13.110  1.00  0.00    -0.341 N 
ATOM     11  H2  UNL     1      19.259   3.140  13.655  1.00  0.00     0.164 HD
HETATM   12  C13 UNL     1      23.410   3.807   9.290  1.00  0.00     0.207 C 
HETATM   13  O4  UNL     1      23.925   4.230   8.078  1.00  0.00    -0.387 OA
HETATM   14  C14 UNL     1      24.141   5.612   8.043  1.00  0.00     0.195 C 
HETATM   15  C15 UNL     1      23.074   6.264   8.922  1.00  0.00     0.259 C 
HETATM   16  N4  UNL     1      21.857   5.508   8.700  1.00  0.00    -0.062 N 
ATOM     17  H41 UNL     1      21.007   6.039   8.892  1.00  0.00     0.278 HD
ATOM     18  H42 UNL     1      21.666   5.322   7.716  1.00  0.00     0.278 HD
ENDROOT
BRANCH  10  19
HETATM   19  C7  UNL     1      17.207   2.647  13.790  1.00  0.00     0.144 C 
BRANCH  19  20
HETATM   20  C8  UNL     1      17.210   2.883  15.282  1.00  0.00     0.146 C 
BRANCH  20  21
HETATM   21  N3  UNL     1      16.241   1.997  15.842  1.00  0.00    -0.368 N 
HETATM   22  C9  UNL     1      16.710   0.843  16.494  1.00  0.00     0.089 C 
HETATM   23  C10 UNL     1      15.762   0.244  17.492  1.00  0.00     0.212 C 
HETATM   24  O3  UNL     1      14.422   0.473  17.163  1.00  0.00    -0.381 OA
HETATM   25  C11 UNL     1      14.243   1.866  17.282  1.00  0.00     0.212 C 
HETATM   26  C12 UNL     1      14.978   2.521  16.166  1.00  0.00     0.089 C 
ENDBRANCH  20  21
ENDBRANCH  19  20
ENDBRANCH  10  19
TORSDOF 3
ENDMDL
