MODEL 1
REMARK VINA RESULT: -4.826305209      0.000      0.000
REMARK  3 active torsions:
REMARK  status: ('A' for Active; 'I' for Inactive)
REMARK    1  A    between atoms: C3_7  and  N3_8 
REMARK    2  A    between atoms: N3_8  and  C4_10 
REMARK    3  A    between atoms: C4_10  and  N4_11 
ROOT
HETATM    1  C1  UNL     1     -25.685  23.592 -23.911  1.00  0.00     0.091 C 
HETATM    2  C2  UNL     1     -24.485  23.675 -24.791  1.00  0.00     0.108 A 
HETATM    3  N1  UNL     1     -23.656  24.713 -24.997  1.00  0.00    -0.275 N 
ATOM      4  H1  UNL     1     -23.755  25.625 -24.550  1.00  0.00     0.189 HD
HETATM    5  N2  UNL     1     -22.698  24.402 -25.852  1.00  0.00    -0.131 N 
ATOM      6  H2  UNL     1     -21.947  25.012 -26.173  1.00  0.00     0.205 HD
HETATM    7  C3  UNL     1     -22.906  23.115 -26.219  1.00  0.00     0.695 A 
HETATM    8  N5  UNL     1     -23.999  22.686 -25.563  1.00  0.00    -0.178 N 
ATOM      9  H5  UNL     1     -24.399  21.751 -25.640  1.00  0.00     0.185 HD
ENDROOT
BRANCH   7  10
HETATM   10  N3  UNL     1     -22.179  22.435 -27.049  1.00  0.00    -0.201 N 
ATOM     11  H3  UNL     1     -22.384  21.453 -27.233  1.00  0.00     0.179 HD
BRANCH  10  12
HETATM   12  C4  UNL     1     -21.079  23.089 -27.709  1.00  0.00     0.368 C 
BRANCH  12  13
HETATM   13  N4  UNL     1     -20.626  22.399 -28.872  1.00  0.00    -0.063 N 
ATOM     14  H43 UNL     1     -21.324  22.444 -29.614  1.00  0.00     0.276 HD
ATOM     15  H42 UNL     1     -19.866  22.909 -29.323  1.00  0.00     0.276 HD
ATOM     16  H41 UNL     1     -20.355  21.432 -28.689  1.00  0.00     0.276 HD
ENDBRANCH  12  13
ENDBRANCH  10  12
ENDBRANCH   7  10
TORSDOF 3
ENDMDL
MODEL 2
REMARK VINA RESULT: -4.605939566      1.270      1.729
REMARK  3 active torsions:
REMARK  status: ('A' for Active; 'I' for Inactive)
REMARK    1  A    between atoms: C3_7  and  N3_8 
REMARK    2  A    between atoms: N3_8  and  C4_10 
REMARK    3  A    between atoms: C4_10  and  N4_11 
ROOT
HETATM    1  C1  UNL     1     -25.836  23.587 -24.122  1.00  0.00     0.091 C 
HETATM    2  C2  UNL     1     -24.534  22.900 -24.355  1.00  0.00     0.108 A 
HETATM    3  N1  UNL     1     -24.012  21.838 -23.718  1.00  0.00    -0.275 N 
ATOM      4  H1  UNL     1     -24.470  21.345 -22.952  1.00  0.00     0.189 HD
HETATM    5  N2  UNL     1     -22.829  21.515 -24.211  1.00  0.00    -0.131 N 
ATOM      6  H2  UNL     1     -22.229  20.750 -23.903  1.00  0.00     0.205 HD
HETATM    7  C3  UNL     1     -22.567  22.396 -25.206  1.00  0.00     0.695 A 
HETATM    8  N5  UNL     1     -23.617  23.233 -25.281  1.00  0.00    -0.178 N 
ATOM      9  H5  UNL     1     -23.704  24.006 -25.941  1.00  0.00     0.185 HD
ENDROOT
BRANCH   7  10
HETATM   10  N3  UNL     1     -21.500  22.417 -25.940  1.00  0.00    -0.201 N 
ATOM     11  H3  UNL     1     -20.694  21.839 -25.698  1.00  0.00     0.179 HD
BRANCH  10  12
HETATM   12  C4  UNL     1     -21.468  23.266 -27.102  1.00  0.00     0.368 C 
BRANCH  12  13
HETATM   13  N4  UNL     1     -20.781  22.685 -28.208  1.00  0.00    -0.063 N 
ATOM     14  H43 UNL     1     -19.822  23.029 -28.259  1.00  0.00     0.276 HD
ATOM     15  H42 UNL     1     -20.597  21.695 -28.042  1.00  0.00     0.276 HD
ATOM     16  H41 UNL     1     -21.261  22.819 -29.099  1.00  0.00     0.276 HD
ENDBRANCH  12  13
ENDBRANCH  10  12
ENDBRANCH   7  10
TORSDOF 3
ENDMDL
MODEL 3
REMARK VINA RESULT: -4.404665889      2.079      2.186
REMARK  3 active torsions:
REMARK  status: ('A' for Active; 'I' for Inactive)
REMARK    1  A    between atoms: C3_7  and  N3_8 
REMARK    2  A    between atoms: N3_8  and  C4_10 
REMARK    3  A    between atoms: C4_10  and  N4_11 
ROOT
HETATM    1  C1  UNL     1     -23.542  20.320 -23.302  1.00  0.00     0.091 C 
HETATM    2  C2  UNL     1     -22.902  21.459 -24.019  1.00  0.00     0.108 A 
HETATM    3  N1  UNL     1     -23.105  22.779 -23.863  1.00  0.00    -0.275 N 
ATOM      4  H1  UNL     1     -23.761  23.184 -23.195  1.00  0.00     0.189 HD
HETATM    5  N2  UNL     1     -22.347  23.483 -24.685  1.00  0.00    -0.131 N 
ATOM      6  H2  UNL     1     -22.313  24.500 -24.762  1.00  0.00     0.205 HD
HETATM    7  C3  UNL     1     -21.621  22.594 -25.404  1.00  0.00     0.695 A 
HETATM    8  N5  UNL     1     -21.972  21.365 -24.986  1.00  0.00    -0.178 N 
ATOM      9  H5  UNL     1     -21.589  20.492 -25.348  1.00  0.00     0.185 HD
ENDROOT
BRANCH   7  10
HETATM   10  N3  UNL     1     -20.755  22.888 -26.322  1.00  0.00    -0.201 N 
ATOM     11  H3  UNL     1     -19.764  22.967 -26.093  1.00  0.00     0.179 HD
BRANCH  10  12
HETATM   12  C4  UNL     1     -21.212  23.099 -27.671  1.00  0.00     0.368 C 
BRANCH  12  13
HETATM   13  N4  UNL     1     -20.376  22.493 -28.653  1.00  0.00    -0.063 N 
ATOM     14  H43 UNL     1     -20.222  21.508 -28.440  1.00  0.00     0.276 HD
ATOM     15  H42 UNL     1     -20.870  22.398 -29.541  1.00  0.00     0.276 HD
ATOM     16  H41 UNL     1     -19.488  22.978 -28.784  1.00  0.00     0.276 HD
ENDBRANCH  12  13
ENDBRANCH  10  12
ENDBRANCH   7  10
TORSDOF 3
ENDMDL
MODEL 4
REMARK VINA RESULT: -4.402446989      2.336      3.674
REMARK  3 active torsions:
REMARK  status: ('A' for Active; 'I' for Inactive)
REMARK    1  A    between atoms: C3_7  and  N3_8 
REMARK    2  A    between atoms: N3_8  and  C4_10 
REMARK    3  A    between atoms: C4_10  and  N4_11 
ROOT
HETATM    1  C1  UNL     1     -22.969  25.746 -25.970  1.00  0.00     0.091 C 
HETATM    2  C2  UNL     1     -22.444  24.354 -25.881  1.00  0.00     0.108 A 
HETATM    3  N1  UNL     1     -21.639  23.697 -26.735  1.00  0.00    -0.275 N 
ATOM      4  H1  UNL     1     -21.269  24.095 -27.597  1.00  0.00     0.189 HD
HETATM    5  N2  UNL     1     -21.390  22.469 -26.313  1.00  0.00    -0.131 N 
ATOM      6  H2  UNL     1     -20.809  21.771 -26.778  1.00  0.00     0.205 HD
HETATM    7  C3  UNL     1     -22.055  22.317 -25.142  1.00  0.00     0.695 A 
HETATM    8  N5  UNL     1     -22.692  23.475 -24.893  1.00  0.00    -0.178 N 
ATOM      9  H5  UNL     1     -23.276  23.659 -24.078  1.00  0.00     0.185 HD
ENDROOT
BRANCH   7  10
HETATM   10  N3  UNL     1     -22.066  21.248 -24.409  1.00  0.00    -0.201 N 
ATOM     11  H3  UNL     1     -21.239  20.654 -24.348  1.00  0.00     0.179 HD
BRANCH  10  12
HETATM   12  C4  UNL     1     -23.263  20.912 -23.684  1.00  0.00     0.368 C 
BRANCH  12  13
HETATM   13  N4  UNL     1     -23.344  19.532 -23.335  1.00  0.00    -0.063 N 
ATOM     14  H43 UNL     1     -22.463  19.207 -22.936  1.00  0.00     0.276 HD
ATOM     15  H42 UNL     1     -23.955  19.397 -22.528  1.00  0.00     0.276 HD
ATOM     16  H41 UNL     1     -23.632  18.934 -24.110  1.00  0.00     0.276 HD
ENDBRANCH  12  13
ENDBRANCH  10  12
ENDBRANCH   7  10
TORSDOF 3
ENDMDL
MODEL 5
REMARK VINA RESULT: -4.288720324      2.328      4.165
REMARK  3 active torsions:
REMARK  status: ('A' for Active; 'I' for Inactive)
REMARK    1  A    between atoms: C3_7  and  N3_8 
REMARK    2  A    between atoms: N3_8  and  C4_10 
REMARK    3  A    between atoms: C4_10  and  N4_11 
ROOT
HETATM    1  C1  UNL     1     -21.228  23.125 -27.573  1.00  0.00     0.091 C 
HETATM    2  C2  UNL     1     -22.219  22.785 -26.512  1.00  0.00     0.108 A 
HETATM    3  N1  UNL     1     -23.542  23.023 -26.482  1.00  0.00    -0.275 N 
ATOM      4  H1  UNL     1     -24.059  23.492 -27.226  1.00  0.00     0.189 HD
HETATM    5  N2  UNL     1     -24.087  22.570 -25.367  1.00  0.00    -0.131 N 
ATOM      6  H2  UNL     1     -25.071  22.626 -25.103  1.00  0.00     0.205 HD
HETATM    7  C3  UNL     1     -23.086  22.017 -24.640  1.00  0.00     0.695 A 
HETATM    8  N5  UNL     1     -21.954  22.157 -25.353  1.00  0.00    -0.178 N 
ATOM      9  H5  UNL     1     -21.033  21.834 -25.058  1.00  0.00     0.185 HD
ENDROOT
BRANCH   7  10
HETATM   10  N3  UNL     1     -23.211  21.462 -23.476  1.00  0.00    -0.201 N 
ATOM     11  H3  UNL     1     -22.896  21.946 -22.635  1.00  0.00     0.179 HD
BRANCH  10  12
HETATM   12  C4  UNL     1     -23.801  20.152 -23.388  1.00  0.00     0.368 C 
BRANCH  12  13
HETATM   13  N4  UNL     1     -22.843  19.096 -23.428  1.00  0.00    -0.063 N 
ATOM     14  H43 UNL     1     -23.118  18.385 -24.104  1.00  0.00     0.276 HD
ATOM     15  H42 UNL     1     -21.974  19.412 -23.859  1.00  0.00     0.276 HD
ATOM     16  H41 UNL     1     -22.663  18.678 -22.515  1.00  0.00     0.276 HD
ENDBRANCH  12  13
ENDBRANCH  10  12
ENDBRANCH   7  10
TORSDOF 3
ENDMDL
