MODEL 1
REMARK VINA RESULT: -4.180769436      0.000      0.000
REMARK  3 active torsions:
REMARK  status: ('A' for Active; 'I' for Inactive)
REMARK    1  A    between atoms: C2_2  and  N1_3 
REMARK    2  A    between atoms: N1_3  and  C3_5 
REMARK    3  A    between atoms: C5_10  and  N3_11 
ROOT
HETATM    1  C3  UNL     1     -23.527  22.446 -24.922  1.00  0.00     0.160 C 
HETATM    2  C4  UNL     1     -23.134  23.330 -26.090  1.00  0.00     0.263 C 
HETATM    3  N2  UNL     1     -22.060  22.344 -26.311  1.00  0.00    -0.042 N 
ATOM      4  H21 UNL     1     -21.219  22.577 -26.839  1.00  0.00     0.279 HD
ATOM      5  H22 UNL     1     -22.186  21.544 -26.932  1.00  0.00     0.279 HD
HETATM    6  C5  UNL     1     -22.037  22.195 -24.877  1.00  0.00     0.403 C 
ENDROOT
BRANCH   1   7
HETATM    7  N1  UNL     1     -23.959  23.128 -23.744  1.00  0.00    -0.412 N 
ATOM      8  H1  UNL     1     -23.704  22.819 -22.806  1.00  0.00     0.153 HD
BRANCH   7   9
HETATM    9  C2  UNL     1     -24.783  24.287 -23.983  1.00  0.00     0.110 C 
HETATM   10  C1  UNL     1     -26.225  23.805 -24.057  1.00  0.00     0.026 C 
ENDBRANCH   7   9
ENDBRANCH   1   7
BRANCH   6  11
HETATM   11  N3  UNL     1     -21.644  20.902 -24.381  1.00  0.00    -0.048 N 
ATOM     12  H33 UNL     1     -20.690  20.939 -24.023  1.00  0.00     0.276 HD
ATOM     13  H32 UNL     1     -22.150  20.687 -23.522  1.00  0.00     0.276 HD
ATOM     14  H31 UNL     1     -21.739  20.133 -25.045  1.00  0.00     0.276 HD
ENDBRANCH   6  11
TORSDOF 3
ENDMDL
MODEL 2
REMARK VINA RESULT: -4.176379907      0.968      1.013
REMARK  3 active torsions:
REMARK  status: ('A' for Active; 'I' for Inactive)
REMARK    1  A    between atoms: C2_2  and  N1_3 
REMARK    2  A    between atoms: N1_3  and  C3_5 
REMARK    3  A    between atoms: C5_10  and  N3_11 
ROOT
HETATM    1  C3  UNL     1     -22.987  22.591 -25.917  1.00  0.00     0.160 C 
HETATM    2  C4  UNL     1     -22.085  23.757 -26.273  1.00  0.00     0.263 C 
HETATM    3  N2  UNL     1     -20.988  22.883 -25.817  1.00  0.00    -0.042 N 
ATOM      4  H21 UNL     1     -20.086  23.261 -25.530  1.00  0.00     0.279 HD
ATOM      5  H22 UNL     1     -20.487  22.271 -26.462  1.00  0.00     0.279 HD
HETATM    6  C5  UNL     1     -21.932  22.364 -24.858  1.00  0.00     0.403 C 
ENDROOT
BRANCH   1   7
HETATM    7  N1  UNL     1     -24.237  22.933 -25.318  1.00  0.00    -0.412 N 
ATOM      8  H1  UNL     1     -25.093  22.407 -25.493  1.00  0.00     0.153 HD
BRANCH   7   9
HETATM    9  C2  UNL     1     -24.196  24.080 -24.444  1.00  0.00     0.110 C 
HETATM   10  C1  UNL     1     -25.611  24.304 -23.930  1.00  0.00     0.026 C 
ENDBRANCH   7   9
ENDBRANCH   1   7
BRANCH   6  11
HETATM   11  N3  UNL     1     -21.742  20.994 -24.461  1.00  0.00    -0.048 N 
ATOM     12  H33 UNL     1     -22.076  20.367 -25.193  1.00  0.00     0.276 HD
ATOM     13  H32 UNL     1     -20.748  20.762 -24.466  1.00  0.00     0.276 HD
ATOM     14  H31 UNL     1     -22.157  20.738 -23.565  1.00  0.00     0.276 HD
ENDBRANCH   6  11
TORSDOF 3
ENDMDL
MODEL 3
REMARK VINA RESULT: -4.079542611      1.060      1.779
REMARK  3 active torsions:
REMARK  status: ('A' for Active; 'I' for Inactive)
REMARK    1  A    between atoms: C2_2  and  N1_3 
REMARK    2  A    between atoms: N1_3  and  C3_5 
REMARK    3  A    between atoms: C5_10  and  N3_11 
ROOT
HETATM    1  C3  UNL     1     -22.641  22.861 -23.928  1.00  0.00     0.160 C 
HETATM    2  C4  UNL     1     -23.105  21.442 -23.657  1.00  0.00     0.263 C 
HETATM    3  N2  UNL     1     -21.936  21.042 -24.462  1.00  0.00    -0.042 N 
ATOM      4  H21 UNL     1     -21.880  20.126 -24.906  1.00  0.00     0.279 HD
ATOM      5  H22 UNL     1     -21.030  20.850 -24.033  1.00  0.00     0.279 HD
HETATM    6  C5  UNL     1     -22.175  22.241 -25.226  1.00  0.00     0.403 C 
ENDROOT
BRANCH   1   7
HETATM    7  N1  UNL     1     -23.675  23.817 -24.169  1.00  0.00    -0.412 N 
ATOM      8  H1  UNL     1     -23.547  24.816 -24.009  1.00  0.00     0.153 HD
BRANCH   7   9
HETATM    9  C2  UNL     1     -24.912  23.260 -24.657  1.00  0.00     0.110 C 
HETATM   10  C1  UNL     1     -26.038  23.887 -23.846  1.00  0.00     0.026 C 
ENDBRANCH   7   9
ENDBRANCH   1   7
BRANCH   6  11
HETATM   11  N3  UNL     1     -21.016  22.854 -25.820  1.00  0.00    -0.048 N 
ATOM     12  H33 UNL     1     -21.302  23.566 -26.493  1.00  0.00     0.276 HD
ATOM     13  H32 UNL     1     -20.538  23.438 -25.134  1.00  0.00     0.276 HD
ATOM     14  H31 UNL     1     -20.355  22.210 -26.253  1.00  0.00     0.276 HD
ENDBRANCH   6  11
TORSDOF 3
ENDMDL
MODEL 4
REMARK VINA RESULT: -4.039683743      1.353      1.771
REMARK  3 active torsions:
REMARK  status: ('A' for Active; 'I' for Inactive)
REMARK    1  A    between atoms: C2_2  and  N1_3 
REMARK    2  A    between atoms: N1_3  and  C3_5 
REMARK    3  A    between atoms: C5_10  and  N3_11 
ROOT
HETATM    1  C3  UNL     1     -23.678  22.035 -24.421  1.00  0.00     0.160 C 
HETATM    2  C4  UNL     1     -22.207  22.367 -24.585  1.00  0.00     0.263 C 
HETATM    3  N2  UNL     1     -21.991  20.918 -24.417  1.00  0.00    -0.042 N 
ATOM      4  H21 UNL     1     -21.089  20.541 -24.126  1.00  0.00     0.279 HD
ATOM      5  H22 UNL     1     -21.958  20.285 -25.216  1.00  0.00     0.279 HD
HETATM    6  C5  UNL     1     -23.122  20.954 -23.522  1.00  0.00     0.403 C 
ENDROOT
BRANCH   1   7
HETATM    7  N1  UNL     1     -24.446  22.972 -23.665  1.00  0.00    -0.412 N 
ATOM      8  H1  UNL     1     -24.201  23.241 -22.712  1.00  0.00     0.153 HD
BRANCH   7   9
HETATM    9  C2  UNL     1     -25.593  23.510 -24.354  1.00  0.00     0.110 C 
HETATM   10  C1  UNL     1     -25.836  24.906 -23.799  1.00  0.00     0.026 C 
ENDBRANCH   7   9
ENDBRANCH   1   7
BRANCH   6  11
HETATM   11  N3  UNL     1     -23.907  19.750 -23.447  1.00  0.00    -0.048 N 
ATOM     12  H33 UNL     1     -24.774  19.864 -23.972  1.00  0.00     0.276 HD
ATOM     13  H32 UNL     1     -23.464  19.008 -23.990  1.00  0.00     0.276 HD
ATOM     14  H31 UNL     1     -24.111  19.419 -22.504  1.00  0.00     0.276 HD
ENDBRANCH   6  11
TORSDOF 3
ENDMDL
MODEL 5
REMARK VINA RESULT: -3.911664009      1.257      1.921
REMARK  3 active torsions:
REMARK  status: ('A' for Active; 'I' for Inactive)
REMARK    1  A    between atoms: C2_2  and  N1_3 
REMARK    2  A    between atoms: N1_3  and  C3_5 
REMARK    3  A    between atoms: C5_10  and  N3_11 
ROOT
HETATM    1  C3  UNL     1     -22.376  23.881 -25.143  1.00  0.00     0.160 C 
HETATM    2  C4  UNL     1     -22.250  22.978 -23.931  1.00  0.00     0.263 C 
HETATM    3  N2  UNL     1     -21.620  22.025 -24.863  1.00  0.00    -0.042 N 
ATOM      4  H21 UNL     1     -21.574  21.027 -24.661  1.00  0.00     0.279 HD
ATOM      5  H22 UNL     1     -20.610  22.007 -25.009  1.00  0.00     0.279 HD
HETATM    6  C5  UNL     1     -22.519  22.556 -25.858  1.00  0.00     0.403 C 
ENDROOT
BRANCH   1   7
HETATM    7  N1  UNL     1     -23.586  24.634 -25.233  1.00  0.00    -0.412 N 
ATOM      8  H1  UNL     1     -23.968  24.956 -26.123  1.00  0.00     0.153 HD
BRANCH   7   9
HETATM    9  C2  UNL     1     -24.226  24.906 -23.969  1.00  0.00     0.110 C 
HETATM   10  C1  UNL     1     -25.613  24.281 -24.026  1.00  0.00     0.026 C 
ENDBRANCH   7   9
ENDBRANCH   1   7
BRANCH   6  11
HETATM   11  N3  UNL     1     -22.044  22.535 -27.216  1.00  0.00    -0.048 N 
ATOM     12  H33 UNL     1     -21.227  23.138 -27.312  1.00  0.00     0.276 HD
ATOM     13  H32 UNL     1     -21.624  21.629 -27.427  1.00  0.00     0.276 HD
ATOM     14  H31 UNL     1     -22.738  22.772 -27.926  1.00  0.00     0.276 HD
ENDBRANCH   6  11
TORSDOF 3
ENDMDL
