MODEL 1
REMARK VINA RESULT: -4.060845135      0.000      0.000
REMARK  4 active torsions:
REMARK  status: ('A' for Active; 'I' for Inactive)
REMARK    1  A    between atoms: N1_1  and  C1_4 
REMARK    2  A    between atoms: N3_9  and  C4_10 
REMARK    3  A    between atoms: C4_10  and  C5_11 
REMARK    4  A    between atoms: C5_11  and  N4_12 
ROOT
HETATM    1  C1  UNL     1     -22.059  22.636 -24.721  1.00  0.00     0.677 A 
HETATM    2  N2  UNL     1     -22.212  23.516 -23.718  1.00  0.00    -0.201 N 
ATOM      3  H2  UNL     1     -22.066  23.307 -22.730  1.00  0.00     0.183 HD
HETATM    4  C2  UNL     1     -22.587  24.715 -24.207  1.00  0.00     0.124 A 
HETATM    5  C3  UNL     1     -22.658  24.535 -25.562  1.00  0.00     0.126 A 
HETATM    6  N3  UNL     1     -22.334  23.265 -25.863  1.00  0.00    -0.191 N 
ENDROOT
BRANCH   6   7
HETATM    7  C4  UNL     1     -22.302  22.721 -27.193  1.00  0.00     0.174 C 
BRANCH   7   8
HETATM    8  C5  UNL     1     -20.941  23.015 -27.831  1.00  0.00     0.250 C 
BRANCH   8   9
HETATM    9  N4  UNL     1     -20.851  22.217 -29.026  1.00  0.00    -0.078 N 
ATOM     10  H43 UNL     1     -21.693  21.671 -29.207  1.00  0.00     0.274 HD
ATOM     11  H42 UNL     1     -20.869  22.773 -29.881  1.00  0.00     0.274 HD
ATOM     12  H41 UNL     1     -20.013  21.642 -28.942  1.00  0.00     0.274 HD
ENDBRANCH   8   9
ENDBRANCH   7   8
ENDBRANCH   6   7
BRANCH   1  13
HETATM   13  N1  UNL     1     -21.699  21.383 -24.577  1.00  0.00    -0.234 N 
ATOM     14  H12 UNL     1     -22.185  20.662 -24.043  1.00  0.00     0.174 HD
ATOM     15  H11 UNL     1     -20.869  20.960 -24.990  1.00  0.00     0.174 HD
ENDBRANCH   1  13
TORSDOF 4
ENDMDL
MODEL 2
REMARK VINA RESULT: -4.056740013      1.552      1.723
REMARK  4 active torsions:
REMARK  status: ('A' for Active; 'I' for Inactive)
REMARK    1  A    between atoms: N1_1  and  C1_4 
REMARK    2  A    between atoms: N3_9  and  C4_10 
REMARK    3  A    between atoms: C4_10  and  C5_11 
REMARK    4  A    between atoms: C5_11  and  N4_12 
ROOT
HETATM    1  C1  UNL     1     -22.552  21.641 -24.178  1.00  0.00     0.677 A 
HETATM    2  N2  UNL     1     -23.719  21.670 -23.513  1.00  0.00    -0.201 N 
ATOM      3  H2  UNL     1     -24.128  20.879 -23.015  1.00  0.00     0.183 HD
HETATM    4  C2  UNL     1     -24.271  22.897 -23.601  1.00  0.00     0.124 A 
HETATM    5  C3  UNL     1     -23.389  23.626 -24.351  1.00  0.00     0.126 A 
HETATM    6  N3  UNL     1     -22.347  22.851 -24.696  1.00  0.00    -0.191 N 
ENDROOT
BRANCH   6   7
HETATM    7  C4  UNL     1     -21.227  23.287 -25.486  1.00  0.00     0.174 C 
BRANCH   7   8
HETATM    8  C5  UNL     1     -21.689  23.557 -26.921  1.00  0.00     0.250 C 
BRANCH   8   9
HETATM    9  N4  UNL     1     -20.882  22.740 -27.789  1.00  0.00    -0.078 N 
ATOM     10  H43 UNL     1     -21.266  21.806 -27.929  1.00  0.00     0.274 HD
ATOM     11  H42 UNL     1     -20.911  23.042 -28.762  1.00  0.00     0.274 HD
ATOM     12  H41 UNL     1     -19.939  22.730 -27.402  1.00  0.00     0.274 HD
ENDBRANCH   8   9
ENDBRANCH   7   8
ENDBRANCH   6   7
BRANCH   1  13
HETATM   13  N1  UNL     1     -21.770  20.594 -24.282  1.00  0.00    -0.234 N 
ATOM     14  H12 UNL     1     -22.053  19.613 -24.286  1.00  0.00     0.174 HD
ATOM     15  H11 UNL     1     -20.755  20.626 -24.375  1.00  0.00     0.174 HD
ENDBRANCH   1  13
TORSDOF 4
ENDMDL
MODEL 3
REMARK VINA RESULT: -3.999447489      1.597      3.442
REMARK  4 active torsions:
REMARK  status: ('A' for Active; 'I' for Inactive)
REMARK    1  A    between atoms: N1_1  and  C1_4 
REMARK    2  A    between atoms: N3_9  and  C4_10 
REMARK    3  A    between atoms: C4_10  and  C5_11 
REMARK    4  A    between atoms: C5_11  and  N4_12 
ROOT
HETATM    1  C1  UNL     1     -22.364  23.181 -26.182  1.00  0.00     0.677 A 
HETATM    2  N2  UNL     1     -22.656  24.490 -26.274  1.00  0.00    -0.201 N 
ATOM      3  H2  UNL     1     -22.632  25.034 -27.137  1.00  0.00     0.183 HD
HETATM    4  C2  UNL     1     -22.984  24.977 -25.061  1.00  0.00     0.124 A 
HETATM    5  C3  UNL     1     -22.881  23.908 -24.213  1.00  0.00     0.126 A 
HETATM    6  N3  UNL     1     -22.504  22.820 -24.907  1.00  0.00    -0.191 N 
ENDROOT
BRANCH   6   7
HETATM    7  C4  UNL     1     -22.298  21.517 -24.339  1.00  0.00     0.174 C 
BRANCH   7   8
HETATM    8  C5  UNL     1     -23.518  21.128 -23.498  1.00  0.00     0.250 C 
BRANCH   8   9
HETATM    9  N4  UNL     1     -23.500  19.695 -23.358  1.00  0.00    -0.078 N 
ATOM     10  H43 UNL     1     -24.001  19.214 -24.105  1.00  0.00     0.274 HD
ATOM     11  H42 UNL     1     -22.581  19.288 -23.532  1.00  0.00     0.274 HD
ATOM     12  H41 UNL     1     -23.863  19.478 -22.431  1.00  0.00     0.274 HD
ENDBRANCH   8   9
ENDBRANCH   7   8
ENDBRANCH   6   7
BRANCH   1  13
HETATM   13  N1  UNL     1     -22.009  22.416 -27.186  1.00  0.00    -0.234 N 
ATOM     14  H12 UNL     1     -21.187  22.525 -27.781  1.00  0.00     0.174 HD
ATOM     15  H11 UNL     1     -22.520  21.594 -27.506  1.00  0.00     0.174 HD
ENDBRANCH   1  13
TORSDOF 4
ENDMDL
MODEL 4
REMARK VINA RESULT: -3.994649153      1.993      3.600
REMARK  4 active torsions:
REMARK  status: ('A' for Active; 'I' for Inactive)
REMARK    1  A    between atoms: N1_1  and  C1_4 
REMARK    2  A    between atoms: N3_9  and  C4_10 
REMARK    3  A    between atoms: C4_10  and  C5_11 
REMARK    4  A    between atoms: C5_11  and  N4_12 
ROOT
HETATM    1  C1  UNL     1     -21.975  22.068 -25.055  1.00  0.00     0.677 A 
HETATM    2  N2  UNL     1     -21.162  22.663 -25.944  1.00  0.00    -0.201 N 
ATOM      3  H2  UNL     1     -20.206  22.371 -26.149  1.00  0.00     0.183 HD
HETATM    4  C2  UNL     1     -21.793  23.703 -26.525  1.00  0.00     0.124 A 
HETATM    5  C3  UNL     1     -23.036  23.723 -25.953  1.00  0.00     0.126 A 
HETATM    6  N3  UNL     1     -23.135  22.724 -25.061  1.00  0.00    -0.191 N 
ENDROOT
BRANCH   6   7
HETATM    7  C4  UNL     1     -24.303  22.443 -24.271  1.00  0.00     0.174 C 
BRANCH   7   8
HETATM    8  C5  UNL     1     -24.954  23.759 -23.837  1.00  0.00     0.250 C 
BRANCH   8   9
HETATM    9  N4  UNL     1     -26.315  23.735 -24.305  1.00  0.00    -0.078 N 
ATOM     10  H43 UNL     1     -26.421  24.114 -25.247  1.00  0.00     0.274 HD
ATOM     11  H42 UNL     1     -26.654  22.794 -24.503  1.00  0.00     0.274 HD
ATOM     12  H41 UNL     1     -26.881  24.225 -23.613  1.00  0.00     0.274 HD
ENDBRANCH   8   9
ENDBRANCH   7   8
ENDBRANCH   6   7
BRANCH   1  13
HETATM   13  N1  UNL     1     -21.659  21.027 -24.324  1.00  0.00    -0.234 N 
ATOM     14  H12 UNL     1     -21.329  20.120 -24.656  1.00  0.00     0.174 HD
ATOM     15  H11 UNL     1     -21.703  20.990 -23.306  1.00  0.00     0.174 HD
ENDBRANCH   1  13
TORSDOF 4
ENDMDL
MODEL 5
REMARK VINA RESULT: -3.936363078      1.994      3.782
REMARK  4 active torsions:
REMARK  status: ('A' for Active; 'I' for Inactive)
REMARK    1  A    between atoms: N1_1  and  C1_4 
REMARK    2  A    between atoms: N3_9  and  C4_10 
REMARK    3  A    between atoms: C4_10  and  C5_11 
REMARK    4  A    between atoms: C5_11  and  N4_12 
ROOT
HETATM    1  C1  UNL     1     -22.015  22.098 -24.993  1.00  0.00     0.677 A 
HETATM    2  N2  UNL     1     -21.850  20.929 -24.353  1.00  0.00    -0.201 N 
ATOM      3  H2  UNL     1     -20.993  20.375 -24.357  1.00  0.00     0.183 HD
HETATM    4  C2  UNL     1     -22.983  20.594 -23.703  1.00  0.00     0.124 A 
HETATM    5  C3  UNL     1     -23.857  21.612 -23.972  1.00  0.00     0.126 A 
HETATM    6  N3  UNL     1     -23.256  22.522 -24.758  1.00  0.00    -0.191 N 
ENDROOT
BRANCH   6   7
HETATM    7  C4  UNL     1     -23.876  23.726 -25.239  1.00  0.00     0.174 C 
BRANCH   7   8
HETATM    8  C5  UNL     1     -23.705  24.838 -24.199  1.00  0.00     0.250 C 
BRANCH   8   9
HETATM    9  N4  UNL     1     -25.024  25.292 -23.841  1.00  0.00    -0.078 N 
ATOM     10  H43 UNL     1     -25.181  26.276 -24.062  1.00  0.00     0.274 HD
ATOM     11  H42 UNL     1     -25.755  24.906 -24.437  1.00  0.00     0.274 HD
ATOM     12  H41 UNL     1     -25.159  25.078 -22.854  1.00  0.00     0.274 HD
ENDBRANCH   8   9
ENDBRANCH   7   8
ENDBRANCH   6   7
BRANCH   1  13
HETATM   13  N1  UNL     1     -21.099  22.697 -25.715  1.00  0.00    -0.234 N 
ATOM     14  H12 UNL     1     -20.998  22.664 -26.730  1.00  0.00     0.174 HD
ATOM     15  H11 UNL     1     -20.353  23.286 -25.346  1.00  0.00     0.174 HD
ENDBRANCH   1  13
TORSDOF 4
ENDMDL
