MODEL 1
REMARK VINA RESULT: -7.712571415      0.000      0.000
REMARK  4 active torsions:
REMARK  status: ('A' for Active; 'I' for Inactive)
REMARK    1  A    between atoms: C2_2  and  C3_3 
REMARK    2  A    between atoms: C3_3  and  C5_5 
REMARK    3  A    between atoms: C5_5  and  C6_6 
REMARK    4  A    between atoms: C6_6  and  C7_7 
ROOT
HETATM    1  C7  UNL     1      63.847  47.961  29.369  1.00  0.00     0.002 C 
HETATM    2  C8  UNL     1      64.933  47.048  28.817  1.00  0.00    -0.043 C 
HETATM    3  C9  UNL     1      64.673  45.600  29.064  1.00  0.00     0.015 C 
HETATM    4  C10 UNL     1      64.943  47.249  27.297  1.00  0.00     0.015 C 
HETATM    5  C11 UNL     1      66.296  47.393  29.301  1.00  0.00     0.010 C 
HETATM    6  C12 UNL     1      66.271  47.096  30.802  1.00  0.00     0.007 C 
HETATM    7  C13 UNL     1      65.385  48.144  31.394  1.00  0.00     0.004 C 
HETATM    8  C14 UNL     1      65.212  47.945  32.885  1.00  0.00    -0.011 C 
HETATM    9  C15 UNL     1      65.270  49.181  33.706  1.00  0.00     0.039 C 
HETATM   10  C16 UNL     1      65.927  48.746  35.026  1.00  0.00     0.233 C 
HETATM   11  N1  UNL     1      66.098  47.327  34.936  1.00  0.00    -0.074 N 
ATOM     12  H11 UNL     1      65.329  46.774  35.312  1.00  0.00     0.277 HD
ATOM     13  H12 UNL     1      66.808  46.937  35.555  1.00  0.00     0.277 HD
HETATM   14  C17 UNL     1      66.355  47.143  33.497  1.00  0.00     0.242 C 
HETATM   15  C18 UNL     1      63.907  47.238  32.991  1.00  0.00     0.012 C 
HETATM   16  C19 UNL     1      63.112  47.579  31.755  1.00  0.00     0.011 C 
HETATM   17  C20 UNL     1      64.032  48.287  30.820  1.00  0.00    -0.035 C 
HETATM   18  C21 UNL     1      63.704  49.798  31.007  1.00  0.00     0.016 C 
ENDROOT
BRANCH   1  19
HETATM   19  C6  UNL     1      62.591  47.313  28.955  1.00  0.00     0.006 C 
BRANCH  19  20
HETATM   20  C5  UNL     1      61.422  48.035  28.477  1.00  0.00     0.005 C 
BRANCH  20  21
HETATM   21  C3  UNL     1      60.069  47.612  28.911  1.00  0.00    -0.019 C 
HETATM   22  C4  UNL     1      59.134  47.341  27.748  1.00  0.00     0.010 C 
BRANCH  21  23
HETATM   23  C2  UNL     1      60.225  46.250  29.612  1.00  0.00    -0.000 C 
HETATM   24  C1  UNL     1      59.699  46.278  31.007  1.00  0.00     0.005 C 
ENDBRANCH  21  23
ENDBRANCH  20  21
ENDBRANCH  19  20
ENDBRANCH   1  19
TORSDOF 4
ENDMDL
MODEL 2
REMARK VINA RESULT: -7.153840361      2.475      5.624
REMARK  4 active torsions:
REMARK  status: ('A' for Active; 'I' for Inactive)
REMARK    1  A    between atoms: C2_2  and  C3_3 
REMARK    2  A    between atoms: C3_3  and  C5_5 
REMARK    3  A    between atoms: C5_5  and  C6_6 
REMARK    4  A    between atoms: C6_6  and  C7_7 
ROOT
HETATM    1  C7  UNL     1      65.721  46.926  32.365  1.00  0.00     0.002 C 
HETATM    2  C8  UNL     1      66.901  46.324  31.614  1.00  0.00    -0.043 C 
HETATM    3  C9  UNL     1      67.974  47.314  31.305  1.00  0.00     0.015 C 
HETATM    4  C10 UNL     1      67.518  45.269  32.541  1.00  0.00     0.015 C 
HETATM    5  C11 UNL     1      66.509  45.618  30.367  1.00  0.00     0.010 C 
HETATM    6  C12 UNL     1      65.982  46.714  29.439  1.00  0.00     0.007 C 
HETATM    7  C13 UNL     1      64.688  47.152  30.045  1.00  0.00     0.004 C 
HETATM    8  C14 UNL     1      64.067  48.290  29.263  1.00  0.00    -0.011 C 
HETATM    9  C15 UNL     1      62.599  48.196  29.053  1.00  0.00     0.039 C 
HETATM   10  C16 UNL     1      62.359  48.817  27.668  1.00  0.00     0.233 C 
HETATM   11  N1  UNL     1      63.628  49.311  27.229  1.00  0.00    -0.074 N 
ATOM     12  H11 UNL     1      63.818  50.285  27.464  1.00  0.00     0.277 HD
ATOM     13  H12 UNL     1      63.718  49.438  26.221  1.00  0.00     0.277 HD
HETATM   14  C17 UNL     1      64.557  48.333  27.819  1.00  0.00     0.242 C 
HETATM   15  C18 UNL     1      64.469  49.499  30.031  1.00  0.00     0.012 C 
HETATM   16  C19 UNL     1      64.731  49.061  31.450  1.00  0.00     0.011 C 
HETATM   17  C20 UNL     1      64.715  47.570  31.461  1.00  0.00    -0.035 C 
HETATM   18  C21 UNL     1      63.299  47.191  31.989  1.00  0.00     0.016 C 
ENDROOT
BRANCH   1  19
HETATM   19  C6  UNL     1      66.347  47.750  33.413  1.00  0.00     0.006 C 
BRANCH  19  20
HETATM   20  C5  UNL     1      65.932  47.746  34.807  1.00  0.00     0.005 C 
BRANCH  20  21
HETATM   21  C3  UNL     1      65.238  48.929  35.371  1.00  0.00    -0.019 C 
HETATM   22  C4  UNL     1      65.658  50.229  34.713  1.00  0.00     0.010 C 
BRANCH  21  23
HETATM   23  C2  UNL     1      63.745  48.782  35.027  1.00  0.00    -0.000 C 
HETATM   24  C1  UNL     1      62.902  49.761  35.772  1.00  0.00     0.005 C 
ENDBRANCH  21  23
ENDBRANCH  20  21
ENDBRANCH  19  20
ENDBRANCH   1  19
TORSDOF 4
ENDMDL
MODEL 3
REMARK VINA RESULT: -6.787515659      1.739      2.557
REMARK  4 active torsions:
REMARK  status: ('A' for Active; 'I' for Inactive)
REMARK    1  A    between atoms: C2_2  and  C3_3 
REMARK    2  A    between atoms: C3_3  and  C5_5 
REMARK    3  A    between atoms: C5_5  and  C6_6 
REMARK    4  A    between atoms: C6_6  and  C7_7 
ROOT
HETATM    1  C7  UNL     1      63.371  48.185  29.197  1.00  0.00     0.002 C 
HETATM    2  C8  UNL     1      64.029  48.470  27.854  1.00  0.00    -0.043 C 
HETATM    3  C9  UNL     1      64.267  47.244  27.037  1.00  0.00     0.015 C 
HETATM    4  C10 UNL     1      63.051  49.351  27.067  1.00  0.00     0.015 C 
HETATM    5  C11 UNL     1      65.296  49.238  27.968  1.00  0.00     0.010 C 
HETATM    6  C12 UNL     1      66.269  48.295  28.679  1.00  0.00     0.007 C 
HETATM    7  C13 UNL     1      65.763  48.194  30.082  1.00  0.00     0.004 C 
HETATM    8  C14 UNL     1      66.598  47.236  30.904  1.00  0.00    -0.011 C 
HETATM    9  C15 UNL     1      66.914  47.685  32.284  1.00  0.00     0.039 C 
HETATM   10  C16 UNL     1      68.318  47.127  32.568  1.00  0.00     0.233 C 
HETATM   11  N1  UNL     1      68.667  46.332  31.430  1.00  0.00    -0.074 N 
ATOM     12  H11 UNL     1      68.425  45.343  31.503  1.00  0.00     0.277 HD
ATOM     13  H12 UNL     1      69.666  46.176  31.301  1.00  0.00     0.277 HD
HETATM   14  C17 UNL     1      68.002  47.059  30.335  1.00  0.00     0.242 C 
HETATM   15  C18 UNL     1      65.812  45.973  30.869  1.00  0.00     0.012 C 
HETATM   16  C19 UNL     1      64.374  46.348  30.612  1.00  0.00     0.011 C 
HETATM   17  C20 UNL     1      64.352  47.797  30.262  1.00  0.00    -0.035 C 
HETATM   18  C21 UNL     1      63.927  48.518  31.576  1.00  0.00     0.016 C 
ENDROOT
BRANCH   1  19
HETATM   19  C6  UNL     1      62.287  47.243  28.872  1.00  0.00     0.006 C 
BRANCH  19  20
HETATM   20  C5  UNL     1      60.941  47.333  29.415  1.00  0.00     0.005 C 
BRANCH  20  21
HETATM   21  C3  UNL     1      60.474  46.321  30.393  1.00  0.00    -0.019 C 
HETATM   22  C4  UNL     1      60.808  46.688  31.827  1.00  0.00     0.010 C 
BRANCH  21  23
HETATM   23  C2  UNL     1      58.936  46.318  30.340  1.00  0.00    -0.000 C 
HETATM   24  C1  UNL     1      58.425  46.646  28.978  1.00  0.00     0.005 C 
ENDBRANCH  21  23
ENDBRANCH  20  21
ENDBRANCH  19  20
ENDBRANCH   1  19
TORSDOF 4
ENDMDL
MODEL 4
REMARK VINA RESULT: -6.773332528      2.388      5.700
REMARK  4 active torsions:
REMARK  status: ('A' for Active; 'I' for Inactive)
REMARK    1  A    between atoms: C2_2  and  C3_3 
REMARK    2  A    between atoms: C3_3  and  C5_5 
REMARK    3  A    between atoms: C5_5  and  C6_6 
REMARK    4  A    between atoms: C6_6  and  C7_7 
ROOT
HETATM    1  C7  UNL     1      65.740  47.297  32.281  1.00  0.00     0.002 C 
HETATM    2  C8  UNL     1      66.846  46.517  31.582  1.00  0.00    -0.043 C 
HETATM    3  C9  UNL     1      67.894  47.390  30.975  1.00  0.00     0.015 C 
HETATM    4  C10 UNL     1      67.534  45.672  32.660  1.00  0.00     0.015 C 
HETATM    5  C11 UNL     1      66.341  45.569  30.555  1.00  0.00     0.010 C 
HETATM    6  C12 UNL     1      65.741  46.452  29.459  1.00  0.00     0.007 C 
HETATM    7  C13 UNL     1      64.509  47.043  30.063  1.00  0.00     0.004 C 
HETATM    8  C14 UNL     1      63.829  48.001  29.107  1.00  0.00    -0.011 C 
HETATM    9  C15 UNL     1      62.347  47.901  29.048  1.00  0.00     0.039 C 
HETATM   10  C16 UNL     1      61.991  48.215  27.586  1.00  0.00     0.233 C 
HETATM   11  N1  UNL     1      63.220  48.570  26.944  1.00  0.00    -0.074 N 
ATOM     12  H11 UNL     1      63.436  49.567  26.946  1.00  0.00     0.277 HD
ATOM     13  H12 UNL     1      63.221  48.474  25.929  1.00  0.00     0.277 HD
HETATM   14  C17 UNL     1      64.190  47.719  27.653  1.00  0.00     0.242 C 
HETATM   15  C18 UNL     1      64.304  49.337  29.558  1.00  0.00     0.012 C 
HETATM   16  C19 UNL     1      64.687  49.209  31.011  1.00  0.00     0.011 C 
HETATM   17  C20 UNL     1      64.662  47.756  31.347  1.00  0.00    -0.035 C 
HETATM   18  C21 UNL     1      63.296  47.536  32.062  1.00  0.00     0.016 C 
ENDROOT
BRANCH   1  19
HETATM   19  C6  UNL     1      66.460  48.311  33.068  1.00  0.00     0.006 C 
BRANCH  19  20
HETATM   20  C5  UNL     1      65.807  49.338  33.865  1.00  0.00     0.005 C 
BRANCH  20  21
HETATM   21  C3  UNL     1      65.185  48.977  35.162  1.00  0.00    -0.019 C 
HETATM   22  C4  UNL     1      63.690  49.233  35.191  1.00  0.00     0.010 C 
BRANCH  21  23
HETATM   23  C2  UNL     1      65.323  47.452  35.319  1.00  0.00    -0.000 C 
HETATM   24  C1  UNL     1      66.582  47.076  36.025  1.00  0.00     0.005 C 
ENDBRANCH  21  23
ENDBRANCH  20  21
ENDBRANCH  19  20
ENDBRANCH   1  19
TORSDOF 4
ENDMDL
MODEL 5
REMARK VINA RESULT: -6.561670816      1.722      2.353
REMARK  4 active torsions:
REMARK  status: ('A' for Active; 'I' for Inactive)
REMARK    1  A    between atoms: C2_2  and  C3_3 
REMARK    2  A    between atoms: C3_3  and  C5_5 
REMARK    3  A    between atoms: C5_5  and  C6_6 
REMARK    4  A    between atoms: C6_6  and  C7_7 
ROOT
HETATM    1  C7  UNL     1      63.254  48.321  29.024  1.00  0.00     0.002 C 
HETATM    2  C8  UNL     1      63.943  48.650  27.707  1.00  0.00    -0.043 C 
HETATM    3  C9  UNL     1      64.174  47.454  26.844  1.00  0.00     0.015 C 
HETATM    4  C10 UNL     1      62.997  49.581  26.940  1.00  0.00     0.015 C 
HETATM    5  C11 UNL     1      65.221  49.388  27.878  1.00  0.00     0.010 C 
HETATM    6  C12 UNL     1      66.163  48.398  28.567  1.00  0.00     0.007 C 
HETATM    7  C13 UNL     1      65.627  48.248  29.954  1.00  0.00     0.004 C 
HETATM    8  C14 UNL     1      66.428  47.240  30.750  1.00  0.00    -0.011 C 
HETATM    9  C15 UNL     1      66.725  47.625  32.154  1.00  0.00     0.039 C 
HETATM   10  C16 UNL     1      68.113  47.030  32.440  1.00  0.00     0.233 C 
HETATM   11  N1  UNL     1      68.470  46.276  31.277  1.00  0.00    -0.074 N 
ATOM     12  H11 UNL     1      68.209  45.291  31.303  1.00  0.00     0.277 HD
ATOM     13  H12 UNL     1      69.469  46.108  31.160  1.00  0.00     0.277 HD
HETATM   14  C17 UNL     1      67.840  47.061  30.201  1.00  0.00     0.242 C 
HETATM   15  C18 UNL     1      65.620  45.995  30.647  1.00  0.00     0.012 C 
HETATM   16  C19 UNL     1      64.194  46.408  30.379  1.00  0.00     0.011 C 
HETATM   17  C20 UNL     1      64.206  47.871  30.090  1.00  0.00    -0.035 C 
HETATM   18  C21 UNL     1      63.768  48.543  31.425  1.00  0.00     0.016 C 
ENDROOT
BRANCH   1  19
HETATM   19  C6  UNL     1      62.160  47.414  28.639  1.00  0.00     0.006 C 
BRANCH  19  20
HETATM   20  C5  UNL     1      60.773  47.829  28.490  1.00  0.00     0.005 C 
BRANCH  20  21
HETATM   21  C3  UNL     1      59.736  47.262  29.385  1.00  0.00    -0.019 C 
HETATM   22  C4  UNL     1      58.613  46.578  28.630  1.00  0.00     0.010 C 
BRANCH  21  23
HETATM   23  C2  UNL     1      60.405  46.135  30.194  1.00  0.00    -0.000 C 
HETATM   24  C1  UNL     1      60.624  46.525  31.617  1.00  0.00     0.005 C 
ENDBRANCH  21  23
ENDBRANCH  20  21
ENDBRANCH  19  20
ENDBRANCH   1  19
TORSDOF 4
ENDMDL
