MODEL 1
REMARK VINA RESULT: -9.718347334      0.000      0.000
REMARK  4 active torsions:
REMARK  status: ('A' for Active; 'I' for Inactive)
REMARK    1  A    between atoms: C5_5  and  C6_6 
REMARK    2  A    between atoms: C13_13  and  C14_14 
REMARK    3  A    between atoms: C14_14  and  C15_15 
REMARK    4  A    between atoms: C15_15  and  C16_16 
ROOT
HETATM    1  C1  UNL     1      63.646  49.319  27.144  1.00  0.00     0.015 C 
HETATM    2  C2  UNL     1      63.582  48.392  28.363  1.00  0.00    -0.043 C 
HETATM    3  C3  UNL     1      64.606  47.322  28.156  1.00  0.00     0.009 C 
HETATM    4  C4  UNL     1      65.553  47.155  29.309  1.00  0.00     0.006 C 
HETATM    5  C5  UNL     1      64.833  47.124  30.644  1.00  0.00    -0.006 C 
HETATM    6  C11 UNL     1      63.775  48.162  30.774  1.00  0.00    -0.009 C 
HETATM    7  C12 UNL     1      62.368  47.569  30.836  1.00  0.00     0.010 C 
HETATM    8  C13 UNL     1      61.970  46.905  29.550  1.00  0.00    -0.013 C 
HETATM    9  C19 UNL     1      62.190  47.820  28.388  1.00  0.00     0.013 C 
HETATM   10  C20 UNL     1      63.877  49.142  29.617  1.00  0.00     0.014 C 
ENDROOT
BRANCH   8  11
HETATM   11  C14 UNL     1      60.501  46.554  29.662  1.00  0.00     0.010 C 
BRANCH  11  12
HETATM   12  C15 UNL     1      59.707  47.052  28.480  1.00  0.00     0.059 C 
BRANCH  12  13
HETATM   13  C16 UNL     1      58.274  47.136  28.888  1.00  0.00     0.025 A 
HETATM   14  C17 UNL     1      57.579  46.205  29.633  1.00  0.00     0.113 A 
HETATM   15  N1  UNL     1      56.324  46.654  29.778  1.00  0.00    -0.360 N 
HETATM   16  C18 UNL     1      56.204  47.834  29.151  1.00  0.00     0.180 A 
ATOM     17  H1  UNL     1      55.579  46.175  30.284  1.00  0.00     0.166 HD
HETATM   18  N2  UNL     1      57.399  48.121  28.611  1.00  0.00    -0.355 N 
ATOM     19  H2  UNL     1      57.612  48.959  28.070  1.00  0.00     0.166 HD
ENDBRANCH  12  13
ENDBRANCH  11  12
ENDBRANCH   8  11
BRANCH   5  20
HETATM   20  C6  UNL     1      65.785  47.102  31.791  1.00  0.00    -0.010 C 
HETATM   21  C7  UNL     1      67.138  46.597  31.526  1.00  0.00     0.005 C 
HETATM   22  C8  UNL     1      67.298  45.227  32.119  1.00  0.00     0.000 C 
HETATM   23  C9  UNL     1      66.277  45.195  33.205  1.00  0.00     0.000 C 
HETATM   24  C10 UNL     1      65.314  46.314  32.967  1.00  0.00     0.005 C 
ENDBRANCH   5  20
TORSDOF 4
ENDMDL
MODEL 2
REMARK VINA RESULT: -9.642085992      3.552      6.995
REMARK  4 active torsions:
REMARK  status: ('A' for Active; 'I' for Inactive)
REMARK    1  A    between atoms: C5_5  and  C6_6 
REMARK    2  A    between atoms: C13_13  and  C14_14 
REMARK    3  A    between atoms: C14_14  and  C15_15 
REMARK    4  A    between atoms: C15_15  and  C16_16 
ROOT
HETATM    1  C1  UNL     1      64.218  49.156  27.301  1.00  0.00     0.015 C 
HETATM    2  C2  UNL     1      63.339  48.598  28.426  1.00  0.00    -0.043 C 
HETATM    3  C3  UNL     1      62.015  49.290  28.334  1.00  0.00     0.009 C 
HETATM    4  C4  UNL     1      60.842  48.355  28.286  1.00  0.00     0.006 C 
HETATM    5  C5  UNL     1      60.938  47.259  29.331  1.00  0.00    -0.006 C 
HETATM    6  C11 UNL     1      62.292  46.651  29.435  1.00  0.00    -0.009 C 
HETATM    7  C12 UNL     1      62.981  46.962  30.763  1.00  0.00     0.010 C 
HETATM    8  C13 UNL     1      63.302  48.420  30.913  1.00  0.00    -0.013 C 
HETATM    9  C19 UNL     1      64.040  48.928  29.717  1.00  0.00     0.013 C 
HETATM   10  C20 UNL     1      63.154  47.127  28.277  1.00  0.00     0.014 C 
ENDROOT
BRANCH   8  11
HETATM   11  C14 UNL     1      64.162  48.564  32.152  1.00  0.00     0.010 C 
BRANCH  11  12
HETATM   12  C15 UNL     1      64.709  47.238  32.620  1.00  0.00     0.059 C 
BRANCH  12  13
HETATM   13  C16 UNL     1      66.180  47.229  32.367  1.00  0.00     0.025 A 
HETATM   14  C17 UNL     1      66.807  46.863  31.193  1.00  0.00     0.113 A 
HETATM   15  N1  UNL     1      68.128  46.995  31.378  1.00  0.00    -0.360 N 
HETATM   16  C18 UNL     1      68.356  47.432  32.626  1.00  0.00     0.180 A 
ATOM     17  H1  UNL     1      68.845  46.796  30.682  1.00  0.00     0.166 HD
HETATM   18  N2  UNL     1      67.161  47.572  33.222  1.00  0.00    -0.355 N 
ATOM     19  H2  UNL     1      67.018  47.891  34.181  1.00  0.00     0.166 HD
ENDBRANCH  12  13
ENDBRANCH  11  12
ENDBRANCH   8  11
BRANCH   5  20
HETATM   20  C6  UNL     1      59.847  46.253  29.186  1.00  0.00    -0.010 C 
HETATM   21  C7  UNL     1      58.647  46.670  28.449  1.00  0.00     0.005 C 
HETATM   22  C8  UNL     1      57.514  46.905  29.405  1.00  0.00     0.000 C 
HETATM   23  C9  UNL     1      57.875  46.070  30.586  1.00  0.00     0.000 C 
HETATM   24  C10 UNL     1      59.326  45.719  30.479  1.00  0.00     0.005 C 
ENDBRANCH   5  20
TORSDOF 4
ENDMDL
MODEL 3
REMARK VINA RESULT: -9.515811173      3.414      6.772
REMARK  4 active torsions:
REMARK  status: ('A' for Active; 'I' for Inactive)
REMARK    1  A    between atoms: C5_5  and  C6_6 
REMARK    2  A    between atoms: C13_13  and  C14_14 
REMARK    3  A    between atoms: C14_14  and  C15_15 
REMARK    4  A    between atoms: C15_15  and  C16_16 
ROOT
HETATM    1  C1  UNL     1      64.568  48.958  27.330  1.00  0.00     0.015 C 
HETATM    2  C2  UNL     1      63.565  48.526  28.406  1.00  0.00    -0.043 C 
HETATM    3  C3  UNL     1      62.290  49.261  28.138  1.00  0.00     0.009 C 
HETATM    4  C4  UNL     1      61.083  48.371  28.050  1.00  0.00     0.006 C 
HETATM    5  C5  UNL     1      61.032  47.358  29.179  1.00  0.00    -0.006 C 
HETATM    6  C11 UNL     1      62.342  46.707  29.454  1.00  0.00    -0.009 C 
HETATM    7  C12 UNL     1      62.921  47.094  30.814  1.00  0.00     0.010 C 
HETATM    8  C13 UNL     1      63.295  48.546  30.885  1.00  0.00    -0.013 C 
HETATM    9  C19 UNL     1      64.161  48.929  29.729  1.00  0.00     0.013 C 
HETATM   10  C20 UNL     1      63.327  47.056  28.350  1.00  0.00     0.014 C 
ENDROOT
BRANCH   8  11
HETATM   11  C14 UNL     1      64.045  48.753  32.184  1.00  0.00     0.010 C 
BRANCH  11  12
HETATM   12  C15 UNL     1      63.546  47.841  33.279  1.00  0.00     0.059 C 
BRANCH  12  13
HETATM   13  C16 UNL     1      64.732  47.239  33.955  1.00  0.00     0.025 A 
HETATM   14  C17 UNL     1      65.604  46.316  33.411  1.00  0.00     0.113 A 
HETATM   15  N1  UNL     1      66.527  46.032  34.341  1.00  0.00    -0.360 N 
HETATM   16  C18 UNL     1      66.269  46.743  35.449  1.00  0.00     0.180 A 
ATOM     17  H1  UNL     1      67.302  45.380  34.224  1.00  0.00     0.166 HD
HETATM   18  N2  UNL     1      65.172  47.476  35.205  1.00  0.00    -0.355 N 
ATOM     19  H2  UNL     1      64.736  48.118  35.867  1.00  0.00     0.166 HD
ENDBRANCH  12  13
ENDBRANCH  11  12
ENDBRANCH   8  11
BRANCH   5  20
HETATM   20  C6  UNL     1      59.913  46.388  29.008  1.00  0.00    -0.010 C 
HETATM   21  C7  UNL     1      58.752  46.839  28.230  1.00  0.00     0.005 C 
HETATM   22  C8  UNL     1      57.598  47.119  29.148  1.00  0.00     0.000 C 
HETATM   23  C9  UNL     1      57.894  46.283  30.347  1.00  0.00     0.000 C 
HETATM   24  C10 UNL     1      59.335  45.884  30.287  1.00  0.00     0.005 C 
ENDBRANCH   5  20
TORSDOF 4
ENDMDL
MODEL 4
REMARK VINA RESULT: -9.388242875      1.995      4.163
REMARK  4 active torsions:
REMARK  status: ('A' for Active; 'I' for Inactive)
REMARK    1  A    between atoms: C5_5  and  C6_6 
REMARK    2  A    between atoms: C13_13  and  C14_14 
REMARK    3  A    between atoms: C14_14  and  C15_15 
REMARK    4  A    between atoms: C15_15  and  C16_16 
ROOT
HETATM    1  C1  UNL     1      68.378  45.521  30.605  1.00  0.00     0.015 C 
HETATM    2  C2  UNL     1      66.982  45.863  31.139  1.00  0.00    -0.043 C 
HETATM    3  C3  UNL     1      66.580  44.754  32.060  1.00  0.00     0.009 C 
HETATM    4  C4  UNL     1      66.139  45.221  33.417  1.00  0.00     0.006 C 
HETATM    5  C5  UNL     1      65.175  46.390  33.337  1.00  0.00    -0.006 C 
HETATM    6  C11 UNL     1      65.582  47.432  32.356  1.00  0.00    -0.009 C 
HETATM    7  C12 UNL     1      64.634  47.522  31.161  1.00  0.00     0.010 C 
HETATM    8  C13 UNL     1      64.669  46.287  30.309  1.00  0.00    -0.013 C 
HETATM    9  C19 UNL     1      66.074  45.935  29.940  1.00  0.00     0.013 C 
HETATM   10  C20 UNL     1      66.998  47.157  31.878  1.00  0.00     0.014 C 
ENDROOT
BRANCH   8  11
HETATM   11  C14 UNL     1      63.865  46.581  29.060  1.00  0.00     0.010 C 
BRANCH  11  12
HETATM   12  C15 UNL     1      62.907  47.731  29.259  1.00  0.00     0.059 C 
BRANCH  12  13
HETATM   13  C16 UNL     1      61.517  47.193  29.186  1.00  0.00     0.025 A 
HETATM   14  C17 UNL     1      60.470  47.726  28.463  1.00  0.00     0.113 A 
HETATM   15  N1  UNL     1      59.397  46.948  28.666  1.00  0.00    -0.360 N 
HETATM   16  C18 UNL     1      59.732  45.943  29.490  1.00  0.00     0.180 A 
ATOM     17  H1  UNL     1      58.474  47.096  28.259  1.00  0.00     0.166 HD
HETATM   18  N2  UNL     1      61.027  46.100  29.802  1.00  0.00    -0.355 N 
ATOM     19  H2  UNL     1      61.562  45.484  30.415  1.00  0.00     0.166 HD
ENDBRANCH  12  13
ENDBRANCH  11  12
ENDBRANCH   8  11
BRANCH   5  20
HETATM   20  C6  UNL     1      64.853  46.940  34.685  1.00  0.00    -0.010 C 
HETATM   21  C7  UNL     1      63.500  47.476  34.883  1.00  0.00     0.005 C 
HETATM   22  C8  UNL     1      63.545  48.976  34.921  1.00  0.00     0.000 C 
HETATM   23  C9  UNL     1      64.945  49.274  35.337  1.00  0.00     0.000 C 
HETATM   24  C10 UNL     1      65.760  48.035  35.136  1.00  0.00     0.005 C 
ENDBRANCH   5  20
TORSDOF 4
ENDMDL
MODEL 5
REMARK VINA RESULT: -9.383279826      1.354      1.955
REMARK  4 active torsions:
REMARK  status: ('A' for Active; 'I' for Inactive)
REMARK    1  A    between atoms: C5_5  and  C6_6 
REMARK    2  A    between atoms: C13_13  and  C14_14 
REMARK    3  A    between atoms: C14_14  and  C15_15 
REMARK    4  A    between atoms: C15_15  and  C16_16 
ROOT
HETATM    1  C1  UNL     1      64.753  48.445  27.356  1.00  0.00     0.015 C 
HETATM    2  C2  UNL     1      64.195  47.918  28.683  1.00  0.00    -0.043 C 
HETATM    3  C3  UNL     1      65.190  46.938  29.220  1.00  0.00     0.009 C 
HETATM    4  C4  UNL     1      65.609  47.211  30.635  1.00  0.00     0.006 C 
HETATM    5  C5  UNL     1      64.426  47.506  31.539  1.00  0.00    -0.006 C 
HETATM    6  C11 UNL     1      63.429  48.429  30.932  1.00  0.00    -0.009 C 
HETATM    7  C12 UNL     1      62.094  47.747  30.638  1.00  0.00     0.010 C 
HETATM    8  C13 UNL     1      62.209  46.699  29.571  1.00  0.00    -0.013 C 
HETATM    9  C19 UNL     1      62.887  47.247  28.357  1.00  0.00     0.013 C 
HETATM   10  C20 UNL     1      64.000  49.029  29.657  1.00  0.00     0.014 C 
ENDROOT
BRANCH   8  11
HETATM   11  C14 UNL     1      60.803  46.256  29.223  1.00  0.00     0.010 C 
BRANCH  11  12
HETATM   12  C15 UNL     1      60.031  47.333  28.500  1.00  0.00     0.059 C 
BRANCH  12  13
HETATM   13  C16 UNL     1      58.596  47.215  28.890  1.00  0.00     0.025 A 
HETATM   14  C17 UNL     1      58.023  46.181  29.603  1.00  0.00     0.113 A 
HETATM   15  N1  UNL     1      56.719  46.456  29.742  1.00  0.00    -0.360 N 
HETATM   16  C18 UNL     1      56.449  47.626  29.143  1.00  0.00     0.180 A 
ATOM     17  H1  UNL     1      56.039  45.869  30.225  1.00  0.00     0.166 HD
HETATM   18  N2  UNL     1      57.601  48.083  28.626  1.00  0.00    -0.355 N 
ATOM     19  H2  UNL     1      57.706  48.956  28.110  1.00  0.00     0.166 HD
ENDBRANCH  12  13
ENDBRANCH  11  12
ENDBRANCH   8  11
BRANCH   5  20
HETATM   20  C6  UNL     1      64.857  47.915  32.905  1.00  0.00    -0.010 C 
HETATM   21  C7  UNL     1      64.666  46.940  33.987  1.00  0.00     0.005 C 
HETATM   22  C8  UNL     1      63.514  47.357  34.855  1.00  0.00     0.000 C 
HETATM   23  C9  UNL     1      63.431  48.830  34.640  1.00  0.00     0.000 C 
HETATM   24  C10 UNL     1      64.210  49.163  33.407  1.00  0.00     0.005 C 
ENDBRANCH   5  20
TORSDOF 4
ENDMDL
