MODEL 1
REMARK VINA RESULT: -10.375847534      0.000      0.000
REMARK  7 active torsions:
REMARK  status: ('A' for Active; 'I' for Inactive)
REMARK       I    between atoms: N1_2  and  C2_4 
REMARK    1  A    between atoms: C2_4  and  C3_6 
REMARK    2  A    between atoms: C3_6  and  N2_7 
REMARK    3  A    between atoms: N2_7  and  C4_8 
REMARK    4  A    between atoms: C9_15  and  C10_16 
REMARK    5  A    between atoms: N4_20  and  C14_21 
REMARK    6  A    between atoms: C14_21  and  C15_22 
REMARK    7  A    between atoms: C15_22  and  N5_23 
ROOT
HETATM    1  C4  UNL     1      15.914  20.090   5.434  1.00  0.00     0.146 A 
HETATM    2  C5  UNL     1      14.818  20.757   5.035  1.00  0.00     0.134 A 
HETATM    3  C6  UNL     1      14.038  21.765   5.717  1.00  0.00     0.140 A 
HETATM    4  N3  UNL     1      13.089  22.491   5.014  1.00  0.00    -0.338 N 
ATOM      5  H3  UNL     1      13.009  22.481   3.997  1.00  0.00     0.167 HD
HETATM    6  C7  UNL     1      12.318  23.180   5.786  1.00  0.00     0.061 A 
HETATM    7  C8  UNL     1      11.255  24.058   5.582  1.00  0.00     0.043 A 
HETATM    8  C9  UNL     1      10.593  24.690   6.603  1.00  0.00    -0.028 A 
HETATM    9  C22 UNL     1      11.002  24.440   7.904  1.00  0.00     0.014 A 
HETATM   10  C23 UNL     1      12.068  23.563   8.143  1.00  0.00     0.033 A 
HETATM   11  C24 UNL     1      12.691  22.960   7.068  1.00  0.00     0.062 A 
HETATM   12  N6  UNL     1      13.755  22.075   6.978  1.00  0.00    -0.334 N 
HETATM   13  C25 UNL     1      14.225  21.476   8.208  1.00  0.00     0.158 C 
HETATM   14  N7  UNL     1      14.435  20.495   3.722  1.00  0.00    -0.294 N 
ATOM     15  H7  UNL     1      13.618  20.986   3.360  1.00  0.00     0.187 HD
HETATM   16  N8  UNL     1      15.038  19.675   2.930  1.00  0.00    -0.304 N 
ATOM     17  H8  UNL     1      14.671  19.555   1.987  1.00  0.00     0.186 HD
HETATM   18  C26 UNL     1      16.112  18.978   3.280  1.00  0.00     0.035 A 
HETATM   19  C27 UNL     1      16.586  19.159   4.540  1.00  0.00     0.009 A 
HETATM   20  C28 UNL     1      17.734  18.366   5.030  1.00  0.00     0.044 C 
HETATM   21  C29 UNL     1      17.557  16.989   4.347  1.00  0.00     0.005 C 
HETATM   22  C30 UNL     1      17.839  17.231   2.884  1.00  0.00     0.006 C 
HETATM   23  C31 UNL     1      16.723  18.040   2.301  1.00  0.00     0.059 C 
ENDROOT
BRANCH   1  24
HETATM   24  N2  UNL     1      16.659  20.376   6.361  1.00  0.00    -0.409 NA
BRANCH  24  25
HETATM   25  C3  UNL     1      17.480  20.704   7.380  1.00  0.00     0.256 C 
BRANCH  25  26
HETATM   26  C2  UNL     1      17.442  19.896   8.639  1.00  0.00     0.269 C 
HETATM   27  N1  UNL     1      16.570  18.850   8.897  1.00  0.00    -0.360 N 
HETATM   28  C1  UNL     1      16.561  18.081  10.139  1.00  0.00     0.149 C 
ATOM     29  H1  UNL     1      15.893  18.602   8.175  1.00  0.00     0.162 HD
HETATM   30  O1  UNL     1      18.303  20.231   9.524  1.00  0.00    -0.266 OA
ENDBRANCH  25  26
ENDBRANCH  24  25
ENDBRANCH   1  24
BRANCH   8  31
HETATM   31  C10 UNL     1       9.538  25.657   6.392  1.00  0.00    -0.050 C 
HETATM   32  C11 UNL     1       9.108  25.941   5.152  1.00  0.00    -0.014 C 
HETATM   33  C12 UNL     1       8.051  26.893   4.727  1.00  0.00     0.072 C 
HETATM   34  C13 UNL     1       6.703  26.647   5.389  1.00  0.00     0.067 C 
HETATM   35  N4  UNL     1       6.662  26.807   6.752  1.00  0.00    -0.372 N 
HETATM   36  C20 UNL     1       7.449  25.878   7.531  1.00  0.00     0.131 C 
HETATM   37  C21 UNL     1       8.914  26.289   7.579  1.00  0.00     0.059 C 
BRANCH  35  38
HETATM   38  C14 UNL     1       6.027  27.796   7.488  1.00  0.00     0.093 C 
BRANCH  38  39
HETATM   39  C15 UNL     1       4.648  28.129   7.026  1.00  0.00     0.317 C 
BRANCH  39  40
HETATM   40  N5  UNL     1       3.638  27.301   7.608  1.00  0.00     0.093 N 
HETATM   41  C16 UNL     1       3.145  26.378   6.624  1.00  0.00     0.273 C 
HETATM   42  C17 UNL     1       1.788  26.861   6.161  1.00  0.00     0.032 C 
HETATM   43  C18 UNL     1       1.437  27.983   7.078  1.00  0.00     0.032 C 
HETATM   44  C19 UNL     1       2.515  28.019   8.139  1.00  0.00     0.273 C 
ENDBRANCH  39  40
ENDBRANCH  38  39
ENDBRANCH  35  38
ENDBRANCH   8  31
TORSDOF 7
ENDMDL
MODEL 2
REMARK VINA RESULT: -10.008372160      3.533     12.860
REMARK  7 active torsions:
REMARK  status: ('A' for Active; 'I' for Inactive)
REMARK       I    between atoms: N1_2  and  C2_4 
REMARK    1  A    between atoms: C2_4  and  C3_6 
REMARK    2  A    between atoms: C3_6  and  N2_7 
REMARK    3  A    between atoms: N2_7  and  C4_8 
REMARK    4  A    between atoms: C9_15  and  C10_16 
REMARK    5  A    between atoms: N4_20  and  C14_21 
REMARK    6  A    between atoms: C14_21  and  C15_22 
REMARK    7  A    between atoms: C15_22  and  N5_23 
ROOT
HETATM    1  C4  UNL     1       9.365  25.197   5.765  1.00  0.00     0.146 A 
HETATM    2  C5  UNL     1      10.479  24.549   6.148  1.00  0.00     0.134 A 
HETATM    3  C6  UNL     1      11.334  23.646   5.412  1.00  0.00     0.140 A 
HETATM    4  N3  UNL     1      12.566  23.287   5.936  1.00  0.00    -0.338 N 
ATOM      5  H3  UNL     1      12.994  23.747   6.741  1.00  0.00     0.167 HD
HETATM    6  C7  UNL     1      13.113  22.309   5.296  1.00  0.00     0.061 A 
HETATM    7  C8  UNL     1      14.314  21.612   5.409  1.00  0.00     0.043 A 
HETATM    8  C9  UNL     1      14.674  20.590   4.568  1.00  0.00    -0.028 A 
HETATM    9  C22 UNL     1      13.796  20.233   3.557  1.00  0.00     0.014 A 
HETATM   10  C23 UNL     1      12.580  20.915   3.416  1.00  0.00     0.033 A 
HETATM   11  C24 UNL     1      12.280  21.935   4.298  1.00  0.00     0.062 A 
HETATM   12  N6  UNL     1      11.190  22.785   4.410  1.00  0.00    -0.334 N 
HETATM   13  C25 UNL     1      10.024  22.478   3.611  1.00  0.00     0.158 C 
HETATM   14  N7  UNL     1      10.920  24.878   7.428  1.00  0.00    -0.294 N 
ATOM     15  H7  UNL     1      11.770  24.428   7.766  1.00  0.00     0.187 HD
HETATM   16  N8  UNL     1      10.330  25.710   8.217  1.00  0.00    -0.304 N 
ATOM     17  H8  UNL     1      10.738  25.876   9.137  1.00  0.00     0.186 HD
HETATM   18  C26 UNL     1       9.219  26.361   7.896  1.00  0.00     0.035 A 
HETATM   19  C27 UNL     1       8.698  26.128   6.663  1.00  0.00     0.009 A 
HETATM   20  C28 UNL     1       7.424  26.758   6.257  1.00  0.00     0.044 C 
HETATM   21  C29 UNL     1       6.599  26.811   7.564  1.00  0.00     0.005 C 
HETATM   22  C30 UNL     1       7.289  27.836   8.430  1.00  0.00     0.006 C 
HETATM   23  C31 UNL     1       8.602  27.283   8.885  1.00  0.00     0.059 C 
ENDROOT
BRANCH   1  24
HETATM   24  N2  UNL     1       8.969  25.378   4.622  1.00  0.00    -0.409 NA
BRANCH  24  25
HETATM   25  C3  UNL     1       8.546  25.576   3.357  1.00  0.00     0.256 C 
BRANCH  25  26
HETATM   26  C2  UNL     1       7.298  24.896   2.889  1.00  0.00     0.269 C 
HETATM   27  N1  UNL     1       6.564  23.973   3.617  1.00  0.00    -0.360 N 
HETATM   28  C1  UNL     1       5.347  23.328   3.129  1.00  0.00     0.149 C 
ATOM     29  H1  UNL     1       6.894  23.729   4.551  1.00  0.00     0.162 HD
HETATM   30  O1  UNL     1       6.909  25.225   1.715  1.00  0.00    -0.266 OA
ENDBRANCH  25  26
ENDBRANCH  24  25
ENDBRANCH   1  24
BRANCH   8  31
HETATM   31  C10 UNL     1      15.950  19.913   4.636  1.00  0.00    -0.050 C 
HETATM   32  C11 UNL     1      16.814  20.179   5.630  1.00  0.00    -0.014 C 
HETATM   33  C12 UNL     1      18.159  19.600   5.875  1.00  0.00     0.072 C 
HETATM   34  C13 UNL     1      18.167  18.081   5.961  1.00  0.00     0.067 C 
HETATM   35  N4  UNL     1      17.802  17.410   4.820  1.00  0.00    -0.372 N 
HETATM   36  C20 UNL     1      16.436  17.587   4.381  1.00  0.00     0.131 C 
HETATM   37  C21 UNL     1      16.260  18.888   3.611  1.00  0.00     0.059 C 
BRANCH  35  38
HETATM   38  C14 UNL     1      18.592  16.643   3.978  1.00  0.00     0.093 C 
BRANCH  38  39
HETATM   39  C15 UNL     1      19.631  15.825   4.670  1.00  0.00     0.317 C 
BRANCH  39  40
HETATM   40  N5  UNL     1      19.162  14.539   5.079  1.00  0.00     0.093 N 
HETATM   41  C16 UNL     1      18.943  14.533   6.499  1.00  0.00     0.273 C 
HETATM   42  C17 UNL     1      20.081  13.781   7.150  1.00  0.00     0.032 C 
HETATM   43  C18 UNL     1      20.847  13.175   6.023  1.00  0.00     0.032 C 
HETATM   44  C19 UNL     1      20.051  13.456   4.768  1.00  0.00     0.273 C 
ENDBRANCH  39  40
ENDBRANCH  38  39
ENDBRANCH  35  38
ENDBRANCH   8  31
TORSDOF 7
ENDMDL
MODEL 3
REMARK VINA RESULT: -9.885105614      0.838      1.103
REMARK  7 active torsions:
REMARK  status: ('A' for Active; 'I' for Inactive)
REMARK       I    between atoms: N1_2  and  C2_4 
REMARK    1  A    between atoms: C2_4  and  C3_6 
REMARK    2  A    between atoms: C3_6  and  N2_7 
REMARK    3  A    between atoms: N2_7  and  C4_8 
REMARK    4  A    between atoms: C9_15  and  C10_16 
REMARK    5  A    between atoms: N4_20  and  C14_21 
REMARK    6  A    between atoms: C14_21  and  C15_22 
REMARK    7  A    between atoms: C15_22  and  N5_23 
ROOT
HETATM    1  C4  UNL     1      15.752  20.186   5.387  1.00  0.00     0.146 A 
HETATM    2  C5  UNL     1      14.650  20.811   4.940  1.00  0.00     0.134 A 
HETATM    3  C6  UNL     1      13.817  21.805   5.579  1.00  0.00     0.140 A 
HETATM    4  N3  UNL     1      12.870  22.489   4.833  1.00  0.00    -0.338 N 
ATOM      5  H3  UNL     1      12.824  22.461   3.814  1.00  0.00     0.167 HD
HETATM    6  C7  UNL     1      12.052  23.165   5.567  1.00  0.00     0.061 A 
HETATM    7  C8  UNL     1      10.970  24.006   5.313  1.00  0.00     0.043 A 
HETATM    8  C9  UNL     1      10.254  24.632   6.301  1.00  0.00    -0.028 A 
HETATM    9  C22 UNL     1      10.626  24.416   7.618  1.00  0.00     0.014 A 
HETATM   10  C23 UNL     1      11.710  23.576   7.907  1.00  0.00     0.033 A 
HETATM   11  C24 UNL     1      12.388  22.977   6.864  1.00  0.00     0.062 A 
HETATM   12  N6  UNL     1      13.482  22.125   6.825  1.00  0.00    -0.334 N 
HETATM   13  C25 UNL     1      13.929  21.560   8.079  1.00  0.00     0.158 C 
HETATM   14  N7  UNL     1      14.320  20.516   3.619  1.00  0.00    -0.294 N 
ATOM     15  H7  UNL     1      13.501  20.975   3.223  1.00  0.00     0.187 HD
HETATM   16  N8  UNL     1      14.975  19.704   2.863  1.00  0.00    -0.304 N 
ATOM     17  H8  UNL     1      14.644  19.558   1.909  1.00  0.00     0.186 HD
HETATM   18  C26 UNL     1      16.058  19.046   3.260  1.00  0.00     0.035 A 
HETATM   19  C27 UNL     1      16.483  19.262   4.531  1.00  0.00     0.009 A 
HETATM   20  C28 UNL     1      17.638  18.514   5.072  1.00  0.00     0.044 C 
HETATM   21  C29 UNL     1      17.527  17.122   4.407  1.00  0.00     0.005 C 
HETATM   22  C30 UNL     1      17.850  17.349   2.950  1.00  0.00     0.006 C 
HETATM   23  C31 UNL     1      16.730  18.113   2.318  1.00  0.00     0.059 C 
ENDROOT
BRANCH   1  24
HETATM   24  N2  UNL     1      16.457  20.509   6.334  1.00  0.00    -0.409 NA
BRANCH  24  25
HETATM   25  C3  UNL     1      17.244  20.868   7.368  1.00  0.00     0.256 C 
BRANCH  25  26
HETATM   26  C2  UNL     1      17.286  20.003   8.589  1.00  0.00     0.269 C 
HETATM   27  N1  UNL     1      16.298  19.111   8.977  1.00  0.00    -0.360 N 
HETATM   28  C1  UNL     1      16.373  18.280  10.176  1.00  0.00     0.149 C 
ATOM     29  H1  UNL     1      15.469  19.031   8.389  1.00  0.00     0.162 HD
HETATM   30  O1  UNL     1      18.340  20.126   9.304  1.00  0.00    -0.266 OA
ENDBRANCH  25  26
ENDBRANCH  24  25
ENDBRANCH   1  24
BRANCH   8  31
HETATM   31  C10 UNL     1       9.177  25.562   6.039  1.00  0.00    -0.050 C 
HETATM   32  C11 UNL     1       8.564  25.579   4.844  1.00  0.00    -0.014 C 
HETATM   33  C12 UNL     1       7.452  26.446   4.380  1.00  0.00     0.072 C 
HETATM   34  C13 UNL     1       6.221  26.396   5.272  1.00  0.00     0.067 C 
HETATM   35  N4  UNL     1       6.387  26.854   6.556  1.00  0.00    -0.372 N 
HETATM   36  C20 UNL     1       7.285  26.095   7.397  1.00  0.00     0.131 C 
HETATM   37  C21 UNL     1       8.739  26.460   7.133  1.00  0.00     0.059 C 
BRANCH  35  38
HETATM   38  C14 UNL     1       5.868  28.000   7.139  1.00  0.00     0.093 C 
BRANCH  38  39
HETATM   39  C15 UNL     1       4.437  27.901   7.546  1.00  0.00     0.317 C 
BRANCH  39  40
HETATM   40  N5  UNL     1       3.538  28.509   6.616  1.00  0.00     0.093 N 
HETATM   41  C16 UNL     1       4.188  29.614   5.968  1.00  0.00     0.273 C 
HETATM   42  C17 UNL     1       3.655  30.895   6.568  1.00  0.00     0.032 C 
HETATM   43  C18 UNL     1       2.518  30.477   7.438  1.00  0.00     0.032 C 
HETATM   44  C19 UNL     1       2.321  28.996   7.199  1.00  0.00     0.273 C 
ENDBRANCH  39  40
ENDBRANCH  38  39
ENDBRANCH  35  38
ENDBRANCH   8  31
TORSDOF 7
ENDMDL
MODEL 4
REMARK VINA RESULT: -9.297458315      0.935      1.493
REMARK  7 active torsions:
REMARK  status: ('A' for Active; 'I' for Inactive)
REMARK       I    between atoms: N1_2  and  C2_4 
REMARK    1  A    between atoms: C2_4  and  C3_6 
REMARK    2  A    between atoms: C3_6  and  N2_7 
REMARK    3  A    between atoms: N2_7  and  C4_8 
REMARK    4  A    between atoms: C9_15  and  C10_16 
REMARK    5  A    between atoms: N4_20  and  C14_21 
REMARK    6  A    between atoms: C14_21  and  C15_22 
REMARK    7  A    between atoms: C15_22  and  N5_23 
ROOT
HETATM    1  C4  UNL     1      15.836  19.988   5.057  1.00  0.00     0.146 A 
HETATM    2  C5  UNL     1      14.671  20.646   4.936  1.00  0.00     0.134 A 
HETATM    3  C6  UNL     1      14.028  21.579   5.833  1.00  0.00     0.140 A 
HETATM    4  N3  UNL     1      12.945  22.322   5.390  1.00  0.00    -0.338 N 
ATOM      5  H3  UNL     1      12.661  22.380   4.411  1.00  0.00     0.167 HD
HETATM    6  C7  UNL     1      12.334  22.931   6.349  1.00  0.00     0.061 A 
HETATM    7  C8  UNL     1      11.237  23.787   6.428  1.00  0.00     0.043 A 
HETATM    8  C9  UNL     1      10.784  24.325   7.605  1.00  0.00    -0.028 A 
HETATM    9  C22 UNL     1      11.451  23.999   8.775  1.00  0.00     0.014 A 
HETATM   10  C23 UNL     1      12.558  23.141   8.730  1.00  0.00     0.033 A 
HETATM   11  C24 UNL     1      12.962  22.634   7.511  1.00  0.00     0.062 A 
HETATM   12  N6  UNL     1      14.000  21.791   7.144  1.00  0.00    -0.334 N 
HETATM   13  C25 UNL     1      14.719  21.124   8.208  1.00  0.00     0.158 C 
HETATM   14  N7  UNL     1      14.035  20.463   3.710  1.00  0.00    -0.294 N 
ATOM     15  H7  UNL     1      13.154  20.952   3.556  1.00  0.00     0.187 HD
HETATM   16  N8  UNL     1      14.480  19.719   2.755  1.00  0.00    -0.304 N 
ATOM     17  H8  UNL     1      13.932  19.654   1.898  1.00  0.00     0.186 HD
HETATM   18  C26 UNL     1      15.615  19.034   2.831  1.00  0.00     0.035 A 
HETATM   19  C27 UNL     1      16.330  19.142   3.980  1.00  0.00     0.009 A 
HETATM   20  C28 UNL     1      17.566  18.354   4.170  1.00  0.00     0.044 C 
HETATM   21  C29 UNL     1      17.278  17.023   3.436  1.00  0.00     0.005 C 
HETATM   22  C30 UNL     1      17.255  17.374   1.969  1.00  0.00     0.006 C 
HETATM   23  C31 UNL     1      16.031  18.186   1.682  1.00  0.00     0.059 C 
ENDROOT
BRANCH   1  24
HETATM   24  N2  UNL     1      16.749  20.231   5.835  1.00  0.00    -0.409 NA
BRANCH  24  25
HETATM   25  C3  UNL     1      17.763  20.500   6.682  1.00  0.00     0.256 C 
BRANCH  25  26
HETATM   26  C2  UNL     1      17.759  19.886   8.047  1.00  0.00     0.269 C 
HETATM   27  N1  UNL     1      17.376  18.587   8.342  1.00  0.00    -0.360 N 
HETATM   28  C1  UNL     1      17.385  18.019   9.689  1.00  0.00     0.149 C 
ATOM     29  H1  UNL     1      17.070  17.992   7.573  1.00  0.00     0.162 HD
HETATM   30  O1  UNL     1      18.150  20.658   8.989  1.00  0.00    -0.266 OA
ENDBRANCH  25  26
ENDBRANCH  24  25
ENDBRANCH   1  24
BRANCH   8  31
HETATM   31  C10 UNL     1       9.692  25.271   7.681  1.00  0.00    -0.050 C 
HETATM   32  C11 UNL     1       9.701  26.254   8.596  1.00  0.00    -0.014 C 
HETATM   33  C12 UNL     1       8.688  27.313   8.837  1.00  0.00     0.072 C 
HETATM   34  C13 UNL     1       8.366  28.145   7.605  1.00  0.00     0.067 C 
HETATM   35  N4  UNL     1       7.791  27.473   6.554  1.00  0.00    -0.372 N 
HETATM   36  C20 UNL     1       8.607  26.463   5.917  1.00  0.00     0.131 C 
HETATM   37  C21 UNL     1       8.589  25.156   6.697  1.00  0.00     0.059 C 
BRANCH  35  38
HETATM   38  C14 UNL     1       6.498  27.573   6.068  1.00  0.00     0.093 C 
BRANCH  38  39
HETATM   39  C15 UNL     1       5.448  26.999   6.959  1.00  0.00     0.317 C 
BRANCH  39  40
HETATM   40  N5  UNL     1       4.118  27.214   6.482  1.00  0.00     0.093 N 
HETATM   41  C16 UNL     1       3.904  28.619   6.267  1.00  0.00     0.273 C 
HETATM   42  C17 UNL     1       3.058  29.147   7.403  1.00  0.00     0.032 C 
HETATM   43  C18 UNL     1       2.620  27.940   8.162  1.00  0.00     0.032 C 
HETATM   44  C19 UNL     1       3.089  26.743   7.363  1.00  0.00     0.273 C 
ENDBRANCH  39  40
ENDBRANCH  38  39
ENDBRANCH  35  38
ENDBRANCH   8  31
TORSDOF 7
ENDMDL
MODEL 5
REMARK VINA RESULT: -8.949320572      0.963      1.443
REMARK  7 active torsions:
REMARK  status: ('A' for Active; 'I' for Inactive)
REMARK       I    between atoms: N1_2  and  C2_4 
REMARK    1  A    between atoms: C2_4  and  C3_6 
REMARK    2  A    between atoms: C3_6  and  N2_7 
REMARK    3  A    between atoms: N2_7  and  C4_8 
REMARK    4  A    between atoms: C9_15  and  C10_16 
REMARK    5  A    between atoms: N4_20  and  C14_21 
REMARK    6  A    between atoms: C14_21  and  C15_22 
REMARK    7  A    between atoms: C15_22  and  N5_23 
ROOT
HETATM    1  C4  UNL     1      15.879  19.909   5.246  1.00  0.00     0.146 A 
HETATM    2  C5  UNL     1      14.687  20.498   5.051  1.00  0.00     0.134 A 
HETATM    3  C6  UNL     1      13.979  21.463   5.861  1.00  0.00     0.140 A 
HETATM    4  N3  UNL     1      12.872  22.116   5.340  1.00  0.00    -0.338 N 
ATOM      5  H3  UNL     1      12.610  22.086   4.354  1.00  0.00     0.167 HD
HETATM    6  C7  UNL     1      12.210  22.765   6.237  1.00  0.00     0.061 A 
HETATM    7  C8  UNL     1      11.072  23.570   6.227  1.00  0.00     0.043 A 
HETATM    8  C9  UNL     1      10.566  24.172   7.350  1.00  0.00    -0.028 A 
HETATM    9  C22 UNL     1      11.219  23.969   8.555  1.00  0.00     0.014 A 
HETATM   10  C23 UNL     1      12.367  23.166   8.599  1.00  0.00     0.033 A 
HETATM   11  C24 UNL     1      12.824  22.588   7.430  1.00  0.00     0.062 A 
HETATM   12  N6  UNL     1      13.910  21.773   7.151  1.00  0.00    -0.334 N 
HETATM   13  C25 UNL     1      14.634  21.224   8.277  1.00  0.00     0.158 C 
HETATM   14  N7  UNL     1      14.090  20.191   3.830  1.00  0.00    -0.294 N 
ATOM     15  H7  UNL     1      13.191  20.623   3.621  1.00  0.00     0.187 HD
HETATM   16  N8  UNL     1      14.593  19.400   2.945  1.00  0.00    -0.304 N 
ATOM     17  H8  UNL     1      14.070  19.243   2.084  1.00  0.00     0.186 HD
HETATM   18  C26 UNL     1      15.757  18.779   3.095  1.00  0.00     0.035 A 
HETATM   19  C27 UNL     1      16.438  19.009   4.247  1.00  0.00     0.009 A 
HETATM   20  C28 UNL     1      17.706  18.300   4.523  1.00  0.00     0.044 C 
HETATM   21  C29 UNL     1      17.499  16.904   3.887  1.00  0.00     0.005 C 
HETATM   22  C30 UNL     1      17.494  17.142   2.397  1.00  0.00     0.006 C 
HETATM   23  C31 UNL     1      16.241  17.868   2.025  1.00  0.00     0.059 C 
ENDROOT
BRANCH   1  24
HETATM   24  N2  UNL     1      16.760  20.255   6.021  1.00  0.00    -0.409 NA
BRANCH  24  25
HETATM   25  C3  UNL     1      17.725  20.629   6.886  1.00  0.00     0.256 C 
BRANCH  25  26
HETATM   26  C2  UNL     1      17.793  19.977   8.232  1.00  0.00     0.269 C 
HETATM   27  N1  UNL     1      17.244  18.747   8.558  1.00  0.00    -0.360 N 
HETATM   28  C1  UNL     1      17.331  18.139   9.884  1.00  0.00     0.149 C 
ATOM     29  H1  UNL     1      16.750  18.235   7.828  1.00  0.00     0.162 HD
HETATM   30  O1  UNL     1      18.422  20.644   9.125  1.00  0.00    -0.266 OA
ENDBRANCH  25  26
ENDBRANCH  24  25
ENDBRANCH   1  24
BRANCH   8  31
HETATM   31  C10 UNL     1       9.429  25.066   7.331  1.00  0.00    -0.050 C 
HETATM   32  C11 UNL     1       9.233  25.945   8.327  1.00  0.00    -0.014 C 
HETATM   33  C12 UNL     1       8.140  26.936   8.495  1.00  0.00     0.072 C 
HETATM   34  C13 UNL     1       7.986  27.884   7.315  1.00  0.00     0.067 C 
HETATM   35  N4  UNL     1       7.631  27.309   6.120  1.00  0.00    -0.372 N 
HETATM   36  C20 UNL     1       8.593  26.402   5.534  1.00  0.00     0.131 C 
HETATM   37  C21 UNL     1       8.514  25.019   6.165  1.00  0.00     0.059 C 
BRANCH  35  38
HETATM   38  C14 UNL     1       6.434  27.416   5.430  1.00  0.00     0.093 C 
BRANCH  38  39
HETATM   39  C15 UNL     1       5.214  27.383   6.288  1.00  0.00     0.317 C 
BRANCH  39  40
HETATM   40  N5  UNL     1       4.408  26.220   6.083  1.00  0.00     0.093 N 
HETATM   41  C16 UNL     1       4.316  25.938   4.677  1.00  0.00     0.273 C 
HETATM   42  C17 UNL     1       2.948  26.369   4.198  1.00  0.00     0.032 C 
HETATM   43  C18 UNL     1       2.188  26.713   5.434  1.00  0.00     0.032 C 
HETATM   44  C19 UNL     1       3.073  26.325   6.599  1.00  0.00     0.273 C 
ENDBRANCH  39  40
ENDBRANCH  38  39
ENDBRANCH  35  38
ENDBRANCH   8  31
TORSDOF 7
ENDMDL
