MODEL 1
REMARK VINA RESULT: -10.653615695      0.000      0.000
REMARK  7 active torsions:
REMARK  status: ('A' for Active; 'I' for Inactive)
REMARK    1  A    between atoms: C8_9  and  C9_10 
REMARK       I    between atoms: C9_10  and  N1_12 
REMARK    2  A    between atoms: N1_12  and  C10_14 
REMARK    3  A    between atoms: C15_20  and  C16_21 
REMARK    4  A    between atoms: C16_21  and  N2_22 
REMARK       I    between atoms: N2_22  and  C17_24 
REMARK    5  A    between atoms: C17_24  and  C18_26 
REMARK    6  A    between atoms: C22_30  and  C23_31 
REMARK       I    between atoms: C23_31  and  N3_33 
REMARK    7  A    between atoms: N3_33  and  C24_35 
ROOT
HETATM    1  C1  UNL     1      15.739  21.056  10.025  1.00  0.00     0.045 C 
HETATM    2  C2  UNL     1      16.488  21.408   8.749  1.00  0.00     0.054 C 
HETATM    3  C3  UNL     1      17.873  21.913   9.055  1.00  0.00     0.045 C 
HETATM    4  C4  UNL     1      15.750  22.485   7.988  1.00  0.00     0.050 C 
HETATM    5  C5  UNL     1      14.810  21.687   7.124  1.00  0.00    -0.002 C 
HETATM    6  C6  UNL     1      15.266  20.283   7.256  1.00  0.00     0.179 C 
HETATM    7  O1  UNL     1      16.462  20.273   7.955  1.00  0.00    -0.380 OA
HETATM    8  C7  UNL     1      13.367  21.958   7.514  1.00  0.00     0.027 C 
HETATM    9  C8  UNL     1      13.005  21.959   6.035  1.00  0.00     0.092 C 
HETATM   10  C22 UNL     1      14.498  22.220   5.765  1.00  0.00     0.101 C 
ENDROOT
BRANCH   9  11
HETATM   11  C9  UNL     1      12.186  23.073   5.560  1.00  0.00     0.223 C 
HETATM   12  O2  UNL     1      12.278  24.208   6.139  1.00  0.00    -0.273 OA
HETATM   13  N1  UNL     1      11.273  22.984   4.473  1.00  0.00    -0.356 N 
ATOM     14  H1  UNL     1      11.175  22.091   3.990  1.00  0.00     0.162 HD
BRANCH  13  15
HETATM   15  C10 UNL     1      10.481  24.101   4.025  1.00  0.00     0.085 C 
HETATM   16  C11 UNL     1      10.226  24.144   2.559  1.00  0.00     0.034 C 
HETATM   17  C12 UNL     1       8.758  24.527   2.389  1.00  0.00     0.041 A 
HETATM   18  C13 UNL     1       7.692  23.529   2.751  1.00  0.00     0.114 A 
HETATM   19  C15 UNL     1       8.117  24.595   3.674  1.00  0.00     0.020 A 
HETATM   20  C14 UNL     1       8.026  22.084   2.948  1.00  0.00     0.053 C 
HETATM   21  F1  UNL     1       6.456  23.735   2.162  1.00  0.00    -0.242 F 
HETATM   22  C21 UNL     1       9.164  24.120   4.724  1.00  0.00     0.040 C 
BRANCH  19  23
HETATM   23  C16 UNL     1       7.240  25.699   4.132  1.00  0.00     0.136 C 
BRANCH  23  24
HETATM   24  N2  UNL     1       7.067  25.777   5.542  1.00  0.00    -0.360 N 
HETATM   25  C17 UNL     1       7.507  26.706   6.493  1.00  0.00     0.221 C 
HETATM   26  O3  UNL     1       8.178  27.733   6.250  1.00  0.00    -0.273 OA
ATOM     27  H2  UNL     1       6.520  25.011   5.934  1.00  0.00     0.162 HD
BRANCH  25  28
HETATM   28  C18 UNL     1       7.144  26.454   7.936  1.00  0.00     0.078 A 
HETATM   29  C19 UNL     1       8.119  26.845   8.984  1.00  0.00     0.015 A 
HETATM   30  C20 UNL     1       7.840  25.380   8.662  1.00  0.00     0.015 A 
ENDBRANCH  25  28
ENDBRANCH  23  24
ENDBRANCH  19  23
ENDBRANCH  13  15
ENDBRANCH   9  11
BRANCH  10  31
HETATM   31  C23 UNL     1      14.961  21.429   4.614  1.00  0.00     0.223 C 
HETATM   32  O4  UNL     1      14.633  21.760   3.451  1.00  0.00    -0.273 OA
HETATM   33  N3  UNL     1      15.776  20.295   4.803  1.00  0.00    -0.356 N 
ATOM     34  H3  UNL     1      16.053  20.011   5.742  1.00  0.00     0.162 HD
BRANCH  33  35
HETATM   35  C24 UNL     1      16.212  19.543   3.653  1.00  0.00     0.084 C 
HETATM   36  C25 UNL     1      15.005  18.778   3.106  1.00  0.00     0.025 C 
HETATM   37  C26 UNL     1      15.420  18.238   1.755  1.00  0.00     0.002 C 
HETATM   38  C27 UNL     1      16.915  18.297   1.547  1.00  0.00     0.000 C 
HETATM   39  C28 UNL     1      17.697  17.842   2.745  1.00  0.00     0.002 C 
HETATM   40  C29 UNL     1      17.253  18.507   4.023  1.00  0.00     0.025 C 
ENDBRANCH  33  35
ENDBRANCH  10  31
TORSDOF 7
ENDMDL
MODEL 2
REMARK VINA RESULT: -10.091132448      2.766      9.675
REMARK  7 active torsions:
REMARK  status: ('A' for Active; 'I' for Inactive)
REMARK    1  A    between atoms: C8_9  and  C9_10 
REMARK       I    between atoms: C9_10  and  N1_12 
REMARK    2  A    between atoms: N1_12  and  C10_14 
REMARK    3  A    between atoms: C15_20  and  C16_21 
REMARK    4  A    between atoms: C16_21  and  N2_22 
REMARK       I    between atoms: N2_22  and  C17_24 
REMARK    5  A    between atoms: C17_24  and  C18_26 
REMARK    6  A    between atoms: C22_30  and  C23_31 
REMARK       I    between atoms: C23_31  and  N3_33 
REMARK    7  A    between atoms: N3_33  and  C24_35 
ROOT
HETATM    1  C1  UNL     1       9.094  26.960   8.643  1.00  0.00     0.045 C 
HETATM    2  C2  UNL     1       8.116  26.011   7.967  1.00  0.00     0.054 C 
HETATM    3  C3  UNL     1       7.150  25.428   8.965  1.00  0.00     0.045 C 
HETATM    4  C4  UNL     1       8.860  24.873   7.309  1.00  0.00     0.050 C 
HETATM    5  C5  UNL     1       9.151  25.425   5.938  1.00  0.00    -0.002 C 
HETATM    6  C6  UNL     1       8.343  26.663   5.844  1.00  0.00     0.179 C 
HETATM    7  O1  UNL     1       7.512  26.732   6.950  1.00  0.00    -0.380 OA
HETATM    8  C7  UNL     1      10.648  25.589   5.737  1.00  0.00     0.027 C 
HETATM    9  C8  UNL     1      10.476  25.076   4.313  1.00  0.00     0.092 C 
HETATM   10  C22 UNL     1       9.144  24.469   4.791  1.00  0.00     0.101 C 
ENDROOT
BRANCH   9  11
HETATM   11  C9  UNL     1      11.399  24.029   3.876  1.00  0.00     0.223 C 
HETATM   12  O2  UNL     1      11.275  23.535   2.706  1.00  0.00    -0.273 OA
HETATM   13  N1  UNL     1      12.452  23.510   4.681  1.00  0.00    -0.356 N 
ATOM     14  H1  UNL     1      12.576  23.883   5.622  1.00  0.00     0.162 HD
BRANCH  13  15
HETATM   15  C10 UNL     1      13.349  22.480   4.223  1.00  0.00     0.085 C 
HETATM   16  C11 UNL     1      14.769  22.654   4.631  1.00  0.00     0.034 C 
HETATM   17  C12 UNL     1      15.265  21.277   5.062  1.00  0.00     0.041 A 
HETATM   18  C13 UNL     1      14.756  20.682   6.347  1.00  0.00     0.114 A 
HETATM   19  C15 UNL     1      14.180  20.335   5.038  1.00  0.00     0.020 A 
HETATM   20  C14 UNL     1      14.054  21.528   7.361  1.00  0.00     0.053 C 
HETATM   21  F1  UNL     1      15.553  19.696   6.906  1.00  0.00    -0.242 F 
HETATM   22  C21 UNL     1      12.893  21.142   4.697  1.00  0.00     0.040 C 
BRANCH  19  23
HETATM   23  C16 UNL     1      14.238  18.982   4.433  1.00  0.00     0.136 C 
BRANCH  23  24
HETATM   24  N2  UNL     1      15.443  18.693   3.734  1.00  0.00    -0.360 N 
HETATM   25  C17 UNL     1      15.806  18.831   2.389  1.00  0.00     0.221 C 
HETATM   26  O3  UNL     1      15.076  19.288   1.482  1.00  0.00    -0.273 OA
ATOM     27  H2  UNL     1      16.183  18.313   4.325  1.00  0.00     0.162 HD
BRANCH  25  28
HETATM   28  C18 UNL     1      17.195  18.395   1.991  1.00  0.00     0.078 A 
HETATM   29  C19 UNL     1      17.438  16.949   1.765  1.00  0.00     0.015 A 
HETATM   30  C20 UNL     1      18.017  17.674   2.976  1.00  0.00     0.015 A 
ENDBRANCH  25  28
ENDBRANCH  23  24
ENDBRANCH  19  23
ENDBRANCH  13  15
ENDBRANCH   9  11
BRANCH  10  31
HETATM   31  C23 UNL     1       8.097  24.652   3.774  1.00  0.00     0.223 C 
HETATM   32  O4  UNL     1       8.231  25.523   2.884  1.00  0.00    -0.273 OA
HETATM   33  N3  UNL     1       6.936  23.854   3.789  1.00  0.00    -0.356 N 
ATOM     34  H3  UNL     1       6.809  23.139   4.505  1.00  0.00     0.162 HD
BRANCH  33  35
HETATM   35  C24 UNL     1       5.929  24.060   2.777  1.00  0.00     0.084 C 
HETATM   36  C25 UNL     1       4.619  23.457   3.289  1.00  0.00     0.025 C 
HETATM   37  C26 UNL     1       3.534  23.937   2.348  1.00  0.00     0.002 C 
HETATM   38  C27 UNL     1       4.096  24.511   1.069  1.00  0.00     0.000 C 
HETATM   39  C28 UNL     1       5.203  23.683   0.485  1.00  0.00     0.002 C 
HETATM   40  C29 UNL     1       6.269  23.334   1.492  1.00  0.00     0.025 C 
ENDBRANCH  33  35
ENDBRANCH  10  31
TORSDOF 7
ENDMDL
MODEL 3
REMARK VINA RESULT: -9.884825412      0.886      1.148
REMARK  7 active torsions:
REMARK  status: ('A' for Active; 'I' for Inactive)
REMARK    1  A    between atoms: C8_9  and  C9_10 
REMARK       I    between atoms: C9_10  and  N1_12 
REMARK    2  A    between atoms: N1_12  and  C10_14 
REMARK    3  A    between atoms: C15_20  and  C16_21 
REMARK    4  A    between atoms: C16_21  and  N2_22 
REMARK       I    between atoms: N2_22  and  C17_24 
REMARK    5  A    between atoms: C17_24  and  C18_26 
REMARK    6  A    between atoms: C22_30  and  C23_31 
REMARK       I    between atoms: C23_31  and  N3_33 
REMARK    7  A    between atoms: N3_33  and  C24_35 
ROOT
HETATM    1  C1  UNL     1      15.723  21.187   9.975  1.00  0.00     0.045 C 
HETATM    2  C2  UNL     1      16.540  21.401   8.711  1.00  0.00     0.054 C 
HETATM    3  C3  UNL     1      17.958  21.788   9.040  1.00  0.00     0.045 C 
HETATM    4  C4  UNL     1      15.933  22.501   7.873  1.00  0.00     0.050 C 
HETATM    5  C5  UNL     1      14.947  21.752   7.017  1.00  0.00    -0.002 C 
HETATM    6  C6  UNL     1      15.262  20.320   7.233  1.00  0.00     0.179 C 
HETATM    7  O1  UNL     1      16.430  20.233   7.973  1.00  0.00    -0.380 OA
HETATM    8  C7  UNL     1      13.526  22.178   7.342  1.00  0.00     0.027 C 
HETATM    9  C8  UNL     1      13.210  22.136   5.853  1.00  0.00     0.092 C 
HETATM   10  C22 UNL     1      14.728  22.241   5.623  1.00  0.00     0.101 C 
ENDROOT
BRANCH   9  11
HETATM   11  C9  UNL     1      12.517  23.297   5.296  1.00  0.00     0.223 C 
HETATM   12  O2  UNL     1      12.906  24.470   5.616  1.00  0.00    -0.273 OA
HETATM   13  N1  UNL     1      11.413  23.212   4.401  1.00  0.00    -0.356 N 
ATOM     14  H1  UNL     1      11.077  22.288   4.128  1.00  0.00     0.162 HD
BRANCH  13  15
HETATM   15  C10 UNL     1      10.751  24.374   3.866  1.00  0.00     0.085 C 
HETATM   16  C11 UNL     1      10.295  24.244   2.456  1.00  0.00     0.034 C 
HETATM   17  C12 UNL     1       8.898  24.856   2.397  1.00  0.00     0.041 A 
HETATM   18  C13 UNL     1       7.752  24.130   3.050  1.00  0.00     0.114 A 
HETATM   19  C15 UNL     1       8.470  25.227   3.718  1.00  0.00     0.020 A 
HETATM   20  C14 UNL     1       7.877  22.694   3.449  1.00  0.00     0.053 C 
HETATM   21  F1  UNL     1       6.490  24.466   2.585  1.00  0.00    -0.242 F 
HETATM   22  C21 UNL     1       9.571  24.733   4.702  1.00  0.00     0.040 C 
BRANCH  19  23
HETATM   23  C16 UNL     1       7.856  26.527   4.081  1.00  0.00     0.136 C 
BRANCH  23  24
HETATM   24  N2  UNL     1       6.903  26.462   5.136  1.00  0.00    -0.360 N 
HETATM   25  C17 UNL     1       6.845  27.081   6.391  1.00  0.00     0.221 C 
HETATM   26  O3  UNL     1       7.689  27.885   6.844  1.00  0.00    -0.273 OA
ATOM     27  H2  UNL     1       6.112  25.848   4.941  1.00  0.00     0.162 HD
BRANCH  25  28
HETATM   28  C18 UNL     1       5.668  26.756   7.277  1.00  0.00     0.078 A 
HETATM   29  C19 UNL     1       4.425  26.257   6.638  1.00  0.00     0.015 A 
HETATM   30  C20 UNL     1       4.499  27.650   7.255  1.00  0.00     0.015 A 
ENDBRANCH  25  28
ENDBRANCH  23  24
ENDBRANCH  19  23
ENDBRANCH  13  15
ENDBRANCH   9  11
BRANCH  10  31
HETATM   31  C23 UNL     1      15.149  21.352   4.528  1.00  0.00     0.223 C 
HETATM   32  O4  UNL     1      14.654  21.485   3.385  1.00  0.00    -0.273 OA
HETATM   33  N3  UNL     1      16.108  20.344   4.751  1.00  0.00    -0.356 N 
ATOM     34  H3  UNL     1      16.523  20.221   5.675  1.00  0.00     0.162 HD
BRANCH  33  35
HETATM   35  C24 UNL     1      16.497  19.490   3.656  1.00  0.00     0.084 C 
HETATM   36  C25 UNL     1      15.246  18.764   3.158  1.00  0.00     0.025 C 
HETATM   37  C26 UNL     1      15.626  18.109   1.848  1.00  0.00     0.002 C 
HETATM   38  C27 UNL     1      17.122  18.063   1.642  1.00  0.00     0.000 C 
HETATM   39  C28 UNL     1      17.875  17.644   2.871  1.00  0.00     0.002 C 
HETATM   40  C29 UNL     1      17.473  18.420   4.099  1.00  0.00     0.025 C 
ENDBRANCH  33  35
ENDBRANCH  10  31
TORSDOF 7
ENDMDL
MODEL 4
REMARK VINA RESULT: -9.859802720      2.939     10.235
REMARK  7 active torsions:
REMARK  status: ('A' for Active; 'I' for Inactive)
REMARK    1  A    between atoms: C8_9  and  C9_10 
REMARK       I    between atoms: C9_10  and  N1_12 
REMARK    2  A    between atoms: N1_12  and  C10_14 
REMARK    3  A    between atoms: C15_20  and  C16_21 
REMARK    4  A    between atoms: C16_21  and  N2_22 
REMARK       I    between atoms: N2_22  and  C17_24 
REMARK    5  A    between atoms: C17_24  and  C18_26 
REMARK    6  A    between atoms: C22_30  and  C23_31 
REMARK       I    between atoms: C23_31  and  N3_33 
REMARK    7  A    between atoms: N3_33  and  C24_35 
ROOT
HETATM    1  C1  UNL     1       8.085  22.348   1.999  1.00  0.00     0.045 C 
HETATM    2  C2  UNL     1       8.614  23.695   2.467  1.00  0.00     0.054 C 
HETATM    3  C3  UNL     1       8.288  24.780   1.474  1.00  0.00     0.045 C 
HETATM    4  C4  UNL     1      10.115  23.641   2.631  1.00  0.00     0.050 C 
HETATM    5  C5  UNL     1      10.269  23.173   4.054  1.00  0.00    -0.002 C 
HETATM    6  C6  UNL     1       8.910  23.265   4.638  1.00  0.00     0.179 C 
HETATM    7  O1  UNL     1       8.084  23.906   3.729  1.00  0.00    -0.380 OA
HETATM    8  C7  UNL     1      10.921  21.802   4.097  1.00  0.00     0.027 C 
HETATM    9  C8  UNL     1      11.734  22.265   5.298  1.00  0.00     0.092 C 
HETATM   10  C22 UNL     1      11.427  23.701   4.835  1.00  0.00     0.101 C 
ENDROOT
BRANCH   9  11
HETATM   11  C9  UNL     1      13.171  22.000   5.259  1.00  0.00     0.223 C 
HETATM   12  O2  UNL     1      13.714  21.654   4.156  1.00  0.00    -0.273 OA
HETATM   13  N1  UNL     1      14.031  22.103   6.389  1.00  0.00    -0.356 N 
ATOM     14  H1  UNL     1      13.628  22.376   7.286  1.00  0.00     0.162 HD
BRANCH  13  15
HETATM   15  C10 UNL     1      15.446  21.839   6.320  1.00  0.00     0.085 C 
HETATM   16  C11 UNL     1      16.244  22.387   7.450  1.00  0.00     0.034 C 
HETATM   17  C12 UNL     1      17.238  21.298   7.843  1.00  0.00     0.041 A 
HETATM   18  C13 UNL     1      16.734  20.059   8.532  1.00  0.00     0.114 A 
HETATM   19  C15 UNL     1      16.984  20.105   7.082  1.00  0.00     0.020 A 
HETATM   20  C14 UNL     1      15.366  20.016   9.135  1.00  0.00     0.053 C 
HETATM   21  F1  UNL     1      17.680  19.352   9.258  1.00  0.00    -0.242 F 
HETATM   22  C21 UNL     1      15.699  20.372   6.244  1.00  0.00     0.040 C 
BRANCH  19  23
HETATM   23  C16 UNL     1      18.017  19.300   6.388  1.00  0.00     0.136 C 
BRANCH  23  24
HETATM   24  N2  UNL     1      17.844  19.194   4.980  1.00  0.00    -0.360 N 
HETATM   25  C17 UNL     1      17.955  18.112   4.098  1.00  0.00     0.221 C 
HETATM   26  O3  UNL     1      18.236  16.937   4.420  1.00  0.00    -0.273 OA
ATOM     27  H2  UNL     1      17.592  20.073   4.527  1.00  0.00     0.162 HD
BRANCH  25  28
HETATM   28  C18 UNL     1      17.715  18.379   2.632  1.00  0.00     0.078 A 
HETATM   29  C19 UNL     1      16.313  18.473   2.156  1.00  0.00     0.015 A 
HETATM   30  C20 UNL     1      17.200  17.287   1.790  1.00  0.00     0.015 A 
ENDBRANCH  25  28
ENDBRANCH  23  24
ENDBRANCH  19  23
ENDBRANCH  13  15
ENDBRANCH   9  11
BRANCH  10  31
HETATM   31  C23 UNL     1      11.120  24.562   5.988  1.00  0.00     0.223 C 
HETATM   32  O4  UNL     1      12.003  24.806   6.843  1.00  0.00    -0.273 OA
HETATM   33  N3  UNL     1       9.837  25.121   6.143  1.00  0.00    -0.356 N 
ATOM     34  H3  UNL     1       9.106  24.934   5.458  1.00  0.00     0.162 HD
BRANCH  33  35
HETATM   35  C24 UNL     1       9.570  25.961   7.285  1.00  0.00     0.084 C 
HETATM   36  C25 UNL     1       9.039  25.070   8.410  1.00  0.00     0.025 C 
HETATM   37  C26 UNL     1       9.043  25.919   9.663  1.00  0.00     0.002 C 
HETATM   38  C27 UNL     1       9.201  27.390   9.360  1.00  0.00     0.000 C 
HETATM   39  C28 UNL     1       8.350  27.852   8.212  1.00  0.00     0.002 C 
HETATM   40  C29 UNL     1       8.488  26.980   6.991  1.00  0.00     0.025 C 
ENDBRANCH  33  35
ENDBRANCH  10  31
TORSDOF 7
ENDMDL
MODEL 5
REMARK VINA RESULT: -9.854707125      2.843     10.442
REMARK  7 active torsions:
REMARK  status: ('A' for Active; 'I' for Inactive)
REMARK    1  A    between atoms: C8_9  and  C9_10 
REMARK       I    between atoms: C9_10  and  N1_12 
REMARK    2  A    between atoms: N1_12  and  C10_14 
REMARK    3  A    between atoms: C15_20  and  C16_21 
REMARK    4  A    between atoms: C16_21  and  N2_22 
REMARK       I    between atoms: N2_22  and  C17_24 
REMARK    5  A    between atoms: C17_24  and  C18_26 
REMARK    6  A    between atoms: C22_30  and  C23_31 
REMARK       I    between atoms: C23_31  and  N3_33 
REMARK    7  A    between atoms: N3_33  and  C24_35 
ROOT
HETATM    1  C1  UNL     1       3.662  23.017   1.419  1.00  0.00     0.045 C 
HETATM    2  C2  UNL     1       4.566  24.241   1.398  1.00  0.00     0.054 C 
HETATM    3  C3  UNL     1       4.199  25.167   0.269  1.00  0.00     0.045 C 
HETATM    4  C4  UNL     1       6.007  23.824   1.218  1.00  0.00     0.050 C 
HETATM    5  C5  UNL     1       6.462  23.608   2.637  1.00  0.00    -0.002 C 
HETATM    6  C6  UNL     1       5.375  24.162   3.478  1.00  0.00     0.179 C 
HETATM    7  O1  UNL     1       4.473  24.816   2.655  1.00  0.00    -0.380 OA
HETATM    8  C7  UNL     1       6.805  22.146   2.869  1.00  0.00     0.027 C 
HETATM    9  C8  UNL     1       8.004  22.595   3.693  1.00  0.00     0.092 C 
HETATM   10  C22 UNL     1       7.878  23.948   2.969  1.00  0.00     0.101 C 
ENDROOT
BRANCH   9  11
HETATM   11  C9  UNL     1       9.285  21.959   3.389  1.00  0.00     0.223 C 
HETATM   12  O2  UNL     1       9.425  21.330   2.287  1.00  0.00    -0.273 OA
HETATM   13  N1  UNL     1      10.415  21.991   4.253  1.00  0.00    -0.356 N 
ATOM     14  H1  UNL     1      10.336  22.485   5.143  1.00  0.00     0.162 HD
BRANCH  13  15
HETATM   15  C10 UNL     1      11.667  21.357   3.926  1.00  0.00     0.085 C 
HETATM   16  C11 UNL     1      12.735  22.279   3.453  1.00  0.00     0.034 C 
HETATM   17  C12 UNL     1      14.023  21.836   4.143  1.00  0.00     0.041 A 
HETATM   18  C13 UNL     1      14.184  22.076   5.620  1.00  0.00     0.114 A 
HETATM   19  C15 UNL     1      13.739  20.781   5.078  1.00  0.00     0.020 A 
HETATM   20  C14 UNL     1      13.283  23.021   6.349  1.00  0.00     0.053 C 
HETATM   21  F1  UNL     1      15.490  22.089   6.083  1.00  0.00    -0.242 F 
HETATM   22  C21 UNL     1      12.193  20.604   5.100  1.00  0.00     0.040 C 
BRANCH  19  23
HETATM   23  C16 UNL     1      14.507  19.519   5.199  1.00  0.00     0.136 C 
BRANCH  23  24
HETATM   24  N2  UNL     1      15.315  19.203   4.070  1.00  0.00    -0.360 N 
HETATM   25  C17 UNL     1      16.700  19.068   3.914  1.00  0.00     0.221 C 
HETATM   26  O3  UNL     1      17.550  19.198   4.821  1.00  0.00    -0.273 OA
ATOM     27  H2  UNL     1      14.784  19.045   3.213  1.00  0.00     0.162 HD
BRANCH  25  28
HETATM   28  C18 UNL     1      17.218  18.736   2.535  1.00  0.00     0.078 A 
HETATM   29  C19 UNL     1      16.319  18.013   1.603  1.00  0.00     0.015 A 
HETATM   30  C20 UNL     1      17.538  17.336   2.220  1.00  0.00     0.015 A 
ENDBRANCH  25  28
ENDBRANCH  23  24
ENDBRANCH  19  23
ENDBRANCH  13  15
ENDBRANCH   9  11
BRANCH  10  31
HETATM   31  C23 UNL     1       8.095  25.060   3.908  1.00  0.00     0.223 C 
HETATM   32  O4  UNL     1       8.191  26.233   3.480  1.00  0.00    -0.273 OA
HETATM   33  N3  UNL     1       8.198  24.820   5.292  1.00  0.00    -0.356 N 
ATOM     34  H3  UNL     1       8.122  23.872   5.659  1.00  0.00     0.162 HD
BRANCH  33  35
HETATM   35  C24 UNL     1       8.412  25.933   6.184  1.00  0.00     0.084 C 
HETATM   36  C25 UNL     1       8.992  25.385   7.490  1.00  0.00     0.025 C 
HETATM   37  C26 UNL     1       9.467  26.584   8.281  1.00  0.00     0.002 C 
HETATM   38  C27 UNL     1       8.917  27.883   7.742  1.00  0.00     0.000 C 
HETATM   39  C28 UNL     1       7.456  27.811   7.403  1.00  0.00     0.002 C 
HETATM   40  C29 UNL     1       7.111  26.622   6.543  1.00  0.00     0.025 C 
ENDBRANCH  33  35
ENDBRANCH  10  31
TORSDOF 7
ENDMDL
