MODEL 1
REMARK VINA RESULT: -8.981511910      0.000      0.000
REMARK  8 active torsions:
REMARK  status: ('A' for Active; 'I' for Inactive)
REMARK    1  A    between atoms: C5_8  and  C6_9 
REMARK    2  A    between atoms: C6_9  and  C7_10 
REMARK    3  A    between atoms: C7_10  and  C8_12 
REMARK    4  A    between atoms: N2_20  and  C15_21 
REMARK    5  A    between atoms: C15_21  and  C16_22 
REMARK       I    between atoms: C16_22  and  N3_24 
REMARK    6  A    between atoms: N3_24  and  C17_25 
REMARK    7  A    between atoms: C17_25  and  C18_26 
REMARK    8  A    between atoms: C18_26  and  N4_27 
ROOT
HETATM    1  C1  UNL     1       9.593  27.563   8.618  1.00  0.00     0.019 C 
HETATM    2  C2  UNL     1       9.122  27.003   7.659  1.00  0.00    -0.063 C 
HETATM    3  C3  UNL     1       8.574  26.349   6.486  1.00  0.00     0.109 C 
HETATM    4 CL1  UNL     1       7.238  27.126   5.703  1.00  0.00    -0.072 Cl
HETATM    5  C4  UNL     1       9.090  25.223   6.052  1.00  0.00     0.046 C 
HETATM    6  N1  UNL     1       8.563  24.572   4.900  1.00  0.00    -0.356 N 
ATOM      7  H1  UNL     1       7.550  24.459   4.853  1.00  0.00     0.166 HD
HETATM    8  C5  UNL     1       9.261  24.104   3.891  1.00  0.00     0.085 C 
HETATM    9  C14 UNL     1      10.748  24.242   3.761  1.00  0.00     0.267 C 
HETATM   10  O2  UNL     1      11.136  24.089   2.598  1.00  0.00    -0.266 OA
HETATM   11  N2  UNL     1      11.698  24.511   4.775  1.00  0.00    -0.332 N 
HETATM   12  C23 UNL     1      11.556  24.748   6.197  1.00  0.00     0.098 C 
HETATM   13  C24 UNL     1      12.596  24.078   7.045  1.00  0.00     0.026 C 
HETATM   14  C25 UNL     1      11.986  23.503   8.318  1.00  0.00     0.002 C 
HETATM   15  C26 UNL     1      10.845  22.550   7.975  1.00  0.00     0.001 C 
HETATM   16  C27 UNL     1       9.920  23.078   6.938  1.00  0.00     0.013 C 
HETATM   17  C28 UNL     1      10.232  24.576   6.810  1.00  0.00     0.061 C 
ENDROOT
BRANCH   8  18
HETATM   18  C6  UNL     1       8.557  23.440   2.808  1.00  0.00     0.141 C 
BRANCH  18  19
HETATM   19  C7  UNL     1       7.457  24.093   2.125  1.00  0.00     0.136 C 
HETATM   20  O1  UNL     1       7.506  25.143   1.572  1.00  0.00    -0.297 OA
BRANCH  19  21
HETATM   21  C8  UNL     1       6.158  23.319   2.144  1.00  0.00     0.056 C 
HETATM   22  C9  UNL     1       4.956  24.137   1.837  1.00  0.00     0.012 C 
HETATM   23  C10 UNL     1       4.430  24.786   3.104  1.00  0.00     0.001 C 
HETATM   24  C11 UNL     1       4.042  23.801   4.161  1.00  0.00     0.000 C 
HETATM   25  C12 UNL     1       4.475  22.421   3.739  1.00  0.00     0.001 C 
HETATM   26  C13 UNL     1       5.968  22.552   3.423  1.00  0.00     0.012 C 
ENDBRANCH  19  21
ENDBRANCH  18  19
ENDBRANCH   8  18
BRANCH  11  27
HETATM   27  C15 UNL     1      13.054  24.721   4.368  1.00  0.00     0.245 C 
BRANCH  27  28
HETATM   28  C16 UNL     1      13.926  23.468   4.532  1.00  0.00     0.304 C 
HETATM   29  O3  UNL     1      15.079  23.684   5.028  1.00  0.00    -0.256 OA
HETATM   30  N3  UNL     1      13.429  22.279   4.165  1.00  0.00    -0.412 NA
BRANCH  30  31
HETATM   31  C17 UNL     1      12.915  21.035   3.783  1.00  0.00     0.252 C 
BRANCH  31  32
HETATM   32  C18 UNL     1      13.635  19.925   4.586  1.00  0.00     0.305 C 
BRANCH  32  33
HETATM   33  N4  UNL     1      14.622  19.242   3.782  1.00  0.00     0.094 N 
HETATM   34  C19 UNL     1      15.981  19.628   4.162  1.00  0.00     0.291 C 
HETATM   35  C20 UNL     1      16.909  18.663   3.439  1.00  0.00     0.144 C 
HETATM   36  N5  UNL     1      16.731  18.708   2.015  1.00  0.00    -0.418 N 
HETATM   37  C21 UNL     1      15.372  18.680   1.580  1.00  0.00     0.144 C 
ATOM     38  H5  UNL     1      17.515  18.757   1.365  1.00  0.00     0.153 HD
HETATM   39  C22 UNL     1      14.524  19.655   2.380  1.00  0.00     0.291 C 
ENDBRANCH  32  33
ENDBRANCH  31  32
ENDBRANCH  30  31
ENDBRANCH  27  28
ENDBRANCH  11  27
TORSDOF 8
ENDMDL
MODEL 2
REMARK VINA RESULT: -8.802953810      0.807      1.287
REMARK  8 active torsions:
REMARK  status: ('A' for Active; 'I' for Inactive)
REMARK    1  A    between atoms: C5_8  and  C6_9 
REMARK    2  A    between atoms: C6_9  and  C7_10 
REMARK    3  A    between atoms: C7_10  and  C8_12 
REMARK    4  A    between atoms: N2_20  and  C15_21 
REMARK    5  A    between atoms: C15_21  and  C16_22 
REMARK       I    between atoms: C16_22  and  N3_24 
REMARK    6  A    between atoms: N3_24  and  C17_25 
REMARK    7  A    between atoms: C17_25  and  C18_26 
REMARK    8  A    between atoms: C18_26  and  N4_27 
ROOT
HETATM    1  C1  UNL     1       9.565  27.600   8.626  1.00  0.00     0.019 C 
HETATM    2  C2  UNL     1       9.091  27.043   7.668  1.00  0.00    -0.063 C 
HETATM    3  C3  UNL     1       8.539  26.391   6.495  1.00  0.00     0.109 C 
HETATM    4 CL1  UNL     1       7.200  27.169   5.718  1.00  0.00    -0.072 Cl
HETATM    5  C4  UNL     1       9.053  25.265   6.057  1.00  0.00     0.046 C 
HETATM    6  N1  UNL     1       8.523  24.617   4.905  1.00  0.00    -0.356 N 
ATOM      7  H1  UNL     1       7.510  24.504   4.862  1.00  0.00     0.166 HD
HETATM    8  C5  UNL     1       9.217  24.151   3.893  1.00  0.00     0.085 C 
HETATM    9  C14 UNL     1      10.704  24.289   3.759  1.00  0.00     0.267 C 
HETATM   10  O2  UNL     1      11.088  24.140   2.593  1.00  0.00    -0.266 OA
HETATM   11  N2  UNL     1      11.658  24.557   4.770  1.00  0.00    -0.332 N 
HETATM   12  C23 UNL     1      11.520  24.791   6.193  1.00  0.00     0.098 C 
HETATM   13  C24 UNL     1      12.563  24.119   7.036  1.00  0.00     0.026 C 
HETATM   14  C25 UNL     1      11.957  23.542   8.309  1.00  0.00     0.002 C 
HETATM   15  C26 UNL     1      10.815  22.589   7.969  1.00  0.00     0.001 C 
HETATM   16  C27 UNL     1       9.887  23.119   6.935  1.00  0.00     0.013 C 
HETATM   17  C28 UNL     1      10.198  24.618   6.810  1.00  0.00     0.061 C 
ENDROOT
BRANCH   8  18
HETATM   18  C6  UNL     1       8.510  23.489   2.811  1.00  0.00     0.141 C 
BRANCH  18  19
HETATM   19  C7  UNL     1       7.405  24.142   2.136  1.00  0.00     0.136 C 
HETATM   20  O1  UNL     1       7.448  25.193   1.587  1.00  0.00    -0.297 OA
BRANCH  19  21
HETATM   21  C8  UNL     1       6.108  23.364   2.160  1.00  0.00     0.056 C 
HETATM   22  C9  UNL     1       4.900  24.184   1.889  1.00  0.00     0.012 C 
HETATM   23  C10 UNL     1       4.392  24.805   3.178  1.00  0.00     0.001 C 
HETATM   24  C11 UNL     1       4.024  23.796   4.220  1.00  0.00     0.000 C 
HETATM   25  C12 UNL     1       4.453  22.427   3.762  1.00  0.00     0.001 C 
HETATM   26  C13 UNL     1       5.940  22.569   3.425  1.00  0.00     0.012 C 
ENDBRANCH  19  21
ENDBRANCH  18  19
ENDBRANCH   8  18
BRANCH  11  27
HETATM   27  C15 UNL     1      13.012  24.768   4.359  1.00  0.00     0.245 C 
BRANCH  27  28
HETATM   28  C16 UNL     1      13.867  23.497   4.450  1.00  0.00     0.304 C 
HETATM   29  O3  UNL     1      15.070  23.690   4.822  1.00  0.00    -0.256 OA
HETATM   30  N3  UNL     1      13.309  22.316   4.153  1.00  0.00    -0.412 NA
BRANCH  30  31
HETATM   31  C17 UNL     1      12.729  21.080   3.843  1.00  0.00     0.252 C 
BRANCH  31  32
HETATM   32  C18 UNL     1      13.839  20.107   3.377  1.00  0.00     0.305 C 
BRANCH  32  33
HETATM   33  N4  UNL     1      14.978  20.136   4.264  1.00  0.00     0.094 N 
HETATM   34  C19 UNL     1      15.910  19.046   3.973  1.00  0.00     0.291 C 
HETATM   35  C20 UNL     1      17.165  19.339   4.781  1.00  0.00     0.144 C 
HETATM   36  N5  UNL     1      16.891  19.430   6.188  1.00  0.00    -0.418 N 
HETATM   37  C21 UNL     1      15.755  20.224   6.526  1.00  0.00     0.144 C 
ATOM     38  H5  UNL     1      17.464  18.963   6.890  1.00  0.00     0.153 HD
HETATM   39  C22 UNL     1      14.567  19.877   5.646  1.00  0.00     0.291 C 
ENDBRANCH  32  33
ENDBRANCH  31  32
ENDBRANCH  30  31
ENDBRANCH  27  28
ENDBRANCH  11  27
TORSDOF 8
ENDMDL
MODEL 3
REMARK VINA RESULT: -7.683734374      1.067      1.494
REMARK  8 active torsions:
REMARK  status: ('A' for Active; 'I' for Inactive)
REMARK    1  A    between atoms: C5_8  and  C6_9 
REMARK    2  A    between atoms: C6_9  and  C7_10 
REMARK    3  A    between atoms: C7_10  and  C8_12 
REMARK    4  A    between atoms: N2_20  and  C15_21 
REMARK    5  A    between atoms: C15_21  and  C16_22 
REMARK       I    between atoms: C16_22  and  N3_24 
REMARK    6  A    between atoms: N3_24  and  C17_25 
REMARK    7  A    between atoms: C17_25  and  C18_26 
REMARK    8  A    between atoms: C18_26  and  N4_27 
ROOT
HETATM    1  C1  UNL     1       9.536  27.692   8.506  1.00  0.00     0.019 C 
HETATM    2  C2  UNL     1       9.083  27.136   7.536  1.00  0.00    -0.063 C 
HETATM    3  C3  UNL     1       8.559  26.486   6.350  1.00  0.00     0.109 C 
HETATM    4 CL1  UNL     1       7.292  27.305   5.498  1.00  0.00    -0.072 Cl
HETATM    5  C4  UNL     1       9.043  25.332   5.956  1.00  0.00     0.046 C 
HETATM    6  N1  UNL     1       8.539  24.684   4.791  1.00  0.00    -0.356 N 
ATOM      7  H1  UNL     1       7.525  24.614   4.703  1.00  0.00     0.166 HD
HETATM    8  C5  UNL     1       9.259  24.170   3.821  1.00  0.00     0.085 C 
HETATM    9  C14 UNL     1      10.755  24.244   3.754  1.00  0.00     0.267 C 
HETATM   10  O2  UNL     1      11.185  24.056   2.611  1.00  0.00    -0.266 OA
HETATM   11  N2  UNL     1      11.671  24.490   4.804  1.00  0.00    -0.332 N 
HETATM   12  C23 UNL     1      11.479  24.757   6.215  1.00  0.00     0.098 C 
HETATM   13  C24 UNL     1      12.452  24.058   7.117  1.00  0.00     0.026 C 
HETATM   14  C25 UNL     1      11.764  23.530   8.371  1.00  0.00     0.002 C 
HETATM   15  C26 UNL     1      10.599  22.621   7.993  1.00  0.00     0.001 C 
HETATM   16  C27 UNL     1       9.743  23.169   6.909  1.00  0.00     0.013 C 
HETATM   17  C28 UNL     1      10.123  24.651   6.773  1.00  0.00     0.061 C 
ENDROOT
BRANCH   8  18
HETATM   18  C6  UNL     1       8.574  23.518   2.718  1.00  0.00     0.141 C 
BRANCH  18  19
HETATM   19  C7  UNL     1       7.429  24.141   2.082  1.00  0.00     0.136 C 
HETATM   20  O1  UNL     1       7.422  25.200   1.546  1.00  0.00    -0.297 OA
BRANCH  19  21
HETATM   21  C8  UNL     1       6.162  23.318   2.130  1.00  0.00     0.056 C 
HETATM   22  C9  UNL     1       4.927  24.081   1.809  1.00  0.00     0.012 C 
HETATM   23  C10 UNL     1       4.383  24.741   3.063  1.00  0.00     0.001 C 
HETATM   24  C11 UNL     1       4.040  23.769   4.147  1.00  0.00     0.000 C 
HETATM   25  C12 UNL     1       4.524  22.397   3.758  1.00  0.00     0.001 C 
HETATM   26  C13 UNL     1       6.008  22.577   3.428  1.00  0.00     0.012 C 
ENDBRANCH  19  21
ENDBRANCH  18  19
ENDBRANCH   8  18
BRANCH  11  27
HETATM   27  C15 UNL     1      13.051  24.636   4.453  1.00  0.00     0.245 C 
BRANCH  27  28
HETATM   28  C16 UNL     1      13.817  23.306   4.483  1.00  0.00     0.304 C 
HETATM   29  O3  UNL     1      13.605  22.548   3.481  1.00  0.00    -0.256 OA
HETATM   30  N3  UNL     1      14.631  23.049   5.515  1.00  0.00    -0.412 NA
BRANCH  30  31
HETATM   31  C17 UNL     1      15.483  22.775   6.592  1.00  0.00     0.252 C 
BRANCH  31  32
HETATM   32  C18 UNL     1      15.522  21.246   6.827  1.00  0.00     0.305 C 
BRANCH  32  33
HETATM   33  N4  UNL     1      15.631  20.519   5.583  1.00  0.00     0.094 N 
HETATM   34  C19 UNL     1      14.473  19.653   5.366  1.00  0.00     0.291 C 
HETATM   35  C20 UNL     1      14.582  19.157   3.932  1.00  0.00     0.144 C 
HETATM   36  N5  UNL     1      15.811  18.454   3.697  1.00  0.00    -0.418 N 
HETATM   37  C21 UNL     1      16.978  19.102   4.203  1.00  0.00     0.144 C 
ATOM     38  H5  UNL     1      15.848  17.561   3.207  1.00  0.00     0.153 HD
HETATM   39  C22 UNL     1      16.758  19.584   5.627  1.00  0.00     0.291 C 
ENDBRANCH  32  33
ENDBRANCH  31  32
ENDBRANCH  30  31
ENDBRANCH  27  28
ENDBRANCH  11  27
TORSDOF 8
ENDMDL
MODEL 4
REMARK VINA RESULT: -7.674846818      4.125     10.031
REMARK  8 active torsions:
REMARK  status: ('A' for Active; 'I' for Inactive)
REMARK    1  A    between atoms: C5_8  and  C6_9 
REMARK    2  A    between atoms: C6_9  and  C7_10 
REMARK    3  A    between atoms: C7_10  and  C8_12 
REMARK    4  A    between atoms: N2_20  and  C15_21 
REMARK    5  A    between atoms: C15_21  and  C16_22 
REMARK       I    between atoms: C16_22  and  N3_24 
REMARK    6  A    between atoms: N3_24  and  C17_25 
REMARK    7  A    between atoms: C17_25  and  C18_26 
REMARK    8  A    between atoms: C18_26  and  N4_27 
ROOT
HETATM    1  C1  UNL     1      15.150  19.074   1.289  1.00  0.00     0.019 C 
HETATM    2  C2  UNL     1      15.442  19.006   2.457  1.00  0.00    -0.063 C 
HETATM    3  C3  UNL     1      15.814  18.948   3.858  1.00  0.00     0.109 C 
HETATM    4 CL1  UNL     1      17.236  18.044   4.258  1.00  0.00    -0.072 Cl
HETATM    5  C4  UNL     1      15.093  19.568   4.763  1.00  0.00     0.046 C 
HETATM    6  N1  UNL     1      15.450  19.522   6.141  1.00  0.00    -0.356 N 
ATOM      7  H1  UNL     1      15.673  18.606   6.532  1.00  0.00     0.166 HD
HETATM    8  C5  UNL     1      15.518  20.549   6.956  1.00  0.00     0.085 C 
HETATM    9  C14 UNL     1      15.289  21.970   6.537  1.00  0.00     0.267 C 
HETATM   10  O2  UNL     1      15.773  22.781   7.336  1.00  0.00    -0.266 OA
HETATM   11  N2  UNL     1      14.615  22.452   5.390  1.00  0.00    -0.332 N 
HETATM   12  C23 UNL     1      13.971  21.769   4.287  1.00  0.00     0.098 C 
HETATM   13  C24 UNL     1      12.670  22.378   3.854  1.00  0.00     0.026 C 
HETATM   14  C25 UNL     1      11.639  21.305   3.525  1.00  0.00     0.002 C 
HETATM   15  C26 UNL     1      11.449  20.369   4.715  1.00  0.00     0.001 C 
HETATM   16  C27 UNL     1      12.726  19.937   5.342  1.00  0.00     0.013 C 
HETATM   17  C28 UNL     1      13.837  20.307   4.347  1.00  0.00     0.061 C 
ENDROOT
BRANCH   8  18
HETATM   18  C6  UNL     1      15.872  20.313   8.345  1.00  0.00     0.141 C 
BRANCH  18  19
HETATM   19  C7  UNL     1      17.129  19.681   8.694  1.00  0.00     0.136 C 
HETATM   20  O1  UNL     1      18.134  19.737   8.066  1.00  0.00    -0.297 OA
BRANCH  19  21
HETATM   21  C8  UNL     1      17.100  18.901   9.989  1.00  0.00     0.056 C 
HETATM   22  C9  UNL     1      18.355  18.164  10.286  1.00  0.00     0.012 C 
HETATM   23  C10 UNL     1      18.326  16.798   9.623  1.00  0.00     0.001 C 
HETATM   24  C11 UNL     1      17.186  15.941  10.074  1.00  0.00     0.000 C 
HETATM   25  C12 UNL     1      16.255  16.760  10.930  1.00  0.00     0.001 C 
HETATM   26  C13 UNL     1      15.910  17.987  10.081  1.00  0.00     0.012 C 
ENDBRANCH  19  21
ENDBRANCH  18  19
ENDBRANCH   8  18
BRANCH  11  27
HETATM   27  C15 UNL     1      14.644  23.863   5.153  1.00  0.00     0.245 C 
BRANCH  27  28
HETATM   28  C16 UNL     1      13.315  24.552   5.491  1.00  0.00     0.304 C 
HETATM   29  O3  UNL     1      12.954  25.448   4.661  1.00  0.00    -0.256 OA
HETATM   30  N3  UNL     1      12.647  24.171   6.588  1.00  0.00    -0.412 NA
BRANCH  30  31
HETATM   31  C17 UNL     1      11.947  23.776   7.734  1.00  0.00     0.252 C 
BRANCH  31  32
HETATM   32  C18 UNL     1      10.428  23.825   7.436  1.00  0.00     0.305 C 
BRANCH  32  33
HETATM   33  N4  UNL     1       9.828  25.040   7.936  1.00  0.00     0.094 N 
HETATM   34  C19 UNL     1       9.563  25.989   6.854  1.00  0.00     0.291 C 
HETATM   35  C20 UNL     1       8.707  27.090   7.462  1.00  0.00     0.144 C 
HETATM   36  N5  UNL     1       9.359  27.730   8.570  1.00  0.00    -0.418 N 
HETATM   37  C21 UNL     1       9.953  26.837   9.511  1.00  0.00     0.144 C 
ATOM     38  H5  UNL     1       9.395  28.743   8.675  1.00  0.00     0.153 HD
HETATM   39  C22 UNL     1      10.760  25.761   8.806  1.00  0.00     0.291 C 
ENDBRANCH  32  33
ENDBRANCH  31  32
ENDBRANCH  30  31
ENDBRANCH  27  28
ENDBRANCH  11  27
TORSDOF 8
ENDMDL
MODEL 5
REMARK VINA RESULT: -7.489754369      6.730     12.027
REMARK  8 active torsions:
REMARK  status: ('A' for Active; 'I' for Inactive)
REMARK    1  A    between atoms: C5_8  and  C6_9 
REMARK    2  A    between atoms: C6_9  and  C7_10 
REMARK    3  A    between atoms: C7_10  and  C8_12 
REMARK    4  A    between atoms: N2_20  and  C15_21 
REMARK    5  A    between atoms: C15_21  and  C16_22 
REMARK       I    between atoms: C16_22  and  N3_24 
REMARK    6  A    between atoms: N3_24  and  C17_25 
REMARK    7  A    between atoms: C17_25  and  C18_26 
REMARK    8  A    between atoms: C18_26  and  N4_27 
ROOT
HETATM    1  C1  UNL     1      18.925  11.951  11.037  1.00  0.00     0.019 C 
HETATM    2  C2  UNL     1      18.910  12.502   9.965  1.00  0.00    -0.063 C 
HETATM    3  C3  UNL     1      18.862  13.178   8.683  1.00  0.00     0.109 C 
HETATM    4 CL1  UNL     1      18.050  12.358   7.391  1.00  0.00    -0.072 Cl
HETATM    5  C4  UNL     1      19.412  14.361   8.534  1.00  0.00     0.046 C 
HETATM    6  N1  UNL     1      19.368  15.037   7.281  1.00  0.00    -0.356 N 
ATOM      7  H1  UNL     1      19.626  14.497   6.454  1.00  0.00     0.166 HD
HETATM    8  C5  UNL     1      19.029  16.290   7.091  1.00  0.00     0.085 C 
HETATM    9  C14 UNL     1      18.560  17.209   8.179  1.00  0.00     0.267 C 
HETATM   10  O2  UNL     1      17.938  18.183   7.739  1.00  0.00    -0.266 OA
HETATM   11  N2  UNL     1      18.745  17.083   9.577  1.00  0.00    -0.332 N 
HETATM   12  C23 UNL     1      19.400  16.071  10.380  1.00  0.00     0.098 C 
HETATM   13  C24 UNL     1      20.222  16.612  11.512  1.00  0.00     0.026 C 
HETATM   14  C25 UNL     1      21.527  15.841  11.667  1.00  0.00     0.002 C 
HETATM   15  C26 UNL     1      22.307  15.850  10.356  1.00  0.00     0.001 C 
HETATM   16  C27 UNL     1      21.468  15.564   9.162  1.00  0.00     0.013 C 
HETATM   17  C28 UNL     1      20.143  15.002   9.696  1.00  0.00     0.061 C 
ENDROOT
BRANCH   8  18
HETATM   18  C6  UNL     1      19.070  16.825   5.741  1.00  0.00     0.141 C 
BRANCH  18  19
HETATM   19  C7  UNL     1      17.923  16.711   4.861  1.00  0.00     0.136 C 
HETATM   20  O1  UNL     1      17.085  15.872   4.915  1.00  0.00    -0.297 OA
BRANCH  19  21
HETATM   21  C8  UNL     1      17.835  17.788   3.803  1.00  0.00     0.056 C 
HETATM   22  C9  UNL     1      16.952  18.927   4.165  1.00  0.00     0.012 C 
HETATM   23  C10 UNL     1      15.518  18.619   3.776  1.00  0.00     0.001 C 
HETATM   24  C11 UNL     1      15.340  18.362   2.312  1.00  0.00     0.000 C 
HETATM   25  C12 UNL     1      16.692  18.286   1.652  1.00  0.00     0.001 C 
HETATM   26  C13 UNL     1      17.468  17.237   2.454  1.00  0.00     0.012 C 
ENDBRANCH  19  21
ENDBRANCH  18  19
ENDBRANCH   8  18
BRANCH  11  27
HETATM   27  C15 UNL     1      18.085  18.035  10.417  1.00  0.00     0.245 C 
BRANCH  27  28
HETATM   28  C16 UNL     1      16.555  17.954  10.322  1.00  0.00     0.304 C 
HETATM   29  O3  UNL     1      16.062  16.822  10.637  1.00  0.00    -0.256 OA
HETATM   30  N3  UNL     1      15.870  19.040   9.938  1.00  0.00    -0.412 NA
BRANCH  30  31
HETATM   31  C17 UNL     1      15.150  20.171   9.538  1.00  0.00     0.252 C 
BRANCH  31  32
HETATM   32  C18 UNL     1      16.075  21.086   8.700  1.00  0.00     0.305 C 
BRANCH  32  33
HETATM   33  N4  UNL     1      15.322  21.902   7.776  1.00  0.00     0.094 N 
HETATM   34  C19 UNL     1      13.917  21.998   8.172  1.00  0.00     0.291 C 
HETATM   35  C20 UNL     1      13.305  23.075   7.289  1.00  0.00     0.144 C 
HETATM   36  N5  UNL     1      13.435  22.766   5.893  1.00  0.00    -0.418 N 
HETATM   37  C21 UNL     1      14.732  22.324   5.495  1.00  0.00     0.144 C 
ATOM     38  H5  UNL     1      12.660  22.855   5.236  1.00  0.00     0.153 HD
HETATM   39  C22 UNL     1      15.266  21.273   6.454  1.00  0.00     0.291 C 
ENDBRANCH  32  33
ENDBRANCH  31  32
ENDBRANCH  30  31
ENDBRANCH  27  28
ENDBRANCH  11  27
TORSDOF 8
ENDMDL
