MODEL 1
REMARK VINA RESULT: -6.809982846      0.000      0.000
REMARK  8 active torsions:
REMARK  status: ('A' for Active; 'I' for Inactive)
REMARK    1  A    between atoms: C2_2  and  C3_3 
REMARK    2  A    between atoms: C2_2  and  C12_19 
REMARK    3  A    between atoms: C3_3  and  S1_4 
REMARK    4  A    between atoms: S1_4  and  C4_5 
REMARK    5  A    between atoms: C4_5  and  C5_7 
REMARK    6  A    between atoms: C6_8  and  C7_9 
REMARK    7  A    between atoms: C9_11  and  C10_12 
REMARK    8  A    between atoms: C10_12  and  C11_13 
ROOT
HETATM    1  C5  UNL     1     -19.843  23.562  -6.194  1.00  0.00     0.060 C 
HETATM    2  C6  UNL     1     -18.681  23.000  -6.260  1.00  0.00     0.010 C 
ENDROOT
BRANCH   1   3
HETATM    3  C4  UNL     1     -21.079  23.096  -5.615  1.00  0.00     0.208 C 
HETATM    4  O1  UNL     1     -21.845  22.318  -6.295  1.00  0.00    -0.281 OA
BRANCH   3   5
HETATM    5  S1  UNL     1     -21.556  23.585  -3.976  1.00  0.00    -0.084 SA
BRANCH   5   6
HETATM    6  C3  UNL     1     -20.249  23.082  -2.828  1.00  0.00     0.121 C 
BRANCH   6   7
HETATM    7  C2  UNL     1     -19.342  24.248  -2.658  1.00  0.00    -0.041 C 
HETATM    8  C1  UNL     1     -19.705  25.466  -2.928  1.00  0.00     0.021 C 
BRANCH   7   9
HETATM    9  C12 UNL     1     -17.981  23.942  -2.157  1.00  0.00     0.011 A 
HETATM   10  C13 UNL     1     -16.955  23.344  -2.838  1.00  0.00     0.020 A 
HETATM   11  C14 UNL     1     -15.802  23.165  -2.180  1.00  0.00     0.008 A 
HETATM   12  C15 UNL     1     -15.742  23.593  -0.883  1.00  0.00     0.050 A 
HETATM   13  S2  UNL     1     -17.299  24.233  -0.621  1.00  0.00    -0.102 SA
ENDBRANCH   7   9
ENDBRANCH   6   7
ENDBRANCH   5   6
ENDBRANCH   3   5
ENDBRANCH   1   3
BRANCH   2  14
HETATM   14  C7  UNL     1     -18.359  21.689  -5.727  1.00  0.00     0.211 C 
HETATM   15  C8  UNL     1     -18.787  20.526  -6.665  1.00  0.00     0.070 C 
HETATM   16  C9  UNL     1     -17.581  19.859  -6.041  1.00  0.00     0.199 C 
HETATM   17  N1  UNL     1     -16.993  21.198  -5.968  1.00  0.00    -0.063 N 
ATOM     18  H12 UNL     1     -16.419  21.570  -6.725  1.00  0.00     0.278 HD
ATOM     19  H11 UNL     1     -16.229  21.410  -5.327  1.00  0.00     0.278 HD
BRANCH  16  20
HETATM   20  C10 UNL     1     -16.849  18.902  -6.921  1.00  0.00     0.146 C 
BRANCH  20  21
HETATM   21  C11 UNL     1     -15.615  18.465  -6.249  1.00  0.00     0.174 C 
HETATM   22  O2  UNL     1     -15.485  18.612  -5.021  1.00  0.00    -0.648 OA
HETATM   23  O3  UNL     1     -14.603  17.893  -6.985  1.00  0.00    -0.648 OA
ENDBRANCH  20  21
ENDBRANCH  16  20
ENDBRANCH   2  14
TORSDOF 8
ENDMDL
MODEL 2
REMARK VINA RESULT: -6.726655021      2.879      4.947
REMARK  8 active torsions:
REMARK  status: ('A' for Active; 'I' for Inactive)
REMARK    1  A    between atoms: C2_2  and  C3_3 
REMARK    2  A    between atoms: C2_2  and  C12_19 
REMARK    3  A    between atoms: C3_3  and  S1_4 
REMARK    4  A    between atoms: S1_4  and  C4_5 
REMARK    5  A    between atoms: C4_5  and  C5_7 
REMARK    6  A    between atoms: C6_8  and  C7_9 
REMARK    7  A    between atoms: C9_11  and  C10_12 
REMARK    8  A    between atoms: C10_12  and  C11_13 
ROOT
HETATM    1  C5  UNL     1     -19.660  24.092  -5.892  1.00  0.00     0.060 C 
HETATM    2  C6  UNL     1     -18.992  23.150  -6.471  1.00  0.00     0.010 C 
ENDROOT
BRANCH   1   3
HETATM    3  C4  UNL     1     -20.064  24.248  -4.516  1.00  0.00     0.208 C 
HETATM    4  O1  UNL     1     -19.253  24.780  -3.672  1.00  0.00    -0.281 OA
BRANCH   3   5
HETATM    5  S1  UNL     1     -21.669  23.715  -3.976  1.00  0.00    -0.084 SA
BRANCH   5   6
HETATM    6  C3  UNL     1     -21.695  21.903  -3.966  1.00  0.00     0.121 C 
BRANCH   6   7
HETATM    7  C2  UNL     1     -22.636  21.473  -5.034  1.00  0.00    -0.041 C 
HETATM    8  C1  UNL     1     -22.700  22.059  -6.193  1.00  0.00     0.021 C 
BRANCH   7   9
HETATM    9  C12 UNL     1     -23.509  20.322  -4.702  1.00  0.00     0.011 A 
HETATM   10  C13 UNL     1     -24.370  19.660  -5.536  1.00  0.00     0.020 A 
HETATM   11  C14 UNL     1     -25.066  18.640  -5.017  1.00  0.00     0.008 A 
HETATM   12  C15 UNL     1     -24.861  18.342  -3.698  1.00  0.00     0.050 A 
HETATM   13  S2  UNL     1     -23.702  19.497  -3.223  1.00  0.00    -0.102 SA
ENDBRANCH   7   9
ENDBRANCH   6   7
ENDBRANCH   5   6
ENDBRANCH   3   5
ENDBRANCH   1   3
BRANCH   2  14
HETATM   14  C7  UNL     1     -18.474  21.968  -5.806  1.00  0.00     0.211 C 
HETATM   15  C8  UNL     1     -18.958  20.641  -6.453  1.00  0.00     0.070 C 
HETATM   16  C9  UNL     1     -17.610  20.157  -5.965  1.00  0.00     0.199 C 
HETATM   17  N1  UNL     1     -17.134  21.518  -6.214  1.00  0.00    -0.063 N 
ATOM     18  H12 UNL     1     -16.733  21.786  -7.114  1.00  0.00     0.278 HD
ATOM     19  H11 UNL     1     -16.291  21.877  -5.767  1.00  0.00     0.278 HD
BRANCH  16  20
HETATM   20  C10 UNL     1     -16.964  19.104  -6.802  1.00  0.00     0.146 C 
BRANCH  20  21
HETATM   21  C11 UNL     1     -15.701  18.687  -6.174  1.00  0.00     0.174 C 
HETATM   22  O2  UNL     1     -15.445  19.015  -5.002  1.00  0.00    -0.648 OA
HETATM   23  O3  UNL     1     -14.801  17.929  -6.888  1.00  0.00    -0.648 OA
ENDBRANCH  20  21
ENDBRANCH  16  20
ENDBRANCH   2  14
TORSDOF 8
ENDMDL
MODEL 3
REMARK VINA RESULT: -6.682887184      1.509      1.990
REMARK  8 active torsions:
REMARK  status: ('A' for Active; 'I' for Inactive)
REMARK    1  A    between atoms: C2_2  and  C3_3 
REMARK    2  A    between atoms: C2_2  and  C12_19 
REMARK    3  A    between atoms: C3_3  and  S1_4 
REMARK    4  A    between atoms: S1_4  and  C4_5 
REMARK    5  A    between atoms: C4_5  and  C5_7 
REMARK    6  A    between atoms: C6_8  and  C7_9 
REMARK    7  A    between atoms: C9_11  and  C10_12 
REMARK    8  A    between atoms: C10_12  and  C11_13 
ROOT
HETATM    1  C5  UNL     1     -19.581  24.075  -5.511  1.00  0.00     0.060 C 
HETATM    2  C6  UNL     1     -18.905  23.199  -6.176  1.00  0.00     0.010 C 
ENDROOT
BRANCH   1   3
HETATM    3  C4  UNL     1     -20.068  24.054  -4.153  1.00  0.00     0.208 C 
HETATM    4  O1  UNL     1     -21.230  23.564  -3.902  1.00  0.00    -0.281 OA
BRANCH   3   5
HETATM    5  S1  UNL     1     -19.080  24.696  -2.824  1.00  0.00    -0.084 SA
BRANCH   5   6
HETATM    6  C3  UNL     1     -17.543  23.742  -2.743  1.00  0.00     0.121 C 
BRANCH   6   7
HETATM    7  C2  UNL     1     -17.087  23.767  -1.328  1.00  0.00    -0.041 C 
HETATM    8  C1  UNL     1     -17.911  23.802  -0.323  1.00  0.00     0.021 C 
BRANCH   7   9
HETATM    9  C12 UNL     1     -15.619  23.748  -1.121  1.00  0.00     0.011 A 
HETATM   10  C13 UNL     1     -14.650  23.432  -2.035  1.00  0.00     0.020 A 
HETATM   11  C14 UNL     1     -13.377  23.482  -1.624  1.00  0.00     0.008 A 
HETATM   12  C15 UNL     1     -13.146  23.843  -0.326  1.00  0.00     0.050 A 
HETATM   13  S2  UNL     1     -14.716  24.103   0.282  1.00  0.00    -0.102 SA
ENDBRANCH   7   9
ENDBRANCH   6   7
ENDBRANCH   5   6
ENDBRANCH   3   5
ENDBRANCH   1   3
BRANCH   2  14
HETATM   14  C7  UNL     1     -18.465  21.917  -5.655  1.00  0.00     0.211 C 
HETATM   15  C8  UNL     1     -18.866  20.719  -6.560  1.00  0.00     0.070 C 
HETATM   16  C9  UNL     1     -17.583  20.141  -6.004  1.00  0.00     0.199 C 
HETATM   17  N1  UNL     1     -17.084  21.517  -5.972  1.00  0.00    -0.063 N 
ATOM     18  H12 UNL     1     -16.582  21.920  -6.764  1.00  0.00     0.278 HD
ATOM     19  H11 UNL     1     -16.301  21.786  -5.378  1.00  0.00     0.278 HD
BRANCH  16  20
HETATM   20  C10 UNL     1     -16.839  19.227  -6.919  1.00  0.00     0.146 C 
BRANCH  20  21
HETATM   21  C11 UNL     1     -15.677  18.667  -6.212  1.00  0.00     0.174 C 
HETATM   22  O2  UNL     1     -15.485  18.932  -5.013  1.00  0.00    -0.648 OA
HETATM   23  O3  UNL     1     -14.799  17.848  -6.885  1.00  0.00    -0.648 OA
ENDBRANCH  20  21
ENDBRANCH  16  20
ENDBRANCH   2  14
TORSDOF 8
ENDMDL
MODEL 4
REMARK VINA RESULT: -6.666404506      2.700      4.786
REMARK  8 active torsions:
REMARK  status: ('A' for Active; 'I' for Inactive)
REMARK    1  A    between atoms: C2_2  and  C3_3 
REMARK    2  A    between atoms: C2_2  and  C12_19 
REMARK    3  A    between atoms: C3_3  and  S1_4 
REMARK    4  A    between atoms: S1_4  and  C4_5 
REMARK    5  A    between atoms: C4_5  and  C5_7 
REMARK    6  A    between atoms: C6_8  and  C7_9 
REMARK    7  A    between atoms: C9_11  and  C10_12 
REMARK    8  A    between atoms: C10_12  and  C11_13 
ROOT
HETATM    1  C5  UNL     1     -19.501  24.160  -5.475  1.00  0.00     0.060 C 
HETATM    2  C6  UNL     1     -19.022  23.188  -6.178  1.00  0.00     0.010 C 
ENDROOT
BRANCH   1   3
HETATM    3  C4  UNL     1     -19.687  24.287  -4.050  1.00  0.00     0.208 C 
HETATM    4  O1  UNL     1     -18.683  24.579  -3.301  1.00  0.00    -0.281 OA
BRANCH   3   5
HETATM    5  S1  UNL     1     -21.286  24.044  -3.318  1.00  0.00    -0.084 SA
BRANCH   5   6
HETATM    6  C3  UNL     1     -22.242  22.939  -4.389  1.00  0.00     0.121 C 
BRANCH   6   7
HETATM    7  C2  UNL     1     -22.151  21.575  -3.804  1.00  0.00    -0.041 C 
HETATM    8  C1  UNL     1     -21.241  21.240  -2.938  1.00  0.00     0.021 C 
BRANCH   7   9
HETATM    9  C12 UNL     1     -23.169  20.603  -4.267  1.00  0.00     0.011 A 
HETATM   10  C13 UNL     1     -23.749  20.526  -5.506  1.00  0.00     0.020 A 
HETATM   11  C14 UNL     1     -24.653  19.558  -5.703  1.00  0.00     0.008 A 
HETATM   12  C15 UNL     1     -24.925  18.725  -4.653  1.00  0.00     0.050 A 
HETATM   13  S2  UNL     1     -23.909  19.319  -3.422  1.00  0.00    -0.102 SA
ENDBRANCH   7   9
ENDBRANCH   6   7
ENDBRANCH   5   6
ENDBRANCH   3   5
ENDBRANCH   1   3
BRANCH   2  14
HETATM   14  C7  UNL     1     -18.539  21.930  -5.638  1.00  0.00     0.211 C 
HETATM   15  C8  UNL     1     -18.945  20.700  -6.497  1.00  0.00     0.070 C 
HETATM   16  C9  UNL     1     -17.633  20.163  -5.968  1.00  0.00     0.199 C 
HETATM   17  N1  UNL     1     -17.162  21.549  -5.991  1.00  0.00    -0.063 N 
ATOM     18  H12 UNL     1     -16.694  21.940  -6.809  1.00  0.00     0.278 HD
ATOM     19  H11 UNL     1     -16.365  21.849  -5.430  1.00  0.00     0.278 HD
BRANCH  16  20
HETATM   20  C10 UNL     1     -16.902  19.238  -6.883  1.00  0.00     0.146 C 
BRANCH  20  21
HETATM   21  C11 UNL     1     -15.703  18.725  -6.203  1.00  0.00     0.174 C 
HETATM   22  O2  UNL     1     -15.519  18.958  -4.996  1.00  0.00    -0.648 OA
HETATM   23  O3  UNL     1     -14.783  17.983  -6.908  1.00  0.00    -0.648 OA
ENDBRANCH  20  21
ENDBRANCH  16  20
ENDBRANCH   2  14
TORSDOF 8
ENDMDL
MODEL 5
REMARK VINA RESULT: -6.548899859      2.386      3.703
REMARK  8 active torsions:
REMARK  status: ('A' for Active; 'I' for Inactive)
REMARK    1  A    between atoms: C2_2  and  C3_3 
REMARK    2  A    between atoms: C2_2  and  C12_19 
REMARK    3  A    between atoms: C3_3  and  S1_4 
REMARK    4  A    between atoms: S1_4  and  C4_5 
REMARK    5  A    between atoms: C4_5  and  C5_7 
REMARK    6  A    between atoms: C6_8  and  C7_9 
REMARK    7  A    between atoms: C9_11  and  C10_12 
REMARK    8  A    between atoms: C10_12  and  C11_13 
ROOT
HETATM    1  C5  UNL     1     -18.471  23.679  -4.473  1.00  0.00     0.060 C 
HETATM    2  C6  UNL     1     -18.600  22.795  -5.405  1.00  0.00     0.010 C 
ENDROOT
BRANCH   1   3
HETATM    3  C4  UNL     1     -18.033  23.545  -3.105  1.00  0.00     0.208 C 
HETATM    4  O1  UNL     1     -18.869  23.742  -2.148  1.00  0.00    -0.281 OA
BRANCH   3   5
HETATM    5  S1  UNL     1     -16.353  23.110  -2.728  1.00  0.00    -0.084 SA
BRANCH   5   6
HETATM    6  C3  UNL     1     -15.988  23.656  -1.039  1.00  0.00     0.121 C 
BRANCH   6   7
HETATM    7  C2  UNL     1     -14.514  23.578  -0.863  1.00  0.00    -0.041 C 
HETATM    8  C1  UNL     1     -13.686  23.539  -1.865  1.00  0.00     0.021 C 
BRANCH   7   9
HETATM    9  C12 UNL     1     -14.030  23.546   0.538  1.00  0.00     0.011 A 
HETATM   10  C13 UNL     1     -13.344  22.539   1.162  1.00  0.00     0.020 A 
HETATM   11  C14 UNL     1     -13.005  22.728   2.444  1.00  0.00     0.008 A 
HETATM   12  C15 UNL     1     -13.370  23.910   3.026  1.00  0.00     0.050 A 
HETATM   13  S2  UNL     1     -14.177  24.723   1.764  1.00  0.00    -0.102 SA
ENDBRANCH   7   9
ENDBRANCH   6   7
ENDBRANCH   5   6
ENDBRANCH   3   5
ENDBRANCH   1   3
BRANCH   2  14
HETATM   14  C7  UNL     1     -18.311  21.380  -5.256  1.00  0.00     0.211 C 
HETATM   15  C8  UNL     1     -18.603  20.558  -6.542  1.00  0.00     0.070 C 
HETATM   16  C9  UNL     1     -17.460  19.720  -6.013  1.00  0.00     0.199 C 
HETATM   17  N1  UNL     1     -16.915  20.968  -5.476  1.00  0.00    -0.063 N 
ATOM     18  H12 UNL     1     -16.268  21.543  -6.015  1.00  0.00     0.278 HD
ATOM     19  H11 UNL     1     -16.234  20.968  -4.717  1.00  0.00     0.278 HD
BRANCH  16  20
HETATM   20  C10 UNL     1     -16.612  19.061  -7.049  1.00  0.00     0.146 C 
BRANCH  20  21
HETATM   21  C11 UNL     1     -15.489  18.372  -6.396  1.00  0.00     0.174 C 
HETATM   22  O2  UNL     1     -15.447  18.276  -5.157  1.00  0.00    -0.648 OA
HETATM   23  O3  UNL     1     -14.481  17.832  -7.162  1.00  0.00    -0.648 OA
ENDBRANCH  20  21
ENDBRANCH  16  20
ENDBRANCH   2  14
TORSDOF 8
ENDMDL
