MODEL 1
REMARK VINA RESULT: -6.551668457      0.000      0.000
REMARK  4 active torsions:
REMARK  status: ('A' for Active; 'I' for Inactive)
REMARK    1  A    between atoms: C2_2  and  C3_3 
REMARK    2  A    between atoms: C11_11  and  C12_12 
REMARK    3  A    between atoms: C16_16  and  C18_18 
REMARK    4  A    between atoms: C18_18  and  N1_19 
ROOT
HETATM    1  C12 UNL     1     -16.550 -16.441  43.608  1.00  0.00    -0.039 C 
HETATM    2  C13 UNL     1     -17.380 -15.978  42.433  1.00  0.00     0.015 C 
HETATM    3  C14 UNL     1     -17.040 -15.688  44.825  1.00  0.00     0.010 C 
HETATM    4  C15 UNL     1     -16.242 -14.391  44.860  1.00  0.00     0.011 C 
HETATM    5  C16 UNL     1     -14.886 -14.885  44.494  1.00  0.00    -0.020 C 
HETATM    6  C17 UNL     1     -14.159 -15.530  45.665  1.00  0.00     0.017 C 
HETATM    7  C19 UNL     1     -15.171 -15.929  43.450  1.00  0.00     0.020 C 
ENDROOT
BRANCH   1   8
HETATM    8  C11 UNL     1     -16.699 -17.894  43.936  1.00  0.00     0.006 C 
HETATM    9  C3  UNL     1     -16.972 -18.835  42.837  1.00  0.00    -0.040 C 
HETATM   10  C4  UNL     1     -15.615 -19.422  42.369  1.00  0.00     0.015 C 
HETATM   11  C5  UNL     1     -17.815 -20.027  43.126  1.00  0.00     0.010 C 
HETATM   12  C6  UNL     1     -18.254 -20.184  44.562  1.00  0.00     0.005 C 
HETATM   13  C7  UNL     1     -18.886 -18.810  44.835  1.00  0.00    -0.014 C 
HETATM   14  C8  UNL     1     -19.714 -18.927  46.062  1.00  0.00     0.010 C 
HETATM   15  C9  UNL     1     -17.679 -17.936  45.092  1.00  0.00    -0.009 C 
HETATM   16  C10 UNL     1     -17.050 -18.481  46.375  1.00  0.00     0.011 C 
BRANCH   9  17
HETATM   17  C2  UNL     1     -17.552 -18.240  41.555  1.00  0.00     0.005 C 
HETATM   18  C1  UNL     1     -18.243 -19.432  40.862  1.00  0.00     0.006 C 
ENDBRANCH   9  17
ENDBRANCH   1   8
BRANCH   5  19
HETATM   19  C18 UNL     1     -13.986 -13.785  43.981  1.00  0.00     0.238 C 
BRANCH  19  20
HETATM   20  N1  UNL     1     -13.174 -13.182  44.986  1.00  0.00    -0.079 N 
ATOM     21  H13 UNL     1     -13.746 -12.625  45.621  1.00  0.00     0.274 HD
ATOM     22  H12 UNL     1     -12.830 -13.887  45.637  1.00  0.00     0.274 HD
ATOM     23  H11 UNL     1     -12.402 -12.627  44.618  1.00  0.00     0.274 HD
ENDBRANCH  19  20
ENDBRANCH   5  19
TORSDOF 4
ENDMDL
MODEL 2
REMARK VINA RESULT: -6.103242268      1.335      3.575
REMARK  4 active torsions:
REMARK  status: ('A' for Active; 'I' for Inactive)
REMARK    1  A    between atoms: C2_2  and  C3_3 
REMARK    2  A    between atoms: C11_11  and  C12_12 
REMARK    3  A    between atoms: C16_16  and  C18_18 
REMARK    4  A    between atoms: C18_18  and  N1_19 
ROOT
HETATM    1  C12 UNL     1     -16.816 -18.062  43.873  1.00  0.00    -0.039 C 
HETATM    2  C13 UNL     1     -15.615 -18.949  43.648  1.00  0.00     0.015 C 
HETATM    3  C14 UNL     1     -17.060 -17.305  42.586  1.00  0.00     0.010 C 
HETATM    4  C15 UNL     1     -16.201 -16.050  42.673  1.00  0.00     0.011 C 
HETATM    5  C16 UNL     1     -16.416 -15.659  44.094  1.00  0.00    -0.020 C 
HETATM    6  C17 UNL     1     -17.740 -14.941  44.313  1.00  0.00     0.017 C 
HETATM    7  C19 UNL     1     -16.442 -16.980  44.812  1.00  0.00     0.020 C 
ENDROOT
BRANCH   1   8
HETATM    8  C11 UNL     1     -18.086 -18.800  44.162  1.00  0.00     0.006 C 
HETATM    9  C3  UNL     1     -18.479 -18.990  45.568  1.00  0.00    -0.040 C 
HETATM   10  C4  UNL     1     -19.452 -17.842  45.946  1.00  0.00     0.015 C 
HETATM   11  C5  UNL     1     -19.210 -20.234  45.931  1.00  0.00     0.010 C 
HETATM   12  C6  UNL     1     -19.538 -21.158  44.782  1.00  0.00     0.005 C 
HETATM   13  C7  UNL     1     -18.155 -21.334  44.134  1.00  0.00    -0.014 C 
HETATM   14  C8  UNL     1     -18.222 -22.514  43.236  1.00  0.00     0.010 C 
HETATM   15  C9  UNL     1     -18.003 -20.064  43.329  1.00  0.00    -0.009 C 
HETATM   16  C10 UNL     1     -19.090 -20.131  42.255  1.00  0.00     0.011 C 
BRANCH   9  17
HETATM   17  C2  UNL     1     -17.372 -18.862  46.613  1.00  0.00     0.005 C 
HETATM   18  C1  UNL     1     -18.121 -18.566  47.928  1.00  0.00     0.006 C 
ENDBRANCH   9  17
ENDBRANCH   1   8
BRANCH   5  19
HETATM   19  C18 UNL     1     -15.335 -14.741  44.613  1.00  0.00     0.238 C 
BRANCH  19  20
HETATM   20  N1  UNL     1     -14.423 -14.293  43.613  1.00  0.00    -0.079 N 
ATOM     21  H13 UNL     1     -13.666 -14.967  43.491  1.00  0.00     0.274 HD
ATOM     22  H12 UNL     1     -14.851 -14.346  42.689  1.00  0.00     0.274 HD
ATOM     23  H11 UNL     1     -14.047 -13.360  43.781  1.00  0.00     0.274 HD
ENDBRANCH  19  20
ENDBRANCH   5  19
TORSDOF 4
ENDMDL
MODEL 3
REMARK VINA RESULT: -5.913362683      2.766      5.543
REMARK  4 active torsions:
REMARK  status: ('A' for Active; 'I' for Inactive)
REMARK    1  A    between atoms: C2_2  and  C3_3 
REMARK    2  A    between atoms: C11_11  and  C12_12 
REMARK    3  A    between atoms: C16_16  and  C18_18 
REMARK    4  A    between atoms: C18_18  and  N1_19 
ROOT
HETATM    1  C12 UNL     1     -18.301 -18.587  45.729  1.00  0.00    -0.039 C 
HETATM    2  C13 UNL     1     -17.301 -18.523  46.860  1.00  0.00     0.015 C 
HETATM    3  C14 UNL     1     -19.559 -17.896  46.206  1.00  0.00     0.010 C 
HETATM    4  C15 UNL     1     -20.383 -18.970  46.906  1.00  0.00     0.011 C 
HETATM    5  C16 UNL     1     -20.188 -20.120  45.981  1.00  0.00    -0.020 C 
HETATM    6  C17 UNL     1     -21.076 -20.041  44.747  1.00  0.00     0.017 C 
HETATM    7  C19 UNL     1     -18.749 -19.988  45.567  1.00  0.00     0.020 C 
ENDROOT
BRANCH   1   8
HETATM    8  C11 UNL     1     -17.880 -17.863  44.489  1.00  0.00     0.006 C 
HETATM    9  C3  UNL     1     -17.082 -18.593  43.490  1.00  0.00    -0.040 C 
HETATM   10  C4  UNL     1     -18.058 -19.159  42.427  1.00  0.00     0.015 C 
HETATM   11  C5  UNL     1     -16.074 -17.831  42.703  1.00  0.00     0.010 C 
HETATM   12  C6  UNL     1     -16.023 -16.346  42.971  1.00  0.00     0.005 C 
HETATM   13  C7  UNL     1     -15.866 -16.321  44.499  1.00  0.00    -0.014 C 
HETATM   14  C8  UNL     1     -15.408 -14.963  44.886  1.00  0.00     0.010 C 
HETATM   15  C9  UNL     1     -17.280 -16.560  44.980  1.00  0.00    -0.009 C 
HETATM   16  C10 UNL     1     -18.076 -15.337  44.520  1.00  0.00     0.011 C 
BRANCH   9  17
HETATM   17  C2  UNL     1     -16.344 -19.838  43.980  1.00  0.00     0.005 C 
HETATM   18  C1  UNL     1     -15.153 -19.981  43.011  1.00  0.00     0.006 C 
ENDBRANCH   9  17
ENDBRANCH   1   8
BRANCH   5  19
HETATM   19  C18 UNL     1     -20.480 -21.449  46.638  1.00  0.00     0.238 C 
BRANCH  19  20
HETATM   20  N1  UNL     1     -19.344 -22.059  47.246  1.00  0.00    -0.079 N 
ATOM     21  H13 UNL     1     -19.059 -22.887  46.724  1.00  0.00     0.274 HD
ATOM     22  H12 UNL     1     -18.515 -21.479  47.116  1.00  0.00     0.274 HD
ATOM     23  H11 UNL     1     -19.472 -22.284  48.233  1.00  0.00     0.274 HD
ENDBRANCH  19  20
ENDBRANCH   5  19
TORSDOF 4
ENDMDL
MODEL 4
REMARK VINA RESULT: -5.883125891      2.648      5.365
REMARK  4 active torsions:
REMARK  status: ('A' for Active; 'I' for Inactive)
REMARK    1  A    between atoms: C2_2  and  C3_3 
REMARK    2  A    between atoms: C11_11  and  C12_12 
REMARK    3  A    between atoms: C16_16  and  C18_18 
REMARK    4  A    between atoms: C18_18  and  N1_19 
ROOT
HETATM    1  C12 UNL     1     -17.095 -18.384  43.083  1.00  0.00    -0.039 C 
HETATM    2  C13 UNL     1     -17.334 -17.596  41.817  1.00  0.00     0.015 C 
HETATM    3  C14 UNL     1     -15.777 -19.109  42.917  1.00  0.00     0.010 C 
HETATM    4  C15 UNL     1     -16.113 -20.430  42.238  1.00  0.00     0.011 C 
HETATM    5  C16 UNL     1     -17.355 -20.813  42.964  1.00  0.00    -0.020 C 
HETATM    6  C17 UNL     1     -17.074 -21.422  44.330  1.00  0.00     0.017 C 
HETATM    7  C19 UNL     1     -18.066 -19.499  43.142  1.00  0.00     0.020 C 
ENDROOT
BRANCH   1   8
HETATM    8  C11 UNL     1     -16.950 -17.547  44.316  1.00  0.00     0.006 C 
HETATM    9  C3  UNL     1     -17.946 -17.705  45.388  1.00  0.00    -0.040 C 
HETATM   10  C4  UNL     1     -17.379 -18.720  46.415  1.00  0.00     0.015 C 
HETATM   11  C5  UNL     1     -18.299 -16.509  46.201  1.00  0.00     0.010 C 
HETATM   12  C6  UNL     1     -17.531 -15.250  45.877  1.00  0.00     0.005 C 
HETATM   13  C7  UNL     1     -17.755 -15.143  44.360  1.00  0.00    -0.014 C 
HETATM   14  C8  UNL     1     -17.404 -13.762  43.945  1.00  0.00     0.010 C 
HETATM   15  C9  UNL     1     -16.754 -16.132  43.808  1.00  0.00    -0.009 C 
HETATM   16  C10 UNL     1     -15.380 -15.564  44.170  1.00  0.00     0.011 C 
BRANCH   9  17
HETATM   17  C2  UNL     1     -19.286 -18.325  44.994  1.00  0.00     0.005 C 
HETATM   18  C1  UNL     1     -19.994 -18.588  46.338  1.00  0.00     0.006 C 
ENDBRANCH   9  17
ENDBRANCH   1   8
BRANCH   5  19
HETATM   19  C18 UNL     1     -18.185 -21.820  42.204  1.00  0.00     0.238 C 
BRANCH  19  20
HETATM   20  N1  UNL     1     -18.634 -21.362  40.931  1.00  0.00    -0.079 N 
ATOM     21  H13 UNL     1     -18.778 -20.352  40.944  1.00  0.00     0.274 HD
ATOM     22  H12 UNL     1     -17.882 -21.420  40.245  1.00  0.00     0.274 HD
ATOM     23  H11 UNL     1     -19.468 -21.838  40.588  1.00  0.00     0.274 HD
ENDBRANCH  19  20
ENDBRANCH   5  19
TORSDOF 4
ENDMDL
MODEL 5
REMARK VINA RESULT: -5.866379501      2.422      4.855
REMARK  4 active torsions:
REMARK  status: ('A' for Active; 'I' for Inactive)
REMARK    1  A    between atoms: C2_2  and  C3_3 
REMARK    2  A    between atoms: C11_11  and  C12_12 
REMARK    3  A    between atoms: C16_16  and  C18_18 
REMARK    4  A    between atoms: C18_18  and  N1_19 
ROOT
HETATM    1  C12 UNL     1     -17.835 -18.831  45.463  1.00  0.00    -0.039 C 
HETATM    2  C13 UNL     1     -19.332 -18.896  45.273  1.00  0.00     0.015 C 
HETATM    3  C14 UNL     1     -17.364 -20.233  45.781  1.00  0.00     0.010 C 
HETATM    4  C15 UNL     1     -17.481 -20.378  47.293  1.00  0.00     0.011 C 
HETATM    5  C16 UNL     1     -16.979 -19.050  47.743  1.00  0.00    -0.020 C 
HETATM    6  C17 UNL     1     -15.459 -18.960  47.726  1.00  0.00     0.017 C 
HETATM    7  C19 UNL     1     -17.544 -18.105  46.719  1.00  0.00     0.020 C 
ENDROOT
BRANCH   1   8
HETATM    8  C11 UNL     1     -17.074 -18.409  44.245  1.00  0.00     0.006 C 
HETATM    9  C3  UNL     1     -16.971 -16.971  43.950  1.00  0.00    -0.040 C 
HETATM   10  C4  UNL     1     -15.636 -16.459  44.552  1.00  0.00     0.015 C 
HETATM   11  C5  UNL     1     -16.923 -16.548  42.523  1.00  0.00     0.010 C 
HETATM   12  C6  UNL     1     -16.917 -17.667  41.511  1.00  0.00     0.005 C 
HETATM   13  C7  UNL     1     -18.148 -18.476  41.949  1.00  0.00    -0.014 C 
HETATM   14  C8  UNL     1     -18.517 -19.382  40.833  1.00  0.00     0.010 C 
HETATM   15  C9  UNL     1     -17.621 -19.269  43.123  1.00  0.00    -0.009 C 
HETATM   16  C10 UNL     1     -16.566 -20.209  42.536  1.00  0.00     0.011 C 
BRANCH   9  17
HETATM   17  C2  UNL     1     -18.013 -16.061  44.598  1.00  0.00     0.005 C 
HETATM   18  C1  UNL     1     -17.748 -14.675  43.977  1.00  0.00     0.006 C 
ENDBRANCH   9  17
ENDBRANCH   1   8
BRANCH   5  19
HETATM   19  C18 UNL     1     -17.416 -18.709  49.148  1.00  0.00     0.238 C 
BRANCH  19  20
HETATM   20  N1  UNL     1     -17.049 -19.682  50.123  1.00  0.00    -0.079 N 
ATOM     21  H13 UNL     1     -16.213 -20.188  49.828  1.00  0.00     0.274 HD
ATOM     22  H12 UNL     1     -16.689 -19.229  50.962  1.00  0.00     0.274 HD
ATOM     23  H11 UNL     1     -17.796 -20.335  50.361  1.00  0.00     0.274 HD
ENDBRANCH  19  20
ENDBRANCH   5  19
TORSDOF 4
ENDMDL
