MODEL 1
REMARK VINA RESULT: -7.590558897      0.000      0.000
REMARK  8 active torsions:
REMARK  status: ('A' for Active; 'I' for Inactive)
REMARK    1  A    between atoms: N2_3  and  C2_5 
REMARK    2  A    between atoms: C2_5  and  C3_6 
REMARK    3  A    between atoms: C3_6  and  N3_7 
REMARK    4  A    between atoms: N7_19  and  C8_20 
REMARK    5  A    between atoms: C9_22  and  C10_23 
REMARK    6  A    between atoms: C10_23  and  O2_24 
REMARK    7  A    between atoms: C11_26  and  N8_27 
REMARK    8  A    between atoms: C12_31  and  O3_32 
ROOT
HETATM    1  N3  UNL     1      22.571  28.000   9.974  1.00  0.00    -0.372 N 
ATOM      2  H3  UNL     1      23.524  28.008  10.339  1.00  0.00     0.161 HD
HETATM    3  C4  UNL     1      21.647  28.545  10.692  1.00  0.00     0.147 A 
HETATM    4  N4  UNL     1      21.835  29.128  11.890  1.00  0.00    -0.282 N 
ATOM      5  H4  UNL     1      22.732  29.206  12.370  1.00  0.00     0.188 HD
HETATM    6  N5  UNL     1      20.673  29.586  12.356  1.00  0.00    -0.282 N 
ATOM      7  H5  UNL     1      20.551  30.068  13.246  1.00  0.00     0.188 HD
HETATM    8  C5  UNL     1      19.687  29.321  11.484  1.00  0.00     0.156 A 
HETATM    9  C6  UNL     1      20.298  28.662  10.428  1.00  0.00     0.124 A 
HETATM   10  N6  UNL     1      19.324  28.396   9.559  1.00  0.00    -0.346 N 
ATOM     11  H6  UNL     1      19.443  27.913   8.669  1.00  0.00     0.167 HD
HETATM   12  C7  UNL     1      18.145  28.869  10.044  1.00  0.00     0.188 A 
HETATM   13  N7  UNL     1      18.373  29.440  11.235  1.00  0.00    -0.296 N 
ENDROOT
BRANCH  13  14
HETATM   14  C8  UNL     1      17.419  30.074  12.115  1.00  0.00     0.261 C 
HETATM   15  O1  UNL     1      17.938  30.379  13.347  1.00  0.00    -0.354 OA
HETATM   16  C9  UNL     1      17.001  30.136  14.311  1.00  0.00     0.180 C 
HETATM   17  C11 UNL     1      15.688  29.852  13.620  1.00  0.00     0.247 C 
HETATM   18  C12 UNL     1      16.198  29.205  12.343  1.00  0.00     0.200 C 
BRANCH  16  19
HETATM   19  C10 UNL     1      16.877  31.249  15.324  1.00  0.00     0.198 C 
BRANCH  19  20
HETATM   20  O2  UNL     1      17.252  32.451  14.726  1.00  0.00    -0.398 OA
ATOM     21  H2  UNL     1      16.487  32.852  14.331  1.00  0.00     0.209 HD
ENDBRANCH  19  20
ENDBRANCH  16  19
BRANCH  17  22
HETATM   22  N8  UNL     1      15.047  31.090  13.233  1.00  0.00    -0.070 N 
ATOM     23  H83 UNL     1      14.421  31.438  13.960  1.00  0.00     0.274 HD
ATOM     24  H82 UNL     1      15.704  31.870  13.214  1.00  0.00     0.274 HD
ATOM     25  H81 UNL     1      14.567  30.975  12.340  1.00  0.00     0.274 HD
ENDBRANCH  17  22
BRANCH  18  26
HETATM   26  O3  UNL     1      15.280  29.341  11.302  1.00  0.00    -0.389 OA
ATOM     27  H3  UNL     1      15.238  28.552  10.775  1.00  0.00     0.210 HD
ENDBRANCH  18  26
ENDBRANCH  13  14
BRANCH   1  28
HETATM   28  C3  UNL     1      22.350  27.388   8.704  1.00  0.00     0.141 C 
BRANCH  28  29
HETATM   29  C2  UNL     1      21.931  25.946   8.902  1.00  0.00     0.139 C 
BRANCH  29  30
HETATM   30  N2  UNL     1      22.868  25.293   9.788  1.00  0.00    -0.386 N 
HETATM   31  C1  UNL     1      22.444  24.470  10.677  1.00  0.00     0.185 C 
HETATM   32  N1  UNL     1      23.412  23.847  11.532  1.00  0.00    -0.097 NA
ATOM     33  H2  UNL     1      23.866  25.487   9.707  1.00  0.00     0.159 HD
ENDBRANCH  29  30
ENDBRANCH  28  29
ENDBRANCH   1  28
TORSDOF 8
ENDMDL
MODEL 2
REMARK VINA RESULT: -7.512477924      3.935      6.522
REMARK  8 active torsions:
REMARK  status: ('A' for Active; 'I' for Inactive)
REMARK    1  A    between atoms: N2_3  and  C2_5 
REMARK    2  A    between atoms: C2_5  and  C3_6 
REMARK    3  A    between atoms: C3_6  and  N3_7 
REMARK    4  A    between atoms: N7_19  and  C8_20 
REMARK    5  A    between atoms: C9_22  and  C10_23 
REMARK    6  A    between atoms: C10_23  and  O2_24 
REMARK    7  A    between atoms: C11_26  and  N8_27 
REMARK    8  A    between atoms: C12_31  and  O3_32 
ROOT
HETATM    1  N3  UNL     1      17.384  29.516  16.270  1.00  0.00    -0.372 N 
ATOM      2  H3  UNL     1      16.613  29.896  16.819  1.00  0.00     0.161 HD
HETATM    3  C4  UNL     1      17.525  29.937  15.058  1.00  0.00     0.147 A 
HETATM    4  N4  UNL     1      16.735  30.844  14.453  1.00  0.00    -0.282 N 
ATOM      5  H4  UNL     1      15.932  31.303  14.884  1.00  0.00     0.188 HD
HETATM    6  N5  UNL     1      17.159  31.051  13.206  1.00  0.00    -0.282 N 
ATOM      7  H5  UNL     1      16.728  31.693  12.542  1.00  0.00     0.188 HD
HETATM    8  C5  UNL     1      18.236  30.291  12.951  1.00  0.00     0.156 A 
HETATM    9  C6  UNL     1      18.473  29.584  14.120  1.00  0.00     0.124 A 
HETATM   10  N6  UNL     1      19.541  28.827  13.872  1.00  0.00    -0.346 N 
ATOM     11  H6  UNL     1      19.974  28.183  14.534  1.00  0.00     0.167 HD
HETATM   12  C7  UNL     1      19.965  29.048  12.600  1.00  0.00     0.188 A 
HETATM   13  N7  UNL     1      19.156  29.953  12.033  1.00  0.00    -0.296 N 
ENDROOT
BRANCH  13  14
HETATM   14  C8  UNL     1      19.223  30.491  10.693  1.00  0.00     0.261 C 
HETATM   15  O1  UNL     1      18.829  31.802  10.616  1.00  0.00    -0.354 OA
HETATM   16  C9  UNL     1      18.108  31.996   9.472  1.00  0.00     0.180 C 
HETATM   17  C11 UNL     1      18.230  30.747   8.629  1.00  0.00     0.247 C 
HETATM   18  C12 UNL     1      18.362  29.703   9.725  1.00  0.00     0.200 C 
BRANCH  16  19
HETATM   19  C10 UNL     1      18.513  33.234   8.708  1.00  0.00     0.198 C 
BRANCH  19  20
HETATM   20  O2  UNL     1      17.717  33.346   7.569  1.00  0.00    -0.398 OA
ATOM     21  H2  UNL     1      18.170  32.947   6.835  1.00  0.00     0.209 HD
ENDBRANCH  19  20
ENDBRANCH  16  19
BRANCH  17  22
HETATM   22  N8  UNL     1      19.483  30.752   7.905  1.00  0.00    -0.070 N 
ATOM     23  H83 UNL     1      19.454  31.374   7.097  1.00  0.00     0.274 HD
ATOM     24  H82 UNL     1      20.224  31.219   8.428  1.00  0.00     0.274 HD
ATOM     25  H81 UNL     1      19.744  29.801   7.644  1.00  0.00     0.274 HD
ENDBRANCH  17  22
BRANCH  18  26
HETATM   26  O3  UNL     1      19.028  28.566   9.268  1.00  0.00    -0.389 OA
ATOM     27  H3  UNL     1      19.518  28.150   9.968  1.00  0.00     0.210 HD
ENDBRANCH  18  26
ENDBRANCH  13  14
BRANCH   1  28
HETATM   28  C3  UNL     1      18.234  28.553  16.892  1.00  0.00     0.141 C 
BRANCH  28  29
HETATM   29  C2  UNL     1      17.954  28.515  18.380  1.00  0.00     0.139 C 
BRANCH  29  30
HETATM   30  N2  UNL     1      18.452  27.274  18.929  1.00  0.00    -0.386 N 
HETATM   31  C1  UNL     1      19.149  27.284  20.006  1.00  0.00     0.185 C 
HETATM   32  N1  UNL     1      19.621  26.028  20.512  1.00  0.00    -0.097 NA
ATOM     33  H2  UNL     1      18.249  26.392  18.461  1.00  0.00     0.159 HD
ENDBRANCH  29  30
ENDBRANCH  28  29
ENDBRANCH   1  28
TORSDOF 8
ENDMDL
MODEL 3
REMARK VINA RESULT: -7.477768175      3.718      6.249
REMARK  8 active torsions:
REMARK  status: ('A' for Active; 'I' for Inactive)
REMARK    1  A    between atoms: N2_3  and  C2_5 
REMARK    2  A    between atoms: C2_5  and  C3_6 
REMARK    3  A    between atoms: C3_6  and  N3_7 
REMARK    4  A    between atoms: N7_19  and  C8_20 
REMARK    5  A    between atoms: C9_22  and  C10_23 
REMARK    6  A    between atoms: C10_23  and  O2_24 
REMARK    7  A    between atoms: C11_26  and  N8_27 
REMARK    8  A    between atoms: C12_31  and  O3_32 
ROOT
HETATM    1  N3  UNL     1      16.784  31.265   7.046  1.00  0.00    -0.372 N 
ATOM      2  H3  UNL     1      15.991  31.049   6.441  1.00  0.00     0.161 HD
HETATM    3  C4  UNL     1      16.873  30.636   8.170  1.00  0.00     0.147 A 
HETATM    4  N4  UNL     1      16.003  29.710   8.613  1.00  0.00    -0.282 N 
ATOM      5  H4  UNL     1      15.171  29.399   8.112  1.00  0.00     0.188 HD
HETATM    6  N5  UNL     1      16.392  29.262   9.807  1.00  0.00    -0.282 N 
ATOM      7  H5  UNL     1      15.899  28.555  10.354  1.00  0.00     0.188 HD
HETATM    8  C5  UNL     1      17.524  29.874  10.186  1.00  0.00     0.156 A 
HETATM    9  C6  UNL     1      17.834  30.745   9.153  1.00  0.00     0.124 A 
HETATM   10  N6  UNL     1      18.958  31.358   9.524  1.00  0.00    -0.346 N 
ATOM     11  H6  UNL     1      19.451  32.066   8.980  1.00  0.00     0.167 HD
HETATM   12  C7  UNL     1      19.345  30.892  10.741  1.00  0.00     0.188 A 
HETATM   13  N7  UNL     1      18.456  29.975  11.148  1.00  0.00    -0.296 N 
ENDROOT
BRANCH  13  14
HETATM   14  C8  UNL     1      18.460  29.216  12.378  1.00  0.00     0.261 C 
HETATM   15  O1  UNL     1      17.347  28.430  12.533  1.00  0.00    -0.354 OA
HETATM   16  C9  UNL     1      16.950  28.452  13.839  1.00  0.00     0.180 C 
HETATM   17  C11 UNL     1      18.029  29.143  14.640  1.00  0.00     0.247 C 
HETATM   18  C12 UNL     1      18.550  30.115  13.595  1.00  0.00     0.200 C 
BRANCH  16  19
HETATM   19  C10 UNL     1      16.624  27.085  14.393  1.00  0.00     0.198 C 
BRANCH  19  20
HETATM   20  O2  UNL     1      15.343  27.111  14.941  1.00  0.00    -0.398 OA
ATOM     21  H2  UNL     1      15.394  27.442  15.831  1.00  0.00     0.209 HD
ENDBRANCH  19  20
ENDBRANCH  16  19
BRANCH  17  22
HETATM   22  N8  UNL     1      19.108  28.222  14.927  1.00  0.00    -0.070 N 
ATOM     23  H83 UNL     1      19.841  28.656  15.489  1.00  0.00     0.274 HD
ATOM     24  H82 UNL     1      18.824  27.496  15.586  1.00  0.00     0.274 HD
ATOM     25  H81 UNL     1      19.475  27.827  14.061  1.00  0.00     0.274 HD
ENDBRANCH  17  22
BRANCH  18  26
HETATM   26  O3  UNL     1      19.870  30.482  13.855  1.00  0.00    -0.389 OA
ATOM     27  H3  UNL     1      20.062  31.345  13.505  1.00  0.00     0.210 HD
ENDBRANCH  18  26
ENDBRANCH  13  14
BRANCH   1  28
HETATM   28  C3  UNL     1      17.719  32.244   6.594  1.00  0.00     0.141 C 
BRANCH  28  29
HETATM   29  C2  UNL     1      16.977  33.400   5.958  1.00  0.00     0.139 C 
BRANCH  29  30
HETATM   30  N2  UNL     1      16.921  34.504   6.889  1.00  0.00    -0.386 N 
HETATM   31  C1  UNL     1      17.422  34.378   8.064  1.00  0.00     0.185 C 
HETATM   32  N1  UNL     1      17.343  35.501   8.952  1.00  0.00    -0.097 NA
ATOM     33  H2  UNL     1      16.484  35.383   6.613  1.00  0.00     0.159 HD
ENDBRANCH  29  30
ENDBRANCH  28  29
ENDBRANCH   1  28
TORSDOF 8
ENDMDL
MODEL 4
REMARK VINA RESULT: -7.357099341      3.974      5.964
REMARK  8 active torsions:
REMARK  status: ('A' for Active; 'I' for Inactive)
REMARK    1  A    between atoms: N2_3  and  C2_5 
REMARK    2  A    between atoms: C2_5  and  C3_6 
REMARK    3  A    between atoms: C3_6  and  N3_7 
REMARK    4  A    between atoms: N7_19  and  C8_20 
REMARK    5  A    between atoms: C9_22  and  C10_23 
REMARK    6  A    between atoms: C10_23  and  O2_24 
REMARK    7  A    between atoms: C11_26  and  N8_27 
REMARK    8  A    between atoms: C12_31  and  O3_32 
ROOT
HETATM    1  N3  UNL     1      17.034  30.413   7.768  1.00  0.00    -0.372 N 
ATOM      2  H3  UNL     1      16.259  29.996   7.251  1.00  0.00     0.161 HD
HETATM    3  C4  UNL     1      17.103  30.184   9.037  1.00  0.00     0.147 A 
HETATM    4  N4  UNL     1      16.233  29.436   9.740  1.00  0.00    -0.282 N 
ATOM      5  H4  UNL     1      15.417  28.963   9.351  1.00  0.00     0.188 HD
HETATM    6  N5  UNL     1      16.597  29.407  11.023  1.00  0.00    -0.282 N 
ATOM      7  H5  UNL     1      16.100  28.908  11.759  1.00  0.00     0.188 HD
HETATM    8  C5  UNL     1      17.713  30.131  11.204  1.00  0.00     0.156 A 
HETATM    9  C6  UNL     1      18.038  30.625   9.950  1.00  0.00     0.124 A 
HETATM   10  N6  UNL     1      19.146  31.346  10.123  1.00  0.00    -0.346 N 
ATOM     11  H6  UNL     1      19.643  31.848   9.388  1.00  0.00     0.167 HD
HETATM   12  C7  UNL     1      19.508  31.308  11.433  1.00  0.00     0.188 A 
HETATM   13  N7  UNL     1      18.620  30.556  12.098  1.00  0.00    -0.296 N 
ENDROOT
BRANCH  13  14
HETATM   14  C8  UNL     1      18.602  30.238  13.508  1.00  0.00     0.261 C 
HETATM   15  O1  UNL     1      18.631  28.891  13.759  1.00  0.00    -0.354 OA
HETATM   16  C9  UNL     1      17.808  28.604  14.811  1.00  0.00     0.180 C 
HETATM   17  C11 UNL     1      17.375  29.913  15.431  1.00  0.00     0.247 C 
HETATM   18  C12 UNL     1      17.375  30.800  14.198  1.00  0.00     0.200 C 
BRANCH  16  19
HETATM   19  C10 UNL     1      18.432  27.676  15.827  1.00  0.00     0.198 C 
BRANCH  19  20
HETATM   20  O2  UNL     1      17.776  27.833  17.047  1.00  0.00    -0.398 OA
ATOM     21  H2  UNL     1      18.420  28.004  17.725  1.00  0.00     0.209 HD
ENDBRANCH  19  20
ENDBRANCH  16  19
BRANCH  17  22
HETATM   22  N8  UNL     1      18.410  30.418  16.308  1.00  0.00    -0.070 N 
ATOM     23  H83 UNL     1      18.023  30.957  17.083  1.00  0.00     0.274 HD
ATOM     24  H82 UNL     1      18.850  29.673  16.848  1.00  0.00     0.274 HD
ATOM     25  H81 UNL     1      19.094  30.955  15.774  1.00  0.00     0.274 HD
ENDBRANCH  17  22
BRANCH  18  26
HETATM   26  O3  UNL     1      17.554  32.141  14.535  1.00  0.00    -0.389 OA
ATOM     27  H3  UNL     1      17.911  32.230  15.411  1.00  0.00     0.210 HD
ENDBRANCH  18  26
ENDBRANCH  13  14
BRANCH   1  28
HETATM   28  C3  UNL     1      17.969  31.209   7.041  1.00  0.00     0.141 C 
BRANCH  28  29
HETATM   29  C2  UNL     1      17.263  32.416   6.460  1.00  0.00     0.139 C 
BRANCH  29  30
HETATM   30  N2  UNL     1      17.371  33.524   7.383  1.00  0.00    -0.386 N 
HETATM   31  C1  UNL     1      17.048  34.707   7.005  1.00  0.00     0.185 C 
HETATM   32  N1  UNL     1      17.172  35.773   7.955  1.00  0.00    -0.097 NA
ATOM     33  H2  UNL     1      17.703  33.365   8.333  1.00  0.00     0.159 HD
ENDBRANCH  29  30
ENDBRANCH  28  29
ENDBRANCH   1  28
TORSDOF 8
ENDMDL
MODEL 5
REMARK VINA RESULT: -7.276700327      3.938      5.622
REMARK  8 active torsions:
REMARK  status: ('A' for Active; 'I' for Inactive)
REMARK    1  A    between atoms: N2_3  and  C2_5 
REMARK    2  A    between atoms: C2_5  and  C3_6 
REMARK    3  A    between atoms: C3_6  and  N3_7 
REMARK    4  A    between atoms: N7_19  and  C8_20 
REMARK    5  A    between atoms: C9_22  and  C10_23 
REMARK    6  A    between atoms: C10_23  and  O2_24 
REMARK    7  A    between atoms: C11_26  and  N8_27 
REMARK    8  A    between atoms: C12_31  and  O3_32 
ROOT
HETATM    1  N3  UNL     1      17.170  30.754   7.647  1.00  0.00    -0.372 N 
ATOM      2  H3  UNL     1      16.508  30.559   6.895  1.00  0.00     0.161 HD
HETATM    3  C4  UNL     1      16.941  30.228   8.803  1.00  0.00     0.147 A 
HETATM    4  N4  UNL     1      15.895  29.436   9.103  1.00  0.00    -0.282 N 
ATOM      5  H4  UNL     1      15.161  29.160   8.450  1.00  0.00     0.188 HD
HETATM    6  N5  UNL     1      15.962  29.067  10.383  1.00  0.00    -0.282 N 
ATOM      7  H5  UNL     1      15.286  28.466  10.853  1.00  0.00     0.188 HD
HETATM    8  C5  UNL     1      17.048  29.601  10.963  1.00  0.00     0.156 A 
HETATM    9  C6  UNL     1      17.672  30.337   9.968  1.00  0.00     0.124 A 
HETATM   10  N6  UNL     1      18.752  30.871  10.538  1.00  0.00    -0.346 N 
ATOM     11  H6  UNL     1      19.429  31.474  10.071  1.00  0.00     0.167 HD
HETATM   12  C7  UNL     1      18.810  30.487  11.841  1.00  0.00     0.188 A 
HETATM   13  N7  UNL     1      17.755  29.703  12.101  1.00  0.00    -0.296 N 
ENDROOT
BRANCH  13  14
HETATM   14  C8  UNL     1      17.405  29.066  13.350  1.00  0.00     0.261 C 
HETATM   15  O1  UNL     1      18.206  29.448  14.395  1.00  0.00    -0.354 OA
HETATM   16  C9  UNL     1      18.468  28.367  15.189  1.00  0.00     0.180 C 
HETATM   17  C11 UNL     1      17.580  27.232  14.734  1.00  0.00     0.247 C 
HETATM   18  C12 UNL     1      17.479  27.555  13.253  1.00  0.00     0.200 C 
BRANCH  16  19
HETATM   19  C10 UNL     1      18.309  28.652  16.664  1.00  0.00     0.198 C 
BRANCH  19  20
HETATM   20  O2  UNL     1      17.465  29.750  16.826  1.00  0.00    -0.398 OA
ATOM     21  H2  UNL     1      16.571  29.483  16.642  1.00  0.00     0.209 HD
ENDBRANCH  19  20
ENDBRANCH  16  19
BRANCH  17  22
HETATM   22  N8  UNL     1      16.250  27.384  15.285  1.00  0.00    -0.070 N 
ATOM     23  H83 UNL     1      16.139  28.273  15.773  1.00  0.00     0.274 HD
ATOM     24  H82 UNL     1      15.550  27.524  14.557  1.00  0.00     0.274 HD
ATOM     25  H81 UNL     1      16.023  26.589  15.884  1.00  0.00     0.274 HD
ENDBRANCH  17  22
BRANCH  18  26
HETATM   26  O3  UNL     1      16.316  27.027  12.694  1.00  0.00    -0.389 OA
ATOM     27  H3  UNL     1      16.505  26.546  11.897  1.00  0.00     0.210 HD
ENDBRANCH  18  26
ENDBRANCH  13  14
BRANCH   1  28
HETATM   28  C3  UNL     1      18.287  31.592   7.349  1.00  0.00     0.141 C 
BRANCH  28  29
HETATM   29  C2  UNL     1      17.799  32.895   6.753  1.00  0.00     0.139 C 
BRANCH  29  30
HETATM   30  N2  UNL     1      17.372  33.778   7.815  1.00  0.00    -0.386 N 
HETATM   31  C1  UNL     1      18.036  33.829   8.912  1.00  0.00     0.185 C 
HETATM   32  N1  UNL     1      17.574  34.719   9.936  1.00  0.00    -0.097 NA
ATOM     33  H2  UNL     1      16.544  34.359   7.692  1.00  0.00     0.159 HD
ENDBRANCH  29  30
ENDBRANCH  28  29
ENDBRANCH   1  28
TORSDOF 8
ENDMDL
