MODEL 1
REMARK VINA RESULT: -7.940859203      0.000      0.000
REMARK  10 active torsions:
REMARK  status: ('A' for Active; 'I' for Inactive)
REMARK    1  A    between atoms: N1_1  and  C1_4 
REMARK    2  A    between atoms: C3_10  and  N4_11 
REMARK    3  A    between atoms: C4_14  and  C5_15 
REMARK    4  A    between atoms: C5_15  and  N5_16 
REMARK    5  A    between atoms: C5_15  and  N6_20 
REMARK    6  A    between atoms: N6_20  and  N7_21 
REMARK    7  A    between atoms: N7_21  and  C6_22 
REMARK    8  A    between atoms: N7_21  and  C7_24 
REMARK    9  A    between atoms: C7_24  and  C8_25 
REMARK   10  A    between atoms: C8_25  and  O3_26 
ROOT
HETATM    1  C1  UNL     1      14.803  24.506  11.886  1.00  0.00     0.694 A 
HETATM    2  N2  UNL     1      14.771  24.687  13.237  1.00  0.00    -0.140 N 
ATOM      3  H2  UNL     1      14.468  23.944  13.866  1.00  0.00     0.189 HD
HETATM    4  C2  UNL     1      15.158  25.892  13.707  1.00  0.00     0.361 A 
HETATM    5  O1  UNL     1      15.136  26.090  14.955  1.00  0.00    -0.245 OA
HETATM    6  N3  UNL     1      15.563  26.888  12.908  1.00  0.00    -0.079 N 
HETATM    7  C3  UNL     1      15.948  28.090  13.450  1.00  0.00     0.138 A 
HETATM    8  C4  UNL     1      16.356  29.091  12.631  1.00  0.00     0.050 A 
HETATM    9  C9  UNL     1      16.358  28.810  11.250  1.00  0.00     0.120 A 
HETATM   10  N8  UNL     1      15.986  27.643  10.734  1.00  0.00    -0.200 N 
ATOM     11  H8  UNL     1      16.006  27.492   9.726  1.00  0.00     0.183 HD
HETATM   12  C10 UNL     1      15.581  26.660  11.567  1.00  0.00     0.709 A 
HETATM   13  N9  UNL     1      15.204  25.481  11.058  1.00  0.00    -0.022 N 
ATOM     14  H9  UNL     1      15.220  25.326  10.050  1.00  0.00     0.203 HD
ENDROOT
BRANCH   8  15
HETATM   15  C5  UNL     1      16.734  30.422  13.124  1.00  0.00     0.334 C 
BRANCH  15  16
HETATM   16  N5  UNL     1      15.638  31.300  13.383  1.00  0.00    -0.055 N 
ATOM     17  H53 UNL     1      15.577  32.011  12.654  1.00  0.00     0.276 HD
ATOM     18  H52 UNL     1      14.754  30.815  13.231  1.00  0.00     0.276 HD
ATOM     19  H51 UNL     1      15.648  31.737  14.303  1.00  0.00     0.276 HD
ENDBRANCH  15  16
BRANCH  15  20
HETATM   20  N6  UNL     1      17.711  30.393  14.199  1.00  0.00    -0.098 NA
BRANCH  20  21
HETATM   21  N7  UNL     1      18.900  29.883  13.719  1.00  0.00    -0.268 N 
BRANCH  21  22
HETATM   22  C6  UNL     1      19.540  28.693  14.072  1.00  0.00     0.367 C 
HETATM   23  O2  UNL     1      19.062  27.928  14.933  1.00  0.00    -0.282 OA
ENDBRANCH  21  22
BRANCH  21  24
HETATM   24  C7  UNL     1      19.572  30.714  12.701  1.00  0.00     0.173 C 
BRANCH  24  25
HETATM   25  C8  UNL     1      21.044  30.420  12.660  1.00  0.00     0.185 C 
BRANCH  25  26
HETATM   26  O3  UNL     1      21.853  31.426  13.136  1.00  0.00    -0.399 OA
ATOM     27  H3  UNL     1      22.365  31.877  12.475  1.00  0.00     0.209 HD
ENDBRANCH  25  26
ENDBRANCH  24  25
ENDBRANCH  21  24
ENDBRANCH  20  21
ENDBRANCH  15  20
ENDBRANCH   8  15
BRANCH   7  28
HETATM   28  N4  UNL     1      15.914  28.173  14.681  1.00  0.00    -0.384 N 
ATOM     29  H42 UNL     1      16.060  27.385  15.312  1.00  0.00     0.157 HD
ATOM     30  H41 UNL     1      15.708  29.094  15.068  1.00  0.00     0.157 HD
ENDBRANCH   7  28
BRANCH   1  31
HETATM   31  N1  UNL     1      14.424  23.322  11.470  1.00  0.00    -0.234 N 
ATOM     32  H12 UNL     1      13.447  23.068  11.325  1.00  0.00     0.174 HD
ATOM     33  H11 UNL     1      15.179  22.659  11.294  1.00  0.00     0.174 HD
ENDBRANCH   1  31
TORSDOF 10
ENDMDL
MODEL 2
REMARK VINA RESULT: -7.596458379      2.935      4.983
REMARK  10 active torsions:
REMARK  status: ('A' for Active; 'I' for Inactive)
REMARK    1  A    between atoms: N1_1  and  C1_4 
REMARK    2  A    between atoms: C3_10  and  N4_11 
REMARK    3  A    between atoms: C4_14  and  C5_15 
REMARK    4  A    between atoms: C5_15  and  N5_16 
REMARK    5  A    between atoms: C5_15  and  N6_20 
REMARK    6  A    between atoms: N6_20  and  N7_21 
REMARK    7  A    between atoms: N7_21  and  C6_22 
REMARK    8  A    between atoms: N7_21  and  C7_24 
REMARK    9  A    between atoms: C7_24  and  C8_25 
REMARK   10  A    between atoms: C8_25  and  O3_26 
ROOT
HETATM    1  C1  UNL     1      21.467  27.206  10.030  1.00  0.00     0.694 A 
HETATM    2  N2  UNL     1      21.949  28.267  10.736  1.00  0.00    -0.140 N 
ATOM      3  H2  UNL     1      22.940  28.511  10.721  1.00  0.00     0.189 HD
HETATM    4  C2  UNL     1      21.060  28.983  11.458  1.00  0.00     0.361 A 
HETATM    5  O1  UNL     1      21.478  29.970  12.125  1.00  0.00    -0.245 OA
HETATM    6  N3  UNL     1      19.754  28.690  11.497  1.00  0.00    -0.079 N 
HETATM    7  C3  UNL     1      18.900  29.461  12.248  1.00  0.00     0.138 A 
HETATM    8  C4  UNL     1      17.579  29.154  12.281  1.00  0.00     0.050 A 
HETATM    9  C9  UNL     1      17.174  28.042  11.518  1.00  0.00     0.120 A 
HETATM   10  N8  UNL     1      18.007  27.302  10.792  1.00  0.00    -0.200 N 
ATOM     11  H8  UNL     1      17.661  26.506  10.257  1.00  0.00     0.183 HD
HETATM   12  C10 UNL     1      19.318  27.623  10.775  1.00  0.00     0.709 A 
HETATM   13  N9  UNL     1      20.166  26.885  10.047  1.00  0.00    -0.022 N 
ATOM     14  H9  UNL     1      19.825  26.087   9.512  1.00  0.00     0.203 HD
ENDROOT
BRANCH   8  15
HETATM   15  C5  UNL     1      16.608  29.894  13.099  1.00  0.00     0.334 C 
BRANCH  15  16
HETATM   16  N5  UNL     1      15.329  30.079  12.492  1.00  0.00    -0.055 N 
ATOM     17  H53 UNL     1      15.354  29.779  11.517  1.00  0.00     0.276 HD
ATOM     18  H52 UNL     1      14.660  29.407  12.867  1.00  0.00     0.276 HD
ATOM     19  H51 UNL     1      14.955  31.025  12.559  1.00  0.00     0.276 HD
ENDBRANCH  15  16
BRANCH  15  20
HETATM   20  N6  UNL     1      16.528  29.432  14.474  1.00  0.00    -0.098 NA
BRANCH  20  21
HETATM   21  N7  UNL     1      17.187  30.326  15.292  1.00  0.00    -0.268 N 
BRANCH  21  22
HETATM   22  C6  UNL     1      17.019  31.710  15.379  1.00  0.00     0.367 C 
HETATM   23  O2  UNL     1      15.972  32.264  14.991  1.00  0.00    -0.282 OA
ENDBRANCH  21  22
BRANCH  21  24
HETATM   24  C7  UNL     1      18.199  29.730  16.186  1.00  0.00     0.173 C 
BRANCH  24  25
HETATM   25  C8  UNL     1      18.124  28.230  16.152  1.00  0.00     0.185 C 
BRANCH  25  26
HETATM   26  O3  UNL     1      18.909  27.628  15.196  1.00  0.00    -0.399 OA
ATOM     27  H3  UNL     1      18.834  26.682  15.151  1.00  0.00     0.209 HD
ENDBRANCH  25  26
ENDBRANCH  24  25
ENDBRANCH  21  24
ENDBRANCH  20  21
ENDBRANCH  15  20
ENDBRANCH   8  15
BRANCH   7  28
HETATM   28  N4  UNL     1      19.404  30.418  12.843  1.00  0.00    -0.384 N 
ATOM     29  H42 UNL     1      20.404  30.616  12.864  1.00  0.00     0.157 HD
ATOM     30  H41 UNL     1      18.761  31.025  13.353  1.00  0.00     0.157 HD
ENDBRANCH   7  28
BRANCH   1  31
HETATM   31  N1  UNL     1      22.362  26.540   9.340  1.00  0.00    -0.234 N 
ATOM     32  H12 UNL     1      23.138  26.038   9.771  1.00  0.00     0.174 HD
ATOM     33  H11 UNL     1      22.229  26.550   8.328  1.00  0.00     0.174 HD
ENDBRANCH   1  31
TORSDOF 10
ENDMDL
MODEL 3
REMARK VINA RESULT: -7.593440990      1.028      1.599
REMARK  10 active torsions:
REMARK  status: ('A' for Active; 'I' for Inactive)
REMARK    1  A    between atoms: N1_1  and  C1_4 
REMARK    2  A    between atoms: C3_10  and  N4_11 
REMARK    3  A    between atoms: C4_14  and  C5_15 
REMARK    4  A    between atoms: C5_15  and  N5_16 
REMARK    5  A    between atoms: C5_15  and  N6_20 
REMARK    6  A    between atoms: N6_20  and  N7_21 
REMARK    7  A    between atoms: N7_21  and  C6_22 
REMARK    8  A    between atoms: N7_21  and  C7_24 
REMARK    9  A    between atoms: C7_24  and  C8_25 
REMARK   10  A    between atoms: C8_25  and  O3_26 
ROOT
HETATM    1  C1  UNL     1      14.811  24.683  12.054  1.00  0.00     0.694 A 
HETATM    2  N2  UNL     1      15.061  24.897  13.377  1.00  0.00    -0.140 N 
ATOM      3  H2  UNL     1      14.921  24.162  14.070  1.00  0.00     0.189 HD
HETATM    4  C2  UNL     1      15.502  26.124  13.731  1.00  0.00     0.361 A 
HETATM    5  O1  UNL     1      15.739  26.352  14.951  1.00  0.00    -0.245 OA
HETATM    6  N3  UNL     1      15.698  27.109  12.845  1.00  0.00    -0.079 N 
HETATM    7  C3  UNL     1      16.152  28.334  13.270  1.00  0.00     0.138 A 
HETATM    8  C4  UNL     1      16.346  29.324  12.364  1.00  0.00     0.050 A 
HETATM    9  C9  UNL     1      16.063  29.009  11.020  1.00  0.00     0.120 A 
HETATM   10  N8  UNL     1      15.626  27.820  10.617  1.00  0.00    -0.200 N 
ATOM     11  H8  UNL     1      15.435  27.645   9.631  1.00  0.00     0.183 HD
HETATM   12  C10 UNL     1      15.437  26.849  11.536  1.00  0.00     0.709 A 
HETATM   13  N9  UNL     1      14.996  25.647  11.141  1.00  0.00    -0.022 N 
ATOM     14  H9  UNL     1      14.803  25.468  10.156  1.00  0.00     0.203 HD
ENDROOT
BRANCH   8  15
HETATM   15  C5  UNL     1      16.779  30.676  12.739  1.00  0.00     0.334 C 
BRANCH  15  16
HETATM   16  N5  UNL     1      15.803  31.446  13.443  1.00  0.00    -0.055 N 
ATOM     17  H53 UNL     1      15.100  31.801  12.795  1.00  0.00     0.276 HD
ATOM     18  H52 UNL     1      15.222  30.837  14.019  1.00  0.00     0.276 HD
ATOM     19  H51 UNL     1      16.182  32.207  14.005  1.00  0.00     0.276 HD
ENDBRANCH  15  16
BRANCH  15  20
HETATM   20  N6  UNL     1      18.096  30.721  13.353  1.00  0.00    -0.098 NA
BRANCH  20  21
HETATM   21  N7  UNL     1      19.053  30.475  12.392  1.00  0.00    -0.268 N 
BRANCH  21  22
HETATM   22  C6  UNL     1      19.085  30.913  11.066  1.00  0.00     0.367 C 
HETATM   23  O2  UNL     1      19.174  32.124  10.784  1.00  0.00    -0.282 OA
ENDBRANCH  21  22
BRANCH  21  24
HETATM   24  C7  UNL     1      20.185  29.636  12.834  1.00  0.00     0.173 C 
BRANCH  24  25
HETATM   25  C8  UNL     1      21.495  30.275  12.473  1.00  0.00     0.185 C 
BRANCH  25  26
HETATM   26  O3  UNL     1      21.817  31.397  13.200  1.00  0.00    -0.399 OA
ATOM     27  H3  UNL     1      22.722  31.447  13.485  1.00  0.00     0.209 HD
ENDBRANCH  25  26
ENDBRANCH  24  25
ENDBRANCH  21  24
ENDBRANCH  20  21
ENDBRANCH  15  20
ENDBRANCH   8  15
BRANCH   7  28
HETATM   28  N4  UNL     1      16.378  28.447  14.478  1.00  0.00    -0.384 N 
ATOM     29  H42 UNL     1      15.698  28.239  15.209  1.00  0.00     0.157 HD
ATOM     30  H41 UNL     1      17.304  28.786  14.737  1.00  0.00     0.157 HD
ENDBRANCH   7  28
BRANCH   1  31
HETATM   31  N1  UNL     1      14.389  23.480  11.751  1.00  0.00    -0.234 N 
ATOM     32  H12 UNL     1      14.914  22.633  11.969  1.00  0.00     0.174 HD
ATOM     33  H11 UNL     1      13.485  23.440  11.280  1.00  0.00     0.174 HD
ENDBRANCH   1  31
TORSDOF 10
ENDMDL
MODEL 4
REMARK VINA RESULT: -7.506466141      0.775      1.990
REMARK  10 active torsions:
REMARK  status: ('A' for Active; 'I' for Inactive)
REMARK    1  A    between atoms: N1_1  and  C1_4 
REMARK    2  A    between atoms: C3_10  and  N4_11 
REMARK    3  A    between atoms: C4_14  and  C5_15 
REMARK    4  A    between atoms: C5_15  and  N5_16 
REMARK    5  A    between atoms: C5_15  and  N6_20 
REMARK    6  A    between atoms: N6_20  and  N7_21 
REMARK    7  A    between atoms: N7_21  and  C6_22 
REMARK    8  A    between atoms: N7_21  and  C7_24 
REMARK    9  A    between atoms: C7_24  and  C8_25 
REMARK   10  A    between atoms: C8_25  and  O3_26 
ROOT
HETATM    1  C1  UNL     1      14.832  24.405  11.720  1.00  0.00     0.694 A 
HETATM    2  N2  UNL     1      14.737  24.575  13.069  1.00  0.00    -0.140 N 
ATOM      3  H2  UNL     1      14.454  23.811  13.682  1.00  0.00     0.189 HD
HETATM    4  C2  UNL     1      15.036  25.797  13.559  1.00  0.00     0.361 A 
HETATM    5  O1  UNL     1      14.954  25.985  14.806  1.00  0.00    -0.245 OA
HETATM    6  N3  UNL     1      15.413  26.820  12.781  1.00  0.00    -0.079 N 
HETATM    7  C3  UNL     1      15.707  28.038  13.342  1.00  0.00     0.138 A 
HETATM    8  C4  UNL     1      16.088  29.066  12.544  1.00  0.00     0.050 A 
HETATM    9  C9  UNL     1      16.158  28.795  11.163  1.00  0.00     0.120 A 
HETATM   10  N8  UNL     1      15.875  27.612  10.628  1.00  0.00    -0.200 N 
ATOM     11  H8  UNL     1      15.942  27.470   9.620  1.00  0.00     0.183 HD
HETATM   12  C10 UNL     1      15.495  26.603  11.441  1.00  0.00     0.709 A 
HETATM   13  N9  UNL     1      15.207  25.406  10.911  1.00  0.00    -0.022 N 
ATOM     14  H9  UNL     1      15.271  25.260   9.905  1.00  0.00     0.203 HD
ENDROOT
BRANCH   8  15
HETATM   15  C5  UNL     1      16.368  30.414  13.057  1.00  0.00     0.334 C 
BRANCH  15  16
HETATM   16  N5  UNL     1      15.216  31.230  13.264  1.00  0.00    -0.055 N 
ATOM     17  H53 UNL     1      14.422  30.860  12.740  1.00  0.00     0.276 HD
ATOM     18  H52 UNL     1      14.868  31.116  14.216  1.00  0.00     0.276 HD
ATOM     19  H51 UNL     1      15.347  32.219  13.053  1.00  0.00     0.276 HD
ENDBRANCH  15  16
BRANCH  15  20
HETATM   20  N6  UNL     1      17.293  30.433  14.178  1.00  0.00    -0.098 NA
BRANCH  20  21
HETATM   21  N7  UNL     1      18.543  30.047  13.742  1.00  0.00    -0.268 N 
BRANCH  21  22
HETATM   22  C6  UNL     1      19.247  30.493  12.621  1.00  0.00     0.367 C 
HETATM   23  O2  UNL     1      20.117  31.382  12.710  1.00  0.00    -0.282 OA
ENDBRANCH  21  22
BRANCH  21  24
HETATM   24  C7  UNL     1      19.212  29.030  14.577  1.00  0.00     0.173 C 
BRANCH  24  25
HETATM   25  C8  UNL     1      18.710  29.086  15.991  1.00  0.00     0.185 C 
BRANCH  25  26
HETATM   26  O3  UNL     1      17.824  28.091  16.335  1.00  0.00    -0.399 OA
ATOM     27  H3  UNL     1      17.422  28.189  17.190  1.00  0.00     0.209 HD
ENDBRANCH  25  26
ENDBRANCH  24  25
ENDBRANCH  21  24
ENDBRANCH  20  21
ENDBRANCH  15  20
ENDBRANCH   8  15
BRANCH   7  28
HETATM   28  N4  UNL     1      15.620  28.111  14.572  1.00  0.00    -0.384 N 
ATOM     29  H42 UNL     1      16.035  27.438  15.215  1.00  0.00     0.157 HD
ATOM     30  H41 UNL     1      15.081  28.893  14.943  1.00  0.00     0.157 HD
ENDBRANCH   7  28
BRANCH   1  31
HETATM   31  N1  UNL     1      14.538  23.203  11.284  1.00  0.00    -0.234 N 
ATOM     32  H12 UNL     1      14.153  22.472  11.883  1.00  0.00     0.174 HD
ATOM     33  H11 UNL     1      14.716  23.043  10.293  1.00  0.00     0.174 HD
ENDBRANCH   1  31
TORSDOF 10
ENDMDL
MODEL 5
REMARK VINA RESULT: -7.377468622      1.831      2.596
REMARK  10 active torsions:
REMARK  status: ('A' for Active; 'I' for Inactive)
REMARK    1  A    between atoms: N1_1  and  C1_4 
REMARK    2  A    between atoms: C3_10  and  N4_11 
REMARK    3  A    between atoms: C4_14  and  C5_15 
REMARK    4  A    between atoms: C5_15  and  N5_16 
REMARK    5  A    between atoms: C5_15  and  N6_20 
REMARK    6  A    between atoms: N6_20  and  N7_21 
REMARK    7  A    between atoms: N7_21  and  C6_22 
REMARK    8  A    between atoms: N7_21  and  C7_24 
REMARK    9  A    between atoms: C7_24  and  C8_25 
REMARK   10  A    between atoms: C8_25  and  O3_26 
ROOT
HETATM    1  C1  UNL     1      14.799  25.088  12.382  1.00  0.00     0.694 A 
HETATM    2  N2  UNL     1      14.430  25.942  11.385  1.00  0.00    -0.140 N 
ATOM      3  H2  UNL     1      13.858  25.628  10.601  1.00  0.00     0.189 HD
HETATM    4  C2  UNL     1      14.853  27.221  11.480  1.00  0.00     0.361 A 
HETATM    5  O1  UNL     1      14.529  28.034  10.569  1.00  0.00    -0.245 OA
HETATM    6  N3  UNL     1      15.604  27.664  12.497  1.00  0.00    -0.079 N 
HETATM    7  C3  UNL     1      15.999  28.979  12.536  1.00  0.00     0.138 A 
HETATM    8  C4  UNL     1      16.759  29.417  13.571  1.00  0.00     0.050 A 
HETATM    9  C9  UNL     1      17.089  28.463  14.554  1.00  0.00     0.120 A 
HETATM   10  N8  UNL     1      16.700  27.192  14.509  1.00  0.00    -0.200 N 
ATOM     11  H8  UNL     1      16.968  26.542  15.248  1.00  0.00     0.183 HD
HETATM   12  C10 UNL     1      15.946  26.777  13.469  1.00  0.00     0.709 A 
HETATM   13  N9  UNL     1      15.549  25.499  13.414  1.00  0.00    -0.022 N 
ATOM     14  H9  UNL     1      15.816  24.845  14.150  1.00  0.00     0.203 HD
ENDROOT
BRANCH   8  15
HETATM   15  C5  UNL     1      17.267  30.792  13.663  1.00  0.00     0.334 C 
BRANCH  15  16
HETATM   16  N5  UNL     1      16.657  31.591  14.677  1.00  0.00    -0.055 N 
ATOM     17  H53 UNL     1      15.642  31.495  14.639  1.00  0.00     0.276 HD
ATOM     18  H52 UNL     1      16.839  31.192  15.598  1.00  0.00     0.276 HD
ATOM     19  H51 UNL     1      16.919  32.576  14.661  1.00  0.00     0.276 HD
ENDBRANCH  15  16
BRANCH  15  20
HETATM   20  N6  UNL     1      18.717  30.882  13.656  1.00  0.00    -0.098 NA
BRANCH  20  21
HETATM   21  N7  UNL     1      19.186  30.563  12.399  1.00  0.00    -0.268 N 
BRANCH  21  22
HETATM   22  C6  UNL     1      18.784  31.080  11.165  1.00  0.00     0.367 C 
HETATM   23  O2  UNL     1      19.273  32.133  10.710  1.00  0.00    -0.282 OA
ENDBRANCH  21  22
BRANCH  21  24
HETATM   24  C7  UNL     1      20.250  29.540  12.368  1.00  0.00     0.173 C 
BRANCH  24  25
HETATM   25  C8  UNL     1      21.606  30.178  12.453  1.00  0.00     0.185 C 
BRANCH  25  26
HETATM   26  O3  UNL     1      21.628  31.428  13.027  1.00  0.00    -0.399 OA
ATOM     27  H3  UNL     1      21.882  31.447  13.942  1.00  0.00     0.209 HD
ENDBRANCH  25  26
ENDBRANCH  24  25
ENDBRANCH  21  24
ENDBRANCH  20  21
ENDBRANCH  15  20
ENDBRANCH   8  15
BRANCH   7  28
HETATM   28  N4  UNL     1      15.608  29.697  11.611  1.00  0.00    -0.384 N 
ATOM     29  H42 UNL     1      14.769  29.517  11.062  1.00  0.00     0.157 HD
ATOM     30  H41 UNL     1      16.188  30.508  11.391  1.00  0.00     0.157 HD
ENDBRANCH   7  28
BRANCH   1  31
HETATM   31  N1  UNL     1      14.365  23.858  12.255  1.00  0.00    -0.234 N 
ATOM     32  H12 UNL     1      13.748  23.559  11.499  1.00  0.00     0.174 HD
ATOM     33  H11 UNL     1      14.690  23.205  12.968  1.00  0.00     0.174 HD
ENDBRANCH   1  31
TORSDOF 10
ENDMDL
