MODEL 1
REMARK VINA RESULT: -8.127637785      0.000      0.000
REMARK  7 active torsions:
REMARK  status: ('A' for Active; 'I' for Inactive)
REMARK    1  A    between atoms: C1_4  and  S1_6 
REMARK    2  A    between atoms: S1_6  and  C2_7 
REMARK    3  A    between atoms: C2_7  and  C3_8 
REMARK    4  A    between atoms: C3_8  and  N3_9 
REMARK    5  A    between atoms: C6_18  and  N6_19 
REMARK    6  A    between atoms: N6_19  and  N7_21 
REMARK       I    between atoms: N7_21  and  C7_23 
REMARK    7  A    between atoms: C7_23  and  C8_25 
ROOT
HETATM    1  N3  UNL     1      22.655  25.746  42.140  1.00  0.00    -0.266 N 
HETATM    2  N4  UNL     1      22.300  27.027  42.199  1.00  0.00    -0.247 N 
ATOM      3  H4  UNL     1      22.104  27.444  43.109  1.00  0.00     0.192 HD
HETATM    4  C4  UNL     1      22.192  27.787  41.095  1.00  0.00     0.342 A 
HETATM    5  O1  UNL     1      21.855  28.998  41.188  1.00  0.00    -0.245 OA
HETATM    6  N5  UNL     1      22.461  27.193  39.909  1.00  0.00    -0.271 N 
ATOM      7  H5  UNL     1      22.389  27.741  39.051  1.00  0.00     0.174 HD
HETATM    8  C5  UNL     1      22.826  25.880  39.829  1.00  0.00     0.296 A 
HETATM    9  O2  UNL     1      23.066  25.368  38.722  1.00  0.00    -0.264 OA
HETATM   10  C6  UNL     1      22.929  25.124  40.980  1.00  0.00     0.206 A 
ENDROOT
BRANCH  10  11
HETATM   11  N6  UNL     1      23.261  23.901  41.000  1.00  0.00    -0.277 N 
ATOM     12  H6  UNL     1      24.096  23.665  41.535  1.00  0.00     0.189 HD
BRANCH  11  13
HETATM   13  N7  UNL     1      22.608  22.852  40.374  1.00  0.00    -0.262 N 
HETATM   14  C7  UNL     1      23.005  21.501  40.475  1.00  0.00     0.300 C 
HETATM   15  O3  UNL     1      24.024  21.188  41.180  1.00  0.00    -0.263 OA
ATOM     16  H7  UNL     1      21.790  23.069  39.804  1.00  0.00     0.190 HD
BRANCH  14  17
HETATM   17  C8  UNL     1      22.249  20.475  39.776  1.00  0.00     0.180 C 
HETATM   18  N8  UNL     1      22.856  19.767  38.888  1.00  0.00    -0.383 N 
ATOM     19  H82 UNL     1      23.843  19.934  38.691  1.00  0.00     0.157 HD
ATOM     20  H81 UNL     1      22.326  19.047  38.398  1.00  0.00     0.157 HD
HETATM   21  N9  UNL     1      20.870  20.240  40.051  1.00  0.00    -0.077 NA
ENDBRANCH  14  17
ENDBRANCH  11  13
ENDBRANCH  10  11
BRANCH   1  22
HETATM   22  C3  UNL     1      22.753  24.976  43.367  1.00  0.00     0.161 C 
BRANCH  22  23
HETATM   23  C2  UNL     1      21.467  25.090  44.117  1.00  0.00     0.104 C 
BRANCH  23  24
HETATM   24  S1  UNL     1      20.055  24.581  43.138  1.00  0.00    -0.096 SA
BRANCH  24  25
HETATM   25  C1  UNL     1      20.234  22.883  42.662  1.00  0.00     0.147 C 
HETATM   26  N1  UNL     1      19.423  22.390  41.801  1.00  0.00    -0.382 N 
ATOM     27  H12 UNL     1      19.526  21.413  41.527  1.00  0.00     0.157 HD
ATOM     28  H11 UNL     1      18.682  22.956  41.388  1.00  0.00     0.157 HD
HETATM   29  N2  UNL     1      21.262  22.098  43.235  1.00  0.00    -0.075 NA
ENDBRANCH  24  25
ENDBRANCH  23  24
ENDBRANCH  22  23
ENDBRANCH   1  22
TORSDOF 7
ENDMDL
MODEL 2
REMARK VINA RESULT: -8.038082495      2.263      2.593
REMARK  7 active torsions:
REMARK  status: ('A' for Active; 'I' for Inactive)
REMARK    1  A    between atoms: C1_4  and  S1_6 
REMARK    2  A    between atoms: S1_6  and  C2_7 
REMARK    3  A    between atoms: C2_7  and  C3_8 
REMARK    4  A    between atoms: C3_8  and  N3_9 
REMARK    5  A    between atoms: C6_18  and  N6_19 
REMARK    6  A    between atoms: N6_19  and  N7_21 
REMARK       I    between atoms: N7_21  and  C7_23 
REMARK    7  A    between atoms: C7_23  and  C8_25 
ROOT
HETATM    1  N3  UNL     1      21.883  25.470  39.103  1.00  0.00    -0.266 N 
HETATM    2  N4  UNL     1      22.252  26.731  38.891  1.00  0.00    -0.247 N 
ATOM      3  H4  UNL     1      21.844  27.469  39.464  1.00  0.00     0.192 HD
HETATM    4  C4  UNL     1      23.148  27.060  37.943  1.00  0.00     0.342 A 
HETATM    5  O1  UNL     1      23.475  28.265  37.770  1.00  0.00    -0.245 OA
HETATM    6  N5  UNL     1      23.664  26.050  37.206  1.00  0.00    -0.271 N 
ATOM      7  H5  UNL     1      24.347  26.265  36.478  1.00  0.00     0.174 HD
HETATM    8  C5  UNL     1      23.297  24.751  37.409  1.00  0.00     0.296 A 
HETATM    9  O2  UNL     1      23.793  23.848  36.712  1.00  0.00    -0.264 OA
HETATM   10  C6  UNL     1      22.376  24.443  38.389  1.00  0.00     0.206 A 
ENDROOT
BRANCH  10  11
HETATM   11  N6  UNL     1      21.978  23.268  38.647  1.00  0.00    -0.277 N 
ATOM     12  H6  UNL     1      20.969  23.135  38.724  1.00  0.00     0.189 HD
BRANCH  11  13
HETATM   13  N7  UNL     1      22.767  22.144  38.836  1.00  0.00    -0.262 N 
HETATM   14  C7  UNL     1      22.258  20.859  39.123  1.00  0.00     0.300 C 
HETATM   15  O3  UNL     1      20.996  20.682  39.222  1.00  0.00    -0.263 OA
ATOM     16  H7  UNL     1      23.778  22.253  38.763  1.00  0.00     0.190 HD
BRANCH  14  17
HETATM   17  C8  UNL     1      23.174  19.747  39.304  1.00  0.00     0.180 C 
HETATM   18  N8  UNL     1      23.348  18.932  38.321  1.00  0.00    -0.383 N 
ATOM     19  H82 UNL     1      22.847  19.078  37.444  1.00  0.00     0.157 HD
ATOM     20  H81 UNL     1      23.992  18.151  38.447  1.00  0.00     0.157 HD
HETATM   21  N9  UNL     1      23.876  19.542  40.529  1.00  0.00    -0.077 NA
ENDBRANCH  14  17
ENDBRANCH  11  13
ENDBRANCH  10  11
BRANCH   1  22
HETATM   22  C3  UNL     1      20.911  25.176  40.140  1.00  0.00     0.161 C 
BRANCH  22  23
HETATM   23  C2  UNL     1      21.552  25.368  41.476  1.00  0.00     0.104 C 
BRANCH  23  24
HETATM   24  S1  UNL     1      20.781  24.374  42.754  1.00  0.00    -0.096 SA
BRANCH  24  25
HETATM   25  C1  UNL     1      20.744  22.675  42.253  1.00  0.00     0.147 C 
HETATM   26  N1  UNL     1      19.704  22.227  41.652  1.00  0.00    -0.382 N 
ATOM     27  H12 UNL     1      19.682  21.249  41.364  1.00  0.00     0.157 HD
ATOM     28  H11 UNL     1      18.904  22.829  41.459  1.00  0.00     0.157 HD
HETATM   29  N2  UNL     1      21.853  21.839  42.520  1.00  0.00    -0.075 NA
ENDBRANCH  24  25
ENDBRANCH  23  24
ENDBRANCH  22  23
ENDBRANCH   1  22
TORSDOF 7
ENDMDL
MODEL 3
REMARK VINA RESULT: -7.928291444      3.182      3.880
REMARK  7 active torsions:
REMARK  status: ('A' for Active; 'I' for Inactive)
REMARK    1  A    between atoms: C1_4  and  S1_6 
REMARK    2  A    between atoms: S1_6  and  C2_7 
REMARK    3  A    between atoms: C2_7  and  C3_8 
REMARK    4  A    between atoms: C3_8  and  N3_9 
REMARK    5  A    between atoms: C6_18  and  N6_19 
REMARK    6  A    between atoms: N6_19  and  N7_21 
REMARK       I    between atoms: N7_21  and  C7_23 
REMARK    7  A    between atoms: C7_23  and  C8_25 
ROOT
HETATM    1  N3  UNL     1      20.877  25.732  40.242  1.00  0.00    -0.266 N 
HETATM    2  N4  UNL     1      20.959  27.059  40.204  1.00  0.00    -0.247 N 
ATOM      3  H4  UNL     1      20.501  27.561  39.444  1.00  0.00     0.192 HD
HETATM    4  C4  UNL     1      21.628  27.757  41.139  1.00  0.00     0.342 A 
HETATM    5  O1  UNL     1      21.684  29.014  41.073  1.00  0.00    -0.245 OA
HETATM    6  N5  UNL     1      22.221  27.051  42.129  1.00  0.00    -0.271 N 
ATOM      7  H5  UNL     1      22.736  27.549  42.855  1.00  0.00     0.174 HD
HETATM    8  C5  UNL     1      22.147  25.689  42.184  1.00  0.00     0.296 A 
HETATM    9  O2  UNL     1      22.704  25.072  43.110  1.00  0.00    -0.264 OA
HETATM   10  C6  UNL     1      21.453  24.998  41.211  1.00  0.00     0.206 A 
ENDROOT
BRANCH  10  11
HETATM   11  N6  UNL     1      21.333  23.737  41.182  1.00  0.00    -0.277 N 
ATOM     12  H6  UNL     1      20.406  23.363  41.387  1.00  0.00     0.189 HD
BRANCH  11  13
HETATM   13  N7  UNL     1      22.327  22.813  40.901  1.00  0.00    -0.262 N 
HETATM   14  C7  UNL     1      22.086  21.444  40.653  1.00  0.00     0.300 C 
HETATM   15  O3  UNL     1      20.891  20.993  40.679  1.00  0.00    -0.263 OA
ATOM     16  H7  UNL     1      23.291  23.142  40.873  1.00  0.00     0.190 HD
BRANCH  14  17
HETATM   17  C8  UNL     1      23.202  20.558  40.368  1.00  0.00     0.180 C 
HETATM   18  N8  UNL     1      23.260  20.002  39.207  1.00  0.00    -0.383 N 
ATOM     19  H82 UNL     1      22.533  20.189  38.517  1.00  0.00     0.157 HD
ATOM     20  H81 UNL     1      24.043  19.380  39.007  1.00  0.00     0.157 HD
HETATM   21  N9  UNL     1      24.219  20.296  41.333  1.00  0.00    -0.077 NA
ENDBRANCH  14  17
ENDBRANCH  11  13
ENDBRANCH  10  11
BRANCH   1  22
HETATM   22  C3  UNL     1      20.141  25.032  39.204  1.00  0.00     0.161 C 
BRANCH  22  23
HETATM   23  C2  UNL     1      19.902  25.968  38.064  1.00  0.00     0.104 C 
BRANCH  23  24
HETATM   24  S1  UNL     1      18.222  25.875  37.443  1.00  0.00    -0.096 SA
BRANCH  24  25
HETATM   25  C1  UNL     1      17.128  26.738  38.539  1.00  0.00     0.147 C 
HETATM   26  N1  UNL     1      15.867  26.701  38.313  1.00  0.00    -0.382 N 
ATOM     27  H12 UNL     1      15.238  27.198  38.943  1.00  0.00     0.157 HD
ATOM     28  H11 UNL     1      15.487  26.187  37.519  1.00  0.00     0.157 HD
HETATM   29  N2  UNL     1      17.656  27.451  39.640  1.00  0.00    -0.075 NA
ENDBRANCH  24  25
ENDBRANCH  23  24
ENDBRANCH  22  23
ENDBRANCH   1  22
TORSDOF 7
ENDMDL
MODEL 4
REMARK VINA RESULT: -7.892263517      2.295      2.896
REMARK  7 active torsions:
REMARK  status: ('A' for Active; 'I' for Inactive)
REMARK    1  A    between atoms: C1_4  and  S1_6 
REMARK    2  A    between atoms: S1_6  and  C2_7 
REMARK    3  A    between atoms: C2_7  and  C3_8 
REMARK    4  A    between atoms: C3_8  and  N3_9 
REMARK    5  A    between atoms: C6_18  and  N6_19 
REMARK    6  A    between atoms: N6_19  and  N7_21 
REMARK       I    between atoms: N7_21  and  C7_23 
REMARK    7  A    between atoms: C7_23  and  C8_25 
ROOT
HETATM    1  N3  UNL     1      21.746  25.685  39.153  1.00  0.00    -0.266 N 
HETATM    2  N4  UNL     1      22.319  26.866  38.939  1.00  0.00    -0.247 N 
ATOM      3  H4  UNL     1      22.002  27.675  39.474  1.00  0.00     0.192 HD
HETATM    4  C4  UNL     1      23.305  27.026  38.038  1.00  0.00     0.342 A 
HETATM    5  O1  UNL     1      23.826  28.159  37.861  1.00  0.00    -0.245 OA
HETATM    6  N5  UNL     1      23.694  25.928  37.350  1.00  0.00    -0.271 N 
ATOM      7  H5  UNL     1      24.439  26.013  36.658  1.00  0.00     0.174 HD
HETATM    8  C5  UNL     1      23.117  24.708  37.556  1.00  0.00     0.296 A 
HETATM    9  O2  UNL     1      23.501  23.720  36.906  1.00  0.00    -0.264 OA
HETATM   10  C6  UNL     1      22.108  24.574  38.489  1.00  0.00     0.206 A 
ENDROOT
BRANCH  10  11
HETATM   11  N6  UNL     1      21.517  23.483  38.746  1.00  0.00    -0.277 N 
ATOM     12  H6  UNL     1      20.511  23.537  38.905  1.00  0.00     0.189 HD
BRANCH  11  13
HETATM   13  N7  UNL     1      22.092  22.226  38.834  1.00  0.00    -0.262 N 
HETATM   14  C7  UNL     1      22.654  21.694  40.015  1.00  0.00     0.300 C 
HETATM   15  O3  UNL     1      22.649  22.386  41.089  1.00  0.00    -0.263 OA
ATOM     16  H7  UNL     1      22.111  21.649  37.993  1.00  0.00     0.190 HD
BRANCH  14  17
HETATM   17  C8  UNL     1      23.233  20.362  39.999  1.00  0.00     0.180 C 
HETATM   18  N8  UNL     1      22.943  19.580  39.018  1.00  0.00    -0.383 N 
ATOM     19  H82 UNL     1      22.319  19.903  38.278  1.00  0.00     0.157 HD
ATOM     20  H81 UNL     1      23.349  18.645  39.007  1.00  0.00     0.157 HD
HETATM   21  N9  UNL     1      24.105  19.910  41.034  1.00  0.00    -0.077 NA
ENDBRANCH  14  17
ENDBRANCH  11  13
ENDBRANCH  10  11
BRANCH   1  22
HETATM   22  C3  UNL     1      20.686  25.576  40.139  1.00  0.00     0.161 C 
BRANCH  22  23
HETATM   23  C2  UNL     1      21.261  25.804  41.499  1.00  0.00     0.104 C 
BRANCH  23  24
HETATM   24  S1  UNL     1      20.456  24.813  42.758  1.00  0.00    -0.096 SA
BRANCH  24  25
HETATM   25  C1  UNL     1      21.153  25.177  44.346  1.00  0.00     0.147 C 
HETATM   26  N1  UNL     1      22.308  25.730  44.405  1.00  0.00    -0.382 N 
ATOM     27  H12 UNL     1      22.710  25.939  45.319  1.00  0.00     0.157 HD
ATOM     28  H11 UNL     1      22.827  25.961  43.559  1.00  0.00     0.157 HD
HETATM   29  N2  UNL     1      20.433  24.855  45.520  1.00  0.00    -0.075 NA
ENDBRANCH  24  25
ENDBRANCH  23  24
ENDBRANCH  22  23
ENDBRANCH   1  22
TORSDOF 7
ENDMDL
MODEL 5
REMARK VINA RESULT: -7.798198169      3.162      3.865
REMARK  7 active torsions:
REMARK  status: ('A' for Active; 'I' for Inactive)
REMARK    1  A    between atoms: C1_4  and  S1_6 
REMARK    2  A    between atoms: S1_6  and  C2_7 
REMARK    3  A    between atoms: C2_7  and  C3_8 
REMARK    4  A    between atoms: C3_8  and  N3_9 
REMARK    5  A    between atoms: C6_18  and  N6_19 
REMARK    6  A    between atoms: N6_19  and  N7_21 
REMARK       I    between atoms: N7_21  and  C7_23 
REMARK    7  A    between atoms: C7_23  and  C8_25 
ROOT
HETATM    1  N3  UNL     1      21.931  25.707  39.090  1.00  0.00    -0.266 N 
HETATM    2  N4  UNL     1      22.509  26.881  38.852  1.00  0.00    -0.247 N 
ATOM      3  H4  UNL     1      22.218  27.695  39.393  1.00  0.00     0.192 HD
HETATM    4  C4  UNL     1      23.466  27.026  37.918  1.00  0.00     0.342 A 
HETATM    5  O1  UNL     1      23.993  28.154  37.718  1.00  0.00    -0.245 OA
HETATM    6  N5  UNL     1      23.821  25.921  37.223  1.00  0.00    -0.271 N 
ATOM      7  H5  UNL     1      24.544  25.996  36.506  1.00  0.00     0.174 HD
HETATM    8  C5  UNL     1      23.239  24.708  37.454  1.00  0.00     0.296 A 
HETATM    9  O2  UNL     1      23.591  23.713  36.796  1.00  0.00    -0.264 OA
HETATM   10  C6  UNL     1      22.259  24.589  38.420  1.00  0.00     0.206 A 
ENDROOT
BRANCH  10  11
HETATM   11  N6  UNL     1      21.666  23.506  38.701  1.00  0.00    -0.277 N 
ATOM     12  H6  UNL     1      20.662  23.567  38.871  1.00  0.00     0.189 HD
BRANCH  11  13
HETATM   13  N7  UNL     1      22.236  22.247  38.803  1.00  0.00    -0.262 N 
HETATM   14  C7  UNL     1      22.676  21.674  40.017  1.00  0.00     0.300 C 
HETATM   15  O3  UNL     1      22.556  22.327  41.109  1.00  0.00    -0.263 OA
ATOM     16  H7  UNL     1      22.345  21.701  37.949  1.00  0.00     0.190 HD
BRANCH  14  17
HETATM   17  C8  UNL     1      23.261  20.344  40.014  1.00  0.00     0.180 C 
HETATM   18  N8  UNL     1      22.998  19.562  39.024  1.00  0.00    -0.383 N 
ATOM     19  H82 UNL     1      22.391  19.883  38.270  1.00  0.00     0.157 HD
ATOM     20  H81 UNL     1      23.409  18.629  39.022  1.00  0.00     0.157 HD
HETATM   21  N9  UNL     1      24.110  19.894  41.068  1.00  0.00    -0.077 NA
ENDBRANCH  14  17
ENDBRANCH  11  13
ENDBRANCH  10  11
BRANCH   1  22
HETATM   22  C3  UNL     1      20.902  25.612  40.111  1.00  0.00     0.161 C 
BRANCH  22  23
HETATM   23  C2  UNL     1      19.868  26.660  39.857  1.00  0.00     0.104 C 
BRANCH  23  24
HETATM   24  S1  UNL     1      18.808  26.253  38.470  1.00  0.00    -0.096 SA
BRANCH  24  25
HETATM   25  C1  UNL     1      17.147  26.768  38.811  1.00  0.00     0.147 C 
HETATM   26  N1  UNL     1      16.232  26.527  37.947  1.00  0.00    -0.382 N 
ATOM     27  H12 UNL     1      15.276  26.823  38.143  1.00  0.00     0.157 HD
ATOM     28  H11 UNL     1      16.444  26.047  37.072  1.00  0.00     0.157 HD
HETATM   29  N2  UNL     1      16.853  27.434  40.024  1.00  0.00    -0.075 NA
ENDBRANCH  24  25
ENDBRANCH  23  24
ENDBRANCH  22  23
ENDBRANCH   1  22
TORSDOF 7
ENDMDL
