MODEL 1
REMARK VINA RESULT: -7.096666482      0.000      0.000
REMARK  12 active torsions:
REMARK  status: ('A' for Active; 'I' for Inactive)
REMARK    1  A    between atoms: C2_2  and  C3_4 
REMARK    2  A    between atoms: C3_4  and  N1_5 
REMARK    3  A    between atoms: C3_4  and  N11_37 
REMARK       I    between atoms: N1_5  and  C4_7 
REMARK       I    between atoms: C4_7  and  N2_8 
REMARK       I    between atoms: C4_7  and  N4_12 
REMARK    4  A    between atoms: N4_12  and  N5_14 
REMARK    5  A    between atoms: N5_14  and  C6_16 
REMARK    6  A    between atoms: C6_16  and  C8_18 
REMARK    7  A    between atoms: N7_23  and  C10_24 
REMARK    8  A    between atoms: C11_30  and  N10_31 
REMARK    9  A    between atoms: C12_34  and  O3_35 
REMARK   10  A    between atoms: N11_37  and  O4_38 
REMARK   11  A    between atoms: N11_37  and  N12_40 
REMARK   12  A    between atoms: N12_40  and  N13_41 
ROOT
HETATM    1  N1  UNL     1       0.167 -41.982  22.501  1.00  0.00    -0.195 N 
ATOM      2  H1  UNL     1       0.168 -41.461  21.624  1.00  0.00     0.180 HD
HETATM    3  C4  UNL     1       0.828 -41.436  23.635  1.00  0.00     0.703 C 
HETATM    4  N2  UNL     1       2.115 -41.296  23.555  1.00  0.00    -0.125 N 
ATOM      5  H2  UNL     1       2.588 -41.578  22.697  1.00  0.00     0.197 HD
HETATM    6  C5  UNL     1       2.875 -40.772  24.603  1.00  0.00     0.196 C 
HETATM    7  N3  UNL     1       3.498 -40.339  25.492  1.00  0.00    -0.171 NA
HETATM    8  N4  UNL     1       0.123 -41.059  24.807  1.00  0.00    -0.131 N 
ATOM      9  H4  UNL     1       0.058 -41.694  25.604  1.00  0.00     0.205 HD
ENDROOT
BRANCH   1  10
HETATM   10  C3  UNL     1      -0.500 -43.248  22.564  1.00  0.00     0.308 C 
BRANCH  10  11
HETATM   11  C2  UNL     1      -1.036 -43.628  21.245  1.00  0.00     0.165 C 
HETATM   12  C1  UNL     1      -0.879 -42.798  20.026  1.00  0.00     0.095 C 
HETATM   13  O1  UNL     1      -1.644 -44.674  21.127  1.00  0.00    -0.294 OA
ENDBRANCH  10  11
BRANCH  10  14
HETATM   14  N11 UNL     1       0.360 -44.307  23.078  1.00  0.00     0.014 NA
BRANCH  14  15
HETATM   15  O4  UNL     1      -0.410 -45.158  23.793  1.00  0.00    -0.280 OA
ATOM     16  H4  UNL     1      -1.173 -45.372  23.269  1.00  0.00     0.240 HD
ENDBRANCH  14  15
BRANCH  14  17
HETATM   17  N12 UNL     1       0.996 -44.961  22.098  1.00  0.00    -0.242 NA
BRANCH  17  18
HETATM   18  N13 UNL     1       1.526 -45.512  21.281  1.00  0.00    -0.264 N 
ATOM     19 2H13 UNL     1       0.865 -45.045  21.903  1.00  0.00     0.193 HD
ATOM     20 1H13 UNL     1       2.012 -46.013  20.539  1.00  0.00     0.193 HD
ENDBRANCH  17  18
ENDBRANCH  14  17
ENDBRANCH  10  14
ENDBRANCH   1  10
BRANCH   8  21
HETATM   21  N5  UNL     1      -0.482 -39.801  24.846  1.00  0.00    -0.289 N 
ATOM     22  H5  UNL     1      -0.036 -39.006  24.389  1.00  0.00     0.187 HD
BRANCH  21  23
HETATM   23  C6  UNL     1      -1.592 -39.647  25.454  1.00  0.00     0.053 C 
HETATM   24  C7  UNL     1      -1.823 -38.453  26.284  1.00  0.00     0.072 C 
BRANCH  23  25
HETATM   25  C8  UNL     1      -2.634 -40.644  25.333  1.00  0.00     0.110 A 
HETATM   26  N6  UNL     1      -3.308 -41.229  26.343  1.00  0.00    -0.331 N 
HETATM   27  C9  UNL     1      -4.200 -42.105  25.810  1.00  0.00     0.166 A 
ATOM     28  H6  UNL     1      -3.172 -41.047  27.337  1.00  0.00     0.168 HD
HETATM   29  S1  UNL     1      -5.294 -43.092  26.814  1.00  0.00    -0.012 SA
HETATM   30  N7  UNL     1      -4.099 -42.079  24.473  1.00  0.00    -0.250 N 
HETATM   31  C12 UNL     1      -3.150 -41.195  24.154  1.00  0.00     0.180 A 
BRANCH  30  32
HETATM   32  C10 UNL     1      -4.882 -42.869  23.596  1.00  0.00     0.184 A 
HETATM   33  N8  UNL     1      -6.035 -42.535  22.991  1.00  0.00    -0.221 N 
HETATM   34  O2  UNL     1      -6.446 -43.526  22.268  1.00  0.00    -0.153 OA
ATOM     35  H8  UNL     1      -6.512 -41.638  23.087  1.00  0.00     0.198 HD
HETATM   36  N9  UNL     1      -5.623 -44.504  22.362  1.00  0.00    -0.222 N 
HETATM   37  C11 UNL     1      -4.622 -44.155  23.180  1.00  0.00     0.168 A 
ATOM     38  H9  UNL     1      -5.716 -45.403  21.889  1.00  0.00     0.198 HD
BRANCH  37  39
HETATM   39  N10 UNL     1      -3.591 -44.900  23.518  1.00  0.00    -0.381 N 
ATOM     40 2H10 UNL     1      -2.989 -44.770  24.331  1.00  0.00     0.157 HD
ATOM     41 1H10 UNL     1      -3.238 -45.718  23.020  1.00  0.00     0.157 HD
ENDBRANCH  37  39
ENDBRANCH  30  32
BRANCH  31  42
HETATM   42  O3  UNL     1      -2.707 -40.842  22.886  1.00  0.00    -0.344 OA
ATOM     43  H3  UNL     1      -3.104 -41.163  22.085  1.00  0.00     0.219 HD
ENDBRANCH  31  42
ENDBRANCH  23  25
ENDBRANCH  21  23
ENDBRANCH   8  21
TORSDOF 12
ENDMDL
MODEL 2
REMARK VINA RESULT: -6.828863558      3.293      7.272
REMARK  12 active torsions:
REMARK  status: ('A' for Active; 'I' for Inactive)
REMARK    1  A    between atoms: C2_2  and  C3_4 
REMARK    2  A    between atoms: C3_4  and  N1_5 
REMARK    3  A    between atoms: C3_4  and  N11_37 
REMARK       I    between atoms: N1_5  and  C4_7 
REMARK       I    between atoms: C4_7  and  N2_8 
REMARK       I    between atoms: C4_7  and  N4_12 
REMARK    4  A    between atoms: N4_12  and  N5_14 
REMARK    5  A    between atoms: N5_14  and  C6_16 
REMARK    6  A    between atoms: C6_16  and  C8_18 
REMARK    7  A    between atoms: N7_23  and  C10_24 
REMARK    8  A    between atoms: C11_30  and  N10_31 
REMARK    9  A    between atoms: C12_34  and  O3_35 
REMARK   10  A    between atoms: N11_37  and  O4_38 
REMARK   11  A    between atoms: N11_37  and  N12_40 
REMARK   12  A    between atoms: N12_40  and  N13_41 
ROOT
HETATM    1  N1  UNL     1      -4.108 -37.420  24.061  1.00  0.00    -0.195 N 
ATOM      2  H1  UNL     1      -4.743 -37.034  23.362  1.00  0.00     0.180 HD
HETATM    3  C4  UNL     1      -4.537 -38.512  24.865  1.00  0.00     0.703 C 
HETATM    4  N2  UNL     1      -5.526 -38.292  25.675  1.00  0.00    -0.125 N 
ATOM      5  H2  UNL     1      -5.945 -37.363  25.700  1.00  0.00     0.197 HD
HETATM    6  C5  UNL     1      -6.037 -39.284  26.515  1.00  0.00     0.196 C 
HETATM    7  N3  UNL     1      -6.447 -40.124  27.217  1.00  0.00    -0.171 NA
HETATM    8  N4  UNL     1      -3.920 -39.787  24.792  1.00  0.00    -0.131 N 
ATOM      9  H4  UNL     1      -3.195 -40.054  25.458  1.00  0.00     0.205 HD
ENDROOT
BRANCH   1  10
HETATM   10  C3  UNL     1      -2.803 -36.849  24.214  1.00  0.00     0.308 C 
BRANCH  10  11
HETATM   11  C2  UNL     1      -2.869 -35.377  24.229  1.00  0.00     0.165 C 
HETATM   12  C1  UNL     1      -2.132 -34.514  23.275  1.00  0.00     0.095 C 
HETATM   13  O1  UNL     1      -3.559 -34.820  25.061  1.00  0.00    -0.294 OA
ENDBRANCH  10  11
BRANCH  10  14
HETATM   14  N11 UNL     1      -2.120 -37.332  25.408  1.00  0.00     0.014 NA
BRANCH  14  15
HETATM   15  O4  UNL     1      -1.337 -38.374  25.047  1.00  0.00    -0.280 OA
ATOM     16  H4  UNL     1      -1.359 -39.013  25.750  1.00  0.00     0.240 HD
ENDBRANCH  14  15
BRANCH  14  17
HETATM   17  N12 UNL     1      -1.385 -36.375  25.990  1.00  0.00    -0.242 NA
BRANCH  17  18
HETATM   18  N13 UNL     1      -0.768 -35.579  26.477  1.00  0.00    -0.264 N 
ATOM     19 2H13 UNL     1      -1.137 -36.397  25.991  1.00  0.00     0.193 HD
ATOM     20 1H13 UNL     1      -0.209 -34.852  26.921  1.00  0.00     0.193 HD
ENDBRANCH  17  18
ENDBRANCH  14  17
ENDBRANCH  10  14
ENDBRANCH   1  10
BRANCH   8  21
HETATM   21  N5  UNL     1      -4.327 -40.669  23.789  1.00  0.00    -0.289 N 
ATOM     22  H5  UNL     1      -4.895 -40.331  23.012  1.00  0.00     0.187 HD
BRANCH  21  23
HETATM   23  C6  UNL     1      -3.988 -41.896  23.844  1.00  0.00     0.053 C 
HETATM   24  C7  UNL     1      -4.955 -42.913  24.289  1.00  0.00     0.072 C 
BRANCH  23  25
HETATM   25  C8  UNL     1      -2.650 -42.300  23.468  1.00  0.00     0.110 A 
HETATM   26  N6  UNL     1      -2.312 -43.101  22.437  1.00  0.00    -0.331 N 
HETATM   27  C9  UNL     1      -0.959 -43.233  22.425  1.00  0.00     0.166 A 
ATOM     28  H6  UNL     1      -2.960 -43.534  21.779  1.00  0.00     0.168 HD
HETATM   29  S1  UNL     1      -0.101 -44.219  21.213  1.00  0.00    -0.012 SA
HETATM   30  N7  UNL     1      -0.438 -42.523  23.436  1.00  0.00    -0.250 N 
HETATM   31  C12 UNL     1      -1.448 -41.943  24.089  1.00  0.00     0.180 A 
BRANCH  30  32
HETATM   32  C10 UNL     1       0.947 -42.436  23.721  1.00  0.00     0.184 A 
HETATM   33  N8  UNL     1       1.826 -43.442  23.865  1.00  0.00    -0.221 N 
HETATM   34  O2  UNL     1       2.999 -42.957  24.120  1.00  0.00    -0.153 OA
ATOM     35  H8  UNL     1       1.603 -44.434  23.786  1.00  0.00     0.198 HD
HETATM   36  N9  UNL     1       2.944 -41.678  24.152  1.00  0.00    -0.222 N 
HETATM   37  C11 UNL     1       1.685 -41.289  23.910  1.00  0.00     0.168 A 
ATOM     38  H9  UNL     1       3.731 -41.055  24.333  1.00  0.00     0.198 HD
BRANCH  37  39
HETATM   39  N10 UNL     1       1.244 -40.050  23.862  1.00  0.00    -0.381 N 
ATOM     40 2H10 UNL     1       1.644 -39.283  23.322  1.00  0.00     0.157 HD
ATOM     41 1H10 UNL     1       0.436 -39.669  24.357  1.00  0.00     0.157 HD
ENDBRANCH  37  39
ENDBRANCH  30  32
BRANCH  31  42
HETATM   42  O3  UNL     1      -1.378 -41.116  25.202  1.00  0.00    -0.344 OA
ATOM     43  H3  UNL     1      -1.880 -40.315  25.291  1.00  0.00     0.219 HD
ENDBRANCH  31  42
ENDBRANCH  23  25
ENDBRANCH  21  23
ENDBRANCH   8  21
TORSDOF 12
ENDMDL
MODEL 3
REMARK VINA RESULT: -6.754887544      2.275      5.409
REMARK  12 active torsions:
REMARK  status: ('A' for Active; 'I' for Inactive)
REMARK    1  A    between atoms: C2_2  and  C3_4 
REMARK    2  A    between atoms: C3_4  and  N1_5 
REMARK    3  A    between atoms: C3_4  and  N11_37 
REMARK       I    between atoms: N1_5  and  C4_7 
REMARK       I    between atoms: C4_7  and  N2_8 
REMARK       I    between atoms: C4_7  and  N4_12 
REMARK    4  A    between atoms: N4_12  and  N5_14 
REMARK    5  A    between atoms: N5_14  and  C6_16 
REMARK    6  A    between atoms: C6_16  and  C8_18 
REMARK    7  A    between atoms: N7_23  and  C10_24 
REMARK    8  A    between atoms: C11_30  and  N10_31 
REMARK    9  A    between atoms: C12_34  and  O3_35 
REMARK   10  A    between atoms: N11_37  and  O4_38 
REMARK   11  A    between atoms: N11_37  and  N12_40 
REMARK   12  A    between atoms: N12_40  and  N13_41 
ROOT
HETATM    1  N1  UNL     1      -3.994 -40.311  25.766  1.00  0.00    -0.195 N 
ATOM      2  H1  UNL     1      -4.239 -40.264  26.755  1.00  0.00     0.180 HD
HETATM    3  C4  UNL     1      -3.400 -39.180  25.141  1.00  0.00     0.703 C 
HETATM    4  N2  UNL     1      -4.124 -38.106  25.058  1.00  0.00    -0.125 N 
ATOM      5  H2  UNL     1      -5.070 -38.120  25.438  1.00  0.00     0.197 HD
HETATM    6  C5  UNL     1      -3.651 -36.932  24.467  1.00  0.00     0.196 C 
HETATM    7  N3  UNL     1      -3.244 -35.960  23.962  1.00  0.00    -0.171 NA
HETATM    8  N4  UNL     1      -2.077 -39.212  24.629  1.00  0.00    -0.131 N 
ATOM      9  H4  UNL     1      -1.905 -39.393  23.640  1.00  0.00     0.205 HD
ENDROOT
BRANCH   1  10
HETATM   10  C3  UNL     1      -4.256 -41.514  25.034  1.00  0.00     0.308 C 
BRANCH  10  11
HETATM   11  C2  UNL     1      -5.451 -42.200  25.558  1.00  0.00     0.165 C 
HETATM   12  C1  UNL     1      -6.595 -41.492  26.183  1.00  0.00     0.095 C 
HETATM   13  O1  UNL     1      -5.524 -43.411  25.483  1.00  0.00    -0.294 OA
ENDBRANCH  10  11
BRANCH  10  14
HETATM   14  N11 UNL     1      -4.401 -41.277  23.603  1.00  0.00     0.014 NA
BRANCH  14  15
HETATM   15  O4  UNL     1      -3.215 -41.548  23.014  1.00  0.00    -0.280 OA
ATOM     16  H4  UNL     1      -3.132 -42.492  22.945  1.00  0.00     0.240 HD
ENDBRANCH  14  15
BRANCH  14  17
HETATM   17  N12 UNL     1      -5.373 -42.025  23.064  1.00  0.00    -0.242 NA
BRANCH  17  18
HETATM   18  N13 UNL     1      -6.182 -42.649  22.610  1.00  0.00    -0.264 N 
ATOM     19 2H13 UNL     1      -5.356 -42.090  22.824  1.00  0.00     0.193 HD
ATOM     20 1H13 UNL     1      -6.921 -43.219  22.199  1.00  0.00     0.193 HD
ENDBRANCH  17  18
ENDBRANCH  14  17
ENDBRANCH  10  14
ENDBRANCH   1  10
BRANCH   8  21
HETATM   21  N5  UNL     1      -1.016 -38.992  25.509  1.00  0.00    -0.289 N 
ATOM     22  H5  UNL     1      -0.675 -38.044  25.670  1.00  0.00     0.187 HD
BRANCH  21  23
HETATM   23  C6  UNL     1      -0.473 -39.975  26.111  1.00  0.00     0.053 C 
HETATM   24  C7  UNL     1       0.184 -39.777  27.414  1.00  0.00     0.072 C 
BRANCH  23  25
HETATM   25  C8  UNL     1      -0.499 -41.296  25.519  1.00  0.00     0.110 A 
HETATM   26  N6  UNL     1      -1.002 -42.416  26.076  1.00  0.00    -0.331 N 
HETATM   27  C9  UNL     1      -0.833 -43.441  25.199  1.00  0.00     0.166 A 
ATOM     28  H6  UNL     1      -1.435 -42.484  26.997  1.00  0.00     0.168 HD
HETATM   29  S1  UNL     1      -1.365 -45.105  25.553  1.00  0.00    -0.012 SA
HETATM   30  N7  UNL     1      -0.230 -42.981  24.093  1.00  0.00    -0.250 N 
HETATM   31  C12 UNL     1      -0.014 -41.674  24.262  1.00  0.00     0.180 A 
BRANCH  30  32
HETATM   32  C10 UNL     1       0.100 -43.780  22.971  1.00  0.00     0.184 A 
HETATM   33  N8  UNL     1       1.301 -44.284  22.640  1.00  0.00    -0.221 N 
HETATM   34  O2  UNL     1       1.197 -44.961  21.542  1.00  0.00    -0.153 OA
ATOM     35  H8  UNL     1       2.162 -44.152  23.172  1.00  0.00     0.198 HD
HETATM   36  N9  UNL     1      -0.015 -44.934  21.126  1.00  0.00    -0.222 N 
HETATM   37  C11 UNL     1      -0.752 -44.209  21.978  1.00  0.00     0.168 A 
ATOM     38  H9  UNL     1      -0.362 -45.390  20.283  1.00  0.00     0.198 HD
BRANCH  37  39
HETATM   39  N10 UNL     1      -2.040 -43.958  21.881  1.00  0.00    -0.381 N 
ATOM     40 2H10 UNL     1      -2.509 -43.086  22.125  1.00  0.00     0.157 HD
ATOM     41 1H10 UNL     1      -2.764 -44.596  21.548  1.00  0.00     0.157 HD
ENDBRANCH  37  39
ENDBRANCH  30  32
BRANCH  31  42
HETATM   42  O3  UNL     1       0.585 -40.789  23.375  1.00  0.00    -0.344 OA
ATOM     43  H3  UNL     1       0.332 -40.710  22.464  1.00  0.00     0.219 HD
ENDBRANCH  31  42
ENDBRANCH  23  25
ENDBRANCH  21  23
ENDBRANCH   8  21
TORSDOF 12
ENDMDL
MODEL 4
REMARK VINA RESULT: -6.744185584      2.711      5.317
REMARK  12 active torsions:
REMARK  status: ('A' for Active; 'I' for Inactive)
REMARK    1  A    between atoms: C2_2  and  C3_4 
REMARK    2  A    between atoms: C3_4  and  N1_5 
REMARK    3  A    between atoms: C3_4  and  N11_37 
REMARK       I    between atoms: N1_5  and  C4_7 
REMARK       I    between atoms: C4_7  and  N2_8 
REMARK       I    between atoms: C4_7  and  N4_12 
REMARK    4  A    between atoms: N4_12  and  N5_14 
REMARK    5  A    between atoms: N5_14  and  C6_16 
REMARK    6  A    between atoms: C6_16  and  C8_18 
REMARK    7  A    between atoms: N7_23  and  C10_24 
REMARK    8  A    between atoms: C11_30  and  N10_31 
REMARK    9  A    between atoms: C12_34  and  O3_35 
REMARK   10  A    between atoms: N11_37  and  O4_38 
REMARK   11  A    between atoms: N11_37  and  N12_40 
REMARK   12  A    between atoms: N12_40  and  N13_41 
ROOT
HETATM    1  N1  UNL     1      -3.770 -43.997  22.802  1.00  0.00    -0.195 N 
ATOM      2  H1  UNL     1      -4.111 -43.059  22.593  1.00  0.00     0.180 HD
HETATM    3  C4  UNL     1      -2.375 -44.264  22.730  1.00  0.00     0.703 C 
HETATM    4  N2  UNL     1      -1.818 -44.167  21.563  1.00  0.00    -0.125 N 
ATOM      5  H2  UNL     1      -2.394 -43.909  20.762  1.00  0.00     0.197 HD
HETATM    6  C5  UNL     1      -0.455 -44.404  21.365  1.00  0.00     0.196 C 
HETATM    7  N3  UNL     1       0.684 -44.614  21.215  1.00  0.00    -0.171 NA
HETATM    8  N4  UNL     1      -1.618 -44.619  23.876  1.00  0.00    -0.131 N 
ATOM      9  H4  UNL     1      -1.424 -45.598  24.090  1.00  0.00     0.205 HD
ENDROOT
BRANCH   1  10
HETATM   10  C3  UNL     1      -4.707 -45.020  23.162  1.00  0.00     0.308 C 
BRANCH  10  11
HETATM   11  C2  UNL     1      -5.040 -44.949  24.596  1.00  0.00     0.165 C 
HETATM   12  C1  UNL     1      -4.575 -45.942  25.595  1.00  0.00     0.095 C 
HETATM   13  O1  UNL     1      -5.732 -44.036  25.003  1.00  0.00    -0.294 OA
ENDBRANCH  10  11
BRANCH  10  14
HETATM   14  N11 UNL     1      -5.924 -44.968  22.362  1.00  0.00     0.014 NA
BRANCH  14  15
HETATM   15  O4  UNL     1      -6.840 -45.775  22.944  1.00  0.00    -0.280 OA
ATOM     16  H4  UNL     1      -6.708 -46.655  22.610  1.00  0.00     0.240 HD
ENDBRANCH  14  15
BRANCH  14  17
HETATM   17  N12 UNL     1      -6.403 -43.721  22.252  1.00  0.00    -0.242 NA
BRANCH  17  18
HETATM   18  N13 UNL     1      -6.804 -42.682  22.165  1.00  0.00    -0.264 N 
ATOM     19 2H13 UNL     1      -6.308 -43.569  22.080  1.00  0.00     0.193 HD
ATOM     20 1H13 UNL     1      -7.173 -41.734  22.088  1.00  0.00     0.193 HD
ENDBRANCH  17  18
ENDBRANCH  14  17
ENDBRANCH  10  14
ENDBRANCH   1  10
BRANCH   8  21
HETATM   21  N5  UNL     1      -1.143 -43.601  24.705  1.00  0.00    -0.289 N 
ATOM     22  H5  UNL     1      -0.266 -43.130  24.484  1.00  0.00     0.187 HD
BRANCH  21  23
HETATM   23  C6  UNL     1      -1.808 -43.259  25.738  1.00  0.00     0.053 C 
HETATM   24  C7  UNL     1      -1.653 -44.002  26.999  1.00  0.00     0.072 C 
BRANCH  23  25
HETATM   25  C8  UNL     1      -2.719 -42.136  25.679  1.00  0.00     0.110 A 
HETATM   26  N6  UNL     1      -3.872 -42.000  26.365  1.00  0.00    -0.331 N 
HETATM   27  C9  UNL     1      -4.430 -40.806  26.030  1.00  0.00     0.166 A 
ATOM     28  H6  UNL     1      -4.259 -42.676  27.024  1.00  0.00     0.168 HD
HETATM   29  S1  UNL     1      -5.972 -40.240  26.721  1.00  0.00    -0.012 SA
HETATM   30  N7  UNL     1      -3.642 -40.186  25.139  1.00  0.00    -0.250 N 
HETATM   31  C12 UNL     1      -2.590 -40.976  24.907  1.00  0.00     0.180 A 
BRANCH  30  32
HETATM   32  C10 UNL     1      -3.920 -38.918  24.574  1.00  0.00     0.184 A 
HETATM   33  N8  UNL     1      -4.744 -38.631  23.552  1.00  0.00    -0.221 N 
HETATM   34  O2  UNL     1      -4.729 -37.357  23.329  1.00  0.00    -0.153 OA
ATOM     35  H8  UNL     1      -5.297 -39.314  23.032  1.00  0.00     0.198 HD
HETATM   36  N9  UNL     1      -3.935 -36.780  24.153  1.00  0.00    -0.222 N 
HETATM   37  C11 UNL     1      -3.396 -37.704  24.959  1.00  0.00     0.168 A 
ATOM     38  H9  UNL     1      -3.744 -35.779  24.188  1.00  0.00     0.198 HD
BRANCH  37  39
HETATM   39  N10 UNL     1      -2.535 -37.489  25.930  1.00  0.00    -0.381 N 
ATOM     40 2H10 UNL     1      -1.762 -38.098  26.202  1.00  0.00     0.157 HD
ATOM     41 1H10 UNL     1      -2.508 -36.684  26.557  1.00  0.00     0.157 HD
ENDBRANCH  37  39
ENDBRANCH  30  32
BRANCH  31  42
HETATM   42  O3  UNL     1      -1.520 -40.739  24.055  1.00  0.00    -0.344 OA
ATOM     43  H3  UNL     1      -1.410 -39.933  23.565  1.00  0.00     0.219 HD
ENDBRANCH  31  42
ENDBRANCH  23  25
ENDBRANCH  21  23
ENDBRANCH   8  21
TORSDOF 12
ENDMDL
MODEL 5
REMARK VINA RESULT: -6.725862047      4.212      7.789
REMARK  12 active torsions:
REMARK  status: ('A' for Active; 'I' for Inactive)
REMARK    1  A    between atoms: C2_2  and  C3_4 
REMARK    2  A    between atoms: C3_4  and  N1_5 
REMARK    3  A    between atoms: C3_4  and  N11_37 
REMARK       I    between atoms: N1_5  and  C4_7 
REMARK       I    between atoms: C4_7  and  N2_8 
REMARK       I    between atoms: C4_7  and  N4_12 
REMARK    4  A    between atoms: N4_12  and  N5_14 
REMARK    5  A    between atoms: N5_14  and  C6_16 
REMARK    6  A    between atoms: C6_16  and  C8_18 
REMARK    7  A    between atoms: N7_23  and  C10_24 
REMARK    8  A    between atoms: C11_30  and  N10_31 
REMARK    9  A    between atoms: C12_34  and  O3_35 
REMARK   10  A    between atoms: N11_37  and  O4_38 
REMARK   11  A    between atoms: N11_37  and  N12_40 
REMARK   12  A    between atoms: N12_40  and  N13_41 
ROOT
HETATM    1  N1  UNL     1      -3.166 -39.229  23.794  1.00  0.00    -0.195 N 
ATOM      2  H1  UNL     1      -2.516 -38.571  23.364  1.00  0.00     0.180 HD
HETATM    3  C4  UNL     1      -2.740 -40.560  24.055  1.00  0.00     0.703 C 
HETATM    4  N2  UNL     1      -2.451 -41.297  23.026  1.00  0.00    -0.125 N 
ATOM      5  H2  UNL     1      -2.541 -40.896  22.093  1.00  0.00     0.197 HD
HETATM    6  C5  UNL     1      -2.021 -42.620  23.154  1.00  0.00     0.196 C 
HETATM    7  N3  UNL     1      -1.670 -43.728  23.277  1.00  0.00    -0.171 NA
HETATM    8  N4  UNL     1      -2.631 -41.070  25.374  1.00  0.00    -0.131 N 
ATOM      9  H4  UNL     1      -3.387 -41.620  25.785  1.00  0.00     0.205 HD
ENDROOT
BRANCH   1  10
HETATM   10  C3  UNL     1      -4.491 -38.793  24.122  1.00  0.00     0.308 C 
BRANCH  10  11
HETATM   11  C2  UNL     1      -4.707 -38.813  25.580  1.00  0.00     0.165 C 
HETATM   12  C1  UNL     1      -5.659 -39.729  26.255  1.00  0.00     0.095 C 
HETATM   13  O1  UNL     1      -4.081 -38.046  26.285  1.00  0.00    -0.294 OA
ENDBRANCH  10  11
BRANCH  10  14
HETATM   14  N11 UNL     1      -4.791 -37.470  23.590  1.00  0.00     0.014 NA
BRANCH  14  15
HETATM   15  O4  UNL     1      -5.982 -37.077  24.096  1.00  0.00    -0.280 OA
ATOM     16  H4  UNL     1      -6.580 -36.947  23.369  1.00  0.00     0.240 HD
ENDBRANCH  14  15
BRANCH  14  17
HETATM   17  N12 UNL     1      -3.838 -36.577  23.890  1.00  0.00    -0.242 NA
BRANCH  17  18
HETATM   18  N13 UNL     1      -3.039 -35.836  24.139  1.00  0.00    -0.264 N 
ATOM     19 2H13 UNL     1      -3.632 -36.655  24.008  1.00  0.00     0.193 HD
ATOM     20 1H13 UNL     1      -2.313 -35.156  24.365  1.00  0.00     0.193 HD
ENDBRANCH  17  18
ENDBRANCH  14  17
ENDBRANCH  10  14
ENDBRANCH   1  10
BRANCH   8  21
HETATM   21  N5  UNL     1      -1.467 -40.804  26.098  1.00  0.00    -0.289 N 
ATOM     22  H5  UNL     1      -0.558 -41.066  25.718  1.00  0.00     0.187 HD
BRANCH  21  23
HETATM   23  C6  UNL     1      -1.542 -40.233  27.236  1.00  0.00     0.053 C 
HETATM   24  C7  UNL     1      -2.380 -40.809  28.301  1.00  0.00     0.072 C 
BRANCH  23  25
HETATM   25  C8  UNL     1      -0.802 -39.016  27.489  1.00  0.00     0.110 A 
HETATM   26  N6  UNL     1      -0.096 -38.721  28.599  1.00  0.00    -0.331 N 
HETATM   27  C9  UNL     1       0.448 -37.484  28.443  1.00  0.00     0.166 A 
ATOM     28  H6  UNL     1       0.013 -39.322  29.416  1.00  0.00     0.168 HD
HETATM   29  S1  UNL     1       1.462 -36.717  29.693  1.00  0.00    -0.012 SA
HETATM   30  N7  UNL     1       0.093 -36.994  27.247  1.00  0.00    -0.250 N 
HETATM   31  C12 UNL     1      -0.671 -37.909  26.643  1.00  0.00     0.180 A 
BRANCH  30  32
HETATM   32  C10 UNL     1       0.485 -35.725  26.755  1.00  0.00     0.184 A 
HETATM   33  N8  UNL     1       0.095 -34.515  27.189  1.00  0.00    -0.221 N 
HETATM   34  O2  UNL     1       0.673 -33.597  26.484  1.00  0.00    -0.153 OA
ATOM     35  H8  UNL     1      -0.556 -34.346  27.956  1.00  0.00     0.198 HD
HETATM   36  N9  UNL     1       1.429 -34.136  25.601  1.00  0.00    -0.222 N 
HETATM   37  C11 UNL     1       1.355 -35.468  25.719  1.00  0.00     0.168 A 
ATOM     38  H9  UNL     1       1.996 -33.633  24.919  1.00  0.00     0.198 HD
BRANCH  37  39
HETATM   39  N10 UNL     1       1.992 -36.356  24.985  1.00  0.00    -0.381 N 
ATOM     40 2H10 UNL     1       1.916 -37.371  25.058  1.00  0.00     0.157 HD
ATOM     41 1H10 UNL     1       2.656 -36.165  24.234  1.00  0.00     0.157 HD
ENDBRANCH  37  39
ENDBRANCH  30  32
BRANCH  31  42
HETATM   42  O3  UNL     1      -1.261 -37.830  25.389  1.00  0.00    -0.344 OA
ATOM     43  H3  UNL     1      -1.171 -37.080  24.814  1.00  0.00     0.219 HD
ENDBRANCH  31  42
ENDBRANCH  23  25
ENDBRANCH  21  23
ENDBRANCH   8  21
TORSDOF 12
ENDMDL
