MODEL 1
REMARK VINA RESULT: -6.542980576      0.000      0.000
REMARK  6 active torsions:
REMARK  status: ('A' for Active; 'I' for Inactive)
REMARK    1  A    between atoms: S1_2  and  O1_3 
REMARK    2  A    between atoms: O1_3  and  C2_4 
REMARK    3  A    between atoms: C8_12  and  C9_13 
REMARK    4  A    between atoms: C9_13  and  O4_14 
REMARK    5  A    between atoms: C9_13  and  C10_16 
REMARK    6  A    between atoms: C10_16  and  O5_17 
ROOT
HETATM    1  C2  UNL     1      -4.891   2.165  13.950  1.00  0.00     0.169 C 
HETATM    2  C3  UNL     1      -4.547   3.170  12.845  1.00  0.00     0.045 C 
HETATM    3  C4  UNL     1      -3.156   3.631  13.071  1.00  0.00     0.043 C 
HETATM    4  C5  UNL     1      -2.644   4.735  12.231  1.00  0.00     0.175 C 
HETATM    5  O2  UNL     1      -1.986   5.642  13.064  1.00  0.00    -0.388 OA
HETATM    6  C6  UNL     1      -1.907   5.044  14.342  1.00  0.00     0.199 C 
HETATM    7  C7  UNL     1      -3.243   4.377  14.420  1.00  0.00     0.152 C 
HETATM    8  O3  UNL     1      -3.345   3.396  15.356  1.00  0.00    -0.373 OA
HETATM    9  C8  UNL     1      -4.531   2.667  15.301  1.00  0.00     0.183 C 
ENDROOT
BRANCH   9  10
HETATM   10  C9  UNL     1      -4.459   1.689  16.422  1.00  0.00     0.173 C 
BRANCH  10  11
HETATM   11  O4  UNL     1      -3.492   0.727  16.355  1.00  0.00    -0.391 OA
ATOM     12  H4  UNL     1      -3.530   0.119  15.626  1.00  0.00     0.210 HD
ENDBRANCH  10  11
BRANCH  10  13
HETATM   13  C10 UNL     1      -5.775   1.055  16.811  1.00  0.00     0.198 C 
BRANCH  13  14
HETATM   14  O5  UNL     1      -5.592  -0.327  17.018  1.00  0.00    -0.398 OA
ATOM     15  H5  UNL     1      -5.924  -0.808  16.269  1.00  0.00     0.209 HD
ENDBRANCH  13  14
ENDBRANCH  10  13
ENDBRANCH   9  10
BRANCH   1  16
HETATM   16  O1  UNL     1      -4.399   0.907  13.638  1.00  0.00    -0.312 OA
BRANCH  16  17
HETATM   17  S1  UNL     1      -4.319   0.458  12.045  1.00  0.00    -0.016 SA
HETATM   18  C1  UNL     1      -4.062  -1.321  11.798  1.00  0.00     0.123 C 
ENDBRANCH  16  17
ENDBRANCH   1  16
TORSDOF 6
ENDMDL
MODEL 2
REMARK VINA RESULT: -6.032845760      2.354      5.188
REMARK  6 active torsions:
REMARK  status: ('A' for Active; 'I' for Inactive)
REMARK    1  A    between atoms: S1_2  and  O1_3 
REMARK    2  A    between atoms: O1_3  and  C2_4 
REMARK    3  A    between atoms: C8_12  and  C9_13 
REMARK    4  A    between atoms: C9_13  and  O4_14 
REMARK    5  A    between atoms: C9_13  and  C10_16 
REMARK    6  A    between atoms: C10_16  and  O5_17 
ROOT
HETATM    1  C2  UNL     1      -4.320   3.668  13.808  1.00  0.00     0.169 C 
HETATM    2  C3  UNL     1      -5.021   3.431  15.150  1.00  0.00     0.045 C 
HETATM    3  C4  UNL     1      -4.366   2.270  15.802  1.00  0.00     0.043 C 
HETATM    4  C5  UNL     1      -4.971   1.735  17.040  1.00  0.00     0.175 C 
HETATM    5  O2  UNL     1      -5.009   0.343  16.935  1.00  0.00    -0.388 OA
HETATM    6  C6  UNL     1      -4.278  -0.002  15.775  1.00  0.00     0.199 C 
HETATM    7  C7  UNL     1      -4.690   1.098  14.850  1.00  0.00     0.152 C 
HETATM    8  O3  UNL     1      -3.876   1.284  13.777  1.00  0.00    -0.373 OA
HETATM    9  C8  UNL     1      -4.169   2.417  13.021  1.00  0.00     0.183 C 
ENDROOT
BRANCH   9  10
HETATM   10  C9  UNL     1      -3.203   2.410  11.886  1.00  0.00     0.173 C 
BRANCH  10  11
HETATM   11  O4  UNL     1      -1.887   2.624  12.180  1.00  0.00    -0.391 OA
ATOM     12  H4  UNL     1      -1.283   2.700  11.451  1.00  0.00     0.210 HD
ENDBRANCH  10  11
BRANCH  10  13
HETATM   13  C10 UNL     1      -3.598   3.254  10.697  1.00  0.00     0.198 C 
BRANCH  13  14
HETATM   14  O5  UNL     1      -4.730   2.693  10.072  1.00  0.00    -0.398 OA
ATOM     15  H5  UNL     1      -4.999   3.243   9.346  1.00  0.00     0.209 HD
ENDBRANCH  13  14
ENDBRANCH  10  13
ENDBRANCH   9  10
BRANCH   1  16
HETATM   16  O1  UNL     1      -3.155   4.398  13.986  1.00  0.00    -0.312 OA
BRANCH  16  17
HETATM   17  S1  UNL     1      -3.206   6.041  13.779  1.00  0.00    -0.016 SA
HETATM   18  C1  UNL     1      -4.154   6.567  12.324  1.00  0.00     0.123 C 
ENDBRANCH  16  17
ENDBRANCH   1  16
TORSDOF 6
ENDMDL
MODEL 3
REMARK VINA RESULT: -5.925482490      2.361      3.757
REMARK  6 active torsions:
REMARK  status: ('A' for Active; 'I' for Inactive)
REMARK    1  A    between atoms: S1_2  and  O1_3 
REMARK    2  A    between atoms: O1_3  and  C2_4 
REMARK    3  A    between atoms: C8_12  and  C9_13 
REMARK    4  A    between atoms: C9_13  and  O4_14 
REMARK    5  A    between atoms: C9_13  and  C10_16 
REMARK    6  A    between atoms: C10_16  and  O5_17 
ROOT
HETATM    1  C2  UNL     1      -4.369   2.799  14.657  1.00  0.00     0.169 C 
HETATM    2  C3  UNL     1      -4.004   3.213  13.228  1.00  0.00     0.045 C 
HETATM    3  C4  UNL     1      -4.702   2.291  12.299  1.00  0.00     0.043 C 
HETATM    4  C5  UNL     1      -4.379   2.378  10.859  1.00  0.00     0.175 C 
HETATM    5  O2  UNL     1      -4.203   1.079  10.377  1.00  0.00    -0.388 OA
HETATM    6  C6  UNL     1      -4.595   0.200  11.412  1.00  0.00     0.199 C 
HETATM    7  C7  UNL     1      -4.059   0.921  12.607  1.00  0.00     0.152 C 
HETATM    8  O3  UNL     1      -4.596   0.542  13.798  1.00  0.00    -0.373 OA
HETATM    9  C8  UNL     1      -4.220   1.337  14.878  1.00  0.00     0.183 C 
ENDROOT
BRANCH   9  10
HETATM   10  C9  UNL     1      -4.872   0.733  16.074  1.00  0.00     0.173 C 
BRANCH  10  11
HETATM   11  O4  UNL     1      -5.053  -0.621  16.074  1.00  0.00    -0.391 OA
ATOM     12  H4  UNL     1      -5.325  -1.025  16.889  1.00  0.00     0.210 HD
ENDBRANCH  10  11
BRANCH  10  13
HETATM   13  C10 UNL     1      -6.144   1.412  16.527  1.00  0.00     0.198 C 
BRANCH  13  14
HETATM   14  O5  UNL     1      -7.140   0.444  16.761  1.00  0.00    -0.398 OA
ATOM     15  H5  UNL     1      -7.554   0.608  17.600  1.00  0.00     0.209 HD
ENDBRANCH  13  14
ENDBRANCH  10  13
ENDBRANCH   9  10
BRANCH   1  16
HETATM   16  O1  UNL     1      -5.599   3.328  15.021  1.00  0.00    -0.312 OA
BRANCH  16  17
HETATM   17  S1  UNL     1      -5.801   4.971  14.977  1.00  0.00    -0.016 SA
HETATM   18  C1  UNL     1      -6.712   5.559  13.523  1.00  0.00     0.123 C 
ENDBRANCH  16  17
ENDBRANCH   1  16
TORSDOF 6
ENDMDL
MODEL 4
REMARK VINA RESULT: -5.899438868      2.586      4.308
REMARK  6 active torsions:
REMARK  status: ('A' for Active; 'I' for Inactive)
REMARK    1  A    between atoms: S1_2  and  O1_3 
REMARK    2  A    between atoms: O1_3  and  C2_4 
REMARK    3  A    between atoms: C8_12  and  C9_13 
REMARK    4  A    between atoms: C9_13  and  O4_14 
REMARK    5  A    between atoms: C9_13  and  C10_16 
REMARK    6  A    between atoms: C10_16  and  O5_17 
ROOT
HETATM    1  C2  UNL     1      -4.281   1.667  14.566  1.00  0.00     0.169 C 
HETATM    2  C3  UNL     1      -4.399   2.932  15.423  1.00  0.00     0.045 C 
HETATM    3  C4  UNL     1      -5.627   3.650  15.001  1.00  0.00     0.043 C 
HETATM    4  C5  UNL     1      -5.876   4.993  15.566  1.00  0.00     0.175 C 
HETATM    5  O2  UNL     1      -6.265   5.835  14.522  1.00  0.00    -0.388 OA
HETATM    6  C6  UNL     1      -6.452   5.018  13.383  1.00  0.00     0.199 C 
HETATM    7  C7  UNL     1      -5.320   4.056  13.543  1.00  0.00     0.152 C 
HETATM    8  O3  UNL     1      -5.435   2.905  12.828  1.00  0.00    -0.373 OA
HETATM    9  C8  UNL     1      -4.467   1.946  13.118  1.00  0.00     0.183 C 
ENDROOT
BRANCH   9  10
HETATM   10  C9  UNL     1      -4.744   0.800  12.209  1.00  0.00     0.173 C 
BRANCH  10  11
HETATM   11  O4  UNL     1      -4.344  -0.440  12.620  1.00  0.00    -0.391 OA
ATOM     12  H4  UNL     1      -4.966  -1.152  12.530  1.00  0.00     0.210 HD
ENDBRANCH  10  11
BRANCH  10  13
HETATM   13  C10 UNL     1      -4.342   1.007  10.767  1.00  0.00     0.198 C 
BRANCH  13  14
HETATM   14  O5  UNL     1      -4.939   2.184  10.273  1.00  0.00    -0.398 OA
ATOM     15  H5  UNL     1      -5.519   1.970   9.552  1.00  0.00     0.209 HD
ENDBRANCH  13  14
ENDBRANCH  10  13
ENDBRANCH   9  10
BRANCH   1  16
HETATM   16  O1  UNL     1      -5.076   0.653  15.078  1.00  0.00    -0.312 OA
BRANCH  16  17
HETATM   17  S1  UNL     1      -5.391   0.635  16.705  1.00  0.00    -0.016 SA
HETATM   18  C1  UNL     1      -7.106   1.050  17.124  1.00  0.00     0.123 C 
ENDBRANCH  16  17
ENDBRANCH   1  16
TORSDOF 6
ENDMDL
MODEL 5
REMARK VINA RESULT: -5.863971914      2.381      5.174
REMARK  6 active torsions:
REMARK  status: ('A' for Active; 'I' for Inactive)
REMARK    1  A    between atoms: S1_2  and  O1_3 
REMARK    2  A    between atoms: O1_3  and  C2_4 
REMARK    3  A    between atoms: C8_12  and  C9_13 
REMARK    4  A    between atoms: C9_13  and  O4_14 
REMARK    5  A    between atoms: C9_13  and  C10_16 
REMARK    6  A    between atoms: C10_16  and  O5_17 
ROOT
HETATM    1  C2  UNL     1      -5.082   3.259  13.112  1.00  0.00     0.169 C 
HETATM    2  C3  UNL     1      -5.318   3.312  14.625  1.00  0.00     0.045 C 
HETATM    3  C4  UNL     1      -4.405   2.331  15.260  1.00  0.00     0.043 C 
HETATM    4  C5  UNL     1      -4.558   2.071  16.707  1.00  0.00     0.175 C 
HETATM    5  O2  UNL     1      -4.513   0.690  16.905  1.00  0.00    -0.388 OA
HETATM    6  C6  UNL     1      -4.145   0.109  15.669  1.00  0.00     0.199 C 
HETATM    7  C7  UNL     1      -4.907   0.975  14.718  1.00  0.00     0.152 C 
HETATM    8  O3  UNL     1      -4.478   0.932  13.428  1.00  0.00    -0.373 OA
HETATM    9  C8  UNL     1      -5.077   1.869  12.589  1.00  0.00     0.183 C 
ENDROOT
BRANCH   9  10
HETATM   10  C9  UNL     1      -4.506   1.626  11.235  1.00  0.00     0.173 C 
BRANCH  10  11
HETATM   11  O4  UNL     1      -4.825   2.516  10.250  1.00  0.00    -0.391 OA
ATOM     12  H4  UNL     1      -5.745   2.627  10.042  1.00  0.00     0.210 HD
ENDBRANCH  10  11
BRANCH  10  13
HETATM   13  C10 UNL     1      -4.662   0.217  10.712  1.00  0.00     0.198 C 
BRANCH  13  14
HETATM   14  O5  UNL     1      -4.704   0.236   9.303  1.00  0.00    -0.398 OA
ATOM     15  H5  UNL     1      -4.893   1.117   9.002  1.00  0.00     0.209 HD
ENDBRANCH  13  14
ENDBRANCH  10  13
ENDBRANCH   9  10
BRANCH   1  16
HETATM   16  O1  UNL     1      -3.980   4.025  12.762  1.00  0.00    -0.312 OA
BRANCH  16  17
HETATM   17  S1  UNL     1      -4.061   5.669  12.956  1.00  0.00    -0.016 SA
HETATM   18  C1  UNL     1      -2.961   6.309  14.249  1.00  0.00     0.123 C 
ENDBRANCH  16  17
ENDBRANCH   1  16
TORSDOF 6
ENDMDL
