MODEL 1
REMARK VINA RESULT: -6.189101095      0.000      0.000
REMARK  4 active torsions:
REMARK  status: ('A' for Active; 'I' for Inactive)
REMARK    1  A    between atoms: C1_2  and  O2_4 
REMARK    2  A    between atoms: O2_4  and  C2_5 
REMARK    3  A    between atoms: C2_5  and  C3_6 
REMARK    4  A    between atoms: C4_8  and  O3_9 
ROOT
HETATM    1  C3  UNL     1      13.793   1.376 -36.498  1.00  0.00     0.020 A 
HETATM    2  S1  UNL     1      13.171   0.194 -37.594  1.00  0.00    -0.065 SA
HETATM    3  C4  UNL     1      14.636  -0.373 -38.216  1.00  0.00     0.135 A 
HETATM    4  C5  UNL     1      15.593   0.358 -37.567  1.00  0.00     0.078 A 
HETATM    5  C6  UNL     1      15.140   1.281 -36.665  1.00  0.00     0.006 A 
HETATM    6  C7  UNL     1      16.103   2.163 -35.904  1.00  0.00     0.041 C 
HETATM    7  C8  UNL     1      17.099   2.841 -36.840  1.00  0.00     0.053 C 
HETATM    8  C9  UNL     1      16.843   4.354 -36.910  1.00  0.00     0.234 C 
HETATM    9  N2  UNL     1      17.211   4.920 -35.655  1.00  0.00    -0.075 N 
ATOM     10  H21 UNL     1      16.893   5.886 -35.563  1.00  0.00     0.277 HD
ATOM     11  H22 UNL     1      18.216   5.086 -35.590  1.00  0.00     0.277 HD
HETATM   12  C10 UNL     1      16.737   4.100 -34.591  1.00  0.00     0.234 C 
HETATM   13  C11 UNL     1      15.514   3.243 -35.108  1.00  0.00     0.053 C 
HETATM   14  S2  UNL     1      17.038   1.069 -34.786  1.00  0.00    -0.152 SA
HETATM   15  C12 UNL     1      17.868  -0.269 -35.612  1.00  0.00     0.094 C 
HETATM   16  C13 UNL     1      18.138  -0.083 -37.064  1.00  0.00     0.130 C 
HETATM   17  N3  UNL     1      16.975   0.020 -37.902  1.00  0.00    -0.386 N 
ATOM     18  H3  UNL     1      17.141  -0.176 -38.889  1.00  0.00     0.159 HD
ENDROOT
BRANCH   1  19
HETATM   19  C2  UNL     1      12.944   2.246 -35.607  1.00  0.00     0.227 C 
BRANCH  19  20
HETATM   20  O2  UNL     1      11.652   2.341 -36.294  1.00  0.00    -0.301 OA
BRANCH  20  21
HETATM   21  C1  UNL     1      11.251   3.524 -36.846  1.00  0.00     0.372 C 
HETATM   22  N1  UNL     1      10.214   4.291 -36.248  1.00  0.00    -0.032 NA
HETATM   23  O1  UNL     1      11.847   3.899 -37.909  1.00  0.00    -0.242 OA
ENDBRANCH  20  21
ENDBRANCH  19  20
ENDBRANCH   1  19
BRANCH   3  24
HETATM   24  O3  UNL     1      14.815  -1.389 -39.199  1.00  0.00    -0.352 OA
ATOM     25  H3  UNL     1      15.443  -2.101 -39.177  1.00  0.00     0.218 HD
ENDBRANCH   3  24
TORSDOF 4
ENDMDL
MODEL 2
REMARK VINA RESULT: -6.139675163      1.276      1.396
REMARK  4 active torsions:
REMARK  status: ('A' for Active; 'I' for Inactive)
REMARK    1  A    between atoms: C1_2  and  O2_4 
REMARK    2  A    between atoms: O2_4  and  C2_5 
REMARK    3  A    between atoms: C2_5  and  C3_6 
REMARK    4  A    between atoms: C4_8  and  O3_9 
ROOT
HETATM    1  C3  UNL     1      13.174   1.575 -36.763  1.00  0.00     0.020 A 
HETATM    2  S1  UNL     1      12.810   0.589 -38.134  1.00  0.00    -0.065 SA
HETATM    3  C4  UNL     1      14.269  -0.259 -38.232  1.00  0.00     0.135 A 
HETATM    4  C5  UNL     1      15.022   0.229 -37.199  1.00  0.00     0.078 A 
HETATM    5  C6  UNL     1      14.439   1.198 -36.431  1.00  0.00     0.006 A 
HETATM    6  C7  UNL     1      15.183   1.828 -35.277  1.00  0.00     0.041 C 
HETATM    7  C8  UNL     1      16.569   2.306 -35.699  1.00  0.00     0.053 C 
HETATM    8  C9  UNL     1      16.647   3.840 -35.690  1.00  0.00     0.234 C 
HETATM    9  N2  UNL     1      16.604   4.274 -34.333  1.00  0.00    -0.075 N 
ATOM     10  H21 UNL     1      16.462   5.282 -34.258  1.00  0.00     0.277 HD
ATOM     11  H22 UNL     1      17.520   4.218 -33.885  1.00  0.00     0.277 HD
HETATM   12  C10 UNL     1      15.615   3.541 -33.616  1.00  0.00     0.234 C 
HETATM   13  C11 UNL     1      14.547   2.984 -34.639  1.00  0.00     0.053 C 
HETATM   14  S2  UNL     1      15.397   0.525 -34.022  1.00  0.00    -0.152 SA
HETATM   15  C12 UNL     1      16.214  -0.934 -34.627  1.00  0.00     0.094 C 
HETATM   16  C13 UNL     1      17.049  -0.764 -35.847  1.00  0.00     0.130 C 
HETATM   17  N3  UNL     1      16.338  -0.388 -37.037  1.00  0.00    -0.386 N 
ATOM     18  H3  UNL     1      16.829  -0.583 -37.909  1.00  0.00     0.159 HD
ENDROOT
BRANCH   1  19
HETATM   19  C2  UNL     1      12.227   2.578 -36.156  1.00  0.00     0.227 C 
BRANCH  19  20
HETATM   20  O2  UNL     1      11.738   3.369 -37.290  1.00  0.00    -0.301 OA
BRANCH  20  21
HETATM   21  C1  UNL     1      10.744   4.287 -37.112  1.00  0.00     0.372 C 
HETATM   22  N1  UNL     1      10.543   5.334 -38.053  1.00  0.00    -0.032 NA
HETATM   23  O1  UNL     1      10.016   4.159 -36.073  1.00  0.00    -0.242 OA
ENDBRANCH  20  21
ENDBRANCH  19  20
ENDBRANCH   1  19
BRANCH   3  24
HETATM   24  O3  UNL     1      14.617  -1.258 -39.186  1.00  0.00    -0.352 OA
ATOM     25  H3  UNL     1      14.282  -1.345 -40.071  1.00  0.00     0.218 HD
ENDBRANCH   3  24
TORSDOF 4
ENDMDL
MODEL 3
REMARK VINA RESULT: -5.776328975      2.853      4.821
REMARK  4 active torsions:
REMARK  status: ('A' for Active; 'I' for Inactive)
REMARK    1  A    between atoms: C1_2  and  O2_4 
REMARK    2  A    between atoms: O2_4  and  C2_5 
REMARK    3  A    between atoms: C2_5  and  C3_6 
REMARK    4  A    between atoms: C4_8  and  O3_9 
ROOT
HETATM    1  C3  UNL     1      16.097   0.165 -37.186  1.00  0.00     0.020 A 
HETATM    2  S1  UNL     1      15.150  -0.358 -38.532  1.00  0.00    -0.065 SA
HETATM    3  C4  UNL     1      13.621   0.056 -37.944  1.00  0.00     0.135 A 
HETATM    4  C5  UNL     1      13.860   0.598 -36.711  1.00  0.00     0.078 A 
HETATM    5  C6  UNL     1      15.168   0.648 -36.317  1.00  0.00     0.006 A 
HETATM    6  C7  UNL     1      15.553   1.204 -34.965  1.00  0.00     0.041 C 
HETATM    7  C8  UNL     1      14.729   0.575 -33.847  1.00  0.00     0.053 C 
HETATM    8  C9  UNL     1      15.604  -0.325 -32.960  1.00  0.00     0.234 C 
HETATM    9  N2  UNL     1      16.485   0.515 -32.217  1.00  0.00    -0.075 N 
ATOM     10  H21 UNL     1      17.219  -0.019 -31.751  1.00  0.00     0.277 HD
ATOM     11  H22 UNL     1      16.034   0.904 -31.389  1.00  0.00     0.277 HD
HETATM   12  C10 UNL     1      17.018   1.531 -33.061  1.00  0.00     0.234 C 
HETATM   13  C11 UNL     1      16.952   1.040 -34.562  1.00  0.00     0.053 C 
HETATM   14  S2  UNL     1      15.173   2.986 -35.008  1.00  0.00    -0.152 SA
HETATM   15  C12 UNL     1      13.484   3.355 -35.427  1.00  0.00     0.094 C 
HETATM   16  C13 UNL     1      12.496   2.265 -35.200  1.00  0.00     0.130 C 
HETATM   17  N3  UNL     1      12.680   1.086 -36.001  1.00  0.00    -0.386 N 
ATOM     18  H3  UNL     1      11.853   0.495 -36.088  1.00  0.00     0.159 HD
ENDROOT
BRANCH   1  19
HETATM   19  C2  UNL     1      17.599   0.067 -37.108  1.00  0.00     0.227 C 
BRANCH  19  20
HETATM   20  O2  UNL     1      18.092   1.021 -38.107  1.00  0.00    -0.301 OA
BRANCH  20  21
HETATM   21  C1  UNL     1      18.340   2.318 -37.757  1.00  0.00     0.372 C 
HETATM   22  N1  UNL     1      19.518   2.665 -37.041  1.00  0.00    -0.032 NA
HETATM   23  O1  UNL     1      17.473   3.187 -38.103  1.00  0.00    -0.242 OA
ENDBRANCH  20  21
ENDBRANCH  19  20
ENDBRANCH   1  19
BRANCH   3  24
HETATM   24  O3  UNL     1      12.371  -0.126 -38.603  1.00  0.00    -0.352 OA
ATOM     25  H3  UNL     1      12.170   0.066 -39.511  1.00  0.00     0.218 HD
ENDBRANCH   3  24
TORSDOF 4
ENDMDL
MODEL 4
REMARK VINA RESULT: -5.703017649      2.470      3.956
REMARK  4 active torsions:
REMARK  status: ('A' for Active; 'I' for Inactive)
REMARK    1  A    between atoms: C1_2  and  O2_4 
REMARK    2  A    between atoms: O2_4  and  C2_5 
REMARK    3  A    between atoms: C2_5  and  C3_6 
REMARK    4  A    between atoms: C4_8  and  O3_9 
ROOT
HETATM    1  C3  UNL     1      14.928   1.346 -35.962  1.00  0.00     0.020 A 
HETATM    2  S1  UNL     1      14.852   3.021 -36.378  1.00  0.00    -0.065 SA
HETATM    3  C4  UNL     1      16.245   3.110 -37.331  1.00  0.00     0.135 A 
HETATM    4  C5  UNL     1      16.754   1.841 -37.318  1.00  0.00     0.078 A 
HETATM    5  C6  UNL     1      16.056   0.917 -36.591  1.00  0.00     0.006 A 
HETATM    6  C7  UNL     1      16.534  -0.512 -36.484  1.00  0.00     0.041 C 
HETATM    7  C8  UNL     1      18.003  -0.582 -36.081  1.00  0.00     0.053 C 
HETATM    8  C9  UNL     1      18.157  -1.148 -34.661  1.00  0.00     0.234 C 
HETATM    9  N2  UNL     1      17.814  -2.531 -34.701  1.00  0.00    -0.075 N 
ATOM     10  H21 UNL     1      17.711  -2.926 -33.766  1.00  0.00     0.277 HD
ATOM     11  H22 UNL     1      18.592  -3.108 -35.023  1.00  0.00     0.277 HD
HETATM   12  C10 UNL     1      16.646  -2.722 -35.493  1.00  0.00     0.234 C 
HETATM   13  C11 UNL     1      15.825  -1.372 -35.532  1.00  0.00     0.053 C 
HETATM   14  S2  UNL     1      16.373  -1.241 -38.146  1.00  0.00    -0.152 SA
HETATM   15  C12 UNL     1      17.234  -0.341 -39.416  1.00  0.00     0.094 C 
HETATM   16  C13 UNL     1      18.344   0.540 -38.963  1.00  0.00     0.130 C 
HETATM   17  N3  UNL     1      17.958   1.640 -38.122  1.00  0.00    -0.386 N 
ATOM     18  H3  UNL     1      18.633   2.403 -38.079  1.00  0.00     0.159 HD
ENDROOT
BRANCH   1  19
HETATM   19  C2  UNL     1      13.917   0.633 -35.101  1.00  0.00     0.227 C 
BRANCH  19  20
HETATM   20  O2  UNL     1      12.805   1.579 -34.962  1.00  0.00    -0.301 OA
BRANCH  20  21
HETATM   21  C1  UNL     1      11.605   1.324 -35.560  1.00  0.00     0.372 C 
HETATM   22  N1  UNL     1      10.417   1.211 -34.789  1.00  0.00    -0.032 NA
HETATM   23  O1  UNL     1      11.606   1.195 -36.829  1.00  0.00    -0.242 OA
ENDBRANCH  20  21
ENDBRANCH  19  20
ENDBRANCH   1  19
BRANCH   3  24
HETATM   24  O3  UNL     1      16.758   4.263 -37.993  1.00  0.00    -0.352 OA
ATOM     25  H3  UNL     1      17.554   4.318 -38.509  1.00  0.00     0.218 HD
ENDBRANCH   3  24
TORSDOF 4
ENDMDL
MODEL 5
REMARK VINA RESULT: -5.693243946      1.513      1.677
REMARK  4 active torsions:
REMARK  status: ('A' for Active; 'I' for Inactive)
REMARK    1  A    between atoms: C1_2  and  O2_4 
REMARK    2  A    between atoms: O2_4  and  C2_5 
REMARK    3  A    between atoms: C2_5  and  C3_6 
REMARK    4  A    between atoms: C4_8  and  O3_9 
ROOT
HETATM    1  C3  UNL     1      13.422   1.327 -37.218  1.00  0.00     0.020 A 
HETATM    2  S1  UNL     1      13.223   0.247 -38.552  1.00  0.00    -0.065 SA
HETATM    3  C4  UNL     1      14.668  -0.616 -38.399  1.00  0.00     0.135 A 
HETATM    4  C5  UNL     1      15.289  -0.060 -37.314  1.00  0.00     0.078 A 
HETATM    5  C6  UNL     1      14.627   0.966 -36.699  1.00  0.00     0.006 A 
HETATM    6  C7  UNL     1      15.226   1.673 -35.505  1.00  0.00     0.041 C 
HETATM    7  C8  UNL     1      16.662   2.110 -35.776  1.00  0.00     0.053 C 
HETATM    8  C9  UNL     1      16.762   3.641 -35.866  1.00  0.00     0.234 C 
HETATM    9  N2  UNL     1      16.552   4.172 -34.560  1.00  0.00    -0.075 N 
ATOM     10  H21 UNL     1      16.417   5.183 -34.576  1.00  0.00     0.277 HD
ATOM     11  H22 UNL     1      17.401   4.142 -33.995  1.00  0.00     0.277 HD
HETATM   12  C10 UNL     1      15.467   3.499 -33.928  1.00  0.00     0.234 C 
HETATM   13  C11 UNL     1      14.531   2.876 -35.039  1.00  0.00     0.053 C 
HETATM   14  S2  UNL     1      15.255   0.463 -34.144  1.00  0.00    -0.152 SA
HETATM   15  C12 UNL     1      16.120  -1.042 -34.533  1.00  0.00     0.094 C 
HETATM   16  C13 UNL     1      17.108  -0.966 -35.643  1.00  0.00     0.130 C 
HETATM   17  N3  UNL     1      16.562  -0.672 -36.939  1.00  0.00    -0.386 N 
ATOM     18  H3  UNL     1      17.159  -0.933 -37.724  1.00  0.00     0.159 HD
ENDROOT
BRANCH   1  19
HETATM   19  C2  UNL     1      12.421   2.378 -36.812  1.00  0.00     0.227 C 
BRANCH  19  20
HETATM   20  O2  UNL     1      11.300   1.628 -36.234  1.00  0.00    -0.301 OA
BRANCH  20  21
HETATM   21  C1  UNL     1      10.674   2.083 -35.110  1.00  0.00     0.372 C 
HETATM   22  N1  UNL     1       9.785   1.246 -34.382  1.00  0.00    -0.032 NA
HETATM   23  O1  UNL     1      10.925   3.281 -34.752  1.00  0.00    -0.242 OA
ENDBRANCH  20  21
ENDBRANCH  19  20
ENDBRANCH   1  19
BRANCH   3  24
HETATM   24  O3  UNL     1      15.121  -1.683 -39.227  1.00  0.00    -0.352 OA
ATOM     25  H3  UNL     1      14.826  -2.586 -39.208  1.00  0.00     0.218 HD
ENDBRANCH   3  24
TORSDOF 4
ENDMDL
