MODEL 1
REMARK VINA RESULT: -7.431706407      0.000      0.000
REMARK  3 active torsions:
REMARK  status: ('A' for Active; 'I' for Inactive)
REMARK    1  A    between atoms: C5_12  and  C6_13 
REMARK    2  A    between atoms: C6_13  and  C7_14 
REMARK    3  A    between atoms: C9_20  and  N5_21 
ROOT
HETATM    1  N1  UNL     1      14.415  -0.312 -33.839  1.00  0.00    -0.196 NA
HETATM    2  C1  UNL     1      14.749   0.154 -34.846  1.00  0.00     0.075 C 
HETATM    3  C2  UNL     1      15.200   0.756 -36.124  1.00  0.00     0.202 C 
HETATM    4  C3  UNL     1      14.135   0.770 -37.123  1.00  0.00     0.140 C 
HETATM    5  N2  UNL     1      14.121  -0.314 -37.814  1.00  0.00    -0.382 N 
ATOM      6  H21 UNL     1      13.378  -0.305 -38.512  1.00  0.00     0.158 HD
ATOM      7  H22 UNL     1      14.867  -0.935 -37.496  1.00  0.00     0.158 HD
HETATM    8  O1  UNL     1      13.107   1.626 -37.562  1.00  0.00    -0.277 OA
HETATM    9  C4  UNL     1      12.421   2.620 -36.836  1.00  0.00     0.182 A 
HETATM   10  N3  UNL     1      11.205   2.996 -37.262  1.00  0.00    -0.324 N 
ATOM     11  H3  UNL     1      10.714   2.627 -38.076  1.00  0.00     0.169 HD
HETATM   12  C5  UNL     1      10.748   3.946 -36.424  1.00  0.00     0.093 A 
HETATM   13  N4  UNL     1      11.643   4.199 -35.457  1.00  0.00    -0.339 N 
ATOM     14  H4  UNL     1      11.554   4.870 -34.694  1.00  0.00     0.167 HD
HETATM   15  C8  UNL     1      12.688   3.379 -35.707  1.00  0.00     0.136 A 
HETATM   16  C9  UNL     1      13.832   3.433 -34.804  1.00  0.00     0.168 C 
HETATM   17  O4  UNL     1      15.087   2.793 -34.813  1.00  0.00    -0.321 OA
HETATM   18  C10 UNL     1      15.793   2.113 -35.836  1.00  0.00     0.093 C 
HETATM   19  C11 UNL     1      15.910   2.931 -37.089  1.00  0.00     0.040 C 
HETATM   20  C12 UNL     1      17.345   3.160 -37.499  1.00  0.00     0.003 C 
HETATM   21  C13 UNL     1      18.181   3.762 -36.408  1.00  0.00     0.000 C 
HETATM   22  C14 UNL     1      17.941   3.143 -35.064  1.00  0.00     0.003 C 
HETATM   23  C15 UNL     1      17.188   1.849 -35.265  1.00  0.00     0.040 C 
ENDROOT
BRANCH  16  24
HETATM   24  N5  UNL     1      13.667   4.220 -33.797  1.00  0.00    -0.378 N 
ATOM     25  H52 UNL     1      12.901   3.939 -33.186  1.00  0.00     0.158 HD
ATOM     26  H51 UNL     1      14.325   4.999 -33.768  1.00  0.00     0.158 HD
ENDBRANCH  16  24
BRANCH  12  27
HETATM   27  C6  UNL     1       9.440   4.607 -36.565  1.00  0.00     0.189 C 
BRANCH  27  28
HETATM   28  C7  UNL     1       9.172   5.038 -37.958  1.00  0.00     0.179 C 
HETATM   29  O2  UNL     1      10.017   5.773 -38.526  1.00  0.00    -0.648 OA
HETATM   30  O3  UNL     1       8.040   4.671 -38.660  1.00  0.00    -0.648 OA
ENDBRANCH  27  28
ENDBRANCH  12  27
TORSDOF 3
ENDMDL
MODEL 2
REMARK VINA RESULT: -7.243432531      3.430      6.798
REMARK  3 active torsions:
REMARK  status: ('A' for Active; 'I' for Inactive)
REMARK    1  A    between atoms: C5_12  and  C6_13 
REMARK    2  A    between atoms: C6_13  and  C7_14 
REMARK    3  A    between atoms: C9_20  and  N5_21 
ROOT
HETATM    1  N1  UNL     1      16.570   2.961 -33.382  1.00  0.00    -0.196 NA
HETATM    2  C1  UNL     1      16.065   3.252 -34.383  1.00  0.00     0.075 C 
HETATM    3  C2  UNL     1      15.394   3.620 -35.653  1.00  0.00     0.202 C 
HETATM    4  C3  UNL     1      16.357   3.883 -36.719  1.00  0.00     0.140 C 
HETATM    5  N2  UNL     1      16.722   5.116 -36.732  1.00  0.00    -0.382 N 
ATOM      6  H21 UNL     1      17.395   5.300 -37.477  1.00  0.00     0.158 HD
ATOM      7  H22 UNL     1      16.247   5.623 -35.985  1.00  0.00     0.158 HD
HETATM    8  O1  UNL     1      17.012   3.183 -37.751  1.00  0.00    -0.277 OA
HETATM    9  C4  UNL     1      17.335   1.813 -37.815  1.00  0.00     0.182 A 
HETATM   10  N3  UNL     1      18.333   1.431 -38.628  1.00  0.00    -0.324 N 
ATOM     11  H3  UNL     1      18.895   2.044 -39.217  1.00  0.00     0.169 HD
HETATM   12  C5  UNL     1      18.460   0.094 -38.526  1.00  0.00     0.093 A 
HETATM   13  N4  UNL     1      17.563  -0.406 -37.663  1.00  0.00    -0.339 N 
ATOM     14  H4  UNL     1      17.439  -1.384 -37.399  1.00  0.00     0.167 HD
HETATM   15  C8  UNL     1      16.858   0.657 -37.216  1.00  0.00     0.136 A 
HETATM   16  C9  UNL     1      15.795   0.416 -36.248  1.00  0.00     0.168 C 
HETATM   17  O4  UNL     1      14.838   1.259 -35.650  1.00  0.00    -0.321 OA
HETATM   18  C10 UNL     1      14.378   2.556 -35.988  1.00  0.00     0.093 C 
HETATM   19  C11 UNL     1      13.947   2.650 -37.424  1.00  0.00     0.040 C 
HETATM   20  C12 UNL     1      12.509   3.087 -37.568  1.00  0.00     0.003 C 
HETATM   21  C13 UNL     1      11.551   2.229 -36.795  1.00  0.00     0.000 C 
HETATM   22  C14 UNL     1      12.032   1.895 -35.415  1.00  0.00     0.003 C 
HETATM   23  C15 UNL     1      13.180   2.817 -35.075  1.00  0.00     0.040 C 
ENDROOT
BRANCH  16  24
HETATM   24  N5  UNL     1      15.710  -0.810 -35.859  1.00  0.00    -0.378 N 
ATOM     25  H52 UNL     1      16.440  -1.076 -35.199  1.00  0.00     0.158 HD
ATOM     26  H51 UNL     1      14.928  -1.321 -36.270  1.00  0.00     0.158 HD
ENDBRANCH  16  24
BRANCH  12  27
HETATM   27  C6  UNL     1      19.454  -0.697 -39.271  1.00  0.00     0.189 C 
BRANCH  27  28
HETATM   28  C7  UNL     1      18.891  -1.294 -40.506  1.00  0.00     0.179 C 
HETATM   29  O2  UNL     1      17.742  -0.940 -40.867  1.00  0.00    -0.648 OA
HETATM   30  O3  UNL     1      19.569  -2.220 -41.275  1.00  0.00    -0.648 OA
ENDBRANCH  27  28
ENDBRANCH  12  27
TORSDOF 3
ENDMDL
MODEL 3
REMARK VINA RESULT: -7.170249474      1.670      3.521
REMARK  3 active torsions:
REMARK  status: ('A' for Active; 'I' for Inactive)
REMARK    1  A    between atoms: C5_12  and  C6_13 
REMARK    2  A    between atoms: C6_13  and  C7_14 
REMARK    3  A    between atoms: C9_20  and  N5_21 
ROOT
HETATM    1  N1  UNL     1      17.113   3.444 -37.855  1.00  0.00    -0.196 NA
HETATM    2  C1  UNL     1      16.835   3.008 -36.818  1.00  0.00     0.075 C 
HETATM    3  C2  UNL     1      16.492   2.428 -35.498  1.00  0.00     0.202 C 
HETATM    4  C3  UNL     1      15.650   3.326 -34.713  1.00  0.00     0.140 C 
HETATM    5  N2  UNL     1      16.354   4.135 -34.004  1.00  0.00    -0.382 N 
ATOM      6  H21 UNL     1      15.766   4.763 -33.455  1.00  0.00     0.158 HD
ATOM      7  H22 UNL     1      17.346   3.956 -34.161  1.00  0.00     0.158 HD
HETATM    8  O1  UNL     1      14.280   3.573 -34.496  1.00  0.00    -0.277 OA
HETATM    9  C4  UNL     1      13.196   3.337 -35.364  1.00  0.00     0.182 A 
HETATM   10  N3  UNL     1      12.068   4.040 -35.180  1.00  0.00    -0.324 N 
ATOM     11  H3  UNL     1      11.909   4.744 -34.460  1.00  0.00     0.169 HD
HETATM   12  C5  UNL     1      11.181   3.650 -36.116  1.00  0.00     0.093 A 
HETATM   13  N4  UNL     1      11.709   2.705 -36.909  1.00  0.00    -0.339 N 
ATOM     14  H4  UNL     1      11.257   2.236 -37.695  1.00  0.00     0.167 HD
HETATM   15  C8  UNL     1      12.963   2.504 -36.447  1.00  0.00     0.136 A 
HETATM   16  C9  UNL     1      13.792   1.514 -37.125  1.00  0.00     0.168 C 
HETATM   17  O4  UNL     1      15.080   1.008 -36.867  1.00  0.00    -0.321 OA
HETATM   18  C10 UNL     1      15.901   1.057 -35.712  1.00  0.00     0.093 C 
HETATM   19  C11 UNL     1      15.182   0.578 -34.484  1.00  0.00     0.040 C 
HETATM   20  C12 UNL     1      15.879  -0.588 -33.824  1.00  0.00     0.003 C 
HETATM   21  C13 UNL     1      16.126  -1.734 -34.760  1.00  0.00     0.000 C 
HETATM   22  C14 UNL     1      16.628  -1.306 -36.106  1.00  0.00     0.003 C 
HETATM   23  C15 UNL     1      17.082   0.132 -36.009  1.00  0.00     0.040 C 
ENDROOT
BRANCH  16  24
HETATM   24  N5  UNL     1      13.239   0.996 -38.168  1.00  0.00    -0.378 N 
ATOM     25  H52 UNL     1      13.097  -0.011 -38.092  1.00  0.00     0.158 HD
ATOM     26  H51 UNL     1      13.032   1.671 -38.905  1.00  0.00     0.158 HD
ENDBRANCH  16  24
BRANCH  12  27
HETATM   27  C6  UNL     1       9.819   4.198 -36.238  1.00  0.00     0.189 C 
BRANCH  27  28
HETATM   28  C7  UNL     1       9.573   4.808 -37.567  1.00  0.00     0.179 C 
HETATM   29  O2  UNL     1      10.505   5.450 -38.109  1.00  0.00    -0.648 OA
HETATM   30  O3  UNL     1       8.368   4.703 -38.236  1.00  0.00    -0.648 OA
ENDBRANCH  27  28
ENDBRANCH  12  27
TORSDOF 3
ENDMDL
MODEL 4
REMARK VINA RESULT: -7.067053360      2.043      2.427
REMARK  3 active torsions:
REMARK  status: ('A' for Active; 'I' for Inactive)
REMARK    1  A    between atoms: C5_12  and  C6_13 
REMARK    2  A    between atoms: C6_13  and  C7_14 
REMARK    3  A    between atoms: C9_20  and  N5_21 
ROOT
HETATM    1  N1  UNL     1      16.156  -2.405 -35.418  1.00  0.00    -0.196 NA
HETATM    2  C1  UNL     1      16.261  -1.611 -36.256  1.00  0.00     0.075 C 
HETATM    3  C2  UNL     1      16.422  -0.592 -37.321  1.00  0.00     0.202 C 
HETATM    4  C3  UNL     1      15.155  -0.299 -37.986  1.00  0.00     0.140 C 
HETATM    5  N2  UNL     1      14.951  -1.087 -38.982  1.00  0.00    -0.382 N 
ATOM      6  H21 UNL     1      14.067  -0.882 -39.447  1.00  0.00     0.158 HD
ATOM      7  H22 UNL     1      15.731  -1.738 -39.071  1.00  0.00     0.158 HD
HETATM    8  O1  UNL     1      14.079   0.601 -37.863  1.00  0.00    -0.277 OA
HETATM    9  C4  UNL     1      13.608   1.256 -36.708  1.00  0.00     0.182 A 
HETATM   10  N3  UNL     1      12.338   1.689 -36.694  1.00  0.00    -0.324 N 
ATOM     11  H3  UNL     1      11.661   1.590 -37.450  1.00  0.00     0.169 HD
HETATM   12  C5  UNL     1      12.115   2.276 -35.502  1.00  0.00     0.093 A 
HETATM   13  N4  UNL     1      13.216   2.236 -34.737  1.00  0.00    -0.339 N 
ATOM     14  H4  UNL     1      13.325   2.606 -33.793  1.00  0.00     0.167 HD
HETATM   15  C8  UNL     1      14.151   1.603 -35.480  1.00  0.00     0.136 A 
HETATM   16  C9  UNL     1      15.473   1.410 -34.898  1.00  0.00     0.168 C 
HETATM   17  O4  UNL     1      16.673   0.877 -35.408  1.00  0.00    -0.321 OA
HETATM   18  C10 UNL     1      17.104   0.617 -36.732  1.00  0.00     0.093 C 
HETATM   19  C11 UNL     1      16.951   1.814 -37.626  1.00  0.00     0.040 C 
HETATM   20  C12 UNL     1      18.259   2.243 -38.248  1.00  0.00     0.003 C 
HETATM   21  C13 UNL     1      19.341   2.485 -37.238  1.00  0.00     0.000 C 
HETATM   22  C14 UNL     1      19.401   1.439 -36.167  1.00  0.00     0.003 C 
HETATM   23  C15 UNL     1      18.585   0.250 -36.617  1.00  0.00     0.040 C 
ENDROOT
BRANCH  16  24
HETATM   24  N5  UNL     1      15.568   1.803 -33.674  1.00  0.00    -0.378 N 
ATOM     25  H52 UNL     1      15.261   2.765 -33.534  1.00  0.00     0.158 HD
ATOM     26  H51 UNL     1      15.934   1.093 -33.039  1.00  0.00     0.158 HD
ENDBRANCH  16  24
BRANCH  12  27
HETATM   27  C6  UNL     1      10.829   2.877 -35.110  1.00  0.00     0.189 C 
BRANCH  27  28
HETATM   28  C7  UNL     1      10.591   4.183 -35.770  1.00  0.00     0.179 C 
HETATM   29  O2  UNL     1      10.516   4.211 -37.023  1.00  0.00    -0.648 OA
HETATM   30  O3  UNL     1      10.448   5.368 -35.075  1.00  0.00    -0.648 OA
ENDBRANCH  27  28
ENDBRANCH  12  27
TORSDOF 3
ENDMDL
MODEL 5
REMARK VINA RESULT: -6.885445575      2.269      3.655
REMARK  3 active torsions:
REMARK  status: ('A' for Active; 'I' for Inactive)
REMARK    1  A    between atoms: C5_12  and  C6_13 
REMARK    2  A    between atoms: C6_13  and  C7_14 
REMARK    3  A    between atoms: C9_20  and  N5_21 
ROOT
HETATM    1  N1  UNL     1      16.729  -0.320 -39.324  1.00  0.00    -0.196 NA
HETATM    2  C1  UNL     1      16.841   0.223 -38.307  1.00  0.00     0.075 C 
HETATM    3  C2  UNL     1      16.989   0.895 -36.994  1.00  0.00     0.202 C 
HETATM    4  C3  UNL     1      16.663   2.316 -37.071  1.00  0.00     0.140 C 
HETATM    5  N2  UNL     1      17.694   3.022 -37.378  1.00  0.00    -0.382 N 
ATOM      6  H21 UNL     1      17.466   4.015 -37.432  1.00  0.00     0.158 HD
ATOM      7  H22 UNL     1      18.504   2.414 -37.496  1.00  0.00     0.158 HD
HETATM    8  O1  UNL     1      15.544   3.156 -36.907  1.00  0.00    -0.277 OA
HETATM    9  C4  UNL     1      14.181   2.847 -37.081  1.00  0.00     0.182 A 
HETATM   10  N3  UNL     1      13.326   3.851 -37.329  1.00  0.00    -0.324 N 
ATOM     11  H3  UNL     1      13.567   4.839 -37.407  1.00  0.00     0.169 HD
HETATM   12  C5  UNL     1      12.093   3.323 -37.457  1.00  0.00     0.093 A 
HETATM   13  N4  UNL     1      12.126   1.992 -37.296  1.00  0.00    -0.339 N 
ATOM     14  H4  UNL     1      11.338   1.346 -37.341  1.00  0.00     0.167 HD
HETATM   15  C8  UNL     1      13.421   1.687 -37.061  1.00  0.00     0.136 A 
HETATM   16  C9  UNL     1      13.767   0.287 -36.845  1.00  0.00     0.168 C 
HETATM   17  O4  UNL     1      14.972  -0.358 -36.504  1.00  0.00    -0.321 OA
HETATM   18  C10 UNL     1      16.188   0.133 -35.968  1.00  0.00     0.093 C 
HETATM   19  C11 UNL     1      15.973   0.953 -34.729  1.00  0.00     0.040 C 
HETATM   20  C12 UNL     1      16.719   0.404 -33.536  1.00  0.00     0.003 C 
HETATM   21  C13 UNL     1      16.412  -1.038 -33.261  1.00  0.00     0.000 C 
HETATM   22  C14 UNL     1      16.377  -1.885 -34.498  1.00  0.00     0.003 C 
HETATM   23  C15 UNL     1      17.015  -1.107 -35.625  1.00  0.00     0.040 C 
ENDROOT
BRANCH  16  24
HETATM   24  N5  UNL     1      12.777  -0.525 -36.993  1.00  0.00    -0.378 N 
ATOM     25  H52 UNL     1      13.028  -1.383 -37.483  1.00  0.00     0.158 HD
ATOM     26  H51 UNL     1      11.900  -0.184 -36.599  1.00  0.00     0.158 HD
ENDBRANCH  16  24
BRANCH  12  27
HETATM   27  C6  UNL     1      10.884   4.117 -37.735  1.00  0.00     0.189 C 
BRANCH  27  28
HETATM   28  C7  UNL     1      10.281   4.678 -36.501  1.00  0.00     0.179 C 
HETATM   29  O2  UNL     1      10.637   4.203 -35.396  1.00  0.00    -0.648 OA
HETATM   30  O3  UNL     1       9.347   5.696 -36.512  1.00  0.00    -0.648 OA
ENDBRANCH  27  28
ENDBRANCH  12  27
TORSDOF 3
ENDMDL
