MODEL 1
REMARK VINA RESULT: -6.438609222      0.000      0.000
REMARK  7 active torsions:
REMARK  status: ('A' for Active; 'I' for Inactive)
REMARK    1  A    between atoms: N1_1  and  C1_5 
REMARK    2  A    between atoms: C1_5  and  C2_6 
REMARK    3  A    between atoms: N2_10  and  C6_11 
REMARK    4  A    between atoms: C6_11  and  O1_12 
REMARK    5  A    between atoms: C6_11  and  C7_14 
REMARK    6  A    between atoms: C8_15  and  O2_16 
REMARK    7  A    between atoms: N3_23  and  C13_24 
ROOT
HETATM    1  C7  UNL     1      24.870  37.225  20.321  1.00  0.00     0.121 A 
HETATM    2  C8  UNL     1      24.471  36.203  19.392  1.00  0.00     0.110 A 
HETATM    3  C9  UNL     1      23.581  35.337  19.998  1.00  0.00     0.034 A 
HETATM    4  C10 UNL     1      22.873  34.214  19.683  1.00  0.00     0.024 A 
HETATM    5  C11 UNL     1      22.089  33.673  20.656  1.00  0.00     0.053 A 
HETATM    6  S1  UNL     1      22.344  34.722  21.977  1.00  0.00    -0.083 SA
HETATM    7  C12 UNL     1      23.439  35.817  21.258  1.00  0.00     0.090 A 
HETATM    8  N3  UNL     1      24.220  36.951  21.424  1.00  0.00    -0.330 N 
ENDROOT
BRANCH   1   9
HETATM    9  C6  UNL     1      25.724  38.301  19.912  1.00  0.00     0.169 C 
BRANCH   9  10
HETATM   10  N2  UNL     1      25.466  39.666  19.886  1.00  0.00    -0.354 N 
HETATM   11  C2  UNL     1      26.414  40.756  19.998  1.00  0.00     0.111 C 
HETATM   12  C3  UNL     1      25.650  41.996  20.231  1.00  0.00     0.028 C 
HETATM   13  C4  UNL     1      24.335  41.505  20.797  1.00  0.00     0.022 C 
HETATM   14  C5  UNL     1      24.154  40.282  19.886  1.00  0.00     0.125 C 
BRANCH  11  15
HETATM   15  C1  UNL     1      27.394  40.823  18.873  1.00  0.00     0.254 C 
BRANCH  15  16
HETATM   16  N1  UNL     1      28.728  40.464  19.221  1.00  0.00    -0.077 N 
ATOM     17  H13 UNL     1      28.724  39.684  19.879  1.00  0.00     0.274 HD
ATOM     18  H12 UNL     1      29.194  40.024  18.427  1.00  0.00     0.274 HD
ATOM     19  H11 UNL     1      29.296  41.230  19.585  1.00  0.00     0.274 HD
ENDBRANCH  15  16
ENDBRANCH  11  15
ENDBRANCH   9  10
BRANCH   9  20
HETATM   20  O1  UNL     1      26.922  37.983  19.516  1.00  0.00    -0.344 OA
ATOM     21  H1  UNL     1      27.494  37.689  20.215  1.00  0.00     0.219 HD
ENDBRANCH   9  20
ENDBRANCH   1   9
BRANCH   2  22
HETATM   22  O2  UNL     1      24.964  36.168  18.082  1.00  0.00    -0.357 OA
ATOM     23  H2  UNL     1      24.417  35.907  17.351  1.00  0.00     0.217 HD
ENDBRANCH   2  22
BRANCH   8  24
HETATM   24  C13 UNL     1      24.113  37.662  22.680  1.00  0.00     0.091 C 
HETATM   25  C14 UNL     1      22.624  38.097  22.816  1.00  0.00     0.026 C 
HETATM   26  C15 UNL     1      22.235  37.781  24.227  1.00  0.00     0.002 C 
HETATM   27  C16 UNL     1      23.512  37.410  24.952  1.00  0.00     0.002 C 
HETATM   28  C17 UNL     1      24.326  36.767  23.879  1.00  0.00     0.026 C 
ENDBRANCH   8  24
TORSDOF 7
ENDMDL
MODEL 2
REMARK VINA RESULT: -6.196504697      2.647      4.903
REMARK  7 active torsions:
REMARK  status: ('A' for Active; 'I' for Inactive)
REMARK    1  A    between atoms: N1_1  and  C1_5 
REMARK    2  A    between atoms: C1_5  and  C2_6 
REMARK    3  A    between atoms: N2_10  and  C6_11 
REMARK    4  A    between atoms: C6_11  and  O1_12 
REMARK    5  A    between atoms: C6_11  and  C7_14 
REMARK    6  A    between atoms: C8_15  and  O2_16 
REMARK    7  A    between atoms: N3_23  and  C13_24 
ROOT
HETATM    1  C7  UNL     1      23.026  34.267  19.021  1.00  0.00     0.121 A 
HETATM    2  C8  UNL     1      22.193  34.433  17.862  1.00  0.00     0.110 A 
HETATM    3  C9  UNL     1      21.403  33.313  17.684  1.00  0.00     0.034 A 
HETATM    4  C10 UNL     1      20.454  32.860  16.816  1.00  0.00     0.024 A 
HETATM    5  C11 UNL     1      19.932  31.623  17.046  1.00  0.00     0.053 A 
HETATM    6  S1  UNL     1      20.758  31.117  18.450  1.00  0.00    -0.083 SA
HETATM    7  C12 UNL     1      21.743  32.488  18.706  1.00  0.00     0.090 A 
HETATM    8  N3  UNL     1      22.716  33.086  19.494  1.00  0.00    -0.330 N 
ENDROOT
BRANCH   1   9
HETATM    9  C6  UNL     1      23.880  35.326  19.475  1.00  0.00     0.169 C 
BRANCH   9  10
HETATM   10  N2  UNL     1      23.799  36.080  20.639  1.00  0.00    -0.354 N 
HETATM   11  C2  UNL     1      24.802  36.958  21.205  1.00  0.00     0.111 C 
HETATM   12  C3  UNL     1      24.390  37.285  22.583  1.00  0.00     0.028 C 
HETATM   13  C4  UNL     1      23.458  36.152  22.956  1.00  0.00     0.022 C 
HETATM   14  C5  UNL     1      22.726  36.027  21.613  1.00  0.00     0.125 C 
BRANCH  11  15
HETATM   15  C1  UNL     1      25.127  38.137  20.348  1.00  0.00     0.254 C 
BRANCH  15  16
HETATM   16  N1  UNL     1      26.365  38.046  19.650  1.00  0.00    -0.077 N 
ATOM     17  H13 UNL     1      27.116  38.451  20.209  1.00  0.00     0.274 HD
ATOM     18  H12 UNL     1      26.678  37.075  19.611  1.00  0.00     0.274 HD
ATOM     19  H11 UNL     1      26.360  38.454  18.715  1.00  0.00     0.274 HD
ENDBRANCH  15  16
ENDBRANCH  11  15
ENDBRANCH   9  10
BRANCH   9  20
HETATM   20  O1  UNL     1      24.888  35.635  18.714  1.00  0.00    -0.344 OA
ATOM     21  H1  UNL     1      24.954  36.562  18.519  1.00  0.00     0.219 HD
ENDBRANCH   9  20
ENDBRANCH   1   9
BRANCH   2  22
HETATM   22  O2  UNL     1      22.241  35.596  17.084  1.00  0.00    -0.357 OA
ATOM     23  H2  UNL     1      22.063  35.580  16.151  1.00  0.00     0.217 HD
ENDBRANCH   2  22
BRANCH   8  24
HETATM   24  C13 UNL     1      23.125  32.391  20.695  1.00  0.00     0.091 C 
HETATM   25  C14 UNL     1      21.864  32.296  21.603  1.00  0.00     0.026 C 
HETATM   26  C15 UNL     1      21.840  30.892  22.122  1.00  0.00     0.002 C 
HETATM   27  C16 UNL     1      23.166  30.268  21.734  1.00  0.00     0.002 C 
HETATM   28  C17 UNL     1      23.483  30.945  20.442  1.00  0.00     0.026 C 
ENDBRANCH   8  24
TORSDOF 7
ENDMDL
MODEL 3
REMARK VINA RESULT: -6.114760842      2.895      5.582
REMARK  7 active torsions:
REMARK  status: ('A' for Active; 'I' for Inactive)
REMARK    1  A    between atoms: N1_1  and  C1_5 
REMARK    2  A    between atoms: C1_5  and  C2_6 
REMARK    3  A    between atoms: N2_10  and  C6_11 
REMARK    4  A    between atoms: C6_11  and  O1_12 
REMARK    5  A    between atoms: C6_11  and  C7_14 
REMARK    6  A    between atoms: C8_15  and  O2_16 
REMARK    7  A    between atoms: N3_23  and  C13_24 
ROOT
HETATM    1  C7  UNL     1      25.241  40.011  20.425  1.00  0.00     0.121 A 
HETATM    2  C8  UNL     1      26.045  41.162  20.114  1.00  0.00     0.110 A 
HETATM    3  C9  UNL     1      27.185  40.772  19.438  1.00  0.00     0.034 A 
HETATM    4  C10 UNL     1      28.298  41.345  18.897  1.00  0.00     0.024 A 
HETATM    5  C11 UNL     1      29.205  40.519  18.305  1.00  0.00     0.053 A 
HETATM    6  S1  UNL     1      28.504  38.977  18.508  1.00  0.00    -0.083 SA
HETATM    7  C12 UNL     1      27.079  39.423  19.337  1.00  0.00     0.090 A 
HETATM    8  N3  UNL     1      25.904  38.994  19.935  1.00  0.00    -0.330 N 
ENDROOT
BRANCH   1   9
HETATM    9  C6  UNL     1      23.959  40.154  21.051  1.00  0.00     0.169 C 
BRANCH   9  10
HETATM   10  N2  UNL     1      23.570  39.817  22.342  1.00  0.00    -0.354 N 
HETATM   11  C2  UNL     1      24.382  39.799  23.542  1.00  0.00     0.111 C 
HETATM   12  C3  UNL     1      23.625  39.085  24.587  1.00  0.00     0.028 C 
HETATM   13  C4  UNL     1      22.646  38.237  23.803  1.00  0.00     0.022 C 
HETATM   14  C5  UNL     1      22.285  39.268  22.726  1.00  0.00     0.125 C 
BRANCH  11  15
HETATM   15  C1  UNL     1      24.897  41.141  23.944  1.00  0.00     0.254 C 
BRANCH  15  16
HETATM   16  N1  UNL     1      24.572  41.531  25.275  1.00  0.00    -0.077 N 
ATOM     17  H13 UNL     1      25.238  41.129  25.934  1.00  0.00     0.274 HD
ATOM     18  H12 UNL     1      24.766  42.524  25.410  1.00  0.00     0.274 HD
ATOM     19  H11 UNL     1      23.617  41.316  25.563  1.00  0.00     0.274 HD
ENDBRANCH  15  16
ENDBRANCH  11  15
ENDBRANCH   9  10
BRANCH   9  20
HETATM   20  O1  UNL     1      23.012  40.684  20.335  1.00  0.00    -0.344 OA
ATOM     21  H1  UNL     1      22.394  41.203  20.836  1.00  0.00     0.219 HD
ENDBRANCH   9  20
ENDBRANCH   1   9
BRANCH   2  22
HETATM   22  O2  UNL     1      25.651  42.454  20.482  1.00  0.00    -0.357 OA
ATOM     23  H2  UNL     1      25.037  42.605  21.190  1.00  0.00     0.217 HD
ENDBRANCH   2  22
BRANCH   8  24
HETATM   24  C13 UNL     1      25.572  37.590  19.830  1.00  0.00     0.091 C 
HETATM   25  C14 UNL     1      25.197  37.116  21.265  1.00  0.00     0.026 C 
HETATM   26  C15 UNL     1      23.960  36.287  21.110  1.00  0.00     0.002 C 
HETATM   27  C16 UNL     1      23.765  36.081  19.622  1.00  0.00     0.002 C 
HETATM   28  C17 UNL     1      24.309  37.343  19.040  1.00  0.00     0.026 C 
ENDBRANCH   8  24
TORSDOF 7
ENDMDL
MODEL 4
REMARK VINA RESULT: -6.092382864      2.592      5.284
REMARK  7 active torsions:
REMARK  status: ('A' for Active; 'I' for Inactive)
REMARK    1  A    between atoms: N1_1  and  C1_5 
REMARK    2  A    between atoms: C1_5  and  C2_6 
REMARK    3  A    between atoms: N2_10  and  C6_11 
REMARK    4  A    between atoms: C6_11  and  O1_12 
REMARK    5  A    between atoms: C6_11  and  C7_14 
REMARK    6  A    between atoms: C8_15  and  O2_16 
REMARK    7  A    between atoms: N3_23  and  C13_24 
ROOT
HETATM    1  C7  UNL     1      24.386  38.007  21.474  1.00  0.00     0.121 A 
HETATM    2  C8  UNL     1      24.323  39.375  21.038  1.00  0.00     0.110 A 
HETATM    3  C9  UNL     1      24.138  40.209  22.124  1.00  0.00     0.034 A 
HETATM    4  C10 UNL     1      23.996  41.542  22.377  1.00  0.00     0.024 A 
HETATM    5  C11 UNL     1      23.818  41.919  23.673  1.00  0.00     0.053 A 
HETATM    6  S1  UNL     1      23.852  40.433  24.510  1.00  0.00    -0.083 SA
HETATM    7  C12 UNL     1      24.090  39.374  23.192  1.00  0.00     0.090 A 
HETATM    8  N3  UNL     1      24.244  38.060  22.774  1.00  0.00    -0.330 N 
ENDROOT
BRANCH   1   9
HETATM    9  C6  UNL     1      24.660  36.949  20.547  1.00  0.00     0.169 C 
BRANCH   9  10
HETATM   10  N2  UNL     1      23.958  35.769  20.329  1.00  0.00    -0.354 N 
HETATM   11  C2  UNL     1      22.879  35.533  19.393  1.00  0.00     0.111 C 
HETATM   12  C3  UNL     1      22.255  34.242  19.741  1.00  0.00     0.028 C 
HETATM   13  C4  UNL     1      22.631  34.043  21.194  1.00  0.00     0.022 C 
HETATM   14  C5  UNL     1      24.076  34.554  21.111  1.00  0.00     0.125 C 
BRANCH  11  15
HETATM   15  C1  UNL     1      23.277  35.673  17.961  1.00  0.00     0.254 C 
BRANCH  15  16
HETATM   16  N1  UNL     1      22.520  34.881  17.051  1.00  0.00    -0.077 N 
ATOM     17  H13 UNL     1      21.524  34.963  17.254  1.00  0.00     0.274 HD
ATOM     18  H12 UNL     1      22.546  35.294  16.118  1.00  0.00     0.274 HD
ATOM     19  H11 UNL     1      22.792  33.898  17.009  1.00  0.00     0.274 HD
ENDBRANCH  15  16
ENDBRANCH  11  15
ENDBRANCH   9  10
BRANCH   9  20
HETATM   20  O1  UNL     1      25.699  37.094  19.779  1.00  0.00    -0.344 OA
ATOM     21  H1  UNL     1      25.494  37.120  18.852  1.00  0.00     0.219 HD
ENDBRANCH   9  20
ENDBRANCH   1   9
BRANCH   2  22
HETATM   22  O2  UNL     1      24.444  39.722  19.687  1.00  0.00    -0.357 OA
ATOM     23  H2  UNL     1      23.685  39.788  19.119  1.00  0.00     0.217 HD
ENDBRANCH   2  22
BRANCH   8  24
HETATM   24  C13 UNL     1      24.324  37.037  23.794  1.00  0.00     0.091 C 
HETATM   25  C14 UNL     1      25.679  37.251  24.530  1.00  0.00     0.026 C 
HETATM   26  C15 UNL     1      25.373  37.130  25.991  1.00  0.00     0.002 C 
HETATM   27  C16 UNL     1      23.950  36.620  26.091  1.00  0.00     0.002 C 
HETATM   28  C17 UNL     1      23.299  37.221  24.889  1.00  0.00     0.026 C 
ENDBRANCH   8  24
TORSDOF 7
ENDMDL
MODEL 5
REMARK VINA RESULT: -6.055767670      2.361      5.642
REMARK  7 active torsions:
REMARK  status: ('A' for Active; 'I' for Inactive)
REMARK    1  A    between atoms: N1_1  and  C1_5 
REMARK    2  A    between atoms: C1_5  and  C2_6 
REMARK    3  A    between atoms: N2_10  and  C6_11 
REMARK    4  A    between atoms: C6_11  and  O1_12 
REMARK    5  A    between atoms: C6_11  and  C7_14 
REMARK    6  A    between atoms: C8_15  and  O2_16 
REMARK    7  A    between atoms: N3_23  and  C13_24 
ROOT
HETATM    1  C7  UNL     1      23.731  35.730  20.594  1.00  0.00     0.121 A 
HETATM    2  C8  UNL     1      24.406  36.511  19.592  1.00  0.00     0.110 A 
HETATM    3  C9  UNL     1      24.595  37.801  20.049  1.00  0.00     0.034 A 
HETATM    4  C10 UNL     1      25.135  38.973  19.606  1.00  0.00     0.024 A 
HETATM    5  C11 UNL     1      25.084  40.044  20.445  1.00  0.00     0.053 A 
HETATM    6  S1  UNL     1      24.297  39.414  21.820  1.00  0.00    -0.083 SA
HETATM    7  C12 UNL     1      24.054  37.808  21.293  1.00  0.00     0.090 A 
HETATM    8  N3  UNL     1      23.545  36.553  21.595  1.00  0.00    -0.330 N 
ENDROOT
BRANCH   1   9
HETATM    9  C6  UNL     1      23.492  34.330  20.400  1.00  0.00     0.169 C 
BRANCH   9  10
HETATM   10  N2  UNL     1      22.290  33.667  20.184  1.00  0.00    -0.354 N 
HETATM   11  C2  UNL     1      21.317  33.903  19.138  1.00  0.00     0.111 C 
HETATM   12  C3  UNL     1      20.083  33.180  19.499  1.00  0.00     0.028 C 
HETATM   13  C4  UNL     1      20.194  33.008  20.998  1.00  0.00     0.022 C 
HETATM   14  C5  UNL     1      21.693  32.683  21.064  1.00  0.00     0.125 C 
BRANCH  11  15
HETATM   15  C1  UNL     1      21.828  33.627  17.762  1.00  0.00     0.254 C 
BRANCH  15  16
HETATM   16  N1  UNL     1      22.299  34.772  17.059  1.00  0.00    -0.077 N 
ATOM     17  H13 UNL     1      22.020  35.624  17.545  1.00  0.00     0.274 HD
ATOM     18  H12 UNL     1      23.313  34.845  17.141  1.00  0.00     0.274 HD
ATOM     19  H11 UNL     1      22.020  34.817  16.078  1.00  0.00     0.274 HD
ENDBRANCH  15  16
ENDBRANCH  11  15
ENDBRANCH   9  10
BRANCH   9  20
HETATM   20  O1  UNL     1      24.532  33.549  20.411  1.00  0.00    -0.344 OA
ATOM     21  H1  UNL     1      24.322  32.628  20.509  1.00  0.00     0.219 HD
ENDBRANCH   9  20
ENDBRANCH   1   9
BRANCH   2  22
HETATM   22  O2  UNL     1      24.780  35.960  18.361  1.00  0.00    -0.357 OA
ATOM     23  H2  UNL     1      24.317  36.171  17.559  1.00  0.00     0.217 HD
ENDBRANCH   2  22
BRANCH   8  24
HETATM   24  C13 UNL     1      23.021  36.345  22.927  1.00  0.00     0.091 C 
HETATM   25  C14 UNL     1      24.207  36.572  23.910  1.00  0.00     0.026 C 
HETATM   26  C15 UNL     1      23.661  37.416  25.020  1.00  0.00     0.002 C 
HETATM   27  C16 UNL     1      22.161  37.470  24.820  1.00  0.00     0.002 C 
HETATM   28  C17 UNL     1      22.023  37.403  23.335  1.00  0.00     0.026 C 
ENDBRANCH   8  24
TORSDOF 7
ENDMDL
