MODEL 1
REMARK VINA RESULT: -4.707994825      0.000      0.000
REMARK  0 active torsions:
REMARK  status: ('A' for Active; 'I' for Inactive)
ROOT
HETATM    1  C1  UNL     1       6.912 -29.885 -32.557  1.00  0.00     0.021 C 
HETATM    2  C2  UNL     1       5.727 -29.507 -33.408  1.00  0.00    -0.011 C 
HETATM    3  C3  UNL     1       5.181 -30.759 -34.101  1.00  0.00     0.021 C 
HETATM    4  C4  UNL     1       4.784 -28.719 -32.744  1.00  0.00     0.065 C 
HETATM    5  N1  UNL     1       3.877 -28.374 -31.809  1.00  0.00    -0.393 N 
ATOM      6  H1  UNL     1       3.573 -28.885 -30.980  1.00  0.00     0.159 HD
HETATM    7  C5  UNL     1       3.433 -27.023 -32.326  1.00  0.00     0.199 C 
HETATM    8  S1  UNL     1       4.307 -26.496 -33.784  1.00  0.00    -0.102 SA
HETATM    9  C6  UNL     1       5.255 -27.425 -34.841  1.00  0.00     0.050 C 
HETATM   10 CL1  UNL     1       4.208 -27.947 -36.234  1.00  0.00    -0.081 Cl
HETATM   11  C7  UNL     1       6.172 -28.574 -34.582  1.00  0.00     0.072 C 
ENDROOT
TORSDOF 0
ENDMDL
MODEL 2
REMARK VINA RESULT: -4.341885669      3.400      4.335
REMARK  0 active torsions:
REMARK  status: ('A' for Active; 'I' for Inactive)
ROOT
HETATM    1  C1  UNL     1       5.316 -27.619 -34.303  1.00  0.00     0.021 C 
HETATM    2  C2  UNL     1       5.647 -29.037 -33.910  1.00  0.00    -0.011 C 
HETATM    3  C3  UNL     1       4.738 -29.467 -32.755  1.00  0.00     0.021 C 
HETATM    4  C4  UNL     1       5.719 -29.920 -34.989  1.00  0.00     0.065 C 
HETATM    5  N1  UNL     1       5.308 -30.606 -36.074  1.00  0.00    -0.393 N 
ATOM      6  H1  UNL     1       4.414 -30.571 -36.565  1.00  0.00     0.159 HD
HETATM    7  C5  UNL     1       6.535 -31.442 -36.365  1.00  0.00     0.199 C 
HETATM    8  S1  UNL     1       7.900 -31.106 -35.273  1.00  0.00    -0.102 SA
HETATM    9  C6  UNL     1       7.888 -30.290 -33.786  1.00  0.00     0.050 C 
HETATM   10 CL1  UNL     1       7.749 -31.528 -32.460  1.00  0.00    -0.081 Cl
HETATM   11  C7  UNL     1       7.093 -29.117 -33.319  1.00  0.00     0.072 C 
ENDROOT
TORSDOF 0
ENDMDL
MODEL 3
REMARK VINA RESULT: -4.261966379      2.570      3.177
REMARK  0 active torsions:
REMARK  status: ('A' for Active; 'I' for Inactive)
ROOT
HETATM    1  C1  UNL     1       8.391 -32.555 -31.525  1.00  0.00     0.021 C 
HETATM    2  C2  UNL     1       7.177 -32.094 -32.290  1.00  0.00    -0.011 C 
HETATM    3  C3  UNL     1       6.374 -33.315 -32.748  1.00  0.00     0.021 C 
HETATM    4  C4  UNL     1       6.447 -31.094 -31.643  1.00  0.00     0.065 C 
HETATM    5  N1  UNL     1       5.723 -30.503 -30.673  1.00  0.00    -0.393 N 
ATOM      6  H1  UNL     1       5.453 -30.859 -29.756  1.00  0.00     0.159 HD
HETATM    7  C5  UNL     1       5.419 -29.167 -31.317  1.00  0.00     0.199 C 
HETATM    8  S1  UNL     1       6.173 -28.960 -32.916  1.00  0.00    -0.102 SA
HETATM    9  C6  UNL     1       6.838 -30.145 -33.932  1.00  0.00     0.050 C 
HETATM   10 CL1  UNL     1       5.561 -30.652 -35.125  1.00  0.00    -0.081 Cl
HETATM   11  C7  UNL     1       7.604 -31.387 -33.619  1.00  0.00     0.072 C 
ENDROOT
TORSDOF 0
ENDMDL
MODEL 4
REMARK VINA RESULT: -4.242882280      3.796      4.707
REMARK  0 active torsions:
REMARK  status: ('A' for Active; 'I' for Inactive)
ROOT
HETATM    1  C1  UNL     1       6.233 -28.857 -34.245  1.00  0.00     0.021 C 
HETATM    2  C2  UNL     1       7.225 -29.975 -34.050  1.00  0.00    -0.011 C 
HETATM    3  C3  UNL     1       8.641 -29.440 -34.285  1.00  0.00     0.021 C 
HETATM    4  C4  UNL     1       7.036 -30.700 -32.871  1.00  0.00     0.065 C 
HETATM    5  N1  UNL     1       6.930 -30.930 -31.548  1.00  0.00    -0.393 N 
ATOM      6  H1  UNL     1       6.974 -30.273 -30.769  1.00  0.00     0.159 HD
HETATM    7  C5  UNL     1       6.727 -32.430 -31.535  1.00  0.00     0.199 C 
HETATM    8  S1  UNL     1       6.641 -33.151 -33.160  1.00  0.00    -0.102 SA
HETATM    9  C6  UNL     1       7.113 -32.474 -34.643  1.00  0.00     0.050 C 
HETATM   10 CL1  UNL     1       8.809 -33.026 -35.005  1.00  0.00    -0.081 Cl
HETATM   11  C7  UNL     1       7.036 -31.072 -35.149  1.00  0.00     0.072 C 
ENDROOT
TORSDOF 0
ENDMDL
MODEL 5
REMARK VINA RESULT: -4.241541401      4.664      5.671
REMARK  0 active torsions:
REMARK  status: ('A' for Active; 'I' for Inactive)
ROOT
HETATM    1  C1  UNL     1       5.656 -30.762 -33.713  1.00  0.00     0.021 C 
HETATM    2  C2  UNL     1       7.069 -31.103 -34.112  1.00  0.00    -0.011 C 
HETATM    3  C3  UNL     1       7.968 -29.885 -33.881  1.00  0.00     0.021 C 
HETATM    4  C4  UNL     1       7.531 -32.310 -33.581  1.00  0.00     0.065 C 
HETATM    5  N1  UNL     1       7.867 -33.215 -32.642  1.00  0.00    -0.393 N 
ATOM      6  H1  UNL     1       7.787 -33.159 -31.627  1.00  0.00     0.159 HD
HETATM    7  C5  UNL     1       8.397 -34.339 -33.506  1.00  0.00     0.199 C 
HETATM    8  S1  UNL     1       8.268 -34.016 -35.252  1.00  0.00    -0.102 SA
HETATM    9  C6  UNL     1       7.996 -32.536 -36.035  1.00  0.00     0.050 C 
HETATM   10 CL1  UNL     1       9.609 -31.839 -36.508  1.00  0.00    -0.081 Cl
HETATM   11  C7  UNL     1       7.154 -31.365 -35.652  1.00  0.00     0.072 C 
ENDROOT
TORSDOF 0
ENDMDL
