MODEL 1
REMARK VINA RESULT: -5.537300818      0.000      0.000
REMARK  0 active torsions:
REMARK  status: ('A' for Active; 'I' for Inactive)
ROOT
HETATM    1  C1  UNL     1       8.299 -30.000 -34.327  1.00  0.00     0.018 C 
HETATM    2  C2  UNL     1       7.187 -31.023 -34.057  1.00  0.00    -0.007 C 
HETATM    3  C3  UNL     1       5.937 -30.425 -34.721  1.00  0.00     0.018 C 
HETATM    4  C4  UNL     1       6.930 -31.029 -32.600  1.00  0.00     0.095 C 
HETATM    5  C5  UNL     1       7.583 -32.114 -31.850  1.00  0.00     0.113 C 
HETATM    6  N1  UNL     1       7.578 -32.092 -30.581  1.00  0.00    -0.383 N 
ATOM      7  H11 UNL     1       8.031 -32.844 -30.061  1.00  0.00     0.157 HD
ATOM      8  H12 UNL     1       7.126 -31.329 -30.078  1.00  0.00     0.157 HD
HETATM    9  O1  UNL     1       8.186 -33.131 -32.520  1.00  0.00    -0.326 OA
HETATM   10  C6  UNL     1       8.004 -33.411 -33.871  1.00  0.00     0.093 C 
HETATM   11  C7  UNL     1       7.044 -34.608 -33.939  1.00  0.00     0.049 C 
HETATM   12  C8  UNL     1       9.351 -33.976 -34.350  1.00  0.00     0.049 C 
HETATM   13  C9  UNL     1       7.515 -32.298 -34.707  1.00  0.00     0.212 C 
HETATM   14  F1  UNL     1       8.495 -32.067 -35.689  1.00  0.00    -0.245 F 
ENDROOT
TORSDOF 0
ENDMDL
MODEL 2
REMARK VINA RESULT: -5.338518203      4.032      5.739
REMARK  0 active torsions:
REMARK  status: ('A' for Active; 'I' for Inactive)
ROOT
HETATM    1  C1  UNL     1       5.276 -30.583 -34.209  1.00  0.00     0.018 C 
HETATM    2  C2  UNL     1       5.880 -29.228 -33.813  1.00  0.00    -0.007 C 
HETATM    3  C3  UNL     1       7.375 -29.514 -33.598  1.00  0.00     0.018 C 
HETATM    4  C4  UNL     1       5.325 -28.861 -32.491  1.00  0.00     0.095 C 
HETATM    5  C5  UNL     1       4.198 -27.917 -32.523  1.00  0.00     0.113 C 
HETATM    6  N1  UNL     1       3.536 -27.691 -31.463  1.00  0.00    -0.383 N 
ATOM      7  H11 UNL     1       2.754 -27.037 -31.485  1.00  0.00     0.157 HD
ATOM      8  H12 UNL     1       3.782 -28.160 -30.591  1.00  0.00     0.157 HD
HETATM    9  O1  UNL     1       3.870 -27.292 -33.685  1.00  0.00    -0.326 OA
HETATM   10  C6  UNL     1       4.685 -27.234 -34.812  1.00  0.00     0.093 C 
HETATM   11  C7  UNL     1       5.309 -25.830 -34.822  1.00  0.00     0.049 C 
HETATM   12  C8  UNL     1       3.718 -27.228 -36.007  1.00  0.00     0.049 C 
HETATM   13  C9  UNL     1       5.726 -28.273 -34.918  1.00  0.00     0.212 C 
HETATM   14  F1  UNL     1       5.469 -28.987 -36.101  1.00  0.00    -0.245 F 
ENDROOT
TORSDOF 0
ENDMDL
MODEL 3
REMARK VINA RESULT: -5.272711660      0.965      3.213
REMARK  0 active torsions:
REMARK  status: ('A' for Active; 'I' for Inactive)
ROOT
HETATM    1  C1  UNL     1       7.097 -34.808 -34.059  1.00  0.00     0.018 C 
HETATM    2  C2  UNL     1       8.162 -33.718 -33.876  1.00  0.00    -0.007 C 
HETATM    3  C3  UNL     1       9.483 -34.389 -34.283  1.00  0.00     0.018 C 
HETATM    4  C4  UNL     1       8.263 -33.430 -32.428  1.00  0.00     0.095 C 
HETATM    5  C5  UNL     1       7.521 -32.246 -31.968  1.00  0.00     0.113 C 
HETATM    6  N1  UNL     1       7.391 -32.028 -30.725  1.00  0.00    -0.383 N 
ATOM      7  H11 UNL     1       6.876 -31.207 -30.406  1.00  0.00     0.157 HD
ATOM      8  H12 UNL     1       7.797 -32.669 -30.043  1.00  0.00     0.157 HD
HETATM    9  O1  UNL     1       6.980 -31.392 -32.877  1.00  0.00    -0.326 OA
HETATM   10  C6  UNL     1       7.302 -31.364 -34.231  1.00  0.00     0.093 C 
HETATM   11  C7  UNL     1       8.249 -30.171 -34.426  1.00  0.00     0.049 C 
HETATM   12  C8  UNL     1       6.007 -30.942 -34.944  1.00  0.00     0.049 C 
HETATM   13  C9  UNL     1       7.890 -32.598 -34.786  1.00  0.00     0.212 C 
HETATM   14  F1  UNL     1       7.023 -33.040 -35.801  1.00  0.00    -0.245 F 
ENDROOT
TORSDOF 0
ENDMDL
MODEL 4
REMARK VINA RESULT: -5.171686613      1.523      1.624
REMARK  0 active torsions:
REMARK  status: ('A' for Active; 'I' for Inactive)
ROOT
HETATM    1  C1  UNL     1       7.906 -30.110 -33.880  1.00  0.00     0.018 C 
HETATM    2  C2  UNL     1       7.096 -31.396 -34.092  1.00  0.00    -0.007 C 
HETATM    3  C3  UNL     1       5.628 -30.941 -34.080  1.00  0.00     0.018 C 
HETATM    4  C4  UNL     1       7.284 -32.246 -32.895  1.00  0.00     0.095 C 
HETATM    5  C5  UNL     1       8.289 -33.312 -33.031  1.00  0.00     0.113 C 
HETATM    6  N1  UNL     1       8.656 -33.965 -32.007  1.00  0.00    -0.383 N 
ATOM      7  H11 UNL     1       9.353 -34.703 -32.101  1.00  0.00     0.157 HD
ATOM      8  H12 UNL     1       8.259 -33.756 -31.091  1.00  0.00     0.157 HD
HETATM    9  O1  UNL     1       8.818 -33.590 -34.251  1.00  0.00    -0.326 OA
HETATM   10  C6  UNL     1       8.290 -33.155 -35.464  1.00  0.00     0.093 C 
HETATM   11  C7  UNL     1       7.551 -34.357 -36.070  1.00  0.00     0.049 C 
HETATM   12  C8  UNL     1       9.507 -32.954 -36.383  1.00  0.00     0.049 C 
HETATM   13  C9  UNL     1       7.411 -31.972 -35.405  1.00  0.00     0.212 C 
HETATM   14  F1  UNL     1       8.009 -30.981 -36.203  1.00  0.00    -0.245 F 
ENDROOT
TORSDOF 0
ENDMDL
MODEL 5
REMARK VINA RESULT: -5.150896761      2.302      3.085
REMARK  0 active torsions:
REMARK  status: ('A' for Active; 'I' for Inactive)
ROOT
HETATM    1  C1  UNL     1       5.242 -29.654 -35.245  1.00  0.00     0.018 C 
HETATM    2  C2  UNL     1       5.885 -29.619 -33.851  1.00  0.00    -0.007 C 
HETATM    3  C3  UNL     1       4.941 -28.749 -33.007  1.00  0.00     0.018 C 
HETATM    4  C4  UNL     1       7.158 -28.873 -33.965  1.00  0.00     0.095 C 
HETATM    5  C5  UNL     1       8.366 -29.705 -34.082  1.00  0.00     0.113 C 
HETATM    6  N1  UNL     1       9.477 -29.164 -34.375  1.00  0.00    -0.383 N 
ATOM      7  H11 UNL     1      10.314 -29.740 -34.456  1.00  0.00     0.157 HD
ATOM      8  H12 UNL     1       9.536 -28.157 -34.529  1.00  0.00     0.157 HD
HETATM    9  O1  UNL     1       8.287 -31.046 -33.877  1.00  0.00    -0.326 OA
HETATM   10  C6  UNL     1       7.212 -31.695 -33.274  1.00  0.00     0.093 C 
HETATM   11  C7  UNL     1       7.649 -32.010 -31.836  1.00  0.00     0.049 C 
HETATM   12  C8  UNL     1       7.138 -33.069 -33.959  1.00  0.00     0.049 C 
HETATM   13  C9  UNL     1       5.926 -30.974 -33.288  1.00  0.00     0.212 C 
HETATM   14  F1  UNL     1       5.014 -31.783 -33.988  1.00  0.00    -0.245 F 
ENDROOT
TORSDOF 0
ENDMDL
