MODEL 1
REMARK VINA RESULT: -4.193309939      0.000      0.000
REMARK  4 active torsions:
REMARK  status: ('A' for Active; 'I' for Inactive)
REMARK    1  A    between atoms: C2_2  and  O1_3 
REMARK    2  A    between atoms: O1_3  and  C3_4 
REMARK    3  A    between atoms: C3_4  and  S1_8 
REMARK    4  A    between atoms: S1_8  and  C4_9 
ROOT
HETATM    1  C4  UNL     1       7.659 -33.249 -33.723  1.00  0.00     0.206 C 
HETATM    2  C5  UNL     1       8.494 -34.020 -32.792  1.00  0.00     0.069 C 
HETATM    3  N2  UNL     1       9.158 -34.614 -32.061  1.00  0.00    -0.197 NA
ENDROOT
BRANCH   1   4
HETATM    4  S1  UNL     1       6.186 -32.638 -32.883  1.00  0.00    -0.073 SA
BRANCH   4   5
HETATM    5  C3  UNL     1       6.586 -31.535 -31.544  1.00  0.00     0.176 C 
HETATM    6  N1  UNL     1       6.932 -31.905 -30.370  1.00  0.00    -0.374 N 
ATOM      7  H12 UNL     1       7.160 -31.273 -29.602  1.00  0.00     0.158 HD
ATOM      8  H11 UNL     1       6.976 -32.911 -30.210  1.00  0.00     0.158 HD
BRANCH   5   9
HETATM    9  O1  UNL     1       6.526 -30.165 -31.761  1.00  0.00    -0.331 OA
BRANCH   9  10
HETATM   10  C2  UNL     1       6.433 -29.581 -33.034  1.00  0.00     0.173 C 
HETATM   11  C1  UNL     1       7.732 -29.296 -33.699  1.00  0.00     0.034 C 
ENDBRANCH   9  10
ENDBRANCH   5   9
ENDBRANCH   4   5
ENDBRANCH   1   4
TORSDOF 4
ENDMDL
MODEL 2
REMARK VINA RESULT: -4.178361880      1.334      1.699
REMARK  4 active torsions:
REMARK  status: ('A' for Active; 'I' for Inactive)
REMARK    1  A    between atoms: C2_2  and  O1_3 
REMARK    2  A    between atoms: O1_3  and  C3_4 
REMARK    3  A    between atoms: C3_4  and  S1_8 
REMARK    4  A    between atoms: S1_8  and  C4_9 
ROOT
HETATM    1  C4  UNL     1       6.836 -33.439 -33.402  1.00  0.00     0.206 C 
HETATM    2  C5  UNL     1       8.116 -34.047 -33.015  1.00  0.00     0.069 C 
HETATM    3  N2  UNL     1       9.123 -34.525 -32.724  1.00  0.00    -0.197 NA
ENDROOT
BRANCH   1   4
HETATM    4  S1  UNL     1       6.878 -31.660 -33.122  1.00  0.00    -0.073 SA
BRANCH   4   5
HETATM    5  C3  UNL     1       6.519 -31.238 -31.429  1.00  0.00     0.176 C 
HETATM    6  N1  UNL     1       6.818 -31.959 -30.417  1.00  0.00    -0.374 N 
ATOM      7  H12 UNL     1       6.612 -31.717 -29.447  1.00  0.00     0.158 HD
ATOM      8  H11 UNL     1       7.297 -32.837 -30.616  1.00  0.00     0.158 HD
BRANCH   5   9
HETATM    9  O1  UNL     1       5.867 -30.043 -31.158  1.00  0.00    -0.331 OA
BRANCH   9  10
HETATM   10  C2  UNL     1       5.106 -29.339 -32.105  1.00  0.00     0.173 C 
HETATM   11  C1  UNL     1       3.953 -28.577 -31.555  1.00  0.00     0.034 C 
ENDBRANCH   9  10
ENDBRANCH   5   9
ENDBRANCH   4   5
ENDBRANCH   1   4
TORSDOF 4
ENDMDL
MODEL 3
REMARK VINA RESULT: -4.176406177      2.046      2.160
REMARK  4 active torsions:
REMARK  status: ('A' for Active; 'I' for Inactive)
REMARK    1  A    between atoms: C2_2  and  O1_3 
REMARK    2  A    between atoms: O1_3  and  C3_4 
REMARK    3  A    between atoms: C3_4  and  S1_8 
REMARK    4  A    between atoms: S1_8  and  C4_9 
ROOT
HETATM    1  C4  UNL     1       8.410 -34.700 -35.186  1.00  0.00     0.206 C 
HETATM    2  C5  UNL     1       9.791 -34.711 -34.682  1.00  0.00     0.069 C 
HETATM    3  N2  UNL     1      10.875 -34.708 -34.292  1.00  0.00    -0.197 NA
ENDROOT
BRANCH   1   4
HETATM    4  S1  UNL     1       7.254 -34.412 -33.834  1.00  0.00    -0.073 SA
BRANCH   4   5
HETATM    5  C3  UNL     1       7.716 -33.008 -32.842  1.00  0.00     0.176 C 
HETATM    6  N1  UNL     1       7.806 -33.012 -31.566  1.00  0.00    -0.374 N 
ATOM      7  H12 UNL     1       8.070 -32.208 -30.998  1.00  0.00     0.158 HD
ATOM      8  H11 UNL     1       7.593 -33.895 -31.103  1.00  0.00     0.158 HD
BRANCH   5   9
HETATM    9  O1  UNL     1       8.007 -31.806 -33.472  1.00  0.00    -0.331 OA
BRANCH   9  10
HETATM   10  C2  UNL     1       7.316 -30.609 -33.224  1.00  0.00     0.173 C 
HETATM   11  C1  UNL     1       7.895 -29.397 -33.860  1.00  0.00     0.034 C 
ENDBRANCH   9  10
ENDBRANCH   5   9
ENDBRANCH   4   5
ENDBRANCH   1   4
TORSDOF 4
ENDMDL
MODEL 4
REMARK VINA RESULT: -4.087816022      2.812      3.410
REMARK  4 active torsions:
REMARK  status: ('A' for Active; 'I' for Inactive)
REMARK    1  A    between atoms: C2_2  and  O1_3 
REMARK    2  A    between atoms: O1_3  and  C3_4 
REMARK    3  A    between atoms: C3_4  and  S1_8 
REMARK    4  A    between atoms: S1_8  and  C4_9 
ROOT
HETATM    1  C4  UNL     1       9.229 -34.528 -36.105  1.00  0.00     0.206 C 
HETATM    2  C5  UNL     1      10.211 -34.710 -35.028  1.00  0.00     0.069 C 
HETATM    3  N2  UNL     1      10.989 -34.841 -34.188  1.00  0.00    -0.197 NA
ENDROOT
BRANCH   1   4
HETATM    4  S1  UNL     1       7.703 -33.830 -35.448  1.00  0.00    -0.073 SA
BRANCH   4   5
HETATM    5  C3  UNL     1       7.465 -34.230 -33.730  1.00  0.00     0.176 C 
HETATM    6  N1  UNL     1       6.898 -35.291 -33.297  1.00  0.00    -0.374 N 
ATOM      7  H12 UNL     1       6.762 -35.521 -32.313  1.00  0.00     0.158 HD
ATOM      8  H11 UNL     1       6.564 -35.944 -34.007  1.00  0.00     0.158 HD
BRANCH   5   9
HETATM    9  O1  UNL     1       7.920 -33.343 -32.764  1.00  0.00    -0.331 OA
BRANCH   9  10
HETATM   10  C2  UNL     1       7.292 -32.122 -32.471  1.00  0.00     0.173 C 
HETATM   11  C1  UNL     1       6.861 -31.951 -31.058  1.00  0.00     0.034 C 
ENDBRANCH   9  10
ENDBRANCH   5   9
ENDBRANCH   4   5
ENDBRANCH   1   4
TORSDOF 4
ENDMDL
MODEL 5
REMARK VINA RESULT: -4.078575872      2.607      3.047
REMARK  4 active torsions:
REMARK  status: ('A' for Active; 'I' for Inactive)
REMARK    1  A    between atoms: C2_2  and  O1_3 
REMARK    2  A    between atoms: O1_3  and  C3_4 
REMARK    3  A    between atoms: C3_4  and  S1_8 
REMARK    4  A    between atoms: S1_8  and  C4_9 
ROOT
HETATM    1  C4  UNL     1       6.463 -31.770 -31.079  1.00  0.00     0.206 C 
HETATM    2  C5  UNL     1       7.509 -32.595 -31.698  1.00  0.00     0.069 C 
HETATM    3  N2  UNL     1       8.320 -33.250 -32.188  1.00  0.00    -0.197 NA
ENDROOT
BRANCH   1   4
HETATM    4  S1  UNL     1       6.150 -30.303 -32.077  1.00  0.00    -0.073 SA
BRANCH   4   5
HETATM    5  C3  UNL     1       4.990 -29.197 -31.302  1.00  0.00     0.176 C 
HETATM    6  N1  UNL     1       4.948 -28.942 -30.049  1.00  0.00    -0.374 N 
ATOM      7  H12 UNL     1       4.283 -28.308 -29.605  1.00  0.00     0.158 HD
ATOM      8  H11 UNL     1       5.640 -29.417 -29.470  1.00  0.00     0.158 HD
BRANCH   5   9
HETATM    9  O1  UNL     1       4.048 -28.549 -32.090  1.00  0.00    -0.331 OA
BRANCH   9  10
HETATM   10  C2  UNL     1       4.327 -28.021 -33.361  1.00  0.00     0.173 C 
HETATM   11  C1  UNL     1       3.625 -26.753 -33.691  1.00  0.00     0.034 C 
ENDBRANCH   9  10
ENDBRANCH   5   9
ENDBRANCH   4   5
ENDBRANCH   1   4
TORSDOF 4
ENDMDL
