MODEL 1
REMARK VINA RESULT: -5.196296022      0.000      0.000
REMARK  2 active torsions:
REMARK  status: ('A' for Active; 'I' for Inactive)
REMARK    1  A    between atoms: C2_2  and  C3_3 
REMARK    2  A    between atoms: C5_5  and  O1_6 
ROOT
HETATM    1  C3  UNL     1       4.414 -28.349 -34.218  1.00  0.00     0.129 C 
HETATM    2  C4  UNL     1       4.242 -28.322 -32.705  1.00  0.00     0.092 C 
HETATM    3  C5  UNL     1       4.990 -29.560 -32.196  1.00  0.00     0.263 C 
HETATM    4  O2  UNL     1       5.238 -30.375 -33.283  1.00  0.00    -0.326 OA
HETATM    5  C6  UNL     1       6.084 -29.822 -34.220  1.00  0.00     0.160 C 
HETATM    6  C7  UNL     1       7.494 -30.034 -33.782  1.00  0.00     0.078 C 
HETATM    7  C8  UNL     1       5.870 -30.520 -35.549  1.00  0.00     0.078 C 
HETATM    8  O3  UNL     1       5.788 -28.458 -34.444  1.00  0.00    -0.350 OA
ENDROOT
BRANCH   1   9
HETATM    9  C2  UNL     1       3.844 -27.078 -34.789  1.00  0.00     0.028 C 
HETATM   10  C1  UNL     1       3.833 -27.077 -36.279  1.00  0.00     0.007 C 
ENDBRANCH   1   9
BRANCH   3  11
HETATM   11  O1  UNL     1       6.118 -29.122 -31.545  1.00  0.00    -0.371 OA
ATOM     12  H1  UNL     1       6.843 -29.662 -31.837  1.00  0.00     0.212 HD
ENDBRANCH   3  11
TORSDOF 2
ENDMDL
MODEL 2
REMARK VINA RESULT: -5.093442846      1.071      1.432
REMARK  2 active torsions:
REMARK  status: ('A' for Active; 'I' for Inactive)
REMARK    1  A    between atoms: C2_2  and  C3_3 
REMARK    2  A    between atoms: C5_5  and  O1_6 
ROOT
HETATM    1  C3  UNL     1       4.127 -28.004 -33.593  1.00  0.00     0.129 C 
HETATM    2  C4  UNL     1       4.252 -28.427 -32.135  1.00  0.00     0.092 C 
HETATM    3  C5  UNL     1       5.031 -29.747 -32.167  1.00  0.00     0.263 C 
HETATM    4  O2  UNL     1       5.029 -30.202 -33.472  1.00  0.00    -0.326 OA
HETATM    5  C6  UNL     1       5.701 -29.384 -34.355  1.00  0.00     0.160 C 
HETATM    6  C7  UNL     1       7.159 -29.692 -34.285  1.00  0.00     0.078 C 
HETATM    7  C8  UNL     1       5.204 -29.663 -35.760  1.00  0.00     0.078 C 
HETATM    8  O3  UNL     1       5.425 -28.019 -34.108  1.00  0.00    -0.350 OA
ENDROOT
BRANCH   1   9
HETATM    9  C2  UNL     1       3.511 -26.631 -33.645  1.00  0.00     0.028 C 
HETATM   10  C1  UNL     1       2.996 -26.187 -32.319  1.00  0.00     0.007 C 
ENDBRANCH   1   9
BRANCH   3  11
HETATM   11  O1  UNL     1       6.281 -29.501 -31.653  1.00  0.00    -0.371 OA
ATOM     12  H1  UNL     1       6.547 -28.638 -31.951  1.00  0.00     0.212 HD
ENDBRANCH   3  11
TORSDOF 2
ENDMDL
MODEL 3
REMARK VINA RESULT: -5.054187177      1.701      3.604
REMARK  2 active torsions:
REMARK  status: ('A' for Active; 'I' for Inactive)
REMARK    1  A    between atoms: C2_2  and  C3_3 
REMARK    2  A    between atoms: C5_5  and  O1_6 
ROOT
HETATM    1  C3  UNL     1       4.186 -28.091 -32.221  1.00  0.00     0.129 C 
HETATM    2  C4  UNL     1       3.413 -26.870 -32.703  1.00  0.00     0.092 C 
HETATM    3  C5  UNL     1       4.073 -26.477 -34.031  1.00  0.00     0.263 C 
HETATM    4  O2  UNL     1       5.279 -27.147 -34.112  1.00  0.00    -0.326 OA
HETATM    5  C6  UNL     1       5.158 -28.518 -34.179  1.00  0.00     0.160 C 
HETATM    6  C7  UNL     1       4.883 -28.910 -35.592  1.00  0.00     0.078 C 
HETATM    7  C8  UNL     1       6.464 -29.149 -33.736  1.00  0.00     0.078 C 
HETATM    8  O3  UNL     1       4.172 -28.996 -33.286  1.00  0.00    -0.350 OA
ENDROOT
BRANCH   1   9
HETATM    9  C2  UNL     1       3.501 -28.642 -30.999  1.00  0.00     0.028 C 
HETATM   10  C1  UNL     1       4.467 -29.164 -29.991  1.00  0.00     0.007 C 
ENDBRANCH   1   9
BRANCH   3  11
HETATM   11  O1  UNL     1       3.187 -26.778 -35.036  1.00  0.00    -0.371 OA
ATOM     12  H1  UNL     1       3.503 -27.563 -35.469  1.00  0.00     0.212 HD
ENDBRANCH   3  11
TORSDOF 2
ENDMDL
MODEL 4
REMARK VINA RESULT: -5.011949533      3.388      4.420
REMARK  2 active torsions:
REMARK  status: ('A' for Active; 'I' for Inactive)
REMARK    1  A    between atoms: C2_2  and  C3_3 
REMARK    2  A    between atoms: C5_5  and  O1_6 
ROOT
HETATM    1  C3  UNL     1       7.394 -31.400 -33.866  1.00  0.00     0.129 C 
HETATM    2  C4  UNL     1       7.336 -31.616 -32.359  1.00  0.00     0.092 C 
HETATM    3  C5  UNL     1       7.269 -33.137 -32.176  1.00  0.00     0.263 C 
HETATM    4  O2  UNL     1       6.961 -33.693 -33.403  1.00  0.00    -0.326 OA
HETATM    5  C6  UNL     1       7.928 -33.503 -34.366  1.00  0.00     0.160 C 
HETATM    6  C7  UNL     1       8.986 -34.542 -34.199  1.00  0.00     0.078 C 
HETATM    7  C8  UNL     1       7.296 -33.658 -35.735  1.00  0.00     0.078 C 
HETATM    8  O3  UNL     1       8.450 -32.190 -34.324  1.00  0.00    -0.350 OA
ENDROOT
BRANCH   1   9
HETATM    9  C2  UNL     1       7.623 -29.936 -34.133  1.00  0.00     0.028 C 
HETATM   10  C1  UNL     1       6.939 -29.062 -33.138  1.00  0.00     0.007 C 
ENDBRANCH   1   9
BRANCH   3  11
HETATM   11  O1  UNL     1       8.474 -33.543 -31.656  1.00  0.00    -0.371 OA
ATOM     12  H1  UNL     1       8.347 -33.691 -30.725  1.00  0.00     0.212 HD
ENDBRANCH   3  11
TORSDOF 2
ENDMDL
MODEL 5
REMARK VINA RESULT: -4.927351911      1.848      3.176
REMARK  2 active torsions:
REMARK  status: ('A' for Active; 'I' for Inactive)
REMARK    1  A    between atoms: C2_2  and  C3_3 
REMARK    2  A    between atoms: C5_5  and  O1_6 
ROOT
HETATM    1  C3  UNL     1       5.460 -29.848 -31.775  1.00  0.00     0.129 C 
HETATM    2  C4  UNL     1       6.028 -31.196 -31.349  1.00  0.00     0.092 C 
HETATM    3  C5  UNL     1       6.734 -31.744 -32.595  1.00  0.00     0.263 C 
HETATM    4  O2  UNL     1       6.315 -30.994 -33.677  1.00  0.00    -0.326 OA
HETATM    5  C6  UNL     1       6.691 -29.669 -33.623  1.00  0.00     0.160 C 
HETATM    6  C7  UNL     1       8.092 -29.544 -34.121  1.00  0.00     0.078 C 
HETATM    7  C8  UNL     1       5.774 -28.861 -34.520  1.00  0.00     0.078 C 
HETATM    8  O3  UNL     1       6.531 -29.138 -32.322  1.00  0.00    -0.350 OA
ENDROOT
BRANCH   1   9
HETATM    9  C2  UNL     1       4.885 -29.164 -30.564  1.00  0.00     0.028 C 
HETATM   10  C1  UNL     1       3.462 -28.765 -30.757  1.00  0.00     0.007 C 
ENDBRANCH   1   9
BRANCH   3  11
HETATM   11  O1  UNL     1       8.086 -31.694 -32.358  1.00  0.00    -0.371 OA
ATOM     12  H1  UNL     1       8.521 -31.639 -33.202  1.00  0.00     0.212 HD
ENDBRANCH   3  11
TORSDOF 2
ENDMDL
