MODEL 1
REMARK VINA RESULT: -7.476443898      0.000      0.000
REMARK  8 active torsions:
REMARK  status: ('A' for Active; 'I' for Inactive)
REMARK    1  A    between atoms: C2_2  and  N1_3 
REMARK    2  A    between atoms: N1_3  and  C3_4 
REMARK    3  A    between atoms: N1_3  and  C5_6 
REMARK    4  A    between atoms: C5_6  and  C7_8 
REMARK    5  A    between atoms: C7_8  and  N2_9 
REMARK       I    between atoms: N2_9  and  C8_11 
REMARK    6  A    between atoms: C8_11  and  C9_13 
REMARK    7  A    between atoms: N3_18  and  O2_20 
REMARK    8  A    between atoms: N4_22  and  C14_23 
ROOT
HETATM    1  C9  UNL     1      33.548  49.824   1.366  1.00  0.00     0.189 C 
HETATM    2  C10 UNL     1      34.792  50.334   2.022  1.00  0.00     0.021 C 
HETATM    3  C11 UNL     1      35.843  49.202   2.112  1.00  0.00     0.013 C 
HETATM    4  C12 UNL     1      34.447  50.674   3.416  1.00  0.00     0.085 C 
HETATM    5  C13 UNL     1      33.032  50.178   3.571  1.00  0.00     0.106 C 
HETATM    6  N3  UNL     1      32.294  50.457   4.589  1.00  0.00    -0.257 N 
ATOM      7  H3  UNL     1      32.724  51.045   5.304  1.00  0.00     0.195 HD
HETATM    8  N4  UNL     1      32.699  49.406   2.437  1.00  0.00    -0.301 N 
ENDROOT
BRANCH   8   9
HETATM    9  C14 UNL     1      31.686  48.364   2.358  1.00  0.00     0.153 A 
HETATM   10  N5  UNL     1      31.527  47.250   3.025  1.00  0.00    -0.339 N 
HETATM   11  C15 UNL     1      30.509  46.481   2.814  1.00  0.00     0.027 A 
ATOM     12  H5  UNL     1      32.219  46.983   3.726  1.00  0.00     0.168 HD
HETATM   13  C16 UNL     1      29.601  46.881   1.866  1.00  0.00     0.027 A 
HETATM   14  C23 UNL     1      30.193  45.158   3.493  1.00  0.00     0.078 C 
HETATM   15  S1  UNL     1      30.286  48.353   1.335  1.00  0.00    -0.055 SA
HETATM   16  C17 UNL     1      28.367  46.092   1.509  1.00  0.00     0.037 C 
HETATM   17  C18 UNL     1      27.246  46.323   2.467  1.00  0.00     0.032 C 
HETATM   18  C19 UNL     1      27.932  46.602   0.136  1.00  0.00     0.032 C 
HETATM   19  S2  UNL     1      28.837  44.369   1.338  1.00  0.00    -0.145 SA
HETATM   20  C20 UNL     1      30.222  44.049   2.466  1.00  0.00     0.007 C 
HETATM   21  C21 UNL     1      29.941  42.754   3.187  1.00  0.00     0.027 C 
HETATM   22  C22 UNL     1      31.533  43.947   1.757  1.00  0.00     0.027 C 
ENDBRANCH   8   9
BRANCH   1  23
HETATM   23  C8  UNL     1      33.913  48.725   0.413  1.00  0.00     0.241 C 
HETATM   24  N2  UNL     1      34.267  48.857  -0.920  1.00  0.00    -0.357 N 
ATOM     25  H2  UNL     1      34.300  49.780  -1.354  1.00  0.00     0.162 HD
HETATM   26  O1  UNL     1      33.873  47.557   0.930  1.00  0.00    -0.271 OA
BRANCH  24  27
HETATM   27  C7  UNL     1      34.593  47.671  -1.695  1.00  0.00     0.147 C 
BRANCH  27  28
HETATM   28  C5  UNL     1      33.532  47.439  -2.748  1.00  0.00     0.097 C 
HETATM   29  C6  UNL     1      34.081  46.710  -3.959  1.00  0.00     0.034 C 
BRANCH  28  30
HETATM   30  N1  UNL     1      32.703  48.506  -3.062  1.00  0.00    -0.388 N 
BRANCH  30  31
HETATM   31  C2  UNL     1      32.978  49.502  -3.970  1.00  0.00     0.054 C 
HETATM   32  C1  UNL     1      32.140  50.714  -4.079  1.00  0.00     0.054 C 
ENDBRANCH  30  31
BRANCH  30  33
HETATM   33  C3  UNL     1      31.415  48.534  -2.432  1.00  0.00     0.118 C 
HETATM   34  C4  UNL     1      30.934  47.118  -2.217  1.00  0.00     0.026 C 
ENDBRANCH  30  33
ENDBRANCH  28  30
ENDBRANCH  27  28
ENDBRANCH  24  27
ENDBRANCH   1  23
BRANCH   6  35
HETATM   35  O2  UNL     1      31.031  50.071   4.825  1.00  0.00    -0.288 OA
ATOM     36  H2  UNL     1      30.702  49.563   5.557  1.00  0.00     0.244 HD
ENDBRANCH   6  35
TORSDOF 8
ENDMDL
MODEL 2
REMARK VINA RESULT: -7.453239394      0.131      1.178
REMARK  8 active torsions:
REMARK  status: ('A' for Active; 'I' for Inactive)
REMARK    1  A    between atoms: C2_2  and  N1_3 
REMARK    2  A    between atoms: N1_3  and  C3_4 
REMARK    3  A    between atoms: N1_3  and  C5_6 
REMARK    4  A    between atoms: C5_6  and  C7_8 
REMARK    5  A    between atoms: C7_8  and  N2_9 
REMARK       I    between atoms: N2_9  and  C8_11 
REMARK    6  A    between atoms: C8_11  and  C9_13 
REMARK    7  A    between atoms: N3_18  and  O2_20 
REMARK    8  A    between atoms: N4_22  and  C14_23 
ROOT
HETATM    1  C9  UNL     1      33.548  49.821   1.357  1.00  0.00     0.189 C 
HETATM    2  C10 UNL     1      34.790  50.343   2.007  1.00  0.00     0.021 C 
HETATM    3  C11 UNL     1      35.849  49.218   2.101  1.00  0.00     0.013 C 
HETATM    4  C12 UNL     1      34.446  50.688   3.400  1.00  0.00     0.085 C 
HETATM    5  C13 UNL     1      33.035  50.185   3.562  1.00  0.00     0.106 C 
HETATM    6  N3  UNL     1      32.298  50.465   4.580  1.00  0.00    -0.257 N 
ATOM      7  H3  UNL     1      32.726  51.059   5.291  1.00  0.00     0.195 HD
HETATM    8  N4  UNL     1      32.703  49.404   2.433  1.00  0.00    -0.301 N 
ENDROOT
BRANCH   8   9
HETATM    9  C14 UNL     1      31.697  48.355   2.362  1.00  0.00     0.153 A 
HETATM   10  N5  UNL     1      31.553  47.240   3.030  1.00  0.00    -0.339 N 
HETATM   11  C15 UNL     1      30.538  46.464   2.828  1.00  0.00     0.027 A 
ATOM     12  H5  UNL     1      32.253  46.976   3.723  1.00  0.00     0.168 HD
HETATM   13  C16 UNL     1      29.618  46.859   1.889  1.00  0.00     0.027 A 
HETATM   14  C23 UNL     1      30.238  45.138   3.508  1.00  0.00     0.078 C 
HETATM   15  S1  UNL     1      30.287  48.336   1.354  1.00  0.00    -0.055 SA
HETATM   16  C17 UNL     1      28.385  46.062   1.544  1.00  0.00     0.037 C 
HETATM   17  C18 UNL     1      27.272  46.285   2.513  1.00  0.00     0.032 C 
HETATM   18  C19 UNL     1      27.933  46.571   0.176  1.00  0.00     0.032 C 
HETATM   19  S2  UNL     1      28.865  44.342   1.365  1.00  0.00    -0.145 SA
HETATM   20  C20 UNL     1      30.264  44.031   2.479  1.00  0.00     0.007 C 
HETATM   21  C21 UNL     1      29.998  42.732   3.201  1.00  0.00     0.027 C 
HETATM   22  C22 UNL     1      31.568  43.938   1.757  1.00  0.00     0.027 C 
ENDBRANCH   8   9
BRANCH   1  23
HETATM   23  C8  UNL     1      33.917  48.719   0.410  1.00  0.00     0.241 C 
HETATM   24  N2  UNL     1      34.254  48.845  -0.928  1.00  0.00    -0.357 N 
ATOM     25  H2  UNL     1      34.269  49.764  -1.370  1.00  0.00     0.162 HD
HETATM   26  O1  UNL     1      33.899  47.555   0.937  1.00  0.00    -0.271 OA
BRANCH  24  27
HETATM   27  C7  UNL     1      34.587  47.656  -1.697  1.00  0.00     0.147 C 
BRANCH  27  28
HETATM   28  C5  UNL     1      33.536  47.421  -2.760  1.00  0.00     0.097 C 
HETATM   29  C6  UNL     1      34.111  46.743  -3.988  1.00  0.00     0.034 C 
BRANCH  28  30
HETATM   30  N1  UNL     1      32.676  48.471  -3.047  1.00  0.00    -0.388 N 
BRANCH  30  31
HETATM   31  C2  UNL     1      31.396  48.622  -2.563  1.00  0.00     0.054 C 
HETATM   32  C1  UNL     1      30.467  47.480  -2.442  1.00  0.00     0.054 C 
ENDBRANCH  30  31
BRANCH  30  33
HETATM   33  C3  UNL     1      33.192  49.528  -3.867  1.00  0.00     0.118 C 
HETATM   34  C4  UNL     1      32.194  50.661  -3.905  1.00  0.00     0.026 C 
ENDBRANCH  30  33
ENDBRANCH  28  30
ENDBRANCH  27  28
ENDBRANCH  24  27
ENDBRANCH   1  23
BRANCH   6  35
HETATM   35  O2  UNL     1      31.038  50.072   4.822  1.00  0.00    -0.288 OA
ATOM     36  H2  UNL     1      30.418  50.442   5.439  1.00  0.00     0.244 HD
ENDBRANCH   6  35
TORSDOF 8
ENDMDL
MODEL 3
REMARK VINA RESULT: -7.401804741      1.318      2.456
REMARK  8 active torsions:
REMARK  status: ('A' for Active; 'I' for Inactive)
REMARK    1  A    between atoms: C2_2  and  N1_3 
REMARK    2  A    between atoms: N1_3  and  C3_4 
REMARK    3  A    between atoms: N1_3  and  C5_6 
REMARK    4  A    between atoms: C5_6  and  C7_8 
REMARK    5  A    between atoms: C7_8  and  N2_9 
REMARK       I    between atoms: N2_9  and  C8_11 
REMARK    6  A    between atoms: C8_11  and  C9_13 
REMARK    7  A    between atoms: N3_18  and  O2_20 
REMARK    8  A    between atoms: N4_22  and  C14_23 
ROOT
HETATM    1  C9  UNL     1      33.237  49.168   1.083  1.00  0.00     0.189 C 
HETATM    2  C10 UNL     1      34.404  49.627   1.899  1.00  0.00     0.021 C 
HETATM    3  C11 UNL     1      35.501  48.535   1.912  1.00  0.00     0.013 C 
HETATM    4  C12 UNL     1      33.942  49.750   3.296  1.00  0.00     0.085 C 
HETATM    5  C13 UNL     1      32.547  49.182   3.269  1.00  0.00     0.106 C 
HETATM    6  N3  UNL     1      31.725  49.283   4.254  1.00  0.00    -0.257 N 
ATOM      7  H3  UNL     1      32.072  49.778   5.077  1.00  0.00     0.195 HD
HETATM    8  N4  UNL     1      32.334  48.568   2.015  1.00  0.00    -0.301 N 
ENDROOT
BRANCH   8   9
HETATM    9  C14 UNL     1      31.383  47.510   1.711  1.00  0.00     0.153 A 
HETATM   10  N5  UNL     1      30.414  47.435   0.836  1.00  0.00    -0.339 N 
HETATM   11  C15 UNL     1      29.709  46.358   0.707  1.00  0.00     0.027 A 
ATOM     12  H5  UNL     1      30.210  48.239   0.244  1.00  0.00     0.168 HD
HETATM   13  C16 UNL     1      30.020  45.298   1.522  1.00  0.00     0.027 A 
HETATM   14  C23 UNL     1      28.549  46.120  -0.246  1.00  0.00     0.078 C 
HETATM   15  S1  UNL     1      31.320  45.933   2.429  1.00  0.00    -0.055 SA
HETATM   16  C17 UNL     1      29.290  43.979   1.490  1.00  0.00     0.037 C 
HETATM   17  C18 UNL     1      29.771  43.088   0.394  1.00  0.00     0.032 C 
HETATM   18  C19 UNL     1      29.598  43.301   2.824  1.00  0.00     0.032 C 
HETATM   19  S2  UNL     1      27.528  44.319   1.434  1.00  0.00    -0.145 SA
HETATM   20  C20 UNL     1      27.286  45.886   0.551  1.00  0.00     0.007 C 
HETATM   21  C21 UNL     1      26.157  45.692  -0.432  1.00  0.00     0.027 C 
HETATM   22  C22 UNL     1      26.956  47.019   1.466  1.00  0.00     0.027 C 
ENDBRANCH   8   9
BRANCH   1  23
HETATM   23  C8  UNL     1      33.723  48.233   0.016  1.00  0.00     0.241 C 
HETATM   24  N2  UNL     1      34.277  48.574  -1.207  1.00  0.00    -0.357 N 
ATOM     25  H2  UNL     1      34.389  49.555  -1.465  1.00  0.00     0.162 HD
HETATM   26  O1  UNL     1      33.588  46.997   0.311  1.00  0.00    -0.271 OA
BRANCH  24  27
HETATM   27  C7  UNL     1      34.696  47.524  -2.121  1.00  0.00     0.147 C 
BRANCH  27  28
HETATM   28  C5  UNL     1      33.656  47.341  -3.204  1.00  0.00     0.097 C 
HETATM   29  C6  UNL     1      34.099  46.341  -4.255  1.00  0.00     0.034 C 
BRANCH  28  30
HETATM   30  N1  UNL     1      33.073  48.486  -3.727  1.00  0.00    -0.388 N 
BRANCH  30  31
HETATM   31  C2  UNL     1      33.583  49.258  -4.746  1.00  0.00     0.054 C 
HETATM   32  C1  UNL     1      32.928  49.337  -6.069  1.00  0.00     0.054 C 
ENDBRANCH  30  31
BRANCH  30  33
HETATM   33  C3  UNL     1      31.792  48.859  -3.204  1.00  0.00     0.118 C 
HETATM   34  C4  UNL     1      31.043  47.616  -2.786  1.00  0.00     0.026 C 
ENDBRANCH  30  33
ENDBRANCH  28  30
ENDBRANCH  27  28
ENDBRANCH  24  27
ENDBRANCH   1  23
BRANCH   6  35
HETATM   35  O2  UNL     1      30.469  48.818   4.334  1.00  0.00    -0.288 OA
ATOM     36  H2  UNL     1      30.093  48.260   5.005  1.00  0.00     0.244 HD
ENDBRANCH   6  35
TORSDOF 8
ENDMDL
MODEL 4
REMARK VINA RESULT: -7.318191211      0.819      1.532
REMARK  8 active torsions:
REMARK  status: ('A' for Active; 'I' for Inactive)
REMARK    1  A    between atoms: C2_2  and  N1_3 
REMARK    2  A    between atoms: N1_3  and  C3_4 
REMARK    3  A    between atoms: N1_3  and  C5_6 
REMARK    4  A    between atoms: C5_6  and  C7_8 
REMARK    5  A    between atoms: C7_8  and  N2_9 
REMARK       I    between atoms: N2_9  and  C8_11 
REMARK    6  A    between atoms: C8_11  and  C9_13 
REMARK    7  A    between atoms: N3_18  and  O2_20 
REMARK    8  A    between atoms: N4_22  and  C14_23 
ROOT
HETATM    1  C9  UNL     1      33.709  49.696   1.626  1.00  0.00     0.189 C 
HETATM    2  C10 UNL     1      34.898  50.210   2.375  1.00  0.00     0.021 C 
HETATM    3  C11 UNL     1      35.924  49.070   2.581  1.00  0.00     0.013 C 
HETATM    4  C12 UNL     1      34.438  50.586   3.726  1.00  0.00     0.085 C 
HETATM    5  C13 UNL     1      33.010  50.108   3.771  1.00  0.00     0.106 C 
HETATM    6  N3  UNL     1      32.191  50.418   4.715  1.00  0.00    -0.257 N 
ATOM      7  H3  UNL     1      32.564  51.018   5.451  1.00  0.00     0.195 HD
HETATM    8  N4  UNL     1      32.766  49.312   2.630  1.00  0.00    -0.301 N 
ENDROOT
BRANCH   8   9
HETATM    9  C14 UNL     1      31.751  48.278   2.487  1.00  0.00     0.153 A 
HETATM   10  N5  UNL     1      31.548  47.161   3.137  1.00  0.00    -0.339 N 
HETATM   11  C15 UNL     1      30.538  46.401   2.865  1.00  0.00     0.027 A 
ATOM     12  H5  UNL     1      32.198  46.884   3.873  1.00  0.00     0.168 HD
HETATM   13  C16 UNL     1      29.686  46.814   1.871  1.00  0.00     0.027 A 
HETATM   14  C23 UNL     1      30.176  45.076   3.516  1.00  0.00     0.078 C 
HETATM   15  S1  UNL     1      30.410  48.284   1.389  1.00  0.00    -0.055 SA
HETATM   16  C17 UNL     1      28.468  46.037   1.441  1.00  0.00     0.037 C 
HETATM   17  C18 UNL     1      27.298  46.270   2.337  1.00  0.00     0.032 C 
HETATM   18  C19 UNL     1      28.113  46.559   0.050  1.00  0.00     0.032 C 
HETATM   19  S2  UNL     1      28.935  44.311   1.284  1.00  0.00    -0.145 SA
HETATM   20  C20 UNL     1      30.253  43.974   2.484  1.00  0.00     0.007 C 
HETATM   21  C21 UNL     1      29.923  42.676   3.180  1.00  0.00     0.027 C 
HETATM   22  C22 UNL     1      31.600  43.866   1.848  1.00  0.00     0.027 C 
ENDBRANCH   8   9
BRANCH   1  23
HETATM   23  C8  UNL     1      34.141  48.572   0.733  1.00  0.00     0.241 C 
HETATM   24  N2  UNL     1      34.681  48.674  -0.538  1.00  0.00    -0.357 N 
ATOM     25  H2  UNL     1      34.822  49.590  -0.965  1.00  0.00     0.162 HD
HETATM   26  O1  UNL     1      33.968  47.412   1.241  1.00  0.00    -0.271 OA
BRANCH  24  27
HETATM   27  C7  UNL     1      35.045  47.466  -1.261  1.00  0.00     0.147 C 
BRANCH  27  28
HETATM   28  C5  UNL     1      35.109  47.754  -2.744  1.00  0.00     0.097 C 
HETATM   29  C6  UNL     1      35.449  49.204  -3.028  1.00  0.00     0.034 C 
BRANCH  28  30
HETATM   30  N1  UNL     1      34.086  47.250  -3.534  1.00  0.00    -0.388 N 
BRANCH  30  31
HETATM   31  C2  UNL     1      32.755  47.187  -3.189  1.00  0.00     0.054 C 
HETATM   32  C1  UNL     1      31.857  48.352  -3.322  1.00  0.00     0.054 C 
ENDBRANCH  30  31
BRANCH  30  33
HETATM   33  C3  UNL     1      34.438  46.821  -4.856  1.00  0.00     0.118 C 
HETATM   34  C4  UNL     1      35.248  45.549  -4.768  1.00  0.00     0.026 C 
ENDBRANCH  30  33
ENDBRANCH  28  30
ENDBRANCH  27  28
ENDBRANCH  24  27
ENDBRANCH   1  23
BRANCH   6  35
HETATM   35  O2  UNL     1      30.908  50.049   4.850  1.00  0.00    -0.288 OA
ATOM     36  H2  UNL     1      30.255  50.408   5.439  1.00  0.00     0.244 HD
ENDBRANCH   6  35
TORSDOF 8
ENDMDL
MODEL 5
REMARK VINA RESULT: -7.217759579      3.996      7.724
REMARK  8 active torsions:
REMARK  status: ('A' for Active; 'I' for Inactive)
REMARK    1  A    between atoms: C2_2  and  N1_3 
REMARK    2  A    between atoms: N1_3  and  C3_4 
REMARK    3  A    between atoms: N1_3  and  C5_6 
REMARK    4  A    between atoms: C5_6  and  C7_8 
REMARK    5  A    between atoms: C7_8  and  N2_9 
REMARK       I    between atoms: N2_9  and  C8_11 
REMARK    6  A    between atoms: C8_11  and  C9_13 
REMARK    7  A    between atoms: N3_18  and  O2_20 
REMARK    8  A    between atoms: N4_22  and  C14_23 
ROOT
HETATM    1  C9  UNL     1      30.393  43.262   2.804  1.00  0.00     0.189 C 
HETATM    2  C10 UNL     1      29.110  42.547   2.518  1.00  0.00     0.021 C 
HETATM    3  C11 UNL     1      29.145  41.953   1.089  1.00  0.00     0.013 C 
HETATM    4  C12 UNL     1      28.036  43.559   2.506  1.00  0.00     0.085 C 
HETATM    5  C13 UNL     1      28.770  44.870   2.616  1.00  0.00     0.106 C 
HETATM    6  N3  UNL     1      28.179  45.993   2.834  1.00  0.00    -0.257 N 
ATOM      7  H3  UNL     1      27.164  45.953   2.931  1.00  0.00     0.195 HD
HETATM    8  N4  UNL     1      30.152  44.628   2.456  1.00  0.00    -0.301 N 
ENDROOT
BRANCH   8   9
HETATM    9  C14 UNL     1      31.159  45.578   2.010  1.00  0.00     0.153 A 
HETATM   10  N5  UNL     1      32.298  45.952   2.534  1.00  0.00    -0.339 N 
HETATM   11  C15 UNL     1      33.069  46.796   1.930  1.00  0.00     0.027 A 
ATOM     12  H5  UNL     1      32.583  45.570   3.436  1.00  0.00     0.168 HD
HETATM   13  C16 UNL     1      32.647  47.280   0.716  1.00  0.00     0.027 A 
HETATM   14  C23 UNL     1      34.406  47.335   2.411  1.00  0.00     0.078 C 
HETATM   15  S1  UNL     1      31.151  46.480   0.529  1.00  0.00    -0.055 SA
HETATM   16  C17 UNL     1      33.436  48.268  -0.106  1.00  0.00     0.037 C 
HETATM   17  C18 UNL     1      34.511  47.613  -0.907  1.00  0.00     0.032 C 
HETATM   18  C19 UNL     1      32.435  48.894  -1.075  1.00  0.00     0.032 C 
HETATM   19  S2  UNL     1      34.027  49.560   0.992  1.00  0.00    -0.145 SA
HETATM   20  C20 UNL     1      34.295  48.827   2.630  1.00  0.00     0.007 C 
HETATM   21  C21 UNL     1      35.629  49.313   3.141  1.00  0.00     0.027 C 
HETATM   22  C22 UNL     1      33.227  49.193   3.608  1.00  0.00     0.027 C 
ENDBRANCH   8   9
BRANCH   1  23
HETATM   23  C8  UNL     1      31.497  42.619   2.020  1.00  0.00     0.241 C 
HETATM   24  N2  UNL     1      31.841  41.277   2.005  1.00  0.00    -0.357 N 
ATOM     25  H2  UNL     1      31.321  40.607   2.571  1.00  0.00     0.162 HD
HETATM   26  O1  UNL     1      32.170  43.438   1.306  1.00  0.00    -0.271 OA
BRANCH  24  27
HETATM   27  C7  UNL     1      32.949  40.831   1.176  1.00  0.00     0.147 C 
BRANCH  27  28
HETATM   28  C5  UNL     1      32.679  39.433   0.665  1.00  0.00     0.097 C 
HETATM   29  C6  UNL     1      31.614  38.725   1.482  1.00  0.00     0.034 C 
BRANCH  28  30
HETATM   30  N1  UNL     1      33.778  38.641   0.366  1.00  0.00    -0.388 N 
BRANCH  30  31
HETATM   31  C2  UNL     1      34.453  38.616  -0.833  1.00  0.00     0.054 C 
HETATM   32  C1  UNL     1      35.901  38.897  -0.921  1.00  0.00     0.054 C 
ENDBRANCH  30  31
BRANCH  30  33
HETATM   33  C3  UNL     1      34.298  37.826   1.425  1.00  0.00     0.118 C 
HETATM   34  C4  UNL     1      34.599  36.446   0.889  1.00  0.00     0.026 C 
ENDBRANCH  30  33
ENDBRANCH  28  30
ENDBRANCH  27  28
ENDBRANCH  24  27
ENDBRANCH   1  23
BRANCH   6  35
HETATM   35  O2  UNL     1      28.733  47.210   2.950  1.00  0.00    -0.288 OA
ATOM     36  H2  UNL     1      28.885  47.851   2.266  1.00  0.00     0.244 HD
ENDBRANCH   6  35
TORSDOF 8
ENDMDL
