MODEL 1
REMARK VINA RESULT: -4.574434167      0.000      0.000
REMARK  1 active torsions:
REMARK  status: ('A' for Active; 'I' for Inactive)
REMARK    1  A    between atoms: O1_2  and  C2_3 
ROOT
HETATM    1  C2  UNL     1       6.894 -32.777 -33.774  1.00  0.00     0.178 C 
HETATM    2  C3  UNL     1       6.422 -31.546 -33.742  1.00  0.00     0.127 C 
HETATM    3  O2  UNL     1       5.059 -31.272 -33.865  1.00  0.00    -0.342 OA
HETATM    4  C4  UNL     1       4.730 -29.990 -34.371  1.00  0.00     0.185 C 
HETATM    5  C5  UNL     1       4.999 -28.893 -33.387  1.00  0.00    -0.017 C 
HETATM    6  C6  UNL     1       4.567 -27.588 -34.030  1.00  0.00     0.018 C 
HETATM    7  C7  UNL     1       4.057 -29.118 -32.203  1.00  0.00     0.018 C 
HETATM    8  C8  UNL     1       6.421 -28.759 -32.977  1.00  0.00     0.092 C 
HETATM    9  S1  UNL     1       7.470 -30.122 -33.540  1.00  0.00    -0.103 SA
ENDROOT
BRANCH   1  10
HETATM   10  O1  UNL     1       8.197 -33.146 -33.664  1.00  0.00    -0.365 OA
HETATM   11  C1  UNL     1       8.740 -34.422 -33.498  1.00  0.00     0.209 C 
ENDBRANCH   1  10
TORSDOF 1
ENDMDL
MODEL 2
REMARK VINA RESULT: -4.550157004      2.854      5.607
REMARK  1 active torsions:
REMARK  status: ('A' for Active; 'I' for Inactive)
REMARK    1  A    between atoms: O1_2  and  C2_3 
ROOT
HETATM    1  C2  UNL     1       3.461 -26.479 -33.321  1.00  0.00     0.178 C 
HETATM    2  C3  UNL     1       4.119 -27.621 -33.279  1.00  0.00     0.127 C 
HETATM    3  O2  UNL     1       4.838 -28.103 -34.373  1.00  0.00    -0.342 OA
HETATM    4  C4  UNL     1       5.013 -29.508 -34.428  1.00  0.00     0.185 C 
HETATM    5  C5  UNL     1       5.980 -30.011 -33.400  1.00  0.00    -0.017 C 
HETATM    6  C6  UNL     1       6.109 -31.511 -33.592  1.00  0.00     0.018 C 
HETATM    7  C7  UNL     1       7.346 -29.416 -33.748  1.00  0.00     0.018 C 
HETATM    8  C8  UNL     1       5.580 -29.757 -31.991  1.00  0.00     0.092 C 
HETATM    9  S1  UNL     1       4.154 -28.654 -31.829  1.00  0.00    -0.103 SA
ENDROOT
BRANCH   1  10
HETATM   10  O1  UNL     1       2.734 -25.927 -32.314  1.00  0.00    -0.365 OA
HETATM   11  C1  UNL     1       3.093 -24.914 -31.421  1.00  0.00     0.209 C 
ENDBRANCH   1  10
TORSDOF 1
ENDMDL
MODEL 3
REMARK VINA RESULT: -4.488229454      2.256      2.724
REMARK  1 active torsions:
REMARK  status: ('A' for Active; 'I' for Inactive)
REMARK    1  A    between atoms: O1_2  and  C2_3 
ROOT
HETATM    1  C2  UNL     1       8.085 -30.063 -34.132  1.00  0.00     0.178 C 
HETATM    2  C3  UNL     1       6.907 -29.806 -33.598  1.00  0.00     0.127 C 
HETATM    3  O2  UNL     1       6.673 -28.661 -32.836  1.00  0.00    -0.342 OA
HETATM    4  C4  UNL     1       5.624 -28.755 -31.887  1.00  0.00     0.185 C 
HETATM    5  C5  UNL     1       4.268 -28.772 -32.523  1.00  0.00    -0.017 C 
HETATM    6  C6  UNL     1       3.242 -28.830 -31.406  1.00  0.00     0.018 C 
HETATM    7  C7  UNL     1       4.081 -27.416 -33.206  1.00  0.00     0.018 C 
HETATM    8  C8  UNL     1       4.023 -29.919 -33.437  1.00  0.00     0.092 C 
HETATM    9  S1  UNL     1       5.508 -30.889 -33.797  1.00  0.00    -0.103 SA
ENDROOT
BRANCH   1  10
HETATM   10  O1  UNL     1       8.413 -31.145 -34.885  1.00  0.00    -0.365 OA
HETATM   11  C1  UNL     1       8.449 -31.272 -36.276  1.00  0.00     0.209 C 
ENDBRANCH   1  10
TORSDOF 1
ENDMDL
MODEL 4
REMARK VINA RESULT: -4.477452557      3.277      5.638
REMARK  1 active torsions:
REMARK  status: ('A' for Active; 'I' for Inactive)
REMARK    1  A    between atoms: O1_2  and  C2_3 
ROOT
HETATM    1  C2  UNL     1       3.789 -27.508 -37.137  1.00  0.00     0.178 C 
HETATM    2  C3  UNL     1       4.155 -27.986 -35.963  1.00  0.00     0.127 C 
HETATM    3  O2  UNL     1       4.898 -29.160 -35.841  1.00  0.00    -0.342 OA
HETATM    4  C4  UNL     1       4.754 -29.857 -34.616  1.00  0.00     0.185 C 
HETATM    5  C5  UNL     1       5.418 -29.158 -33.469  1.00  0.00    -0.017 C 
HETATM    6  C6  UNL     1       5.228 -30.022 -32.236  1.00  0.00     0.018 C 
HETATM    7  C7  UNL     1       6.920 -29.154 -33.762  1.00  0.00     0.018 C 
HETATM    8  C8  UNL     1       4.883 -27.803 -33.172  1.00  0.00     0.092 C 
HETATM    9  S1  UNL     1       3.739 -27.183 -34.431  1.00  0.00    -0.103 SA
ENDROOT
BRANCH   1  10
HETATM   10  O1  UNL     1       3.067 -26.380 -37.361  1.00  0.00    -0.365 OA
HETATM   11  C1  UNL     1       2.428 -25.960 -38.531  1.00  0.00     0.209 C 
ENDBRANCH   1  10
TORSDOF 1
ENDMDL
MODEL 5
REMARK VINA RESULT: -4.446517493      3.535      6.123
REMARK  1 active torsions:
REMARK  status: ('A' for Active; 'I' for Inactive)
REMARK    1  A    between atoms: O1_2  and  C2_3 
ROOT
HETATM    1  C2  UNL     1       3.426 -25.483 -32.586  1.00  0.00     0.178 C 
HETATM    2  C3  UNL     1       3.789 -26.721 -32.860  1.00  0.00     0.127 C 
HETATM    3  O2  UNL     1       4.424 -27.060 -34.055  1.00  0.00    -0.342 OA
HETATM    4  C4  UNL     1       4.260 -28.401 -34.482  1.00  0.00     0.185 C 
HETATM    5  C5  UNL     1       5.030 -29.374 -33.642  1.00  0.00    -0.017 C 
HETATM    6  C6  UNL     1       4.806 -30.757 -34.226  1.00  0.00     0.018 C 
HETATM    7  C7  UNL     1       6.513 -29.059 -33.844  1.00  0.00     0.018 C 
HETATM    8  C8  UNL     1       4.636 -29.408 -32.209  1.00  0.00     0.092 C 
HETATM    9  S1  UNL     1       3.508 -28.073 -31.736  1.00  0.00    -0.103 SA
ENDROOT
BRANCH   1  10
HETATM   10  O1  UNL     1       2.805 -25.054 -31.457  1.00  0.00    -0.365 OA
HETATM   11  C1  UNL     1       3.161 -24.011 -30.597  1.00  0.00     0.209 C 
ENDBRANCH   1  10
TORSDOF 1
ENDMDL
