MODEL 1
REMARK VINA RESULT: -8.332241909      0.000      0.000
REMARK  8 active torsions:
REMARK  status: ('A' for Active; 'I' for Inactive)
REMARK    1  A    between atoms: C3_5  and  C4_6 
REMARK    2  A    between atoms: C4_6  and  N2_7 
REMARK    3  A    between atoms: C6_9  and  O1_10 
REMARK    4  A    between atoms: C8_13  and  C9_14 
REMARK    5  A    between atoms: C9_14  and  N3_15 
REMARK    6  A    between atoms: C12_19  and  C13_20 
REMARK       I    between atoms: C13_20  and  N4_22 
REMARK    7  A    between atoms: N4_22  and  C14_24 
REMARK    8  A    between atoms: C18_28  and  C19_29 
ROOT
HETATM    1  C1  UNL     1      17.279   8.839   3.722  1.00  0.00     0.070 C 
HETATM    2  C2  UNL     1      18.469   9.359   2.931  1.00  0.00     0.028 A 
HETATM    3  N1  UNL     1      19.677   9.054   3.307  1.00  0.00    -0.355 N 
ATOM      4  H1  UNL     1      19.812   8.468   4.132  1.00  0.00     0.166 HD
HETATM    5  C3  UNL     1      20.723   9.486   2.648  1.00  0.00     0.080 A 
HETATM    6  S1  UNL     1      20.008  10.389   1.400  1.00  0.00    -0.068 SA
HETATM    7  C12 UNL     1      18.318  10.142   1.829  1.00  0.00     0.096 A 
ENDROOT
BRANCH   7   8
HETATM    8  C13 UNL     1      17.191  10.693   1.100  1.00  0.00     0.260 C 
HETATM    9  O2  UNL     1      16.823  11.877   1.456  1.00  0.00    -0.267 OA
HETATM   10  N4  UNL     1      16.516  10.041   0.081  1.00  0.00    -0.352 N 
ATOM     11  H4  UNL     1      16.803   9.105  -0.205  1.00  0.00     0.163 HD
BRANCH  10  12
HETATM   12  C14 UNL     1      15.365  10.711  -0.598  1.00  0.00     0.085 C 
HETATM   13  C15 UNL     1      14.131  10.298   0.149  1.00  0.00     0.025 C 
HETATM   14  C16 UNL     1      12.882  10.762  -0.528  1.00  0.00     0.002 C 
HETATM   15  C17 UNL     1      13.069  10.920  -2.039  1.00  0.00     0.005 C 
HETATM   16  C18 UNL     1      13.999   9.846  -2.495  1.00  0.00    -0.005 C 
HETATM   17  C23 UNL     1      15.389  10.182  -2.012  1.00  0.00     0.030 C 
BRANCH  16  18
HETATM   18  C19 UNL     1      14.027   9.633  -3.972  1.00  0.00    -0.048 C 
HETATM   19  C20 UNL     1      15.024  10.514  -4.655  1.00  0.00     0.015 C 
HETATM   20  C21 UNL     1      14.302   8.162  -4.231  1.00  0.00     0.015 C 
HETATM   21  C22 UNL     1      12.620   9.914  -4.500  1.00  0.00     0.015 C 
ENDBRANCH  16  18
ENDBRANCH  10  12
ENDBRANCH   7   8
BRANCH   5  22
HETATM   22  C4  UNL     1      22.188   9.248   2.928  1.00  0.00     0.337 C 
BRANCH  22  23
HETATM   23  N2  UNL     1      22.446   8.518   4.111  1.00  0.00     0.103 N 
HETATM   24  C5  UNL     1      22.983   9.253   5.219  1.00  0.00     0.305 C 
HETATM   25  C6  UNL     1      24.018   8.418   5.904  1.00  0.00     0.148 C 
HETATM   26  C7  UNL     1      24.038   7.126   5.158  1.00  0.00     0.071 C 
HETATM   27  C8  UNL     1      23.274   7.393   3.872  1.00  0.00     0.254 C 
BRANCH  25  28
HETATM   28  O1  UNL     1      23.673   8.134   7.231  1.00  0.00    -0.394 OA
ATOM     29  H1  UNL     1      23.635   8.918   7.766  1.00  0.00     0.210 HD
ENDBRANCH  25  28
BRANCH  27  30
HETATM   30  C9  UNL     1      22.463   6.216   3.445  1.00  0.00     0.307 C 
BRANCH  30  31
HETATM   31  N3  UNL     1      21.775   5.505   4.468  1.00  0.00     0.082 N 
HETATM   32  C10 UNL     1      21.969   4.069   4.143  1.00  0.00     0.309 C 
HETATM   33  C11 UNL     1      20.345   5.691   4.505  1.00  0.00     0.309 C 
ENDBRANCH  30  31
ENDBRANCH  27  30
ENDBRANCH  22  23
ENDBRANCH   5  22
TORSDOF 8
ENDMDL
MODEL 2
REMARK VINA RESULT: -8.260799425      1.774      2.336
REMARK  8 active torsions:
REMARK  status: ('A' for Active; 'I' for Inactive)
REMARK    1  A    between atoms: C3_5  and  C4_6 
REMARK    2  A    between atoms: C4_6  and  N2_7 
REMARK    3  A    between atoms: C6_9  and  O1_10 
REMARK    4  A    between atoms: C8_13  and  C9_14 
REMARK    5  A    between atoms: C9_14  and  N3_15 
REMARK    6  A    between atoms: C12_19  and  C13_20 
REMARK       I    between atoms: C13_20  and  N4_22 
REMARK    7  A    between atoms: N4_22  and  C14_24 
REMARK    8  A    between atoms: C18_28  and  C19_29 
ROOT
HETATM    1  C1  UNL     1      17.021   8.452   3.598  1.00  0.00     0.070 C 
HETATM    2  C2  UNL     1      18.208   9.252   3.081  1.00  0.00     0.028 A 
HETATM    3  N1  UNL     1      19.393   9.039   3.575  1.00  0.00    -0.355 N 
ATOM      4  H1  UNL     1      19.512   8.337   4.306  1.00  0.00     0.166 HD
HETATM    5  C3  UNL     1      20.434   9.710   3.152  1.00  0.00     0.080 A 
HETATM    6  S1  UNL     1      19.750  10.723   1.974  1.00  0.00    -0.068 SA
HETATM    7  C12 UNL     1      18.077  10.193   2.108  1.00  0.00     0.096 A 
ENDROOT
BRANCH   7   8
HETATM    8  C13 UNL     1      16.977  10.718   1.320  1.00  0.00     0.260 C 
HETATM    9  O2  UNL     1      16.523  11.866   1.695  1.00  0.00    -0.267 OA
HETATM   10  N4  UNL     1      16.411  10.078   0.230  1.00  0.00    -0.352 N 
ATOM     11  H4  UNL     1      16.766   9.171  -0.071  1.00  0.00     0.163 HD
BRANCH  10  12
HETATM   12  C14 UNL     1      15.279  10.720  -0.505  1.00  0.00     0.085 C 
HETATM   13  C15 UNL     1      14.020  10.271   0.180  1.00  0.00     0.025 C 
HETATM   14  C16 UNL     1      12.794  10.704  -0.559  1.00  0.00     0.002 C 
HETATM   15  C17 UNL     1      13.052  10.871  -2.058  1.00  0.00     0.005 C 
HETATM   16  C18 UNL     1      14.032   9.823  -2.468  1.00  0.00    -0.005 C 
HETATM   17  C23 UNL     1      15.387  10.194  -1.916  1.00  0.00     0.030 C 
BRANCH  16  18
HETATM   18  C19 UNL     1      14.139   9.614  -3.943  1.00  0.00    -0.048 C 
HETATM   19  C20 UNL     1      15.228  10.436  -4.556  1.00  0.00     0.015 C 
HETATM   20  C21 UNL     1      14.341   8.131  -4.195  1.00  0.00     0.015 C 
HETATM   21  C22 UNL     1      12.787   9.982  -4.555  1.00  0.00     0.015 C 
ENDBRANCH  16  18
ENDBRANCH  10  12
ENDBRANCH   7   8
BRANCH   5  22
HETATM   22  C4  UNL     1      21.874   9.613   3.601  1.00  0.00     0.337 C 
BRANCH  22  23
HETATM   23  N2  UNL     1      22.679   8.769   2.802  1.00  0.00     0.103 N 
HETATM   24  C5  UNL     1      22.424   8.780   1.391  1.00  0.00     0.305 C 
HETATM   25  C6  UNL     1      22.533   7.384   0.863  1.00  0.00     0.148 C 
HETATM   26  C7  UNL     1      22.906   6.548   2.041  1.00  0.00     0.071 C 
HETATM   27  C8  UNL     1      22.656   7.427   3.254  1.00  0.00     0.254 C 
BRANCH  25  28
HETATM   28  O1  UNL     1      23.555   7.258  -0.085  1.00  0.00    -0.394 OA
ATOM     29  H1  UNL     1      23.688   6.355  -0.349  1.00  0.00     0.210 HD
ENDBRANCH  25  28
BRANCH  27  30
HETATM   30  C9  UNL     1      23.669   7.207   4.326  1.00  0.00     0.307 C 
BRANCH  30  31
HETATM   31  N3  UNL     1      24.456   6.025   4.233  1.00  0.00     0.082 N 
HETATM   32  C10 UNL     1      24.070   5.207   5.412  1.00  0.00     0.309 C 
HETATM   33  C11 UNL     1      25.881   6.211   4.358  1.00  0.00     0.309 C 
ENDBRANCH  30  31
ENDBRANCH  27  30
ENDBRANCH  22  23
ENDBRANCH   5  22
TORSDOF 8
ENDMDL
MODEL 3
REMARK VINA RESULT: -8.194057662      1.629      2.635
REMARK  8 active torsions:
REMARK  status: ('A' for Active; 'I' for Inactive)
REMARK    1  A    between atoms: C3_5  and  C4_6 
REMARK    2  A    between atoms: C4_6  and  N2_7 
REMARK    3  A    between atoms: C6_9  and  O1_10 
REMARK    4  A    between atoms: C8_13  and  C9_14 
REMARK    5  A    between atoms: C9_14  and  N3_15 
REMARK    6  A    between atoms: C12_19  and  C13_20 
REMARK       I    between atoms: C13_20  and  N4_22 
REMARK    7  A    between atoms: N4_22  and  C14_24 
REMARK    8  A    between atoms: C18_28  and  C19_29 
ROOT
HETATM    1  C1  UNL     1      20.252  10.928   0.574  1.00  0.00     0.070 C 
HETATM    2  C2  UNL     1      19.604  10.217   1.753  1.00  0.00     0.028 A 
HETATM    3  N1  UNL     1      20.351   9.618   2.634  1.00  0.00    -0.355 N 
ATOM      4  H1  UNL     1      21.366   9.633   2.524  1.00  0.00     0.166 HD
HETATM    5  C3  UNL     1      19.825   8.998   3.660  1.00  0.00     0.080 A 
HETATM    6  S1  UNL     1      18.164   9.246   3.412  1.00  0.00    -0.068 SA
HETATM    7  C12 UNL     1      18.255  10.183   1.924  1.00  0.00     0.096 A 
ENDROOT
BRANCH   7   8
HETATM    8  C13 UNL     1      17.109  10.702   1.202  1.00  0.00     0.260 C 
HETATM    9  O2  UNL     1      16.656  11.836   1.619  1.00  0.00    -0.267 OA
HETATM   10  N4  UNL     1      16.499  10.072   0.130  1.00  0.00    -0.352 N 
ATOM     11  H4  UNL     1      16.853   9.176  -0.204  1.00  0.00     0.163 HD
BRANCH  10  12
HETATM   12  C14 UNL     1      15.320  10.706  -0.535  1.00  0.00     0.085 C 
HETATM   13  C15 UNL     1      14.105  10.229   0.207  1.00  0.00     0.025 C 
HETATM   14  C16 UNL     1      12.837  10.654  -0.460  1.00  0.00     0.002 C 
HETATM   15  C17 UNL     1      13.014  10.846  -1.968  1.00  0.00     0.005 C 
HETATM   16  C18 UNL     1      13.986   9.819  -2.444  1.00  0.00    -0.005 C 
HETATM   17  C23 UNL     1      15.363  10.203  -1.958  1.00  0.00     0.030 C 
BRANCH  16  18
HETATM   18  C19 UNL     1      14.019   9.633  -3.926  1.00  0.00    -0.048 C 
HETATM   19  C20 UNL     1      14.998  10.546  -4.592  1.00  0.00     0.015 C 
HETATM   20  C21 UNL     1      14.325   8.173  -4.210  1.00  0.00     0.015 C 
HETATM   21  C22 UNL     1      12.607   9.895  -4.449  1.00  0.00     0.015 C 
ENDBRANCH  16  18
ENDBRANCH  10  12
ENDBRANCH   7   8
BRANCH   5  22
HETATM   22  C4  UNL     1      20.517   8.247   4.774  1.00  0.00     0.337 C 
BRANCH  22  23
HETATM   23  N2  UNL     1      21.606   7.451   4.354  1.00  0.00     0.103 N 
HETATM   24  C5  UNL     1      21.291   6.157   3.820  1.00  0.00     0.305 C 
HETATM   25  C6  UNL     1      22.303   5.168   4.306  1.00  0.00     0.148 C 
HETATM   26  C7  UNL     1      23.261   5.960   5.130  1.00  0.00     0.071 C 
HETATM   27  C8  UNL     1      22.576   7.293   5.374  1.00  0.00     0.254 C 
BRANCH  25  28
HETATM   28  O1  UNL     1      23.026   4.594   3.253  1.00  0.00    -0.394 OA
ATOM     29  H1  UNL     1      23.558   3.863   3.542  1.00  0.00     0.210 HD
ENDBRANCH  25  28
BRANCH  27  30
HETATM   30  C9  UNL     1      23.541   8.431   5.372  1.00  0.00     0.307 C 
BRANCH  30  31
HETATM   31  N3  UNL     1      23.739   9.106   6.609  1.00  0.00     0.082 N 
HETATM   32  C10 UNL     1      25.098   8.706   7.057  1.00  0.00     0.309 C 
HETATM   33  C11 UNL     1      22.861   8.714   7.684  1.00  0.00     0.309 C 
ENDBRANCH  30  31
ENDBRANCH  27  30
ENDBRANCH  22  23
ENDBRANCH   5  22
TORSDOF 8
ENDMDL
MODEL 4
REMARK VINA RESULT: -8.142285010      1.717      2.287
REMARK  8 active torsions:
REMARK  status: ('A' for Active; 'I' for Inactive)
REMARK    1  A    between atoms: C3_5  and  C4_6 
REMARK    2  A    between atoms: C4_6  and  N2_7 
REMARK    3  A    between atoms: C6_9  and  O1_10 
REMARK    4  A    between atoms: C8_13  and  C9_14 
REMARK    5  A    between atoms: C9_14  and  N3_15 
REMARK    6  A    between atoms: C12_19  and  C13_20 
REMARK       I    between atoms: C13_20  and  N4_22 
REMARK    7  A    between atoms: N4_22  and  C14_24 
REMARK    8  A    between atoms: C18_28  and  C19_29 
ROOT
HETATM    1  C1  UNL     1      17.102   8.751   3.630  1.00  0.00     0.070 C 
HETATM    2  C2  UNL     1      18.221   9.568   3.001  1.00  0.00     0.028 A 
HETATM    3  N1  UNL     1      19.441   9.433   3.436  1.00  0.00    -0.355 N 
ATOM      4  H1  UNL     1      19.633   8.778   4.195  1.00  0.00     0.166 HD
HETATM    5  C3  UNL     1      20.426  10.121   2.916  1.00  0.00     0.080 A 
HETATM    6  S1  UNL     1      19.632  11.037   1.728  1.00  0.00    -0.068 SA
HETATM    7  C12 UNL     1      17.994  10.447   1.988  1.00  0.00     0.096 A 
ENDROOT
BRANCH   7   8
HETATM    8  C13 UNL     1      16.829  10.881   1.240  1.00  0.00     0.260 C 
HETATM    9  O2  UNL     1      16.154  11.844   1.771  1.00  0.00    -0.267 OA
HETATM   10  N4  UNL     1      16.419  10.338   0.033  1.00  0.00    -0.352 N 
ATOM     11  H4  UNL     1      16.949   9.577  -0.391  1.00  0.00     0.163 HD
BRANCH  10  12
HETATM   12  C14 UNL     1      15.198  10.870  -0.646  1.00  0.00     0.085 C 
HETATM   13  C15 UNL     1      14.020  10.315   0.101  1.00  0.00     0.025 C 
HETATM   14  C16 UNL     1      12.726  10.630  -0.576  1.00  0.00     0.002 C 
HETATM   15  C17 UNL     1      12.894  10.809  -2.087  1.00  0.00     0.005 C 
HETATM   16  C18 UNL     1      13.943   9.851  -2.543  1.00  0.00    -0.005 C 
HETATM   17  C23 UNL     1      15.284  10.347  -2.059  1.00  0.00     0.030 C 
BRANCH  16  18
HETATM   18  C19 UNL     1      13.996   9.642  -4.020  1.00  0.00    -0.048 C 
HETATM   19  C20 UNL     1      14.996  10.533  -4.685  1.00  0.00     0.015 C 
HETATM   20  C21 UNL     1      14.286   8.174  -4.279  1.00  0.00     0.015 C 
HETATM   21  C22 UNL     1      12.595   9.914  -4.569  1.00  0.00     0.015 C 
ENDBRANCH  16  18
ENDBRANCH  10  12
ENDBRANCH   7   8
BRANCH   5  22
HETATM   22  C4  UNL     1      21.892  10.108   3.283  1.00  0.00     0.337 C 
BRANCH  22  23
HETATM   23  N2  UNL     1      22.658   9.140   2.596  1.00  0.00     0.103 N 
HETATM   24  C5  UNL     1      22.479   9.065   1.175  1.00  0.00     0.305 C 
HETATM   25  C6  UNL     1      22.489   7.629   0.756  1.00  0.00     0.148 C 
HETATM   26  C7  UNL     1      22.723   6.856   2.011  1.00  0.00     0.071 C 
HETATM   27  C8  UNL     1      22.490   7.843   3.141  1.00  0.00     0.254 C 
BRANCH  25  28
HETATM   28  O1  UNL     1      23.544   7.343  -0.119  1.00  0.00    -0.394 OA
ATOM     29  H1  UNL     1      23.244   7.222  -1.012  1.00  0.00     0.210 HD
ENDBRANCH  25  28
BRANCH  27  30
HETATM   30  C9  UNL     1      23.423   7.620   4.283  1.00  0.00     0.307 C 
BRANCH  30  31
HETATM   31  N3  UNL     1      22.833   7.373   5.555  1.00  0.00     0.082 N 
HETATM   32  C10 UNL     1      21.437   6.958   5.262  1.00  0.00     0.309 C 
HETATM   33  C11 UNL     1      22.708   8.521   6.420  1.00  0.00     0.309 C 
ENDBRANCH  30  31
ENDBRANCH  27  30
ENDBRANCH  22  23
ENDBRANCH   5  22
TORSDOF 8
ENDMDL
MODEL 5
REMARK VINA RESULT: -7.995452410      1.756      2.808
REMARK  8 active torsions:
REMARK  status: ('A' for Active; 'I' for Inactive)
REMARK    1  A    between atoms: C3_5  and  C4_6 
REMARK    2  A    between atoms: C4_6  and  N2_7 
REMARK    3  A    between atoms: C6_9  and  O1_10 
REMARK    4  A    between atoms: C8_13  and  C9_14 
REMARK    5  A    between atoms: C9_14  and  N3_15 
REMARK    6  A    between atoms: C12_19  and  C13_20 
REMARK       I    between atoms: C13_20  and  N4_22 
REMARK    7  A    between atoms: N4_22  and  C14_24 
REMARK    8  A    between atoms: C18_28  and  C19_29 
ROOT
HETATM    1  C1  UNL     1      20.399  10.914   0.634  1.00  0.00     0.070 C 
HETATM    2  C2  UNL     1      19.757  10.044   1.704  1.00  0.00     0.028 A 
HETATM    3  N1  UNL     1      20.511   9.356   2.513  1.00  0.00    -0.355 N 
ATOM      4  H1  UNL     1      21.525   9.409   2.419  1.00  0.00     0.166 HD
HETATM    5  C3  UNL     1      19.990   8.598   3.445  1.00  0.00     0.080 A 
HETATM    6  S1  UNL     1      18.326   8.836   3.208  1.00  0.00    -0.068 SA
HETATM    7  C12 UNL     1      18.408   9.955   1.851  1.00  0.00     0.096 A 
ENDROOT
BRANCH   7   8
HETATM    8  C13 UNL     1      17.256  10.535   1.186  1.00  0.00     0.260 C 
HETATM    9  O2  UNL     1      16.882  11.689   1.625  1.00  0.00    -0.267 OA
HETATM   10  N4  UNL     1      16.564   9.938   0.145  1.00  0.00    -0.352 N 
ATOM     11  H4  UNL     1      16.855   9.027  -0.206  1.00  0.00     0.163 HD
BRANCH  10  12
HETATM   12  C14 UNL     1      15.388  10.634  -0.462  1.00  0.00     0.085 C 
HETATM   13  C15 UNL     1      14.183  10.191   0.317  1.00  0.00     0.025 C 
HETATM   14  C16 UNL     1      12.909  10.680  -0.293  1.00  0.00     0.002 C 
HETATM   15  C17 UNL     1      13.038  10.896  -1.803  1.00  0.00     0.005 C 
HETATM   16  C18 UNL     1      13.948   9.841  -2.336  1.00  0.00    -0.005 C 
HETATM   17  C23 UNL     1      15.357  10.159  -1.895  1.00  0.00     0.030 C 
BRANCH  16  18
HETATM   18  C19 UNL     1      13.918   9.684  -3.821  1.00  0.00    -0.048 C 
HETATM   19  C20 UNL     1      12.555   9.917  -4.390  1.00  0.00     0.015 C 
HETATM   20  C21 UNL     1      14.947  10.630  -4.415  1.00  0.00     0.015 C 
HETATM   21  C22 UNL     1      14.392   8.266  -4.138  1.00  0.00     0.015 C 
ENDBRANCH  16  18
ENDBRANCH  10  12
ENDBRANCH   7   8
BRANCH   5  22
HETATM   22  C4  UNL     1      20.689   7.730   4.464  1.00  0.00     0.337 C 
BRANCH  22  23
HETATM   23  N2  UNL     1      21.052   6.449   3.989  1.00  0.00     0.103 N 
HETATM   24  C5  UNL     1      20.077   5.407   4.134  1.00  0.00     0.305 C 
HETATM   25  C6  UNL     1      20.769   4.140   4.528  1.00  0.00     0.148 C 
HETATM   26  C7  UNL     1      22.220   4.484   4.573  1.00  0.00     0.071 C 
HETATM   27  C8  UNL     1      22.276   6.001   4.547  1.00  0.00     0.254 C 
BRANCH  25  28
HETATM   28  O1  UNL     1      20.604   3.130   3.573  1.00  0.00    -0.394 OA
ATOM     29  H1  UNL     1      21.343   2.535   3.551  1.00  0.00     0.210 HD
ENDBRANCH  25  28
BRANCH  27  30
HETATM   30  C9  UNL     1      23.437   6.508   3.760  1.00  0.00     0.307 C 
BRANCH  30  31
HETATM   31  N3  UNL     1      24.539   7.022   4.501  1.00  0.00     0.082 N 
HETATM   32  C10 UNL     1      25.586   5.972   4.419  1.00  0.00     0.309 C 
HETATM   33  C11 UNL     1      24.309   7.213   5.912  1.00  0.00     0.309 C 
ENDBRANCH  30  31
ENDBRANCH  27  30
ENDBRANCH  22  23
ENDBRANCH   5  22
TORSDOF 8
ENDMDL
