MODEL 1
REMARK VINA RESULT: -6.159715784      0.000      0.000
REMARK  6 active torsions:
REMARK  status: ('A' for Active; 'I' for Inactive)
REMARK    1  A    between atoms: C2_2  and  C3_3 
REMARK    2  A    between atoms: C3_3  and  N1_5 
REMARK    3  A    between atoms: N1_5  and  C5_8 
REMARK    4  A    between atoms: C5_8  and  C6_9 
REMARK    5  A    between atoms: C6_9  and  N2_10 
REMARK    6  A    between atoms: N5_16  and  C8_18 
ROOT
HETATM    1  N2  UNL     1      24.726  75.402  14.512  1.00  0.00    -0.238 N 
HETATM    2  N3  UNL     1      24.319  76.327  15.383  1.00  0.00    -0.236 N 
ATOM      3  H3  UNL     1      23.404  76.778  15.368  1.00  0.00     0.208 HD
HETATM    4  N4  UNL     1      25.265  76.575  16.263  1.00  0.00    -0.266 N 
ATOM      5  H4  UNL     1      25.189  77.246  17.027  1.00  0.00     0.190 HD
HETATM    6  C7  UNL     1      26.341  75.822  16.010  1.00  0.00     0.188 A 
HETATM    7  N5  UNL     1      27.467  75.779  16.640  1.00  0.00    -0.367 N 
ATOM      8  H5  UNL     1      28.179  75.133  16.298  1.00  0.00     0.161 HD
HETATM    9  C11 UNL     1      25.974  75.081  14.890  1.00  0.00     0.308 A 
HETATM   10  O1  UNL     1      26.675  74.248  14.311  1.00  0.00    -0.262 OA
ENDROOT
BRANCH   1  11
HETATM   11  C6  UNL     1      23.917  74.936  13.448  1.00  0.00     0.181 C 
BRANCH  11  12
HETATM   12  C5  UNL     1      24.098  75.475  12.098  1.00  0.00     0.254 C 
BRANCH  12  13
HETATM   13  N1  UNL     1      25.359  75.135  11.462  1.00  0.00    -0.070 N 
ATOM     14  H12 UNL     1      25.235  74.372  10.797  1.00  0.00     0.277 HD
ATOM     15  H11 UNL     1      25.987  74.681  12.126  1.00  0.00     0.277 HD
BRANCH  13  16
HETATM   16  C3  UNL     1      26.008  76.260  10.833  1.00  0.00     0.181 C 
HETATM   17  C4  UNL     1      27.175  76.650  11.700  1.00  0.00     0.040 C 
BRANCH  16  18
HETATM   18  C2  UNL     1      25.112  77.458  10.662  1.00  0.00     0.028 C 
HETATM   19  C1  UNL     1      24.851  77.832   9.237  1.00  0.00     0.007 C 
ENDBRANCH  16  18
ENDBRANCH  13  16
ENDBRANCH  12  13
ENDBRANCH  11  12
ENDBRANCH   1  11
BRANCH   7  20
HETATM   20  C8  UNL     1      27.781  76.575  17.783  1.00  0.00     0.075 C 
HETATM   21  C9  UNL     1      29.155  77.203  17.707  1.00  0.00     0.031 C 
HETATM   22  C10 UNL     1      27.731  75.782  19.078  1.00  0.00     0.031 C 
ENDBRANCH   7  20
TORSDOF 6
ENDMDL
MODEL 2
REMARK VINA RESULT: -6.070824443      1.367      1.732
REMARK  6 active torsions:
REMARK  status: ('A' for Active; 'I' for Inactive)
REMARK    1  A    between atoms: C2_2  and  C3_3 
REMARK    2  A    between atoms: C3_3  and  N1_5 
REMARK    3  A    between atoms: N1_5  and  C5_8 
REMARK    4  A    between atoms: C5_8  and  C6_9 
REMARK    5  A    between atoms: C6_9  and  N2_10 
REMARK    6  A    between atoms: N5_16  and  C8_18 
ROOT
HETATM    1  N2  UNL     1      24.976  75.336  14.436  1.00  0.00    -0.238 N 
HETATM    2  N3  UNL     1      26.071  74.574  14.461  1.00  0.00    -0.236 N 
ATOM      3  H3  UNL     1      26.267  73.815  13.809  1.00  0.00     0.208 HD
HETATM    4  N4  UNL     1      26.861  74.941  15.446  1.00  0.00    -0.266 N 
ATOM      5  H4  UNL     1      27.758  74.507  15.668  1.00  0.00     0.190 HD
HETATM    6  C7  UNL     1      26.320  75.965  16.117  1.00  0.00     0.188 A 
HETATM    7  N5  UNL     1      26.783  76.598  17.142  1.00  0.00    -0.367 N 
ATOM      8  H5  UNL     1      26.224  77.362  17.522  1.00  0.00     0.161 HD
HETATM    9  C11 UNL     1      25.119  76.200  15.454  1.00  0.00     0.308 A 
HETATM   10  O1  UNL     1      24.291  77.067  15.741  1.00  0.00    -0.262 OA
ENDROOT
BRANCH   1  11
HETATM   11  C6  UNL     1      23.943  75.169  13.483  1.00  0.00     0.181 C 
BRANCH  11  12
HETATM   12  C5  UNL     1      24.137  75.616  12.102  1.00  0.00     0.254 C 
BRANCH  12  13
HETATM   13  N1  UNL     1      24.731  76.934  11.958  1.00  0.00    -0.070 N 
ATOM     14  H12 UNL     1      24.838  77.383  12.867  1.00  0.00     0.277 HD
ATOM     15  H11 UNL     1      24.072  77.581  11.525  1.00  0.00     0.277 HD
BRANCH  13  16
HETATM   16  C3  UNL     1      25.983  76.926  11.241  1.00  0.00     0.181 C 
HETATM   17  C4  UNL     1      27.072  77.242  12.233  1.00  0.00     0.040 C 
BRANCH  16  18
HETATM   18  C2  UNL     1      26.047  77.928  10.119  1.00  0.00     0.028 C 
HETATM   19  C1  UNL     1      24.841  77.933   9.231  1.00  0.00     0.007 C 
ENDBRANCH  16  18
ENDBRANCH  13  16
ENDBRANCH  12  13
ENDBRANCH  11  12
ENDBRANCH   1  11
BRANCH   7  20
HETATM   20  C8  UNL     1      28.026  76.300  17.780  1.00  0.00     0.075 C 
HETATM   21  C9  UNL     1      27.862  75.862  19.218  1.00  0.00     0.031 C 
HETATM   22  C10 UNL     1      28.979  77.483  17.785  1.00  0.00     0.031 C 
ENDBRANCH   7  20
TORSDOF 6
ENDMDL
MODEL 3
REMARK VINA RESULT: -6.067390983      1.677      2.548
REMARK  6 active torsions:
REMARK  status: ('A' for Active; 'I' for Inactive)
REMARK    1  A    between atoms: C2_2  and  C3_3 
REMARK    2  A    between atoms: C3_3  and  N1_5 
REMARK    3  A    between atoms: N1_5  and  C5_8 
REMARK    4  A    between atoms: C5_8  and  C6_9 
REMARK    5  A    between atoms: C6_9  and  N2_10 
REMARK    6  A    between atoms: N5_16  and  C8_18 
ROOT
HETATM    1  N2  UNL     1      28.126  75.341  13.344  1.00  0.00    -0.238 N 
HETATM    2  N3  UNL     1      28.729  76.439  13.800  1.00  0.00    -0.236 N 
ATOM      3  H3  UNL     1      29.427  76.977  13.286  1.00  0.00     0.208 HD
HETATM    4  N4  UNL     1      28.297  76.731  15.008  1.00  0.00    -0.266 N 
ATOM      5  H4  UNL     1      28.611  77.527  15.564  1.00  0.00     0.190 HD
HETATM    6  C7  UNL     1      27.386  75.834  15.403  1.00  0.00     0.188 A 
HETATM    7  N5  UNL     1      26.738  75.773  16.517  1.00  0.00    -0.367 N 
ATOM      8  H5  UNL     1      26.074  75.008  16.641  1.00  0.00     0.161 HD
HETATM    9  C11 UNL     1      27.293  74.957  14.326  1.00  0.00     0.308 A 
HETATM   10  O1  UNL     1      26.562  73.967  14.258  1.00  0.00    -0.262 OA
ENDROOT
BRANCH   1  11
HETATM   11  C6  UNL     1      28.396  74.786  12.071  1.00  0.00     0.181 C 
BRANCH  11  12
HETATM   12  C5  UNL     1      27.532  75.106  10.931  1.00  0.00     0.254 C 
BRANCH  12  13
HETATM   13  N1  UNL     1      26.116  74.859  11.143  1.00  0.00    -0.070 N 
ATOM     14  H12 UNL     1      25.976  74.185  11.895  1.00  0.00     0.277 HD
ATOM     15  H11 UNL     1      25.722  74.330  10.365  1.00  0.00     0.277 HD
BRANCH  13  16
HETATM   16  C3  UNL     1      25.352  76.059  11.382  1.00  0.00     0.181 C 
HETATM   17  C4  UNL     1      24.183  75.684  12.254  1.00  0.00     0.040 C 
BRANCH  16  18
HETATM   18  C2  UNL     1      24.830  76.707  10.127  1.00  0.00     0.028 C 
HETATM   19  C1  UNL     1      25.446  78.036   9.820  1.00  0.00     0.007 C 
ENDBRANCH  16  18
ENDBRANCH  13  16
ENDBRANCH  12  13
ENDBRANCH  11  12
ENDBRANCH   1  11
BRANCH   7  20
HETATM   20  C8  UNL     1      26.887  76.706  17.588  1.00  0.00     0.075 C 
HETATM   21  C9  UNL     1      27.778  76.195  18.698  1.00  0.00     0.031 C 
HETATM   22  C10 UNL     1      25.560  77.081  18.226  1.00  0.00     0.031 C 
ENDBRANCH   7  20
TORSDOF 6
ENDMDL
MODEL 4
REMARK VINA RESULT: -6.049705210      2.142      2.998
REMARK  6 active torsions:
REMARK  status: ('A' for Active; 'I' for Inactive)
REMARK    1  A    between atoms: C2_2  and  C3_3 
REMARK    2  A    between atoms: C3_3  and  N1_5 
REMARK    3  A    between atoms: N1_5  and  C5_8 
REMARK    4  A    between atoms: C5_8  and  C6_9 
REMARK    5  A    between atoms: C6_9  and  N2_10 
REMARK    6  A    between atoms: N5_16  and  C8_18 
ROOT
HETATM    1  N2  UNL     1      25.239  75.749  12.814  1.00  0.00    -0.238 N 
HETATM    2  N3  UNL     1      24.827  74.834  13.693  1.00  0.00    -0.236 N 
ATOM      3  H3  UNL     1      24.220  74.045  13.471  1.00  0.00     0.208 HD
HETATM    4  N4  UNL     1      25.315  75.094  14.887  1.00  0.00    -0.266 N 
ATOM      5  H4  UNL     1      25.140  74.535  15.723  1.00  0.00     0.190 HD
HETATM    6  C7  UNL     1      26.073  76.196  14.848  1.00  0.00     0.188 A 
HETATM    7  N5  UNL     1      26.716  76.773  15.807  1.00  0.00    -0.367 N 
ATOM      8  H5  UNL     1      27.248  77.615  15.585  1.00  0.00     0.161 HD
HETATM    9  C11 UNL     1      26.011  76.596  13.516  1.00  0.00     0.308 A 
HETATM   10  O1  UNL     1      26.571  77.580  13.028  1.00  0.00    -0.262 OA
ENDROOT
BRANCH   1  11
HETATM   11  C6  UNL     1      24.869  75.728  11.449  1.00  0.00     0.181 C 
BRANCH  11  12
HETATM   12  C5  UNL     1      25.876  75.466  10.418  1.00  0.00     0.254 C 
BRANCH  12  13
HETATM   13  N1  UNL     1      26.530  74.172  10.509  1.00  0.00    -0.070 N 
ATOM     14  H12 UNL     1      26.158  73.529   9.810  1.00  0.00     0.277 HD
ATOM     15  H11 UNL     1      26.246  73.683  11.358  1.00  0.00     0.277 HD
BRANCH  13  16
HETATM   16  C3  UNL     1      27.968  74.248  10.420  1.00  0.00     0.181 C 
HETATM   17  C4  UNL     1      28.475  72.861  10.122  1.00  0.00     0.040 C 
BRANCH  16  18
HETATM   18  C2  UNL     1      28.629  74.743  11.679  1.00  0.00     0.028 C 
HETATM   19  C1  UNL     1      28.341  73.914  12.891  1.00  0.00     0.007 C 
ENDBRANCH  16  18
ENDBRANCH  13  16
ENDBRANCH  12  13
ENDBRANCH  11  12
ENDBRANCH   1  11
BRANCH   7  20
HETATM   20  C8  UNL     1      26.732  76.310  17.158  1.00  0.00     0.075 C 
HETATM   21  C9  UNL     1      25.638  76.920  18.005  1.00  0.00     0.031 C 
HETATM   22  C10 UNL     1      28.047  76.604  17.861  1.00  0.00     0.031 C 
ENDBRANCH   7  20
TORSDOF 6
ENDMDL
MODEL 5
REMARK VINA RESULT: -6.016283343      1.565      2.766
REMARK  6 active torsions:
REMARK  status: ('A' for Active; 'I' for Inactive)
REMARK    1  A    between atoms: C2_2  and  C3_3 
REMARK    2  A    between atoms: C3_3  and  N1_5 
REMARK    3  A    between atoms: N1_5  and  C5_8 
REMARK    4  A    between atoms: C5_8  and  C6_9 
REMARK    5  A    between atoms: C6_9  and  N2_10 
REMARK    6  A    between atoms: N5_16  and  C8_18 
ROOT
HETATM    1  N2  UNL     1      28.025  75.647  13.396  1.00  0.00    -0.238 N 
HETATM    2  N3  UNL     1      28.529  76.779  13.889  1.00  0.00    -0.236 N 
ATOM      3  H3  UNL     1      29.100  77.441  13.362  1.00  0.00     0.208 HD
HETATM    4  N4  UNL     1      28.186  76.922  15.151  1.00  0.00    -0.266 N 
ATOM      5  H4  UNL     1      28.453  77.709  15.743  1.00  0.00     0.190 HD
HETATM    6  C7  UNL     1      27.438  75.886  15.548  1.00  0.00     0.188 A 
HETATM    7  N5  UNL     1      26.917  75.657  16.706  1.00  0.00    -0.367 N 
ATOM      8  H5  UNL     1      26.369  74.804  16.822  1.00  0.00     0.161 HD
HETATM    9  C11 UNL     1      27.348  75.086  14.412  1.00  0.00     0.308 A 
HETATM   10  O1  UNL     1      26.742  74.016  14.325  1.00  0.00    -0.262 OA
ENDROOT
BRANCH   1  11
HETATM   11  C6  UNL     1      28.233  75.229  12.060  1.00  0.00     0.181 C 
BRANCH  11  12
HETATM   12  C5  UNL     1      27.205  75.471  11.045  1.00  0.00     0.254 C 
BRANCH  12  13
HETATM   13  N1  UNL     1      25.927  74.827  11.295  1.00  0.00    -0.070 N 
ATOM     14  H12 UNL     1      25.957  74.290  12.162  1.00  0.00     0.277 HD
ATOM     15  H11 UNL     1      25.769  74.069  10.631  1.00  0.00     0.277 HD
BRANCH  13  16
HETATM   16  C3  UNL     1      24.812  75.743  11.301  1.00  0.00     0.181 C 
HETATM   17  C4  UNL     1      25.290  77.038  10.700  1.00  0.00     0.040 C 
BRANCH  16  18
HETATM   18  C2  UNL     1      24.264  76.022  12.675  1.00  0.00     0.028 C 
HETATM   19  C1  UNL     1      23.533  74.870  13.291  1.00  0.00     0.007 C 
ENDBRANCH  16  18
ENDBRANCH  13  16
ENDBRANCH  12  13
ENDBRANCH  11  12
ENDBRANCH   1  11
BRANCH   7  20
HETATM   20  C8  UNL     1      27.055  76.521  17.836  1.00  0.00     0.075 C 
HETATM   21  C9  UNL     1      27.805  75.880  18.981  1.00  0.00     0.031 C 
HETATM   22  C10 UNL     1      25.716  76.979  18.388  1.00  0.00     0.031 C 
ENDBRANCH   7  20
TORSDOF 6
ENDMDL
