MODEL 1
REMARK VINA RESULT: -6.210128198      0.000      0.000
REMARK  7 active torsions:
REMARK  status: ('A' for Active; 'I' for Inactive)
REMARK    1  A    between atoms: N1_2  and  C3_4 
REMARK    2  A    between atoms: C3_4  and  C4_5 
REMARK    3  A    between atoms: C4_5  and  C5_6 
REMARK    4  A    between atoms: C5_6  and  C6_7 
REMARK    5  A    between atoms: C6_7  and  N2_8 
REMARK    6  A    between atoms: N2_8  and  C7_10 
REMARK    7  A    between atoms: C8_13  and  N4_14 
ROOT
HETATM    1  C7  UNL     1      28.136  77.760  12.969  1.00  0.00     0.147 A 
HETATM    2  N3  UNL     1      28.734  78.939  13.314  1.00  0.00    -0.175 N 
ATOM      3  H3  UNL     1      29.516  78.908  13.969  1.00  0.00     0.186 HD
HETATM    4  C8  UNL     1      28.360  80.110  12.853  1.00  0.00     0.679 A 
HETATM    5  N5  UNL     1      27.337  80.225  11.988  1.00  0.00    -0.174 N 
ATOM      6  H5  UNL     1      27.043  81.133  11.627  1.00  0.00     0.186 HD
HETATM    7  C9  UNL     1      26.722  79.093  11.622  1.00  0.00     0.152 A 
HETATM    8  N6  UNL     1      25.672  78.911  10.771  1.00  0.00    -0.336 N 
ATOM      9  H6  UNL     1      25.182  79.652  10.268  1.00  0.00     0.168 HD
HETATM   10  C10 UNL     1      25.388  77.610  10.701  1.00  0.00     0.182 A 
HETATM   11  N7  UNL     1      26.249  76.940  11.504  1.00  0.00    -0.346 N 
ATOM     12  H7  UNL     1      26.269  75.931  11.650  1.00  0.00     0.167 HD
HETATM   13  C11 UNL     1      27.080  77.842  12.080  1.00  0.00     0.123 A 
ENDROOT
BRANCH   1  14
HETATM   14  N2  UNL     1      28.549  76.696  13.452  1.00  0.00    -0.374 N 
ATOM     15  H2  UNL     1      28.573  76.756  14.471  1.00  0.00     0.161 HD
BRANCH  14  16
HETATM   16  C6  UNL     1      28.985  75.465  13.041  1.00  0.00     0.121 C 
BRANCH  16  17
HETATM   17  C5  UNL     1      27.968  74.331  13.302  1.00  0.00     0.021 C 
BRANCH  17  18
HETATM   18  C4  UNL     1      27.372  74.554  14.666  1.00  0.00     0.032 C 
BRANCH  18  19
HETATM   19  C3  UNL     1      25.907  74.692  14.581  1.00  0.00     0.271 C 
BRANCH  19  20
HETATM   20  N1  UNL     1      25.366  75.970  14.903  1.00  0.00     0.080 N 
HETATM   21  C1  UNL     1      23.921  75.949  14.898  1.00  0.00     0.309 C 
HETATM   22  C2  UNL     1      25.917  76.601  16.058  1.00  0.00     0.309 C 
ENDBRANCH  19  20
ENDBRANCH  18  19
ENDBRANCH  17  18
ENDBRANCH  16  17
ENDBRANCH  14  16
ENDBRANCH   1  14
BRANCH   4  23
HETATM   23  N4  UNL     1      28.987  81.207  13.233  1.00  0.00    -0.234 N 
ATOM     24  H42 UNL     1      29.163  81.931  12.535  1.00  0.00     0.174 HD
ATOM     25  H41 UNL     1      29.285  81.321  14.201  1.00  0.00     0.174 HD
ENDBRANCH   4  23
TORSDOF 7
ENDMDL
MODEL 2
REMARK VINA RESULT: -6.053334552      1.343      3.380
REMARK  7 active torsions:
REMARK  status: ('A' for Active; 'I' for Inactive)
REMARK    1  A    between atoms: N1_2  and  C3_4 
REMARK    2  A    between atoms: C3_4  and  C4_5 
REMARK    3  A    between atoms: C4_5  and  C5_6 
REMARK    4  A    between atoms: C5_6  and  C6_7 
REMARK    5  A    between atoms: C6_7  and  N2_8 
REMARK    6  A    between atoms: N2_8  and  C7_10 
REMARK    7  A    between atoms: C8_13  and  N4_14 
ROOT
HETATM    1  C7  UNL     1      27.231  78.883  11.968  1.00  0.00     0.147 A 
HETATM    2  N3  UNL     1      27.449  80.170  12.375  1.00  0.00    -0.175 N 
ATOM      3  H3  UNL     1      26.975  80.920  11.872  1.00  0.00     0.186 HD
HETATM    4  C8  UNL     1      28.233  80.495  13.376  1.00  0.00     0.679 A 
HETATM    5  N5  UNL     1      28.890  79.559  14.083  1.00  0.00    -0.174 N 
ATOM      6  H5  UNL     1      29.500  79.808  14.861  1.00  0.00     0.186 HD
HETATM    7  C9  UNL     1      28.704  78.283  13.718  1.00  0.00     0.152 A 
HETATM    8  N6  UNL     1      29.232  77.143  14.247  1.00  0.00    -0.336 N 
ATOM      9  H6  UNL     1      29.877  77.100  15.036  1.00  0.00     0.168 HD
HETATM   10  C10 UNL     1      28.771  76.093  13.567  1.00  0.00     0.182 A 
HETATM   11  N7  UNL     1      27.943  76.543  12.594  1.00  0.00    -0.346 N 
ATOM     12  H7  UNL     1      27.444  75.965  11.918  1.00  0.00     0.167 HD
HETATM   13  C11 UNL     1      27.890  77.894  12.674  1.00  0.00     0.123 A 
ENDROOT
BRANCH   1  14
HETATM   14  N2  UNL     1      26.475  78.661  11.011  1.00  0.00    -0.374 N 
ATOM     15  H2  UNL     1      26.995  78.706  10.134  1.00  0.00     0.161 HD
BRANCH  14  16
HETATM   16  C6  UNL     1      25.159  78.374  10.768  1.00  0.00     0.121 C 
BRANCH  16  17
HETATM   17  C5  UNL     1      24.949  77.060   9.982  1.00  0.00     0.021 C 
BRANCH  17  18
HETATM   18  C4  UNL     1      25.071  75.919  10.956  1.00  0.00     0.032 C 
BRANCH  18  19
HETATM   19  C3  UNL     1      24.196  76.130  12.122  1.00  0.00     0.271 C 
BRANCH  19  20
HETATM   20  N1  UNL     1      24.360  75.230  13.214  1.00  0.00     0.080 N 
HETATM   21  C1  UNL     1      24.988  75.877  14.343  1.00  0.00     0.309 C 
HETATM   22  C2  UNL     1      23.204  74.472  13.570  1.00  0.00     0.309 C 
ENDBRANCH  19  20
ENDBRANCH  18  19
ENDBRANCH  17  18
ENDBRANCH  16  17
ENDBRANCH  14  16
ENDBRANCH   1  14
BRANCH   4  23
HETATM   23  N4  UNL     1      28.395  81.762  13.712  1.00  0.00    -0.234 N 
ATOM     24  H42 UNL     1      29.090  82.313  13.206  1.00  0.00     0.174 HD
ATOM     25  H41 UNL     1      27.835  82.172  14.459  1.00  0.00     0.174 HD
ENDBRANCH   4  23
TORSDOF 7
ENDMDL
MODEL 3
REMARK VINA RESULT: -6.026480725      0.868      1.326
REMARK  7 active torsions:
REMARK  status: ('A' for Active; 'I' for Inactive)
REMARK    1  A    between atoms: N1_2  and  C3_4 
REMARK    2  A    between atoms: C3_4  and  C4_5 
REMARK    3  A    between atoms: C4_5  and  C5_6 
REMARK    4  A    between atoms: C5_6  and  C6_7 
REMARK    5  A    between atoms: C6_7  and  N2_8 
REMARK    6  A    between atoms: N2_8  and  C7_10 
REMARK    7  A    between atoms: C8_13  and  N4_14 
ROOT
HETATM    1  C7  UNL     1      27.990  77.602  12.897  1.00  0.00     0.147 A 
HETATM    2  N3  UNL     1      28.615  78.763  13.256  1.00  0.00    -0.175 N 
ATOM      3  H3  UNL     1      29.374  78.711  13.936  1.00  0.00     0.186 HD
HETATM    4  C8  UNL     1      28.295  79.943  12.777  1.00  0.00     0.679 A 
HETATM    5  N5  UNL     1      27.306  80.087  11.878  1.00  0.00    -0.174 N 
ATOM      6  H5  UNL     1      27.053  81.001  11.504  1.00  0.00     0.186 HD
HETATM    7  C9  UNL     1      26.666  78.973  11.497  1.00  0.00     0.152 A 
HETATM    8  N6  UNL     1      25.640  78.820  10.614  1.00  0.00    -0.336 N 
ATOM      9  H6  UNL     1      25.191  79.573  10.091  1.00  0.00     0.168 HD
HETATM   10  C10 UNL     1      25.316  77.529  10.541  1.00  0.00     0.182 A 
HETATM   11  N7  UNL     1      26.127  76.836  11.375  1.00  0.00    -0.346 N 
ATOM     12  H7  UNL     1      26.109  75.827  11.526  1.00  0.00     0.167 HD
HETATM   13  C11 UNL     1      26.967  77.713  11.973  1.00  0.00     0.123 A 
ENDROOT
BRANCH   1  14
HETATM   14  N2  UNL     1      28.353  76.528  13.399  1.00  0.00    -0.374 N 
ATOM     15  H2  UNL     1      29.358  76.403  13.277  1.00  0.00     0.161 HD
BRANCH  14  16
HETATM   16  C6  UNL     1      27.820  75.459  14.066  1.00  0.00     0.121 C 
BRANCH  16  17
HETATM   17  C5  UNL     1      27.370  75.791  15.506  1.00  0.00     0.021 C 
BRANCH  17  18
HETATM   18  C4  UNL     1      25.876  75.981  15.488  1.00  0.00     0.032 C 
BRANCH  18  19
HETATM   19  C3  UNL     1      25.253  75.124  14.464  1.00  0.00     0.271 C 
BRANCH  19  20
HETATM   20  N1  UNL     1      23.934  75.475  14.055  1.00  0.00     0.080 N 
HETATM   21  C1  UNL     1      23.111  74.303  13.863  1.00  0.00     0.309 C 
HETATM   22  C2  UNL     1      23.297  76.492  14.827  1.00  0.00     0.309 C 
ENDBRANCH  19  20
ENDBRANCH  18  19
ENDBRANCH  17  18
ENDBRANCH  16  17
ENDBRANCH  14  16
ENDBRANCH   1  14
BRANCH   4  23
HETATM   23  N4  UNL     1      28.945  81.022  13.172  1.00  0.00    -0.234 N 
ATOM     24  H42 UNL     1      29.937  81.100  12.947  1.00  0.00     0.174 HD
ATOM     25  H41 UNL     1      28.459  81.754  13.690  1.00  0.00     0.174 HD
ENDBRANCH   4  23
TORSDOF 7
ENDMDL
MODEL 4
REMARK VINA RESULT: -6.004581377      1.512      2.068
REMARK  7 active torsions:
REMARK  status: ('A' for Active; 'I' for Inactive)
REMARK    1  A    between atoms: N1_2  and  C3_4 
REMARK    2  A    between atoms: C3_4  and  C4_5 
REMARK    3  A    between atoms: C4_5  and  C5_6 
REMARK    4  A    between atoms: C5_6  and  C6_7 
REMARK    5  A    between atoms: C6_7  and  N2_8 
REMARK    6  A    between atoms: N2_8  and  C7_10 
REMARK    7  A    between atoms: C8_13  and  N4_14 
ROOT
HETATM    1  C7  UNL     1      28.266  78.491  14.348  1.00  0.00     0.147 A 
HETATM    2  N3  UNL     1      28.756  79.594  14.991  1.00  0.00    -0.175 N 
ATOM      3  H3  UNL     1      29.176  79.466  15.912  1.00  0.00     0.186 HD
HETATM    4  C8  UNL     1      28.718  80.807  14.492  1.00  0.00     0.679 A 
HETATM    5  N5  UNL     1      28.179  81.049  13.284  1.00  0.00    -0.174 N 
ATOM      6  H5  UNL     1      28.147  81.990  12.893  1.00  0.00     0.186 HD
HETATM    7  C9  UNL     1      27.687  79.996  12.618  1.00  0.00     0.152 A 
HETATM    8  N6  UNL     1      27.093  79.944  11.392  1.00  0.00    -0.336 N 
ATOM      9  H6  UNL     1      26.931  80.744  10.779  1.00  0.00     0.168 HD
HETATM   10  C10 UNL     1      26.757  78.683  11.124  1.00  0.00     0.182 A 
HETATM   11  N7  UNL     1      27.129  77.908  12.171  1.00  0.00    -0.346 N 
ATOM     12  H7  UNL     1      26.998  76.899  12.245  1.00  0.00     0.167 HD
HETATM   13  C11 UNL     1      27.706  78.704  13.102  1.00  0.00     0.123 A 
ENDROOT
BRANCH   1  14
HETATM   14  N2  UNL     1      28.340  77.380  14.891  1.00  0.00    -0.374 N 
ATOM     15  H2  UNL     1      29.307  77.053  14.896  1.00  0.00     0.161 HD
BRANCH  14  16
HETATM   16  C6  UNL     1      27.525  76.455  15.485  1.00  0.00     0.121 C 
BRANCH  16  17
HETATM   17  C5  UNL     1      27.398  75.138  14.686  1.00  0.00     0.021 C 
BRANCH  17  18
HETATM   18  C4  UNL     1      25.957  74.708  14.735  1.00  0.00     0.032 C 
BRANCH  18  19
HETATM   19  C3  UNL     1      25.063  75.838  14.428  1.00  0.00     0.271 C 
BRANCH  19  20
HETATM   20  N1  UNL     1      23.949  75.560  13.584  1.00  0.00     0.080 N 
HETATM   21  C1  UNL     1      24.321  75.597  12.188  1.00  0.00     0.309 C 
HETATM   22  C2  UNL     1      23.181  74.409  13.932  1.00  0.00     0.309 C 
ENDBRANCH  19  20
ENDBRANCH  18  19
ENDBRANCH  17  18
ENDBRANCH  16  17
ENDBRANCH  14  16
ENDBRANCH   1  14
BRANCH   4  23
HETATM   23  N4  UNL     1      29.212  81.824  15.173  1.00  0.00    -0.234 N 
ATOM     24  H42 UNL     1      29.366  81.707  16.175  1.00  0.00     0.174 HD
ATOM     25  H41 UNL     1      29.431  82.701  14.702  1.00  0.00     0.174 HD
ENDBRANCH   4  23
TORSDOF 7
ENDMDL
MODEL 5
REMARK VINA RESULT: -5.946365445      1.287      2.982
REMARK  7 active torsions:
REMARK  status: ('A' for Active; 'I' for Inactive)
REMARK    1  A    between atoms: N1_2  and  C3_4 
REMARK    2  A    between atoms: C3_4  and  C4_5 
REMARK    3  A    between atoms: C4_5  and  C5_6 
REMARK    4  A    between atoms: C5_6  and  C6_7 
REMARK    5  A    between atoms: C6_7  and  N2_8 
REMARK    6  A    between atoms: N2_8  and  C7_10 
REMARK    7  A    between atoms: C8_13  and  N4_14 
ROOT
HETATM    1  C7  UNL     1      27.845  77.386  12.748  1.00  0.00     0.147 A 
HETATM    2  N3  UNL     1      27.090  77.239  11.617  1.00  0.00    -0.175 N 
ATOM      3  H3  UNL     1      26.896  76.293  11.288  1.00  0.00     0.186 HD
HETATM    4  C8  UNL     1      26.602  78.245  10.930  1.00  0.00     0.679 A 
HETATM    5  N5  UNL     1      26.818  79.517  11.305  1.00  0.00    -0.174 N 
ATOM      6  H5  UNL     1      26.441  80.302  10.773  1.00  0.00     0.186 HD
HETATM    7  C9  UNL     1      27.553  79.708  12.409  1.00  0.00     0.152 A 
HETATM    8  N6  UNL     1      27.926  80.871  13.014  1.00  0.00    -0.336 N 
ATOM      9  H6  UNL     1      27.685  81.809  12.693  1.00  0.00     0.168 HD
HETATM   10  C10 UNL     1      28.656  80.587  14.092  1.00  0.00     0.182 A 
HETATM   11  N7  UNL     1      28.763  79.240  14.194  1.00  0.00    -0.346 N 
ATOM     12  H7  UNL     1      29.265  78.733  14.923  1.00  0.00     0.167 HD
HETATM   13  C11 UNL     1      28.087  78.683  13.162  1.00  0.00     0.123 A 
ENDROOT
BRANCH   1  14
HETATM   14  N2  UNL     1      28.270  76.382  13.337  1.00  0.00    -0.374 N 
ATOM     15  H2  UNL     1      29.200  76.563  13.717  1.00  0.00     0.161 HD
BRANCH  14  16
HETATM   16  C6  UNL     1      27.878  75.105  13.636  1.00  0.00     0.121 C 
BRANCH  16  17
HETATM   17  C5  UNL     1      27.205  74.974  15.021  1.00  0.00     0.021 C 
BRANCH  17  18
HETATM   18  C4  UNL     1      25.778  74.550  14.800  1.00  0.00     0.032 C 
BRANCH  18  19
HETATM   19  C3  UNL     1      24.933  75.710  14.466  1.00  0.00     0.271 C 
BRANCH  19  20
HETATM   20  N1  UNL     1      23.816  75.463  13.618  1.00  0.00     0.080 N 
HETATM   21  C1  UNL     1      24.179  75.560  12.223  1.00  0.00     0.309 C 
HETATM   22  C2  UNL     1      23.054  74.296  13.923  1.00  0.00     0.309 C 
ENDBRANCH  19  20
ENDBRANCH  18  19
ENDBRANCH  17  18
ENDBRANCH  16  17
ENDBRANCH  14  16
ENDBRANCH   1  14
BRANCH   4  23
HETATM   23  N4  UNL     1      25.881  78.024   9.846  1.00  0.00    -0.234 N 
ATOM     24  H42 UNL     1      25.574  77.070   9.654  1.00  0.00     0.174 HD
ATOM     25  H41 UNL     1      25.641  78.794   9.222  1.00  0.00     0.174 HD
ENDBRANCH   4  23
TORSDOF 7
ENDMDL
