MODEL 1
REMARK VINA RESULT: -4.479275335      0.000      0.000
REMARK  1 active torsions:
REMARK  status: ('A' for Active; 'I' for Inactive)
REMARK    1  A    between atoms: C1_2  and  C2_4 
ROOT
HETATM    1  C2  UNL     1       1.782  -3.000  42.139  1.00  0.00     0.150 C 
HETATM    2  S2  UNL     1       2.890  -3.394  40.759  1.00  0.00    -0.126 SA
HETATM    3  C3  UNL     1       1.850  -4.103  39.458  1.00  0.00     0.249 C 
HETATM    4  O1  UNL     1       0.506  -4.004  39.905  1.00  0.00    -0.352 OA
HETATM    5  C4  UNL     1       0.022  -2.840  40.508  1.00  0.00     0.152 C 
HETATM    6  C5  UNL     1       0.600  -2.325  41.577  1.00  0.00     0.030 C 
HETATM    7 BR1  UNL     1      -0.023  -0.742  42.407  1.00  0.00    -0.052 Br
ENDROOT
BRANCH   1   8
HETATM    8  C1  UNL     1       2.463  -2.197  43.173  1.00  0.00     0.109 C 
HETATM    9  N1  UNL     1       1.927  -2.169  44.476  1.00  0.00    -0.093 NA
HETATM   10  S1  UNL     1       3.809  -1.380  42.745  1.00  0.00    -0.067 SA
ENDBRANCH   1   8
TORSDOF 1
ENDMDL
MODEL 2
REMARK VINA RESULT: -4.460402781      6.392      6.898
REMARK  1 active torsions:
REMARK  status: ('A' for Active; 'I' for Inactive)
REMARK    1  A    between atoms: C1_2  and  C2_4 
ROOT
HETATM    1  C2  UNL     1      -1.830   2.964  42.206  1.00  0.00     0.150 C 
HETATM    2  S2  UNL     1      -2.933   3.387  40.831  1.00  0.00    -0.126 SA
HETATM    3  C3  UNL     1      -1.887   4.117  39.546  1.00  0.00     0.249 C 
HETATM    4  O1  UNL     1      -0.545   4.005  39.994  1.00  0.00    -0.352 OA
HETATM    5  C4  UNL     1      -0.066   2.829  40.577  1.00  0.00     0.152 C 
HETATM    6  C5  UNL     1      -0.648   2.295  41.635  1.00  0.00     0.030 C 
HETATM    7 BR1  UNL     1      -0.032   0.695  42.436  1.00  0.00    -0.052 Br
ENDROOT
BRANCH   1   8
HETATM    8  C1  UNL     1      -2.516   2.144  43.223  1.00  0.00     0.109 C 
HETATM    9  N1  UNL     1      -1.980   2.084  44.525  1.00  0.00    -0.093 NA
HETATM   10  S1  UNL     1      -3.868   1.345  42.779  1.00  0.00    -0.067 SA
ENDBRANCH   1   8
TORSDOF 1
ENDMDL
MODEL 3
REMARK VINA RESULT: -3.964602264      6.844      7.397
REMARK  1 active torsions:
REMARK  status: ('A' for Active; 'I' for Inactive)
REMARK    1  A    between atoms: C1_2  and  C2_4 
ROOT
HETATM    1  C2  UNL     1      -2.846   2.455  43.112  1.00  0.00     0.150 C 
HETATM    2  S2  UNL     1      -4.453   1.613  43.092  1.00  0.00    -0.126 SA
HETATM    3  C3  UNL     1      -5.633   2.785  42.378  1.00  0.00     0.249 C 
HETATM    4  O1  UNL     1      -4.887   3.921  41.965  1.00  0.00    -0.352 OA
HETATM    5  C4  UNL     1      -3.671   3.789  41.288  1.00  0.00     0.152 C 
HETATM    6  C5  UNL     1      -2.669   3.097  41.798  1.00  0.00     0.030 C 
HETATM    7 BR1  UNL     1      -1.017   2.888  40.898  1.00  0.00    -0.052 Br
ENDROOT
BRANCH   1   8
HETATM    8  C1  UNL     1      -1.749   1.527  43.448  1.00  0.00     0.109 C 
HETATM    9  N1  UNL     1      -1.734   0.248  42.858  1.00  0.00    -0.093 NA
HETATM   10  S1  UNL     1      -0.606   2.040  44.494  1.00  0.00    -0.067 SA
ENDBRANCH   1   8
TORSDOF 1
ENDMDL
MODEL 4
REMARK VINA RESULT: -3.959828482      2.656      3.314
REMARK  1 active torsions:
REMARK  status: ('A' for Active; 'I' for Inactive)
REMARK    1  A    between atoms: C1_2  and  C2_4 
ROOT
HETATM    1  C2  UNL     1       2.833  -2.476  43.100  1.00  0.00     0.150 C 
HETATM    2  S2  UNL     1       4.438  -1.632  43.089  1.00  0.00    -0.126 SA
HETATM    3  C3  UNL     1       5.622  -2.799  42.372  1.00  0.00     0.249 C 
HETATM    4  O1  UNL     1       4.879  -3.933  41.951  1.00  0.00    -0.352 OA
HETATM    5  C4  UNL     1       3.664  -3.799  41.271  1.00  0.00     0.152 C 
HETATM    6  C5  UNL     1       2.660  -3.111  41.782  1.00  0.00     0.030 C 
HETATM    7 BR1  UNL     1       1.010  -2.899  40.879  1.00  0.00    -0.052 Br
ENDROOT
BRANCH   1   8
HETATM    8  C1  UNL     1       1.734  -1.552  43.438  1.00  0.00     0.109 C 
HETATM    9  N1  UNL     1       1.708  -0.276  42.841  1.00  0.00    -0.093 NA
HETATM   10  S1  UNL     1       0.600  -2.064  44.495  1.00  0.00    -0.067 SA
ENDBRANCH   1   8
TORSDOF 1
ENDMDL
MODEL 5
REMARK VINA RESULT: -3.772496623      8.720      9.356
REMARK  1 active torsions:
REMARK  status: ('A' for Active; 'I' for Inactive)
REMARK    1  A    between atoms: C1_2  and  C2_4 
ROOT
HETATM    1  C2  UNL     1      -4.733   2.522  44.121  1.00  0.00     0.150 C 
HETATM    2  S2  UNL     1      -5.707   1.476  45.238  1.00  0.00    -0.126 SA
HETATM    3  C3  UNL     1      -7.036   2.521  45.883  1.00  0.00     0.249 C 
HETATM    4  O1  UNL     1      -6.943   3.768  45.212  1.00  0.00    -0.352 OA
HETATM    5  C4  UNL     1      -6.724   3.840  43.833  1.00  0.00     0.152 C 
HETATM    6  C5  UNL     1      -5.682   3.260  43.269  1.00  0.00     0.030 C 
HETATM    7 BR1  UNL     1      -5.366   3.327  41.403  1.00  0.00    -0.052 Br
ENDROOT
BRANCH   1   8
HETATM    8  C1  UNL     1      -3.760   1.731  43.343  1.00  0.00     0.109 C 
HETATM    9  N1  UNL     1      -4.129   0.447  42.896  1.00  0.00    -0.093 NA
HETATM   10  S1  UNL     1      -2.299   2.394  43.043  1.00  0.00    -0.067 SA
ENDBRANCH   1   8
TORSDOF 1
ENDMDL
