MODEL 1
REMARK VINA RESULT: -3.783316573      0.000      0.000
REMARK  1 active torsions:
REMARK  status: ('A' for Active; 'I' for Inactive)
REMARK    1  A    between atoms: O1_1  and  C1_3 
ROOT
HETATM    1  C1  UNL     1     -17.299 -33.130   0.350  1.00  0.00     0.148 C 
HETATM    2  C2  UNL     1     -16.366 -31.956   0.681  1.00  0.00     0.036 C 
HETATM    3  C3  UNL     1     -17.197 -31.042   1.586  1.00  0.00     0.026 C 
HETATM    4  C4  UNL     1     -18.574 -31.325   1.100  1.00  0.00     0.101 C 
HETATM    5  C5  UNL     1     -18.591 -32.840   1.049  1.00  0.00     0.170 C 
HETATM    6  O2  UNL     1     -19.696 -33.327   0.386  1.00  0.00    -0.365 OA
HETATM    7  C6  UNL     1     -20.874 -32.820   0.934  1.00  0.00     0.200 C 
HETATM    8  C7  UNL     1     -21.208 -31.500   0.320  1.00  0.00     0.059 C 
HETATM    9  C8  UNL     1     -20.671 -30.366   1.069  1.00  0.00     0.106 C 
HETATM   10  N1  UNL     1     -19.621 -30.789   1.972  1.00  0.00    -0.249 NA
HETATM   11  S1  UNL     1     -20.418 -32.262   2.632  1.00  0.00    -0.050 SA
ENDROOT
BRANCH   1  12
HETATM   12  O1  UNL     1     -16.717 -34.280   0.884  1.00  0.00    -0.393 OA
ATOM     13  H1  UNL     1     -16.969 -35.006   0.325  1.00  0.00     0.210 HD
ENDBRANCH   1  12
TORSDOF 1
ENDMDL
MODEL 2
REMARK VINA RESULT: -3.757197430      1.921      3.598
REMARK  1 active torsions:
REMARK  status: ('A' for Active; 'I' for Inactive)
REMARK    1  A    between atoms: O1_1  and  C1_3 
ROOT
HETATM    1  C1  UNL     1     -19.896 -33.408   1.367  1.00  0.00     0.148 C 
HETATM    2  C2  UNL     1     -20.454 -32.296   2.266  1.00  0.00     0.036 C 
HETATM    3  C3  UNL     1     -19.630 -31.057   1.910  1.00  0.00     0.026 C 
HETATM    4  C4  UNL     1     -18.341 -31.673   1.496  1.00  0.00     0.101 C 
HETATM    5  C5  UNL     1     -18.798 -32.779   0.566  1.00  0.00     0.170 C 
HETATM    6  O2  UNL     1     -17.778 -33.650   0.252  1.00  0.00    -0.365 OA
HETATM    7  C6  UNL     1     -16.677 -32.968  -0.266  1.00  0.00     0.200 C 
HETATM    8  C7  UNL     1     -15.795 -32.488   0.840  1.00  0.00     0.059 C 
HETATM    9  C8  UNL     1     -16.111 -31.130   1.277  1.00  0.00     0.106 C 
HETATM   10  N1  UNL     1     -17.432 -30.734   0.835  1.00  0.00    -0.249 NA
HETATM   11  S1  UNL     1     -17.342 -31.350  -0.853  1.00  0.00    -0.050 SA
ENDROOT
BRANCH   1  12
HETATM   12  O1  UNL     1     -20.929 -33.812   0.522  1.00  0.00    -0.393 OA
ATOM     13  H1  UNL     1     -20.588 -34.512  -0.022  1.00  0.00     0.210 HD
ENDBRANCH   1  12
TORSDOF 1
ENDMDL
MODEL 3
REMARK VINA RESULT: -3.748104281      3.269      4.419
REMARK  1 active torsions:
REMARK  status: ('A' for Active; 'I' for Inactive)
REMARK    1  A    between atoms: O1_1  and  C1_3 
ROOT
HETATM    1  C1  UNL     1     -21.366 -30.488   4.661  1.00  0.00     0.148 C 
HETATM    2  C2  UNL     1     -21.334 -31.785   5.482  1.00  0.00     0.036 C 
HETATM    3  C3  UNL     1     -20.424 -32.726   4.688  1.00  0.00     0.026 C 
HETATM    4  C4  UNL     1     -20.642 -32.239   3.299  1.00  0.00     0.101 C 
HETATM    5  C5  UNL     1     -20.507 -30.738   3.460  1.00  0.00     0.170 C 
HETATM    6  O2  UNL     1     -20.920 -30.055   2.337  1.00  0.00    -0.365 OA
HETATM    7  C6  UNL     1     -20.254 -30.510   1.200  1.00  0.00     0.200 C 
HETATM    8  C7  UNL     1     -20.960 -31.692   0.620  1.00  0.00     0.059 C 
HETATM    9  C8  UNL     1     -20.449 -32.966   1.120  1.00  0.00     0.106 C 
HETATM   10  N1  UNL     1     -19.683 -32.781   2.334  1.00  0.00    -0.249 NA
HETATM   11  S1  UNL     1     -18.731 -31.340   1.829  1.00  0.00    -0.050 SA
ENDROOT
BRANCH   1  12
HETATM   12  O1  UNL     1     -20.799 -29.487   5.451  1.00  0.00    -0.393 OA
ATOM     13  H1  UNL     1     -19.868 -29.477   5.264  1.00  0.00     0.210 HD
ENDBRANCH   1  12
TORSDOF 1
ENDMDL
MODEL 4
REMARK VINA RESULT: -3.732859970      2.155      3.420
REMARK  1 active torsions:
REMARK  status: ('A' for Active; 'I' for Inactive)
REMARK    1  A    between atoms: O1_1  and  C1_3 
ROOT
HETATM    1  C1  UNL     1     -21.454 -32.859  -1.002  1.00  0.00     0.148 C 
HETATM    2  C2  UNL     1     -22.146 -31.545  -1.391  1.00  0.00     0.036 C 
HETATM    3  C3  UNL     1     -21.432 -30.470  -0.567  1.00  0.00     0.026 C 
HETATM    4  C4  UNL     1     -21.015 -31.249   0.630  1.00  0.00     0.101 C 
HETATM    5  C5  UNL     1     -20.411 -32.492   0.008  1.00  0.00     0.170 C 
HETATM    6  O2  UNL     1     -20.177 -33.480   0.940  1.00  0.00    -0.365 OA
HETATM    7  C6  UNL     1     -19.397 -33.002   1.993  1.00  0.00     0.200 C 
HETATM    8  C7  UNL     1     -20.258 -32.362   3.031  1.00  0.00     0.059 C 
HETATM    9  C8  UNL     1     -20.421 -30.923   2.834  1.00  0.00     0.106 C 
HETATM   10  N1  UNL     1     -20.062 -30.538   1.485  1.00  0.00    -0.249 NA
HETATM   11  S1  UNL     1     -18.551 -31.503   1.328  1.00  0.00    -0.050 SA
ENDROOT
BRANCH   1  12
HETATM   12  O1  UNL     1     -20.845 -33.359  -2.154  1.00  0.00    -0.393 OA
ATOM     13  H1  UNL     1     -20.144 -32.760  -2.382  1.00  0.00     0.210 HD
ENDBRANCH   1  12
TORSDOF 1
ENDMDL
MODEL 5
REMARK VINA RESULT: -3.647932359      3.736      5.341
REMARK  1 active torsions:
REMARK  status: ('A' for Active; 'I' for Inactive)
REMARK    1  A    between atoms: O1_1  and  C1_3 
ROOT
HETATM    1  C1  UNL     1     -22.090 -27.854   3.652  1.00  0.00     0.148 C 
HETATM    2  C2  UNL     1     -22.078 -28.758   4.893  1.00  0.00     0.036 C 
HETATM    3  C3  UNL     1     -20.988 -29.795   4.607  1.00  0.00     0.026 C 
HETATM    4  C4  UNL     1     -21.035 -29.866   3.122  1.00  0.00     0.101 C 
HETATM    5  C5  UNL     1     -21.045 -28.402   2.731  1.00  0.00     0.170 C 
HETATM    6  O2  UNL     1     -21.339 -28.222   1.397  1.00  0.00    -0.365 OA
HETATM    7  C6  UNL     1     -20.477 -28.963   0.588  1.00  0.00     0.200 C 
HETATM    8  C7  UNL     1     -20.992 -30.354   0.413  1.00  0.00     0.059 C 
HETATM    9  C8  UNL     1     -20.462 -31.290   1.402  1.00  0.00     0.106 C 
HETATM   10  N1  UNL     1     -19.903 -30.588   2.538  1.00  0.00    -0.249 NA
HETATM   11  S1  UNL     1     -19.004 -29.312   1.643  1.00  0.00    -0.050 SA
ENDROOT
BRANCH   1  12
HETATM   12  O1  UNL     1     -21.729 -26.573   4.073  1.00  0.00    -0.393 OA
ATOM     13  H1  UNL     1     -20.925 -26.347   3.620  1.00  0.00     0.210 HD
ENDBRANCH   1  12
TORSDOF 1
ENDMDL
