MODEL 1
REMARK VINA RESULT: -4.213159345      0.000      0.000
REMARK  0 active torsions:
REMARK  status: ('A' for Active; 'I' for Inactive)
ROOT
HETATM    1  C1  UNL     1     -20.680 -31.463   3.979  1.00  0.00     0.007 C 
HETATM    2  C2  UNL     1     -20.018 -32.800   3.932  1.00  0.00     0.044 C 
HETATM    3  C3  UNL     1     -18.955 -32.904   2.871  1.00  0.00     0.064 C 
HETATM    4  N1  UNL     1     -19.468 -32.587   1.604  1.00  0.00    -0.332 N 
HETATM    5  C4  UNL     1     -20.657 -31.848   1.577  1.00  0.00     0.114 C 
HETATM    6  C5  UNL     1     -20.586 -30.743   2.642  1.00  0.00     0.027 C 
HETATM    7  C6  UNL     1     -21.076 -31.282   0.282  1.00  0.00     0.257 C 
HETATM    8  N2  UNL     1     -20.026 -31.006  -0.650  1.00  0.00    -0.066 N 
ATOM      9  H21 UNL     1     -19.490 -30.174  -0.405  1.00  0.00     0.277 HD
ATOM     10  H22 UNL     1     -20.376 -30.684  -1.552  1.00  0.00     0.277 HD
HETATM   11  C7  UNL     1     -19.201 -32.190  -0.763  1.00  0.00     0.326 C 
HETATM   12  C8  UNL     1     -18.536 -32.417   0.552  1.00  0.00     0.275 C 
HETATM   13  O1  UNL     1     -17.594 -31.433   0.753  1.00  0.00    -0.335 OA
HETATM   14  C9  UNL     1     -16.356 -31.930   0.432  1.00  0.00     0.199 C 
HETATM   15  C10 UNL     1     -16.595 -33.329  -0.085  1.00  0.00     0.199 C 
HETATM   16  O2  UNL     1     -17.824 -33.638   0.447  1.00  0.00    -0.335 OA
ENDROOT
TORSDOF 0
ENDMDL
MODEL 2
REMARK VINA RESULT: -3.975297303      2.276      2.997
REMARK  0 active torsions:
REMARK  status: ('A' for Active; 'I' for Inactive)
ROOT
HETATM    1  C1  UNL     1     -20.830 -28.235   4.968  1.00  0.00     0.007 C 
HETATM    2  C2  UNL     1     -21.424 -29.595   5.130  1.00  0.00     0.044 C 
HETATM    3  C3  UNL     1     -20.832 -30.621   4.201  1.00  0.00     0.064 C 
HETATM    4  N1  UNL     1     -20.940 -30.216   2.862  1.00  0.00    -0.332 N 
HETATM    5  C4  UNL     1     -21.145 -28.850   2.635  1.00  0.00     0.114 C 
HETATM    6  C5  UNL     1     -20.241 -28.042   3.579  1.00  0.00     0.027 C 
HETATM    7  C6  UNL     1     -21.003 -28.362   1.251  1.00  0.00     0.257 C 
HETATM    8  N2  UNL     1     -20.128 -29.116   0.407  1.00  0.00    -0.066 N 
ATOM      9  H21 UNL     1     -19.142 -28.955   0.617  1.00  0.00     0.277 HD
ATOM     10  H22 UNL     1     -20.121 -28.778  -0.555  1.00  0.00     0.277 HD
HETATM   11  C7  UNL     1     -20.499 -30.512   0.506  1.00  0.00     0.326 C 
HETATM   12  C8  UNL     1     -20.223 -30.967   1.899  1.00  0.00     0.275 C 
HETATM   13  O1  UNL     1     -18.861 -31.022   2.089  1.00  0.00    -0.335 OA
HETATM   14  C9  UNL     1     -18.444 -32.322   1.951  1.00  0.00     0.199 C 
HETATM   15  C10 UNL     1     -19.674 -33.110   1.564  1.00  0.00     0.199 C 
HETATM   16  O2  UNL     1     -20.696 -32.299   1.997  1.00  0.00    -0.335 OA
ENDROOT
TORSDOF 0
ENDMDL
MODEL 3
REMARK VINA RESULT: -3.919624090      3.046      4.035
REMARK  0 active torsions:
REMARK  status: ('A' for Active; 'I' for Inactive)
ROOT
HETATM    1  C1  UNL     1     -21.229 -29.836   6.431  1.00  0.00     0.007 C 
HETATM    2  C2  UNL     1     -21.480 -31.004   5.537  1.00  0.00     0.044 C 
HETATM    3  C3  UNL     1     -20.801 -30.888   4.198  1.00  0.00     0.064 C 
HETATM    4  N1  UNL     1     -21.169 -29.704   3.541  1.00  0.00    -0.332 N 
HETATM    5  C4  UNL     1     -21.699 -28.684   4.340  1.00  0.00     0.114 C 
HETATM    6  C5  UNL     1     -20.882 -28.585   5.637  1.00  0.00     0.027 C 
HETATM    7  C6  UNL     1     -21.850 -27.351   3.729  1.00  0.00     0.257 C 
HETATM    8  N2  UNL     1     -20.947 -27.045   2.663  1.00  0.00    -0.066 N 
ATOM      9  H21 UNL     1     -20.002 -26.841   2.992  1.00  0.00     0.277 HD
ATOM     10  H22 UNL     1     -21.140 -26.141   2.231  1.00  0.00     0.277 HD
HETATM   11  C7  UNL     1     -20.983 -28.137   1.714  1.00  0.00     0.326 C 
HETATM   12  C8  UNL     1     -20.435 -29.351   2.383  1.00  0.00     0.275 C 
HETATM   13  O1  UNL     1     -19.082 -29.185   2.571  1.00  0.00    -0.335 OA
HETATM   14  C9  UNL     1     -18.409 -29.852   1.579  1.00  0.00     0.199 C 
HETATM   15  C10 UNL     1     -19.474 -30.410   0.662  1.00  0.00     0.199 C 
HETATM   16  O2  UNL     1     -20.585 -30.425   1.472  1.00  0.00    -0.335 OA
ENDROOT
TORSDOF 0
ENDMDL
MODEL 4
REMARK VINA RESULT: -3.781860148      1.537      2.979
REMARK  0 active torsions:
REMARK  status: ('A' for Active; 'I' for Inactive)
ROOT
HETATM    1  C1  UNL     1     -20.565 -31.657   3.819  1.00  0.00     0.007 C 
HETATM    2  C2  UNL     1     -20.718 -30.455   2.947  1.00  0.00     0.044 C 
HETATM    3  C3  UNL     1     -20.556 -30.756   1.480  1.00  0.00     0.064 C 
HETATM    4  N1  UNL     1     -19.323 -31.372   1.221  1.00  0.00    -0.332 N 
HETATM    5  C4  UNL     1     -18.683 -31.975   2.310  1.00  0.00     0.114 C 
HETATM    6  C5  UNL     1     -19.724 -32.733   3.148  1.00  0.00     0.027 C 
HETATM    7  C6  UNL     1     -17.528 -32.845   2.023  1.00  0.00     0.257 C 
HETATM    8  N2  UNL     1     -17.519 -33.470   0.736  1.00  0.00    -0.066 N 
ATOM      9  H21 UNL     1     -18.180 -34.244   0.669  1.00  0.00     0.277 HD
ATOM     10  H22 UNL     1     -16.666 -34.002   0.563  1.00  0.00     0.277 HD
HETATM   11  C7  UNL     1     -17.751 -32.449  -0.263  1.00  0.00     0.326 C 
HETATM   12  C8  UNL     1     -19.132 -31.919  -0.071  1.00  0.00     0.275 C 
HETATM   13  O1  UNL     1     -20.037 -32.888  -0.440  1.00  0.00    -0.335 OA
HETATM   14  C9  UNL     1     -20.483 -32.619  -1.710  1.00  0.00     0.199 C 
HETATM   15  C10 UNL     1     -19.706 -31.408  -2.172  1.00  0.00     0.199 C 
HETATM   16  O2  UNL     1     -19.292 -30.849  -0.986  1.00  0.00    -0.335 OA
ENDROOT
TORSDOF 0
ENDMDL
MODEL 5
REMARK VINA RESULT: -3.775269376      1.980      3.375
REMARK  0 active torsions:
REMARK  status: ('A' for Active; 'I' for Inactive)
ROOT
HETATM    1  C1  UNL     1     -21.093 -30.147   4.433  1.00  0.00     0.007 C 
HETATM    2  C2  UNL     1     -20.832 -29.129   3.374  1.00  0.00     0.044 C 
HETATM    3  C3  UNL     1     -20.952 -29.676   1.976  1.00  0.00     0.064 C 
HETATM    4  N1  UNL     1     -20.107 -30.780   1.788  1.00  0.00    -0.332 N 
HETATM    5  C4  UNL     1     -19.662 -31.432   2.944  1.00  0.00     0.114 C 
HETATM    6  C5  UNL     1     -20.832 -31.559   3.932  1.00  0.00     0.027 C 
HETATM    7  C6  UNL     1     -18.994 -32.735   2.775  1.00  0.00     0.257 C 
HETATM    8  N2  UNL     1     -19.366 -33.485   1.615  1.00  0.00    -0.066 N 
ATOM      9  H21 UNL     1     -20.288 -33.914   1.702  1.00  0.00     0.277 HD
ATOM     10  H22 UNL     1     -18.825 -34.343   1.510  1.00  0.00     0.277 HD
HETATM   11  C7  UNL     1     -19.262 -32.614   0.464  1.00  0.00     0.326 C 
HETATM   12  C8  UNL     1     -20.282 -31.536   0.604  1.00  0.00     0.275 C 
HETATM   13  O1  UNL     1     -21.535 -32.082   0.434  1.00  0.00    -0.335 OA
HETATM   14  C9  UNL     1     -21.957 -31.837  -0.848  1.00  0.00     0.199 C 
HETATM   15  C10 UNL     1     -20.806 -31.140  -1.535  1.00  0.00     0.199 C 
HETATM   16  O2  UNL     1     -20.085 -30.641  -0.476  1.00  0.00    -0.335 OA
ENDROOT
TORSDOF 0
ENDMDL
