MODEL 1
REMARK VINA RESULT: -3.883556328      0.000      0.000
REMARK  2 active torsions:
REMARK  status: ('A' for Active; 'I' for Inactive)
REMARK    1  A    between atoms: C7_7  and  O1_9 
REMARK    2  A    between atoms: C9_11  and  O2_12 
ROOT
HETATM    1  C1  UNL     1      27.945  31.202  -6.442  1.00  0.00     0.013 C 
HETATM    2  C2  UNL     1      28.559  32.180  -5.473  1.00  0.00     0.018 C 
HETATM    3  C3  UNL     1      27.556  33.066  -4.807  1.00  0.00    -0.001 C 
HETATM    4  C4  UNL     1      26.141  32.540  -4.774  1.00  0.00     0.006 C 
HETATM    5  C5  UNL     1      26.222  32.600  -3.252  1.00  0.00     0.008 C 
HETATM    6  C6  UNL     1      27.668  32.797  -3.304  1.00  0.00     0.027 C 
HETATM    7  C7  UNL     1      28.621  31.714  -3.098  1.00  0.00     0.084 C 
HETATM    8  C8  UNL     1      28.109  30.395  -2.675  1.00  0.00     0.049 C 
HETATM    9  C9  UNL     1      29.382  31.532  -4.408  1.00  0.00     0.156 C 
ENDROOT
BRANCH   7  10
HETATM   10  O1  UNL     1      29.598  32.117  -2.157  1.00  0.00    -0.387 OA
ATOM     11  H1  UNL     1      30.274  32.620  -2.597  1.00  0.00     0.210 HD
ENDBRANCH   7  10
BRANCH   9  12
HETATM   12  O2  UNL     1      30.645  32.077  -4.366  1.00  0.00    -0.392 OA
ATOM     13  H2  UNL     1      31.228  31.624  -4.964  1.00  0.00     0.210 HD
ENDBRANCH   9  12
TORSDOF 2
ENDMDL
MODEL 2
REMARK VINA RESULT: -3.873734917      3.729      5.228
REMARK  2 active torsions:
REMARK  status: ('A' for Active; 'I' for Inactive)
REMARK    1  A    between atoms: C7_7  and  O1_9 
REMARK    2  A    between atoms: C9_11  and  O2_12 
ROOT
HETATM    1  C1  UNL     1      23.669  32.117  -3.049  1.00  0.00     0.013 C 
HETATM    2  C2  UNL     1      23.991  33.371  -3.821  1.00  0.00     0.018 C 
HETATM    3  C3  UNL     1      25.455  33.657  -3.905  1.00  0.00    -0.001 C 
HETATM    4  C4  UNL     1      26.366  32.469  -3.706  1.00  0.00     0.006 C 
HETATM    5  C5  UNL     1      26.907  32.729  -5.108  1.00  0.00     0.008 C 
HETATM    6  C6  UNL     1      25.814  33.656  -5.394  1.00  0.00     0.027 C 
HETATM    7  C7  UNL     1      24.632  33.273  -6.154  1.00  0.00     0.084 C 
HETATM    8  C8  UNL     1      24.602  31.938  -6.786  1.00  0.00     0.049 C 
HETATM    9  C9  UNL     1      23.439  33.379  -5.209  1.00  0.00     0.156 C 
ENDROOT
BRANCH   7  10
HETATM   10  O1  UNL     1      24.389  34.233  -7.165  1.00  0.00    -0.387 OA
ATOM     11  H1  UNL     1      23.494  34.546  -7.097  1.00  0.00     0.210 HD
ENDBRANCH   7  10
BRANCH   9  12
HETATM   12  O2  UNL     1      22.688  34.511  -5.431  1.00  0.00    -0.392 OA
ATOM     13  H2  UNL     1      21.810  34.284  -5.713  1.00  0.00     0.210 HD
ENDBRANCH   9  12
TORSDOF 2
ENDMDL
MODEL 3
REMARK VINA RESULT: -3.763549807      3.954      5.121
REMARK  2 active torsions:
REMARK  status: ('A' for Active; 'I' for Inactive)
REMARK    1  A    between atoms: C7_7  and  O1_9 
REMARK    2  A    between atoms: C9_11  and  O2_12 
ROOT
HETATM    1  C1  UNL     1      24.987  32.082  -6.739  1.00  0.00     0.013 C 
HETATM    2  C2  UNL     1      24.512  32.326  -5.330  1.00  0.00     0.018 C 
HETATM    3  C3  UNL     1      25.607  32.722  -4.394  1.00  0.00    -0.001 C 
HETATM    4  C4  UNL     1      26.836  33.315  -5.040  1.00  0.00     0.006 C 
HETATM    5  C5  UNL     1      26.581  34.577  -4.223  1.00  0.00     0.008 C 
HETATM    6  C6  UNL     1      25.244  34.111  -3.861  1.00  0.00     0.027 C 
HETATM    7  C7  UNL     1      24.038  34.566  -4.542  1.00  0.00     0.084 C 
HETATM    8  C8  UNL     1      24.157  35.650  -5.537  1.00  0.00     0.049 C 
HETATM    9  C9  UNL     1      23.428  33.350  -5.231  1.00  0.00     0.156 C 
ENDROOT
BRANCH   7  10
HETATM   10  O1  UNL     1      23.078  34.966  -3.582  1.00  0.00    -0.387 OA
ATOM     11  H1  UNL     1      23.361  34.695  -2.717  1.00  0.00     0.210 HD
ENDBRANCH   7  10
BRANCH   9  12
HETATM   12  O2  UNL     1      22.340  32.848  -4.554  1.00  0.00    -0.392 OA
ATOM     13  H2  UNL     1      21.532  33.206  -4.901  1.00  0.00     0.210 HD
ENDBRANCH   9  12
TORSDOF 2
ENDMDL
MODEL 4
REMARK VINA RESULT: -3.737615329      9.303     10.782
REMARK  2 active torsions:
REMARK  status: ('A' for Active; 'I' for Inactive)
REMARK    1  A    between atoms: C7_7  and  O1_9 
REMARK    2  A    between atoms: C9_11  and  O2_12 
ROOT
HETATM    1  C1  UNL     1      29.739  21.883  -0.954  1.00  0.00     0.013 C 
HETATM    2  C2  UNL     1      28.567  21.343  -1.733  1.00  0.00     0.018 C 
HETATM    3  C3  UNL     1      27.610  22.401  -2.178  1.00  0.00    -0.001 C 
HETATM    4  C4  UNL     1      28.177  23.798  -2.266  1.00  0.00     0.006 C 
HETATM    5  C5  UNL     1      27.819  23.782  -3.748  1.00  0.00     0.008 C 
HETATM    6  C6  UNL     1      27.577  22.343  -3.708  1.00  0.00     0.027 C 
HETATM    7  C7  UNL     1      28.559  21.363  -4.154  1.00  0.00     0.084 C 
HETATM    8  C8  UNL     1      29.790  21.848  -4.810  1.00  0.00     0.049 C 
HETATM    9  C9  UNL     1      28.961  20.544  -2.933  1.00  0.00     0.156 C 
ENDROOT
BRANCH   7  10
HETATM   10  O1  UNL     1      27.941  20.440  -5.031  1.00  0.00    -0.387 OA
ATOM     11  H1  UNL     1      28.597  19.854  -5.389  1.00  0.00     0.210 HD
ENDBRANCH   7  10
BRANCH   9  12
HETATM   12  O2  UNL     1      28.368  19.302  -2.910  1.00  0.00    -0.392 OA
ATOM     13  H2  UNL     1      29.010  18.623  -2.740  1.00  0.00     0.210 HD
ENDBRANCH   9  12
TORSDOF 2
ENDMDL
MODEL 5
REMARK VINA RESULT: -3.713375226      7.832      9.392
REMARK  2 active torsions:
REMARK  status: ('A' for Active; 'I' for Inactive)
REMARK    1  A    between atoms: C7_7  and  O1_9 
REMARK    2  A    between atoms: C9_11  and  O2_12 
ROOT
HETATM    1  C1  UNL     1      28.414  23.948  -0.330  1.00  0.00     0.013 C 
HETATM    2  C2  UNL     1      27.321  23.597  -1.308  1.00  0.00     0.018 C 
HETATM    3  C3  UNL     1      27.142  24.614  -2.388  1.00  0.00    -0.001 C 
HETATM    4  C4  UNL     1      28.336  25.499  -2.658  1.00  0.00     0.006 C 
HETATM    5  C5  UNL     1      28.336  24.955  -4.082  1.00  0.00     0.008 C 
HETATM    6  C6  UNL     1      27.403  23.894  -3.713  1.00  0.00     0.027 C 
HETATM    7  C7  UNL     1      27.831  22.531  -3.421  1.00  0.00     0.084 C 
HETATM    8  C8  UNL     1      29.245  22.172  -3.651  1.00  0.00     0.049 C 
HETATM    9  C9  UNL     1      27.502  22.264  -1.956  1.00  0.00     0.156 C 
ENDROOT
BRANCH   7  10
HETATM   10  O1  UNL     1      27.031  21.620  -4.151  1.00  0.00    -0.387 OA
ATOM     11  H1  UNL     1      26.155  21.974  -4.250  1.00  0.00     0.210 HD
ENDBRANCH   7  10
BRANCH   9  12
HETATM   12  O2  UNL     1      26.377  21.487  -1.800  1.00  0.00    -0.392 OA
ATOM     13  H2  UNL     1      25.590  22.005  -1.917  1.00  0.00     0.210 HD
ENDBRANCH   9  12
TORSDOF 2
ENDMDL
