MODEL 1
REMARK VINA RESULT: -3.557638593      0.000      0.000
REMARK  2 active torsions:
REMARK  status: ('A' for Active; 'I' for Inactive)
REMARK    1  A    between atoms: C3_3  and  O1_4 
REMARK    2  A    between atoms: C6_8  and  O2_9 
ROOT
HETATM    1  C1  UNL     1      24.642  32.779  -7.083  1.00  0.00     0.013 C 
HETATM    2  C2  UNL     1      24.450  32.581  -5.590  1.00  0.00     0.021 C 
HETATM    3  C3  UNL     1      23.269  33.395  -5.171  1.00  0.00     0.122 C 
HETATM    4  C4  UNL     1      23.539  34.863  -5.067  1.00  0.00     0.034 C 
HETATM    5  C5  UNL     1      24.880  35.208  -4.515  1.00  0.00     0.035 C 
HETATM    6  C6  UNL     1      25.995  34.398  -5.116  1.00  0.00     0.126 C 
HETATM    7  C7  UNL     1      25.723  32.931  -4.901  1.00  0.00    -0.016 C 
HETATM    8  C8  UNL     1      26.834  32.103  -5.537  1.00  0.00     0.018 C 
HETATM    9  C9  UNL     1      25.720  32.638  -3.432  1.00  0.00     0.018 C 
ENDROOT
BRANCH   3  10
HETATM   10  O1  UNL     1      22.679  32.863  -4.024  1.00  0.00    -0.395 OA
ATOM     11  H1  UNL     1      22.675  33.500  -3.319  1.00  0.00     0.210 HD
ENDBRANCH   3  10
BRANCH   6  12
HETATM   12  O2  UNL     1      27.194  34.727  -4.509  1.00  0.00    -0.395 OA
ATOM     13  H2  UNL     1      27.082  35.506  -3.977  1.00  0.00     0.210 HD
ENDBRANCH   6  12
TORSDOF 2
ENDMDL
MODEL 2
REMARK VINA RESULT: -3.521965339      1.095      3.400
REMARK  2 active torsions:
REMARK  status: ('A' for Active; 'I' for Inactive)
REMARK    1  A    between atoms: C3_3  and  O1_4 
REMARK    2  A    between atoms: C6_8  and  O2_9 
ROOT
HETATM    1  C1  UNL     1      26.398  32.204  -5.673  1.00  0.00     0.013 C 
HETATM    2  C2  UNL     1      25.977  33.445  -4.905  1.00  0.00     0.021 C 
HETATM    3  C3  UNL     1      26.478  33.304  -3.504  1.00  0.00     0.122 C 
HETATM    4  C4  UNL     1      25.683  32.361  -2.658  1.00  0.00     0.034 C 
HETATM    5  C5  UNL     1      24.212  32.408  -2.891  1.00  0.00     0.035 C 
HETATM    6  C6  UNL     1      23.843  32.418  -4.350  1.00  0.00     0.126 C 
HETATM    7  C7  UNL     1      24.500  33.595  -5.026  1.00  0.00    -0.016 C 
HETATM    8  C8  UNL     1      24.156  33.593  -6.511  1.00  0.00     0.018 C 
HETATM    9  C9  UNL     1      23.967  34.865  -4.436  1.00  0.00     0.018 C 
ENDROOT
BRANCH   3  10
HETATM   10  O1  UNL     1      26.656  34.556  -2.912  1.00  0.00    -0.395 OA
ATOM     11  H1  UNL     1      27.314  34.515  -2.227  1.00  0.00     0.210 HD
ENDBRANCH   3  10
BRANCH   6  12
HETATM   12  O2  UNL     1      22.471  32.529  -4.485  1.00  0.00    -0.395 OA
ATOM     13  H2  UNL     1      22.124  31.748  -4.900  1.00  0.00     0.210 HD
ENDBRANCH   6  12
TORSDOF 2
ENDMDL
MODEL 3
REMARK VINA RESULT: -3.514446411      1.638      2.792
REMARK  2 active torsions:
REMARK  status: ('A' for Active; 'I' for Inactive)
REMARK    1  A    between atoms: C3_3  and  O1_4 
REMARK    2  A    between atoms: C6_8  and  O2_9 
ROOT
HETATM    1  C1  UNL     1      23.127  32.512  -4.122  1.00  0.00     0.013 C 
HETATM    2  C2  UNL     1      23.823  33.634  -4.872  1.00  0.00     0.021 C 
HETATM    3  C3  UNL     1      24.011  33.186  -6.286  1.00  0.00     0.122 C 
HETATM    4  C4  UNL     1      25.121  32.202  -6.478  1.00  0.00     0.034 C 
HETATM    5  C5  UNL     1      26.327  32.457  -5.642  1.00  0.00     0.035 C 
HETATM    6  C6  UNL     1      25.999  32.772  -4.208  1.00  0.00     0.126 C 
HETATM    7  C7  UNL     1      25.084  33.969  -4.153  1.00  0.00    -0.016 C 
HETATM    8  C8  UNL     1      24.721  34.274  -2.704  1.00  0.00     0.018 C 
HETATM    9  C9  UNL     1      25.799  35.165  -4.706  1.00  0.00     0.018 C 
ENDROOT
BRANCH   3  10
HETATM   10  O1  UNL     1      24.093  34.281  -7.147  1.00  0.00    -0.395 OA
ATOM     11  H1  UNL     1      23.527  34.162  -7.901  1.00  0.00     0.210 HD
ENDBRANCH   3  10
BRANCH   6  12
HETATM   12  O2  UNL     1      27.160  33.061  -3.514  1.00  0.00    -0.395 OA
ATOM     13  H2  UNL     1      27.915  32.878  -4.059  1.00  0.00     0.210 HD
ENDBRANCH   6  12
TORSDOF 2
ENDMDL
MODEL 4
REMARK VINA RESULT: -3.493553992      1.348      3.353
REMARK  2 active torsions:
REMARK  status: ('A' for Active; 'I' for Inactive)
REMARK    1  A    between atoms: C3_3  and  O1_4 
REMARK    2  A    between atoms: C6_8  and  O2_9 
ROOT
HETATM    1  C1  UNL     1      24.985  33.254  -2.333  1.00  0.00     0.013 C 
HETATM    2  C2  UNL     1      25.383  32.817  -3.732  1.00  0.00     0.021 C 
HETATM    3  C3  UNL     1      26.608  33.582  -4.116  1.00  0.00     0.122 C 
HETATM    4  C4  UNL     1      26.351  35.005  -4.499  1.00  0.00     0.034 C 
HETATM    5  C5  UNL     1      25.099  35.220  -5.279  1.00  0.00     0.035 C 
HETATM    6  C6  UNL     1      23.913  34.491  -4.708  1.00  0.00     0.126 C 
HETATM    7  C7  UNL     1      24.216  33.016  -4.637  1.00  0.00    -0.016 C 
HETATM    8  C8  UNL     1      23.030  32.276  -4.030  1.00  0.00     0.018 C 
HETATM    9  C9  UNL     1      24.424  32.486  -6.023  1.00  0.00     0.018 C 
ENDROOT
BRANCH   3  10
HETATM   10  O1  UNL     1      27.353  32.883  -5.067  1.00  0.00    -0.395 OA
ATOM     11  H1  UNL     1      27.761  33.481  -5.683  1.00  0.00     0.210 HD
ENDBRANCH   3  10
BRANCH   6  12
HETATM   12  O2  UNL     1      22.810  34.685  -5.520  1.00  0.00    -0.395 OA
ATOM     13  H2  UNL     1      22.339  35.462  -5.243  1.00  0.00     0.210 HD
ENDBRANCH   6  12
TORSDOF 2
ENDMDL
MODEL 5
REMARK VINA RESULT: -3.453344846      3.023      4.244
REMARK  2 active torsions:
REMARK  status: ('A' for Active; 'I' for Inactive)
REMARK    1  A    between atoms: C3_3  and  O1_4 
REMARK    2  A    between atoms: C6_8  and  O2_9 
ROOT
HETATM    1  C1  UNL     1      26.677  33.258  -4.521  1.00  0.00     0.013 C 
HETATM    2  C2  UNL     1      27.043  31.965  -3.814  1.00  0.00     0.021 C 
HETATM    3  C3  UNL     1      26.925  32.203  -2.343  1.00  0.00     0.122 C 
HETATM    4  C4  UNL     1      28.052  32.989  -1.754  1.00  0.00     0.034 C 
HETATM    5  C5  UNL     1      29.393  32.672  -2.323  1.00  0.00     0.035 C 
HETATM    6  C6  UNL     1      29.394  32.586  -3.825  1.00  0.00     0.126 C 
HETATM    7  C7  UNL     1      28.398  31.546  -4.270  1.00  0.00    -0.016 C 
HETATM    8  C8  UNL     1      28.371  31.478  -5.793  1.00  0.00     0.018 C 
HETATM    9  C9  UNL     1      28.822  30.203  -3.760  1.00  0.00     0.018 C 
ENDROOT
BRANCH   3  10
HETATM   10  O1  UNL     1      26.675  31.009  -1.665  1.00  0.00    -0.395 OA
ATOM     11  H1  UNL     1      25.875  30.603  -1.978  1.00  0.00     0.210 HD
ENDBRANCH   3  10
BRANCH   6  12
HETATM   12  O2  UNL     1      30.652  32.225  -4.272  1.00  0.00    -0.395 OA
ATOM     13  H2  UNL     1      30.574  31.685  -5.051  1.00  0.00     0.210 HD
ENDBRANCH   6  12
TORSDOF 2
ENDMDL
