MODEL 1
REMARK VINA RESULT: -3.823637661      0.000      0.000
REMARK  1 active torsions:
REMARK  status: ('A' for Active; 'I' for Inactive)
REMARK    1  A    between atoms: S1_2  and  C2_3 
ROOT
HETATM    1  C2  UNL     1     -16.919 -28.820  13.462  1.00  0.00     0.165 A 
HETATM    2 CL1  UNL     1     -16.777 -30.546  13.160  1.00  0.00    -0.083 Cl
HETATM    3  C3  UNL     1     -15.802 -27.940  13.042  1.00  0.00     0.135 A 
HETATM    4  C4  UNL     1     -15.627 -27.640  14.510  1.00  0.00     0.077 A 
HETATM    5  N1  UNL     1     -14.761 -26.897  15.096  1.00  0.00    -0.389 N 
ATOM      6  H11 UNL     1     -14.643 -26.694  16.088  1.00  0.00     0.157 HD
ATOM      7  H12 UNL     1     -13.972 -26.304  14.835  1.00  0.00     0.157 HD
HETATM    8  N2  UNL     1     -16.719 -28.460  14.871  1.00  0.00    -0.349 N 
ATOM      9  H2  UNL     1     -17.178 -28.703  15.749  1.00  0.00     0.163 HD
ENDROOT
BRANCH   1  10
HETATM   10  S1  UNL     1     -18.603 -28.242  13.019  1.00  0.00    -0.126 SA
HETATM   11  C1  UNL     1     -19.637 -28.513  14.497  1.00  0.00     0.093 C 
ENDBRANCH   1  10
TORSDOF 1
ENDMDL
MODEL 2
REMARK VINA RESULT: -3.598688020      1.553      1.656
REMARK  1 active torsions:
REMARK  status: ('A' for Active; 'I' for Inactive)
REMARK    1  A    between atoms: S1_2  and  C2_3 
ROOT
HETATM    1  C2  UNL     1     -18.226 -28.667  13.933  1.00  0.00     0.165 A 
HETATM    2 CL1  UNL     1     -19.058 -29.774  15.015  1.00  0.00    -0.083 Cl
HETATM    3  C3  UNL     1     -16.953 -29.113  13.316  1.00  0.00     0.135 A 
HETATM    4  C4  UNL     1     -16.307 -27.992  14.093  1.00  0.00     0.077 A 
HETATM    5  N1  UNL     1     -15.074 -27.647  14.159  1.00  0.00    -0.389 N 
ATOM      6  H11 UNL     1     -14.638 -26.890  14.684  1.00  0.00     0.157 HD
ATOM      7  H12 UNL     1     -14.182 -27.950  13.768  1.00  0.00     0.157 HD
HETATM    8  N2  UNL     1     -17.543 -27.574  14.635  1.00  0.00    -0.349 N 
ATOM      9  H2  UNL     1     -17.839 -26.821  15.258  1.00  0.00     0.163 HD
ENDROOT
BRANCH   1  10
HETATM   10  S1  UNL     1     -19.430 -27.875  12.798  1.00  0.00    -0.126 SA
HETATM   11  C1  UNL     1     -20.801 -27.284  13.846  1.00  0.00     0.093 C 
ENDBRANCH   1  10
TORSDOF 1
ENDMDL
MODEL 3
REMARK VINA RESULT: -3.582021328      2.062      2.134
REMARK  1 active torsions:
REMARK  status: ('A' for Active; 'I' for Inactive)
REMARK    1  A    between atoms: S1_2  and  C2_3 
ROOT
HETATM    1  C2  UNL     1     -18.085 -28.260  14.127  1.00  0.00     0.165 A 
HETATM    2 CL1  UNL     1     -19.024 -28.086  12.652  1.00  0.00    -0.083 Cl
HETATM    3  C3  UNL     1     -17.358 -27.073  14.640  1.00  0.00     0.135 A 
HETATM    4  C4  UNL     1     -16.099 -27.863  14.380  1.00  0.00     0.077 A 
HETATM    5  N1  UNL     1     -14.873 -27.526  14.545  1.00  0.00    -0.389 N 
ATOM      6  H11 UNL     1     -14.023 -28.061  14.370  1.00  0.00     0.157 HD
ATOM      7  H12 UNL     1     -14.349 -26.713  14.870  1.00  0.00     0.157 HD
HETATM    8  N2  UNL     1     -16.825 -28.988  13.930  1.00  0.00    -0.349 N 
ATOM      9  H2  UNL     1     -16.577 -29.922  13.602  1.00  0.00     0.163 HD
ENDROOT
BRANCH   1  10
HETATM   10  S1  UNL     1     -19.039 -29.212  15.370  1.00  0.00    -0.126 SA
HETATM   11  C1  UNL     1     -18.239 -30.848  15.480  1.00  0.00     0.093 C 
ENDBRANCH   1  10
TORSDOF 1
ENDMDL
MODEL 4
REMARK VINA RESULT: -3.518453323      2.659      2.815
REMARK  1 active torsions:
REMARK  status: ('A' for Active; 'I' for Inactive)
REMARK    1  A    between atoms: S1_2  and  C2_3 
ROOT
HETATM    1  C2  UNL     1     -17.916 -28.661  14.689  1.00  0.00     0.165 A 
HETATM    2 CL1  UNL     1     -19.053 -27.547  15.434  1.00  0.00    -0.083 Cl
HETATM    3  C3  UNL     1     -16.480 -28.292  14.676  1.00  0.00     0.135 A 
HETATM    4  C4  UNL     1     -16.610 -28.261  13.173  1.00  0.00     0.077 A 
HETATM    5  N1  UNL     1     -15.735 -27.971  12.282  1.00  0.00    -0.389 N 
ATOM      6  H11 UNL     1     -15.823 -27.949  11.266  1.00  0.00     0.157 HD
ATOM      7  H12 UNL     1     -14.754 -27.692  12.247  1.00  0.00     0.157 HD
HETATM    8  N2  UNL     1     -17.968 -28.646  13.222  1.00  0.00    -0.349 N 
ATOM      9  H2  UNL     1     -18.688 -28.836  12.524  1.00  0.00     0.163 HD
ENDROOT
BRANCH   1  10
HETATM   10  S1  UNL     1     -18.296 -30.381  15.199  1.00  0.00    -0.126 SA
HETATM   11  C1  UNL     1     -18.384 -30.363  17.021  1.00  0.00     0.093 C 
ENDBRANCH   1  10
TORSDOF 1
ENDMDL
MODEL 5
REMARK VINA RESULT: -3.490685719      2.243      2.897
REMARK  1 active torsions:
REMARK  status: ('A' for Active; 'I' for Inactive)
REMARK    1  A    between atoms: S1_2  and  C2_3 
ROOT
HETATM    1  C2  UNL     1     -17.179 -28.423  13.839  1.00  0.00     0.165 A 
HETATM    2 CL1  UNL     1     -16.059 -27.236  14.492  1.00  0.00    -0.083 Cl
HETATM    3  C3  UNL     1     -17.489 -29.619  14.659  1.00  0.00     0.135 A 
HETATM    4  C4  UNL     1     -16.838 -30.415  13.555  1.00  0.00     0.077 A 
HETATM    5  N1  UNL     1     -16.639 -31.678  13.465  1.00  0.00    -0.389 N 
ATOM      6  H11 UNL     1     -16.199 -32.216  12.718  1.00  0.00     0.157 HD
ATOM      7  H12 UNL     1     -16.819 -32.514  14.022  1.00  0.00     0.157 HD
HETATM    8  N2  UNL     1     -16.589 -29.257  12.784  1.00  0.00    -0.349 N 
ATOM      9  H2  UNL     1     -16.171 -29.075  11.871  1.00  0.00     0.163 HD
ENDROOT
BRANCH   1  10
HETATM   10  S1  UNL     1     -18.619 -27.578  13.080  1.00  0.00    -0.126 SA
HETATM   11  C1  UNL     1     -20.101 -28.312  13.848  1.00  0.00     0.093 C 
ENDBRANCH   1  10
TORSDOF 1
ENDMDL
