MODEL 1
REMARK VINA RESULT: -7.828666526      0.000      0.000
REMARK  2 active torsions:
REMARK  status: ('A' for Active; 'I' for Inactive)
REMARK    1  A    between atoms: N2_5  and  N3_6 
REMARK    2  A    between atoms: N9_24  and  C9_25 
ROOT
HETATM    1  N3  UNL     1      29.249  22.415  70.974  1.00  0.00    -0.215 N 
ATOM      2  H3  UNL     1      29.420  21.409  70.952  1.00  0.00     0.201 HD
HETATM    3  C3  UNL     1      29.171  23.139  69.789  1.00  0.00     0.199 C 
HETATM    4  N4  UNL     1      29.090  23.751  68.810  1.00  0.00    -0.170 NA
ENDROOT
BRANCH   1   5
HETATM    5  N2  UNL     1      29.095  23.065  72.174  1.00  0.00    -0.161 N 
HETATM    6  N1  UNL     1      30.217  23.580  72.825  1.00  0.00    -0.280 N 
HETATM    7  C2  UNL     1      30.213  23.887  74.065  1.00  0.00     0.067 C 
ATOM      8  H1  UNL     1      31.075  23.716  72.289  1.00  0.00     0.188 HD
HETATM    9  C1  UNL     1      31.401  24.438  74.777  1.00  0.00     0.074 C 
HETATM   10  C5  UNL     1      29.004  23.700  74.853  1.00  0.00     0.122 C 
HETATM   11  N5  UNL     1      27.832  23.168  74.200  1.00  0.00    -0.318 N 
HETATM   12  N6  UNL     1      28.968  24.001  76.107  1.00  0.00    -0.384 N 
HETATM   13  C4  UNL     1      27.799  23.209  72.749  1.00  0.00     0.295 C 
ATOM     14  H5  UNL     1      27.057  22.777  74.736  1.00  0.00     0.166 HD
HETATM   15  N7  UNL     1      27.132  24.397  72.259  1.00  0.00    -0.301 N 
HETATM   16  S1  UNL     1      26.696  21.819  72.259  1.00  0.00     0.028 SA
HETATM   17  C6  UNL     1      25.759  24.374  71.881  1.00  0.00     0.259 C 
ATOM     18  H7  UNL     1      27.656  25.269  72.182  1.00  0.00     0.167 HD
HETATM   19  O1  UNL     1      25.377  25.018  70.844  1.00  0.00    -0.270 OA
HETATM   20  C7  UNL     1      24.743  23.620  72.658  1.00  0.00     0.292 C 
HETATM   21  C8  UNL     1      24.528  24.399  73.900  1.00  0.00     0.095 C 
HETATM   22  N9  UNL     1      25.151  22.301  72.878  1.00  0.00    -0.294 N 
HETATM   23  N8  UNL     1      24.378  25.022  74.868  1.00  0.00    -0.195 NA
ATOM     24  H62 UNL     1      29.796  24.377  76.568  1.00  0.00     0.157 HD
ATOM     25  H61 UNL     1      28.121  23.870  76.659  1.00  0.00     0.157 HD
BRANCH  22  26
HETATM   26  C9  UNL     1      24.175  21.295  73.011  1.00  0.00     0.307 C 
HETATM   27  C10 UNL     1      23.519  21.407  74.312  1.00  0.00     0.100 C 
HETATM   28  N10 UNL     1      22.980  21.478  75.356  1.00  0.00    -0.194 NA
HETATM   29  C11 UNL     1      23.209  21.344  71.912  1.00  0.00     0.100 C 
HETATM   30  N11 UNL     1      22.456  21.378  71.024  1.00  0.00    -0.194 NA
ENDBRANCH  22  26
ENDBRANCH   1   5
TORSDOF 2
ENDMDL
MODEL 2
REMARK VINA RESULT: -7.734792777      1.345      2.046
REMARK  2 active torsions:
REMARK  status: ('A' for Active; 'I' for Inactive)
REMARK    1  A    between atoms: N2_5  and  N3_6 
REMARK    2  A    between atoms: N9_24  and  C9_25 
ROOT
HETATM    1  N3  UNL     1      29.538  21.884  70.896  1.00  0.00    -0.215 N 
ATOM      2  H3  UNL     1      28.653  21.868  70.390  1.00  0.00     0.201 HD
HETATM    3  C3  UNL     1      30.659  21.251  70.368  1.00  0.00     0.199 C 
HETATM    4  N4  UNL     1      31.603  20.741  69.934  1.00  0.00    -0.170 NA
ENDROOT
BRANCH   1   5
HETATM    5  N2  UNL     1      29.634  22.530  72.105  1.00  0.00    -0.161 N 
HETATM    6  N1  UNL     1      30.890  22.729  72.679  1.00  0.00    -0.280 N 
HETATM    7  C2  UNL     1      31.045  23.004  73.917  1.00  0.00     0.067 C 
ATOM      8  H1  UNL     1      31.717  22.652  72.087  1.00  0.00     0.188 HD
HETATM    9  C1  UNL     1      32.378  23.220  74.548  1.00  0.00     0.074 C 
HETATM   10  C5  UNL     1      29.882  23.117  74.785  1.00  0.00     0.122 C 
HETATM   11  N5  UNL     1      28.573  22.914  74.211  1.00  0.00    -0.318 N 
HETATM   12  N6  UNL     1      30.005  23.394  76.038  1.00  0.00    -0.384 N 
HETATM   13  C4  UNL     1      28.457  22.989  72.766  1.00  0.00     0.295 C 
ATOM     14  H5  UNL     1      27.760  22.724  74.798  1.00  0.00     0.166 HD
HETATM   15  N7  UNL     1      28.087  24.317  72.323  1.00  0.00    -0.301 N 
HETATM   16  S1  UNL     1      27.006  21.935  72.349  1.00  0.00     0.028 SA
HETATM   17  C6  UNL     1      26.731  24.651  72.039  1.00  0.00     0.259 C 
ATOM     18  H7  UNL     1      28.810  25.027  72.212  1.00  0.00     0.167 HD
HETATM   19  O1  UNL     1      26.461  25.391  71.031  1.00  0.00    -0.270 OA
HETATM   20  C7  UNL     1      25.609  24.168  72.881  1.00  0.00     0.292 C 
HETATM   21  C8  UNL     1      25.682  24.953  74.137  1.00  0.00     0.095 C 
HETATM   22  N9  UNL     1      25.679  22.784  73.072  1.00  0.00    -0.294 N 
HETATM   23  N8  UNL     1      25.759  25.575  75.113  1.00  0.00    -0.195 NA
ATOM     24  H62 UNL     1      30.930  23.537  76.443  1.00  0.00     0.157 HD
ATOM     25  H61 UNL     1      29.190  23.473  76.646  1.00  0.00     0.157 HD
BRANCH  22  26
HETATM   26  C9  UNL     1      24.490  22.058  73.269  1.00  0.00     0.307 C 
HETATM   27  C10 UNL     1      24.181  21.273  72.076  1.00  0.00     0.100 C 
HETATM   28  N10 UNL     1      23.913  20.637  71.122  1.00  0.00    -0.194 NA
HETATM   29  C11 UNL     1      24.573  21.215  74.463  1.00  0.00     0.100 C 
HETATM   30  N11 UNL     1      24.642  20.563  75.426  1.00  0.00    -0.194 NA
ENDBRANCH  22  26
ENDBRANCH   1   5
TORSDOF 2
ENDMDL
MODEL 3
REMARK VINA RESULT: -7.579819953      2.560      5.685
REMARK  2 active torsions:
REMARK  status: ('A' for Active; 'I' for Inactive)
REMARK    1  A    between atoms: N2_5  and  N3_6 
REMARK    2  A    between atoms: N9_24  and  C9_25 
ROOT
HETATM    1  N3  UNL     1      27.309  23.823  70.491  1.00  0.00    -0.215 N 
ATOM      2  H3  UNL     1      28.206  23.346  70.411  1.00  0.00     0.201 HD
HETATM    3  C3  UNL     1      26.833  24.601  69.441  1.00  0.00     0.199 C 
HETATM    4  N4  UNL     1      26.418  25.240  68.569  1.00  0.00    -0.170 NA
ENDROOT
BRANCH   1   5
HETATM    5  N2  UNL     1      26.560  23.704  71.637  1.00  0.00    -0.161 N 
HETATM    6  N1  UNL     1      25.237  24.148  71.641  1.00  0.00    -0.280 N 
HETATM    7  C2  UNL     1      24.594  24.384  72.719  1.00  0.00     0.067 C 
ATOM      8  H1  UNL     1      24.764  24.289  70.748  1.00  0.00     0.188 HD
HETATM    9  C1  UNL     1      23.181  24.858  72.744  1.00  0.00     0.074 C 
HETATM   10  C5  UNL     1      25.244  24.194  74.008  1.00  0.00     0.122 C 
HETATM   11  N5  UNL     1      26.613  23.736  74.026  1.00  0.00    -0.318 N 
HETATM   12  N6  UNL     1      24.622  24.423  75.113  1.00  0.00    -0.384 N 
HETATM   13  C4  UNL     1      27.134  23.135  72.811  1.00  0.00     0.295 C 
ATOM     14  H5  UNL     1      27.194  23.832  74.859  1.00  0.00     0.166 HD
HETATM   15  N7  UNL     1      26.995  21.694  72.821  1.00  0.00    -0.301 N 
HETATM   16  S1  UNL     1      28.950  23.430  72.874  1.00  0.00     0.028 SA
HETATM   17  C6  UNL     1      28.072  20.848  73.213  1.00  0.00     0.259 C 
ATOM     18  H7  UNL     1      26.108  21.275  72.542  1.00  0.00     0.167 HD
HETATM   19  O1  UNL     1      28.290  19.762  72.573  1.00  0.00    -0.270 OA
HETATM   20  C7  UNL     1      28.962  21.186  74.352  1.00  0.00     0.292 C 
HETATM   21  C8  UNL     1      28.155  20.954  75.574  1.00  0.00     0.095 C 
HETATM   22  N9  UNL     1      29.457  22.489  74.238  1.00  0.00    -0.294 N 
HETATM   23  N8  UNL     1      27.507  20.769  76.518  1.00  0.00    -0.195 NA
ATOM     24  H62 UNL     1      23.655  24.746  75.100  1.00  0.00     0.157 HD
ATOM     25  H61 UNL     1      25.078  24.290  76.015  1.00  0.00     0.157 HD
BRANCH  22  26
HETATM   26  C9  UNL     1      30.714  22.795  74.792  1.00  0.00     0.307 C 
HETATM   27  C10 UNL     1      31.770  22.139  74.023  1.00  0.00     0.100 C 
HETATM   28  N10 UNL     1      32.634  21.616  73.419  1.00  0.00    -0.194 NA
HETATM   29  C11 UNL     1      30.923  24.243  74.869  1.00  0.00     0.100 C 
HETATM   30  N11 UNL     1      31.071  25.396  74.946  1.00  0.00    -0.194 NA
ENDBRANCH  22  26
ENDBRANCH   1   5
TORSDOF 2
ENDMDL
MODEL 4
REMARK VINA RESULT: -7.559102325      2.645      4.602
REMARK  2 active torsions:
REMARK  status: ('A' for Active; 'I' for Inactive)
REMARK    1  A    between atoms: N2_5  and  N3_6 
REMARK    2  A    between atoms: N9_24  and  C9_25 
ROOT
HETATM    1  N3  UNL     1      25.450  24.898  75.924  1.00  0.00    -0.215 N 
ATOM      2  H3  UNL     1      24.518  24.664  76.265  1.00  0.00     0.201 HD
HETATM    3  C3  UNL     1      26.040  26.109  76.270  1.00  0.00     0.199 C 
HETATM    4  N4  UNL     1      26.549  27.107  76.561  1.00  0.00    -0.170 NA
ENDROOT
BRANCH   1   5
HETATM    5  N2  UNL     1      26.134  24.019  75.118  1.00  0.00    -0.161 N 
HETATM    6  N1  UNL     1      27.466  23.718  75.406  1.00  0.00    -0.280 N 
HETATM    7  C2  UNL     1      28.255  23.197  74.547  1.00  0.00     0.067 C 
ATOM      8  H1  UNL     1      27.824  23.922  76.340  1.00  0.00     0.188 HD
HETATM    9  C1  UNL     1      29.679  22.868  74.836  1.00  0.00     0.074 C 
HETATM   10  C5  UNL     1      27.771  22.898  73.207  1.00  0.00     0.122 C 
HETATM   11  N5  UNL     1      26.396  23.203  72.888  1.00  0.00    -0.318 N 
HETATM   12  N6  UNL     1      28.542  22.372  72.318  1.00  0.00    -0.384 N 
HETATM   13  C4  UNL     1      25.486  23.424  73.997  1.00  0.00     0.295 C 
ATOM     14  H5  UNL     1      26.077  23.261  71.921  1.00  0.00     0.166 HD
HETATM   15  N7  UNL     1      24.789  22.212  74.372  1.00  0.00    -0.301 N 
HETATM   16  S1  UNL     1      24.175  24.528  73.323  1.00  0.00     0.028 SA
HETATM   17  C6  UNL     1      23.479  21.930  73.886  1.00  0.00     0.259 C 
ATOM     18  H7  UNL     1      25.244  21.545  74.995  1.00  0.00     0.167 HD
HETATM   19  O1  UNL     1      22.612  21.410  74.670  1.00  0.00    -0.270 OA
HETATM   20  C7  UNL     1      23.080  22.221  72.487  1.00  0.00     0.292 C 
HETATM   21  C8  UNL     1      23.756  21.197  71.655  1.00  0.00     0.095 C 
HETATM   22  N9  UNL     1      23.396  23.537  72.134  1.00  0.00    -0.294 N 
HETATM   23  N8  UNL     1      24.296  20.389  71.022  1.00  0.00    -0.195 NA
ATOM     24  H62 UNL     1      29.513  22.157  72.543  1.00  0.00     0.157 HD
ATOM     25  H61 UNL     1      28.203  22.163  71.379  1.00  0.00     0.157 HD
BRANCH  22  26
HETATM   26  C9  UNL     1      22.607  24.197  71.172  1.00  0.00     0.307 C 
HETATM   27  C10 UNL     1      21.659  25.091  71.834  1.00  0.00     0.100 C 
HETATM   28  N10 UNL     1      20.885  25.814  72.348  1.00  0.00    -0.194 NA
HETATM   29  C11 UNL     1      23.439  24.913  70.203  1.00  0.00     0.100 C 
HETATM   30  N11 UNL     1      24.109  25.463  69.425  1.00  0.00    -0.194 NA
ENDBRANCH  22  26
ENDBRANCH   1   5
TORSDOF 2
ENDMDL
MODEL 5
REMARK VINA RESULT: -7.524598741      2.706      5.336
REMARK  2 active torsions:
REMARK  status: ('A' for Active; 'I' for Inactive)
REMARK    1  A    between atoms: N2_5  and  N3_6 
REMARK    2  A    between atoms: N9_24  and  C9_25 
ROOT
HETATM    1  N3  UNL     1      29.442  23.549  70.264  1.00  0.00    -0.215 N 
ATOM      2  H3  UNL     1      30.278  23.783  70.798  1.00  0.00     0.201 HD
HETATM    3  C3  UNL     1      29.547  23.137  68.940  1.00  0.00     0.199 C 
HETATM    4  N4  UNL     1      29.621  22.779  67.842  1.00  0.00    -0.170 NA
ENDROOT
BRANCH   1   5
HETATM    5  N2  UNL     1      28.201  23.638  70.847  1.00  0.00    -0.161 N 
HETATM    6  N1  UNL     1      27.159  24.253  70.152  1.00  0.00    -0.280 N 
HETATM    7  C2  UNL     1      26.099  24.672  70.730  1.00  0.00     0.067 C 
ATOM      8  H1  UNL     1      27.246  24.373  69.143  1.00  0.00     0.188 HD
HETATM    9  C1  UNL     1      24.976  25.331  70.005  1.00  0.00     0.074 C 
HETATM   10  C5  UNL     1      25.949  24.516  72.169  1.00  0.00     0.122 C 
HETATM   11  N5  UNL     1      27.016  23.883  72.908  1.00  0.00    -0.318 N 
HETATM   12  N6  UNL     1      24.892  24.928  72.782  1.00  0.00    -0.384 N 
HETATM   13  C4  UNL     1      27.983  23.107  72.152  1.00  0.00     0.295 C 
ATOM     14  H5  UNL     1      27.088  23.977  73.921  1.00  0.00     0.166 HD
HETATM   15  N7  UNL     1      27.627  21.705  72.100  1.00  0.00    -0.301 N 
HETATM   16  S1  UNL     1      29.525  23.161  73.157  1.00  0.00     0.028 SA
HETATM   17  C6  UNL     1      28.193  20.763  73.007  1.00  0.00     0.259 C 
ATOM     18  H7  UNL     1      26.958  21.385  71.400  1.00  0.00     0.167 HD
HETATM   19  O1  UNL     1      28.529  19.603  72.586  1.00  0.00    -0.270 OA
HETATM   20  C7  UNL     1      28.406  21.083  74.441  1.00  0.00     0.292 C 
HETATM   21  C8  UNL     1      27.059  21.074  75.059  1.00  0.00     0.095 C 
HETATM   22  N9  UNL     1      29.093  22.292  74.592  1.00  0.00    -0.294 N 
HETATM   23  N8  UNL     1      25.996  21.066  75.523  1.00  0.00    -0.195 NA
ATOM     24  H62 UNL     1      24.138  25.375  72.260  1.00  0.00     0.157 HD
ATOM     25  H61 UNL     1      24.787  24.819  73.790  1.00  0.00     0.157 HD
BRANCH  22  26
HETATM   26  C9  UNL     1      29.914  22.476  75.721  1.00  0.00     0.307 C 
HETATM   27  C10 UNL     1      30.832  21.348  75.859  1.00  0.00     0.100 C 
HETATM   28  N10 UNL     1      31.577  20.446  75.990  1.00  0.00    -0.194 NA
HETATM   29  C11 UNL     1      30.631  23.751  75.654  1.00  0.00     0.100 C 
HETATM   30  N11 UNL     1      31.182  24.776  75.601  1.00  0.00    -0.194 NA
ENDBRANCH  22  26
ENDBRANCH   1   5
TORSDOF 2
ENDMDL
