MODEL 1
REMARK VINA RESULT: -7.505550358      0.000      0.000
REMARK  6 active torsions:
REMARK  status: ('A' for Active; 'I' for Inactive)
REMARK    1  A    between atoms: C2_2  and  C3_3 
REMARK    2  A    between atoms: C3_3  and  C4_4 
REMARK    3  A    between atoms: C4_4  and  O1_5 
REMARK    4  A    between atoms: C5_7  and  C6_8 
REMARK    5  A    between atoms: C6_8  and  C7_9 
REMARK       I    between atoms: C7_9  and  N1_11 
REMARK       I    between atoms: N1_11  and  C8_13 
REMARK    6  A    between atoms: C21_30  and  O3_31 
ROOT
HETATM    1  C4  UNL     1       5.473  37.976  27.445  1.00  0.00     0.070 C 
HETATM    2  C5  UNL     1       6.528  36.971  26.862  1.00  0.00     0.057 C 
HETATM    3  C9  UNL     1       6.267  36.948  25.392  1.00  0.00    -0.080 C 
HETATM    4  C10 UNL     1       7.270  37.580  24.508  1.00  0.00     0.043 C 
HETATM    5  C11 UNL     1       5.245  36.475  24.699  1.00  0.00    -0.024 C 
HETATM    6  C12 UNL     1       3.992  35.808  25.052  1.00  0.00     0.028 C 
HETATM    7  C13 UNL     1       2.865  36.645  25.507  1.00  0.00     0.014 C 
HETATM    8  C14 UNL     1       3.048  37.502  26.741  1.00  0.00    -0.033 C 
HETATM    9  C15 UNL     1       2.941  38.926  26.253  1.00  0.00     0.016 C 
HETATM   10  C16 UNL     1       1.741  37.282  27.528  1.00  0.00    -0.001 C 
HETATM   11  C17 UNL     1       1.335  38.387  28.414  1.00  0.00     0.007 C 
HETATM   12  C18 UNL     1      -0.163  38.155  28.701  1.00  0.00     0.012 C 
HETATM   13  C19 UNL     1      -0.392  36.816  29.321  1.00  0.00    -0.014 C 
HETATM   14  C20 UNL     1      -0.346  36.974  30.832  1.00  0.00     0.018 C 
HETATM   15  C21 UNL     1      -1.838  36.418  28.992  1.00  0.00     0.126 C 
HETATM   16  C22 UNL     1      -1.739  35.602  27.722  1.00  0.00     0.033 C 
HETATM   17  C23 UNL     1      -0.415  34.919  27.824  1.00  0.00     0.008 C 
HETATM   18  C24 UNL     1       0.415  35.699  28.839  1.00  0.00     0.001 C 
HETATM   19  C25 UNL     1       1.738  35.986  28.242  1.00  0.00    -0.005 C 
HETATM   20  C26 UNL     1       2.806  35.951  29.268  1.00  0.00     0.006 C 
HETATM   21  C27 UNL     1       3.990  36.835  29.020  1.00  0.00     0.009 C 
HETATM   22  C28 UNL     1       4.233  37.179  27.577  1.00  0.00     0.029 C 
ENDROOT
BRANCH   2  23
HETATM   23  C6  UNL     1       7.903  37.228  27.262  1.00  0.00     0.115 C 
BRANCH  23  24
HETATM   24  C7  UNL     1       8.560  35.910  27.545  1.00  0.00     0.224 C 
HETATM   25  O2  UNL     1       8.671  34.999  26.692  1.00  0.00    -0.273 OA
HETATM   26  N1  UNL     1       9.085  35.675  28.843  1.00  0.00    -0.301 N 
HETATM   27  C8  UNL     1       9.707  34.456  29.145  1.00  0.00     0.188 C 
ATOM     28  H1  UNL     1       9.010  36.397  29.560  1.00  0.00     0.171 HD
HETATM   29  N2  UNL     1      10.174  34.279  30.340  1.00  0.00    -0.373 N 
HETATM   30  N3  UNL     1       9.835  33.415  28.175  1.00  0.00    -0.064 NA
ATOM     31  H22 UNL     1      10.083  35.022  31.033  1.00  0.00     0.158 HD
ATOM     32  H21 UNL     1      10.627  33.391  30.560  1.00  0.00     0.158 HD
ENDBRANCH  23  24
ENDBRANCH   2  23
BRANCH   1  33
HETATM   33  C3  UNL     1       6.075  38.615  28.626  1.00  0.00     0.038 C 
BRANCH  33  34
HETATM   34  C2  UNL     1       5.831  40.080  28.838  1.00  0.00    -0.002 C 
HETATM   35  C1  UNL     1       4.564  40.221  29.702  1.00  0.00     0.005 C 
ENDBRANCH  33  34
ENDBRANCH   1  33
BRANCH   1  36
HETATM   36  O1  UNL     1       5.498  38.935  26.433  1.00  0.00    -0.389 OA
ATOM     37  H1  UNL     1       4.611  38.985  26.095  1.00  0.00     0.210 HD
ENDBRANCH   1  36
BRANCH  15  38
HETATM   38  O3  UNL     1      -2.619  37.525  28.719  1.00  0.00    -0.395 OA
ATOM     39  H3  UNL     1      -2.421  37.889  27.864  1.00  0.00     0.210 HD
ENDBRANCH  15  38
TORSDOF 6
ENDMDL
MODEL 2
REMARK VINA RESULT: -7.405407137      1.462      1.768
REMARK  6 active torsions:
REMARK  status: ('A' for Active; 'I' for Inactive)
REMARK    1  A    between atoms: C2_2  and  C3_3 
REMARK    2  A    between atoms: C3_3  and  C4_4 
REMARK    3  A    between atoms: C4_4  and  O1_5 
REMARK    4  A    between atoms: C5_7  and  C6_8 
REMARK    5  A    between atoms: C6_8  and  C7_9 
REMARK       I    between atoms: C7_9  and  N1_11 
REMARK       I    between atoms: N1_11  and  C8_13 
REMARK    6  A    between atoms: C21_30  and  O3_31 
ROOT
HETATM    1  C4  UNL     1       6.778  37.828  27.462  1.00  0.00     0.070 C 
HETATM    2  C5  UNL     1       7.673  36.883  26.584  1.00  0.00     0.057 C 
HETATM    3  C9  UNL     1       7.620  37.468  25.212  1.00  0.00    -0.080 C 
HETATM    4  C10 UNL     1       8.846  38.115  24.695  1.00  0.00     0.043 C 
HETATM    5  C11 UNL     1       6.629  37.550  24.340  1.00  0.00    -0.024 C 
HETATM    6  C12 UNL     1       5.228  37.128  24.342  1.00  0.00     0.028 C 
HETATM    7  C13 UNL     1       4.247  37.987  25.033  1.00  0.00     0.014 C 
HETATM    8  C14 UNL     1       4.430  38.256  26.512  1.00  0.00    -0.033 C 
HETATM    9  C15 UNL     1       4.690  39.739  26.614  1.00  0.00     0.016 C 
HETATM   10  C16 UNL     1       3.010  38.089  27.086  1.00  0.00    -0.001 C 
HETATM   11  C17 UNL     1       2.722  38.853  28.312  1.00  0.00     0.007 C 
HETATM   12  C18 UNL     1       1.183  38.906  28.412  1.00  0.00     0.012 C 
HETATM   13  C19 UNL     1       0.598  37.533  28.448  1.00  0.00    -0.014 C 
HETATM   14  C20 UNL     1       0.464  37.106  29.901  1.00  0.00     0.018 C 
HETATM   15  C21 UNL     1      -0.839  37.650  27.919  1.00  0.00     0.126 C 
HETATM   16  C22 UNL     1      -0.736  37.362  26.438  1.00  0.00     0.033 C 
HETATM   17  C23 UNL     1       0.390  36.388  26.329  1.00  0.00     0.008 C 
HETATM   18  C24 UNL     1       1.214  36.511  27.608  1.00  0.00     0.001 C 
HETATM   19  C25 UNL     1       2.638  36.664  27.235  1.00  0.00    -0.005 C 
HETATM   20  C26 UNL     1       3.522  35.993  28.216  1.00  0.00     0.006 C 
HETATM   21  C27 UNL     1       4.887  36.587  28.391  1.00  0.00     0.009 C 
HETATM   22  C28 UNL     1       5.394  37.368  27.211  1.00  0.00     0.029 C 
ENDROOT
BRANCH   2  23
HETATM   23  C6  UNL     1       9.002  36.630  27.119  1.00  0.00     0.115 C 
BRANCH  23  24
HETATM   24  C7  UNL     1       9.257  35.153  27.052  1.00  0.00     0.224 C 
HETATM   25  O2  UNL     1       9.015  34.458  26.039  1.00  0.00    -0.273 OA
HETATM   26  N1  UNL     1       9.801  34.504  28.193  1.00  0.00    -0.301 N 
HETATM   27  C8  UNL     1      10.054  33.125  28.168  1.00  0.00     0.188 C 
ATOM     28  H1  UNL     1      10.008  35.043  29.034  1.00  0.00     0.171 HD
HETATM   29  N2  UNL     1      10.550  32.569  29.227  1.00  0.00    -0.373 N 
HETATM   30  N3  UNL     1       9.779  32.330  27.014  1.00  0.00    -0.064 NA
ATOM     31  H22 UNL     1      10.747  33.137  30.051  1.00  0.00     0.158 HD
ATOM     32  H21 UNL     1      10.734  31.566  29.209  1.00  0.00     0.158 HD
ENDBRANCH  23  24
ENDBRANCH   2  23
BRANCH   1  33
HETATM   33  C3  UNL     1       7.330  37.819  28.827  1.00  0.00     0.038 C 
BRANCH  33  34
HETATM   34  C2  UNL     1       7.242  39.082  29.632  1.00  0.00    -0.002 C 
HETATM   35  C1  UNL     1       8.563  39.231  30.410  1.00  0.00     0.005 C 
ENDBRANCH  33  34
ENDBRANCH   1  33
BRANCH   1  36
HETATM   36  O1  UNL     1       7.142  39.055  26.907  1.00  0.00    -0.389 OA
ATOM     37  H1  UNL     1       7.526  38.857  26.061  1.00  0.00     0.210 HD
ENDBRANCH   1  36
BRANCH  15  38
HETATM   38  O3  UNL     1      -1.328  38.935  28.063  1.00  0.00    -0.395 OA
ATOM     39  H3  UNL     1      -0.797  39.565  27.591  1.00  0.00     0.210 HD
ENDBRANCH  15  38
TORSDOF 6
ENDMDL
MODEL 3
REMARK VINA RESULT: -6.936909129      2.347      3.384
REMARK  6 active torsions:
REMARK  status: ('A' for Active; 'I' for Inactive)
REMARK    1  A    between atoms: C2_2  and  C3_3 
REMARK    2  A    between atoms: C3_3  and  C4_4 
REMARK    3  A    between atoms: C4_4  and  O1_5 
REMARK    4  A    between atoms: C5_7  and  C6_8 
REMARK    5  A    between atoms: C6_8  and  C7_9 
REMARK       I    between atoms: C7_9  and  N1_11 
REMARK       I    between atoms: N1_11  and  C8_13 
REMARK    6  A    between atoms: C21_30  and  O3_31 
ROOT
HETATM    1  C4  UNL     1       4.543  38.639  28.588  1.00  0.00     0.070 C 
HETATM    2  C5  UNL     1       5.374  37.407  28.083  1.00  0.00     0.057 C 
HETATM    3  C9  UNL     1       4.477  36.708  27.115  1.00  0.00    -0.080 C 
HETATM    4  C10 UNL     1       4.832  36.775  25.681  1.00  0.00     0.043 C 
HETATM    5  C11 UNL     1       3.354  36.036  27.302  1.00  0.00    -0.024 C 
HETATM    6  C12 UNL     1       2.545  35.703  28.474  1.00  0.00     0.028 C 
HETATM    7  C13 UNL     1       1.622  36.732  28.993  1.00  0.00     0.014 C 
HETATM    8  C14 UNL     1       2.194  38.057  29.451  1.00  0.00    -0.033 C 
HETATM    9  C15 UNL     1       1.622  39.082  28.503  1.00  0.00     0.016 C 
HETATM   10  C16 UNL     1       1.457  38.327  30.777  1.00  0.00    -0.001 C 
HETATM   11  C17 UNL     1       1.311  39.745  31.150  1.00  0.00     0.007 C 
HETATM   12  C18 UNL     1       0.180  39.781  32.198  1.00  0.00     0.012 C 
HETATM   13  C19 UNL     1       0.504  38.915  33.371  1.00  0.00    -0.014 C 
HETATM   14  C20 UNL     1       1.209  39.767  34.415  1.00  0.00     0.018 C 
HETATM   15  C21 UNL     1      -0.833  38.509  34.006  1.00  0.00     0.126 C 
HETATM   16  C22 UNL     1      -1.184  37.184  33.366  1.00  0.00     0.033 C 
HETATM   17  C23 UNL     1       0.138  36.542  33.100  1.00  0.00     0.008 C 
HETATM   18  C24 UNL     1       1.186  37.651  33.113  1.00  0.00     0.001 C 
HETATM   19  C25 UNL     1       2.013  37.528  31.892  1.00  0.00    -0.005 C 
HETATM   20  C26 UNL     1       3.419  37.910  32.158  1.00  0.00     0.006 C 
HETATM   21  C27 UNL     1       4.178  38.486  31.002  1.00  0.00     0.009 C 
HETATM   22  C28 UNL     1       3.666  38.087  29.645  1.00  0.00     0.029 C 
ENDROOT
BRANCH   2  23
HETATM   23  C6  UNL     1       6.708  37.727  27.599  1.00  0.00     0.115 C 
BRANCH  23  24
HETATM   24  C7  UNL     1       7.587  36.535  27.834  1.00  0.00     0.224 C 
HETATM   25  O2  UNL     1       7.505  35.809  28.852  1.00  0.00    -0.273 OA
HETATM   26  N1  UNL     1       8.566  36.208  26.859  1.00  0.00    -0.301 N 
HETATM   27  C8  UNL     1       9.407  35.101  27.044  1.00  0.00     0.188 C 
ATOM     28  H1  UNL     1       8.659  36.780  26.020  1.00  0.00     0.171 HD
HETATM   29  N2  UNL     1      10.287  34.834  26.132  1.00  0.00    -0.373 N 
HETATM   30  N3  UNL     1       9.315  34.271  28.202  1.00  0.00    -0.064 NA
ATOM     31  H22 UNL     1      10.352  35.427  25.304  1.00  0.00     0.158 HD
ATOM     32  H21 UNL     1      10.898  34.029  26.266  1.00  0.00     0.158 HD
ENDBRANCH  23  24
ENDBRANCH   2  23
BRANCH   1  33
HETATM   33  C3  UNL     1       5.494  39.718  28.899  1.00  0.00     0.038 C 
BRANCH  33  34
HETATM   34  C2  UNL     1       5.157  41.109  28.446  1.00  0.00    -0.002 C 
HETATM   35  C1  UNL     1       4.348  41.781  29.571  1.00  0.00     0.005 C 
ENDBRANCH  33  34
ENDBRANCH   1  33
BRANCH   1  36
HETATM   36  O1  UNL     1       3.929  38.999  27.389  1.00  0.00    -0.389 OA
ATOM     37  H1  UNL     1       3.058  39.300  27.619  1.00  0.00     0.210 HD
ENDBRANCH   1  36
BRANCH  15  38
HETATM   38  O3  UNL     1      -1.837  39.406  33.689  1.00  0.00    -0.395 OA
ATOM     39  H3  UNL     1      -2.210  39.801  34.468  1.00  0.00     0.210 HD
ENDBRANCH  15  38
TORSDOF 6
ENDMDL
MODEL 4
REMARK VINA RESULT: -6.788901782      6.843     11.797
REMARK  6 active torsions:
REMARK  status: ('A' for Active; 'I' for Inactive)
REMARK    1  A    between atoms: C2_2  and  C3_3 
REMARK    2  A    between atoms: C3_3  and  C4_4 
REMARK    3  A    between atoms: C4_4  and  O1_5 
REMARK    4  A    between atoms: C5_7  and  C6_8 
REMARK    5  A    between atoms: C6_8  and  C7_9 
REMARK       I    between atoms: C7_9  and  N1_11 
REMARK       I    between atoms: N1_11  and  C8_13 
REMARK    6  A    between atoms: C21_30  and  O3_31 
ROOT
HETATM    1  C4  UNL     1       8.927  40.624  22.103  1.00  0.00     0.070 C 
HETATM    2  C5  UNL     1       8.065  40.346  23.384  1.00  0.00     0.057 C 
HETATM    3  C9  UNL     1       7.245  41.580  23.571  1.00  0.00    -0.080 C 
HETATM    4  C10 UNL     1       5.793  41.484  23.306  1.00  0.00     0.043 C 
HETATM    5  C11 UNL     1       7.591  42.809  23.915  1.00  0.00    -0.024 C 
HETATM    6  C12 UNL     1       8.859  43.460  24.242  1.00  0.00     0.028 C 
HETATM    7  C13 UNL     1       9.727  43.886  23.126  1.00  0.00     0.014 C 
HETATM    8  C14 UNL     1      10.226  42.840  22.153  1.00  0.00    -0.033 C 
HETATM    9  C15 UNL     1       9.601  43.203  20.828  1.00  0.00     0.016 C 
HETATM   10  C16 UNL     1      11.713  43.199  21.971  1.00  0.00    -0.001 C 
HETATM   11  C17 UNL     1      12.314  42.804  20.685  1.00  0.00     0.007 C 
HETATM   12  C18 UNL     1      13.594  43.654  20.549  1.00  0.00     0.012 C 
HETATM   13  C19 UNL     1      14.516  43.428  21.701  1.00  0.00    -0.014 C 
HETATM   14  C20 UNL     1      15.478  42.309  21.332  1.00  0.00     0.018 C 
HETATM   15  C21 UNL     1      15.382  44.689  21.829  1.00  0.00     0.126 C 
HETATM   16  C22 UNL     1      14.656  45.562  22.828  1.00  0.00     0.033 C 
HETATM   17  C23 UNL     1      13.995  44.594  23.752  1.00  0.00     0.008 C 
HETATM   18  C24 UNL     1      13.921  43.256  23.023  1.00  0.00     0.001 C 
HETATM   19  C25 UNL     1      12.535  42.746  23.115  1.00  0.00    -0.005 C 
HETATM   20  C26 UNL     1      12.515  41.269  23.221  1.00  0.00     0.006 C 
HETATM   21  C27 UNL     1      11.310  40.582  22.656  1.00  0.00     0.009 C 
HETATM   22  C28 UNL     1      10.069  41.429  22.591  1.00  0.00     0.029 C 
ENDROOT
BRANCH   2  23
HETATM   23  C6  UNL     1       7.332  39.090  23.367  1.00  0.00     0.115 C 
BRANCH  23  24
HETATM   24  C7  UNL     1       7.523  38.420  24.696  1.00  0.00     0.224 C 
HETATM   25  O2  UNL     1       7.270  38.976  25.790  1.00  0.00    -0.273 OA
HETATM   26  N1  UNL     1       8.017  37.089  24.723  1.00  0.00    -0.301 N 
HETATM   27  C8  UNL     1       8.209  36.431  25.946  1.00  0.00     0.188 C 
ATOM     28  H1  UNL     1       8.233  36.609  23.850  1.00  0.00     0.171 HD
HETATM   29  N2  UNL     1       8.660  35.217  25.931  1.00  0.00    -0.373 N 
HETATM   30  N3  UNL     1       7.920  37.062  27.195  1.00  0.00    -0.064 NA
ATOM     31  H22 UNL     1       8.865  34.766  25.039  1.00  0.00     0.158 HD
ATOM     32  H21 UNL     1       8.799  34.738  26.820  1.00  0.00     0.158 HD
ENDBRANCH  23  24
ENDBRANCH   2  23
BRANCH   1  33
HETATM   33  C3  UNL     1       9.159  39.332  21.436  1.00  0.00     0.038 C 
BRANCH  33  34
HETATM   34  C2  UNL     1       8.768  39.201  19.994  1.00  0.00    -0.002 C 
HETATM   35  C1  UNL     1       9.846  39.911  19.153  1.00  0.00     0.005 C 
ENDBRANCH  33  34
ENDBRANCH   1  33
BRANCH   1  36
HETATM   36  O1  UNL     1       7.973  41.289  21.334  1.00  0.00    -0.389 OA
ATOM     37  H1  UNL     1       7.141  41.155  21.773  1.00  0.00     0.210 HD
ENDBRANCH   1  36
BRANCH  15  38
HETATM   38  O3  UNL     1      15.447  45.383  20.635  1.00  0.00    -0.395 OA
ATOM     39  H3  UNL     1      15.919  46.202  20.733  1.00  0.00     0.210 HD
ENDBRANCH  15  38
TORSDOF 6
ENDMDL
MODEL 5
REMARK VINA RESULT: -6.727618242      2.744      3.949
REMARK  6 active torsions:
REMARK  status: ('A' for Active; 'I' for Inactive)
REMARK    1  A    between atoms: C2_2  and  C3_3 
REMARK    2  A    between atoms: C3_3  and  C4_4 
REMARK    3  A    between atoms: C4_4  and  O1_5 
REMARK    4  A    between atoms: C5_7  and  C6_8 
REMARK    5  A    between atoms: C6_8  and  C7_9 
REMARK       I    between atoms: C7_9  and  N1_11 
REMARK       I    between atoms: N1_11  and  C8_13 
REMARK    6  A    between atoms: C21_30  and  O3_31 
ROOT
HETATM    1  C4  UNL     1       4.403  38.410  27.966  1.00  0.00     0.070 C 
HETATM    2  C5  UNL     1       4.960  37.018  27.503  1.00  0.00     0.057 C 
HETATM    3  C9  UNL     1       3.781  36.303  26.929  1.00  0.00    -0.080 C 
HETATM    4  C10 UNL     1       3.748  36.104  25.463  1.00  0.00     0.043 C 
HETATM    5  C11 UNL     1       2.694  35.820  27.505  1.00  0.00    -0.024 C 
HETATM    6  C12 UNL     1       2.198  35.779  28.880  1.00  0.00     0.028 C 
HETATM    7  C13 UNL     1       1.539  36.987  29.416  1.00  0.00     0.014 C 
HETATM    8  C14 UNL     1       2.326  38.279  29.472  1.00  0.00    -0.033 C 
HETATM    9  C15 UNL     1       1.615  39.215  28.524  1.00  0.00     0.016 C 
HETATM   10  C16 UNL     1       1.993  38.842  30.867  1.00  0.00    -0.001 C 
HETATM   11  C17 UNL     1       2.075  40.307  31.001  1.00  0.00     0.007 C 
HETATM   12  C18 UNL     1       1.270  40.650  32.272  1.00  0.00     0.012 C 
HETATM   13  C19 UNL     1       1.817  39.938  33.465  1.00  0.00    -0.014 C 
HETATM   14  C20 UNL     1       2.845  40.839  34.132  1.00  0.00     0.018 C 
HETATM   15  C21 UNL     1       0.665  39.812  34.472  1.00  0.00     0.126 C 
HETATM   16  C22 UNL     1       0.043  38.463  34.189  1.00  0.00     0.033 C 
HETATM   17  C23 UNL     1       1.186  37.620  33.727  1.00  0.00     0.008 C 
HETATM   18  C24 UNL     1       2.293  38.570  33.280  1.00  0.00     0.001 C 
HETATM   19  C25 UNL     1       2.752  38.156  31.935  1.00  0.00    -0.005 C 
HETATM   20  C26 UNL     1       4.206  38.386  31.774  1.00  0.00     0.006 C 
HETATM   21  C27 UNL     1       4.680  38.675  30.382  1.00  0.00     0.009 C 
HETATM   22  C28 UNL     1       3.794  38.145  29.288  1.00  0.00     0.029 C 
ENDROOT
BRANCH   2  23
HETATM   23  C6  UNL     1       6.141  37.083  26.656  1.00  0.00     0.115 C 
BRANCH  23  24
HETATM   24  C7  UNL     1       7.190  36.190  27.249  1.00  0.00     0.224 C 
HETATM   25  O2  UNL     1       7.146  35.764  28.427  1.00  0.00    -0.273 OA
HETATM   26  N1  UNL     1       8.293  35.805  26.442  1.00  0.00    -0.301 N 
HETATM   27  C8  UNL     1       9.293  34.972  26.961  1.00  0.00     0.188 C 
ATOM     28  H1  UNL     1       8.358  36.136  25.479  1.00  0.00     0.171 HD
HETATM   29  N2  UNL     1      10.283  34.642  26.195  1.00  0.00    -0.373 N 
HETATM   30  N3  UNL     1       9.245  34.484  28.303  1.00  0.00    -0.064 NA
ATOM     31  H22 UNL     1      10.317  34.990  25.236  1.00  0.00     0.158 HD
ATOM     32  H21 UNL     1      11.011  34.035  26.573  1.00  0.00     0.158 HD
ENDBRANCH  23  24
ENDBRANCH   2  23
BRANCH   1  33
HETATM   33  C3  UNL     1       5.494  39.390  27.832  1.00  0.00     0.038 C 
BRANCH  33  34
HETATM   34  C2  UNL     1       5.181  40.712  27.195  1.00  0.00    -0.002 C 
HETATM   35  C1  UNL     1       4.790  41.690  28.318  1.00  0.00     0.005 C 
ENDBRANCH  33  34
ENDBRANCH   1  33
BRANCH   1  36
HETATM   36  O1  UNL     1       3.528  38.661  26.910  1.00  0.00    -0.389 OA
ATOM     37  H1  UNL     1       3.010  37.871  26.804  1.00  0.00     0.210 HD
ENDBRANCH   1  36
BRANCH  15  38
HETATM   38  O3  UNL     1      -0.304  40.774  34.255  1.00  0.00    -0.395 OA
ATOM     39  H3  UNL     1      -1.142  40.511  34.617  1.00  0.00     0.210 HD
ENDBRANCH  15  38
TORSDOF 6
ENDMDL
