MODEL 1
REMARK VINA RESULT: -7.834421503      0.000      0.000
REMARK  11 active torsions:
REMARK  status: ('A' for Active; 'I' for Inactive)
REMARK    1  A    between atoms: C3_3  and  C4_4 
REMARK    2  A    between atoms: C4_4  and  O1_5 
REMARK    3  A    between atoms: C4_4  and  O2_7 
REMARK    4  A    between atoms: O2_7  and  C5_8 
REMARK    5  A    between atoms: C5_8  and  C7_10 
REMARK    6  A    between atoms: C12_15  and  O3_16 
REMARK    7  A    between atoms: N1_18  and  C13_19 
REMARK    8  A    between atoms: C13_19  and  C14_20 
REMARK    9  A    between atoms: C15_21  and  C16_22 
REMARK   10  A    between atoms: C16_22  and  O4_23 
REMARK   11  A    between atoms: N2_25  and  O5_27 
ROOT
HETATM    1  C1  UNL     1      24.657  29.834   8.384  1.00  0.00     0.069 C 
HETATM    2  C2  UNL     1      24.731  29.282   6.994  1.00  0.00     0.021 A 
HETATM    3  C3  UNL     1      25.918  28.906   6.383  1.00  0.00     0.023 A 
HETATM    4  C11 UNL     1      25.537  28.461   5.133  1.00  0.00     0.070 A 
HETATM    5  C12 UNL     1      24.169  28.580   5.034  1.00  0.00     0.143 A 
HETATM    6  N1  UNL     1      23.701  29.086   6.188  1.00  0.00    -0.328 N 
ENDROOT
BRANCH   3   7
HETATM    7  C4  UNL     1      27.260  28.979   7.005  1.00  0.00     0.293 C 
BRANCH   7   8
HETATM    8  O1  UNL     1      27.092  28.228   8.227  1.00  0.00    -0.367 OA
ATOM      9  H1  UNL     1      27.495  27.393   8.021  1.00  0.00     0.213 HD
ENDBRANCH   7   8
BRANCH   7  10
HETATM   10  O2  UNL     1      28.277  28.376   6.360  1.00  0.00    -0.351 OA
BRANCH  10  11
HETATM   11  C5  UNL     1      29.488  28.986   6.305  1.00  0.00     0.128 C 
HETATM   12  C6  UNL     1      30.494  28.436   7.299  1.00  0.00     0.040 C 
BRANCH  11  13
HETATM   13  C7  UNL     1      30.023  29.028   4.921  1.00  0.00    -0.025 C 
HETATM   14  C8  UNL     1      29.016  28.599   3.894  1.00  0.00     0.017 C 
HETATM   15  C9  UNL     1      31.218  28.098   4.846  1.00  0.00     0.017 C 
HETATM   16  C10 UNL     1      30.514  30.405   4.518  1.00  0.00     0.017 C 
ENDBRANCH  11  13
ENDBRANCH  10  11
ENDBRANCH   7  10
ENDBRANCH   3   7
BRANCH   6  17
HETATM   17  C13 UNL     1      22.293  29.375   6.510  1.00  0.00     0.158 C 
BRANCH  17  18
HETATM   18  C14 UNL     1      21.782  30.493   5.731  1.00  0.00    -0.002 C 
HETATM   19  C15 UNL     1      21.791  31.712   6.222  1.00  0.00     0.055 C 
BRANCH  19  20
HETATM   20  C16 UNL     1      21.288  32.841   5.468  1.00  0.00     0.159 C 
HETATM   21  N2  UNL     1      20.735  33.839   6.039  1.00  0.00    -0.248 N 
ATOM     22  H2  UNL     1      20.389  34.622   5.485  1.00  0.00     0.196 HD
BRANCH  20  23
HETATM   23  O4  UNL     1      21.409  32.836   4.093  1.00  0.00    -0.345 OA
ATOM     24  H4  UNL     1      20.693  32.499   3.568  1.00  0.00     0.219 HD
ENDBRANCH  20  23
BRANCH  21  25
HETATM   25  O5  UNL     1      20.610  33.850   7.414  1.00  0.00    -0.288 OA
ATOM     26  H5  UNL     1      20.061  34.507   7.827  1.00  0.00     0.244 HD
ENDBRANCH  21  25
ENDBRANCH  19  20
ENDBRANCH  17  18
ENDBRANCH   6  17
BRANCH   5  27
HETATM   27  O3  UNL     1      23.391  28.240   3.935  1.00  0.00    -0.346 OA
ATOM     28  H3  UNL     1      23.191  28.799   3.193  1.00  0.00     0.219 HD
ENDBRANCH   5  27
TORSDOF 11
ENDMDL
MODEL 2
REMARK VINA RESULT: -7.668877951      3.333      8.155
REMARK  11 active torsions:
REMARK  status: ('A' for Active; 'I' for Inactive)
REMARK    1  A    between atoms: C3_3  and  C4_4 
REMARK    2  A    between atoms: C4_4  and  O1_5 
REMARK    3  A    between atoms: C4_4  and  O2_7 
REMARK    4  A    between atoms: O2_7  and  C5_8 
REMARK    5  A    between atoms: C5_8  and  C7_10 
REMARK    6  A    between atoms: C12_15  and  O3_16 
REMARK    7  A    between atoms: N1_18  and  C13_19 
REMARK    8  A    between atoms: C13_19  and  C14_20 
REMARK    9  A    between atoms: C15_21  and  C16_22 
REMARK   10  A    between atoms: C16_22  and  O4_23 
REMARK   11  A    between atoms: N2_25  and  O5_27 
ROOT
HETATM    1  C1  UNL     1      27.543  28.612   8.631  1.00  0.00     0.069 C 
HETATM    2  C2  UNL     1      27.851  28.670   7.166  1.00  0.00     0.021 A 
HETATM    3  C3  UNL     1      26.875  28.715   6.182  1.00  0.00     0.023 A 
HETATM    4  C11 UNL     1      27.582  28.759   4.997  1.00  0.00     0.070 A 
HETATM    5  C12 UNL     1      28.925  28.739   5.298  1.00  0.00     0.143 A 
HETATM    6  N1  UNL     1      29.062  28.684   6.634  1.00  0.00    -0.328 N 
ENDROOT
BRANCH   3   7
HETATM    7  C4  UNL     1      25.415  28.728   6.426  1.00  0.00     0.293 C 
BRANCH   7   8
HETATM    8  O1  UNL     1      25.254  29.806   7.374  1.00  0.00    -0.367 OA
ATOM      9  H1  UNL     1      24.630  29.450   7.997  1.00  0.00     0.213 HD
ENDBRANCH   7   8
BRANCH   7  10
HETATM   10  O2  UNL     1      24.614  29.049   5.391  1.00  0.00    -0.351 OA
BRANCH  10  11
HETATM   11  C5  UNL     1      23.402  28.451   5.273  1.00  0.00     0.128 C 
HETATM   12  C6  UNL     1      22.242  29.337   5.689  1.00  0.00     0.040 C 
BRANCH  11  13
HETATM   13  C7  UNL     1      23.208  27.857   3.927  1.00  0.00    -0.025 C 
HETATM   14  C8  UNL     1      24.404  28.026   3.037  1.00  0.00     0.017 C 
HETATM   15  C9  UNL     1      22.018  28.536   3.276  1.00  0.00     0.017 C 
HETATM   16  C10 UNL     1      22.893  26.374   3.975  1.00  0.00     0.017 C 
ENDBRANCH  11  13
ENDBRANCH  10  11
ENDBRANCH   7  10
ENDBRANCH   3   7
BRANCH   6  17
HETATM   17  C13 UNL     1      30.328  28.646   7.384  1.00  0.00     0.158 C 
BRANCH  17  18
HETATM   18  C14 UNL     1      30.937  27.324   7.345  1.00  0.00    -0.002 C 
HETATM   19  C15 UNL     1      30.724  26.460   8.311  1.00  0.00     0.055 C 
BRANCH  19  20
HETATM   20  C16 UNL     1      31.318  25.139   8.297  1.00  0.00     0.159 C 
HETATM   21  N2  UNL     1      31.581  24.508   9.374  1.00  0.00    -0.248 N 
ATOM     22  H2  UNL     1      32.000  23.579   9.336  1.00  0.00     0.196 HD
BRANCH  20  23
HETATM   23  O4  UNL     1      31.607  24.548   7.083  1.00  0.00    -0.345 OA
ATOM     24  H4  UNL     1      32.492  24.246   6.917  1.00  0.00     0.219 HD
ENDBRANCH  20  23
BRANCH  21  25
HETATM   25  O5  UNL     1      31.295  25.093  10.591  1.00  0.00    -0.288 OA
ATOM     26  H5  UNL     1      31.819  25.828  10.889  1.00  0.00     0.244 HD
ENDBRANCH  21  25
ENDBRANCH  19  20
ENDBRANCH  17  18
ENDBRANCH   6  17
BRANCH   5  27
HETATM   27  O3  UNL     1      29.973  28.770   4.387  1.00  0.00    -0.346 OA
ATOM     28  H3  UNL     1      30.472  29.536   4.129  1.00  0.00     0.219 HD
ENDBRANCH   5  27
TORSDOF 11
ENDMDL
MODEL 3
REMARK VINA RESULT: -7.543318426      3.236      7.615
REMARK  11 active torsions:
REMARK  status: ('A' for Active; 'I' for Inactive)
REMARK    1  A    between atoms: C3_3  and  C4_4 
REMARK    2  A    between atoms: C4_4  and  O1_5 
REMARK    3  A    between atoms: C4_4  and  O2_7 
REMARK    4  A    between atoms: O2_7  and  C5_8 
REMARK    5  A    between atoms: C5_8  and  C7_10 
REMARK    6  A    between atoms: C12_15  and  O3_16 
REMARK    7  A    between atoms: N1_18  and  C13_19 
REMARK    8  A    between atoms: C13_19  and  C14_20 
REMARK    9  A    between atoms: C15_21  and  C16_22 
REMARK   10  A    between atoms: C16_22  and  O4_23 
REMARK   11  A    between atoms: N2_25  and  O5_27 
ROOT
HETATM    1  C1  UNL     1      21.896  29.367   4.421  1.00  0.00     0.069 C 
HETATM    2  C2  UNL     1      21.676  30.625   5.204  1.00  0.00     0.021 A 
HETATM    3  C3  UNL     1      21.041  31.745   4.689  1.00  0.00     0.023 A 
HETATM    4  C11 UNL     1      21.053  32.656   5.726  1.00  0.00     0.070 A 
HETATM    5  C12 UNL     1      21.679  32.071   6.803  1.00  0.00     0.143 A 
HETATM    6  N1  UNL     1      22.052  30.827   6.456  1.00  0.00    -0.328 N 
ENDROOT
BRANCH   3   7
HETATM    7  C4  UNL     1      20.483  31.858   3.322  1.00  0.00     0.293 C 
BRANCH   7   8
HETATM    8  O1  UNL     1      19.765  33.110   3.368  1.00  0.00    -0.367 OA
ATOM      9  H1  UNL     1      18.870  32.837   3.532  1.00  0.00     0.213 HD
ENDBRANCH   7   8
BRANCH   7  10
HETATM   10  O2  UNL     1      21.354  31.990   2.304  1.00  0.00    -0.351 OA
BRANCH  10  11
HETATM   11  C5  UNL     1      21.349  31.080   1.297  1.00  0.00     0.128 C 
HETATM   12  C6  UNL     1      20.051  30.303   1.184  1.00  0.00     0.040 C 
BRANCH  11  13
HETATM   13  C7  UNL     1      21.765  31.683   0.006  1.00  0.00    -0.025 C 
HETATM   14  C8  UNL     1      20.601  32.088  -0.851  1.00  0.00     0.017 C 
HETATM   15  C9  UNL     1      22.591  30.659  -0.750  1.00  0.00     0.017 C 
HETATM   16  C10 UNL     1      22.641  32.908   0.180  1.00  0.00     0.017 C 
ENDBRANCH  11  13
ENDBRANCH  10  11
ENDBRANCH   7  10
ENDBRANCH   3   7
BRANCH   6  17
HETATM   17  C13 UNL     1      22.752  29.852   7.309  1.00  0.00     0.158 C 
BRANCH  17  18
HETATM   18  C14 UNL     1      24.167  29.767   6.978  1.00  0.00    -0.002 C 
HETATM   19  C15 UNL     1      24.985  29.046   7.711  1.00  0.00     0.055 C 
BRANCH  19  20
HETATM   20  C16 UNL     1      26.396  28.946   7.404  1.00  0.00     0.159 C 
HETATM   21  N2  UNL     1      27.289  29.000   8.313  1.00  0.00    -0.248 N 
ATOM     22  H2  UNL     1      28.276  28.926   8.070  1.00  0.00     0.196 HD
BRANCH  20  23
HETATM   23  O4  UNL     1      26.785  28.786   6.088  1.00  0.00    -0.345 OA
ATOM     24  H4  UNL     1      27.579  28.300   5.898  1.00  0.00     0.219 HD
ENDBRANCH  20  23
BRANCH  21  25
HETATM   25  O5  UNL     1      26.906  29.159   9.630  1.00  0.00    -0.288 OA
ATOM     26  H5  UNL     1      26.063  28.827   9.914  1.00  0.00     0.244 HD
ENDBRANCH  21  25
ENDBRANCH  19  20
ENDBRANCH  17  18
ENDBRANCH   6  17
BRANCH   5  27
HETATM   27  O3  UNL     1      21.897  32.655   8.045  1.00  0.00    -0.346 OA
ATOM     28  H3  UNL     1      21.231  32.900   8.675  1.00  0.00     0.219 HD
ENDBRANCH   5  27
TORSDOF 11
ENDMDL
MODEL 4
REMARK VINA RESULT: -7.542400946      0.561      1.183
REMARK  11 active torsions:
REMARK  status: ('A' for Active; 'I' for Inactive)
REMARK    1  A    between atoms: C3_3  and  C4_4 
REMARK    2  A    between atoms: C4_4  and  O1_5 
REMARK    3  A    between atoms: C4_4  and  O2_7 
REMARK    4  A    between atoms: O2_7  and  C5_8 
REMARK    5  A    between atoms: C5_8  and  C7_10 
REMARK    6  A    between atoms: C12_15  and  O3_16 
REMARK    7  A    between atoms: N1_18  and  C13_19 
REMARK    8  A    between atoms: C13_19  and  C14_20 
REMARK    9  A    between atoms: C15_21  and  C16_22 
REMARK   10  A    between atoms: C16_22  and  O4_23 
REMARK   11  A    between atoms: N2_25  and  O5_27 
ROOT
HETATM    1  C1  UNL     1      25.105  29.622   8.555  1.00  0.00     0.069 C 
HETATM    2  C2  UNL     1      25.024  29.188   7.124  1.00  0.00     0.021 A 
HETATM    3  C3  UNL     1      26.137  28.917   6.344  1.00  0.00     0.023 A 
HETATM    4  C11 UNL     1      25.620  28.557   5.116  1.00  0.00     0.070 A 
HETATM    5  C12 UNL     1      24.247  28.623   5.194  1.00  0.00     0.143 A 
HETATM    6  N1  UNL     1      23.909  29.012   6.435  1.00  0.00    -0.328 N 
ENDROOT
BRANCH   3   7
HETATM    7  C4  UNL     1      27.543  28.999   6.803  1.00  0.00     0.293 C 
BRANCH   7   8
HETATM    8  O1  UNL     1      27.531  28.230   8.025  1.00  0.00    -0.367 OA
ATOM      9  H1  UNL     1      28.437  27.957   8.115  1.00  0.00     0.213 HD
ENDBRANCH   7   8
BRANCH   7  10
HETATM   10  O2  UNL     1      28.483  28.418   6.033  1.00  0.00    -0.351 OA
BRANCH  10  11
HETATM   11  C5  UNL     1      29.735  28.942   5.996  1.00  0.00     0.128 C 
HETATM   12  C6  UNL     1      30.721  28.231   6.903  1.00  0.00     0.040 C 
BRANCH  11  13
HETATM   13  C7  UNL     1      30.236  29.077   4.605  1.00  0.00    -0.025 C 
HETATM   14  C8  UNL     1      29.236  28.631   3.579  1.00  0.00     0.017 C 
HETATM   15  C9  UNL     1      31.485  28.228   4.469  1.00  0.00     0.017 C 
HETATM   16  C10 UNL     1      30.634  30.498   4.255  1.00  0.00     0.017 C 
ENDBRANCH  11  13
ENDBRANCH  10  11
ENDBRANCH   7  10
ENDBRANCH   3   7
BRANCH   6  17
HETATM   17  C13 UNL     1      22.543  29.210   6.949  1.00  0.00     0.158 C 
BRANCH  17  18
HETATM   18  C14 UNL     1      22.202  30.623   7.037  1.00  0.00    -0.002 C 
HETATM   19  C15 UNL     1      21.679  31.251   6.010  1.00  0.00     0.055 C 
BRANCH  19  20
HETATM   20  C16 UNL     1      21.331  32.655   6.071  1.00  0.00     0.159 C 
HETATM   21  N2  UNL     1      21.269  33.380   5.022  1.00  0.00    -0.248 N 
ATOM     22  H2  UNL     1      21.022  34.367   5.093  1.00  0.00     0.196 HD
BRANCH  20  23
HETATM   23  O4  UNL     1      21.060  33.225   7.299  1.00  0.00    -0.345 OA
ATOM     24  H4  UNL     1      20.295  33.780   7.391  1.00  0.00     0.219 HD
ENDBRANCH  20  23
BRANCH  21  25
HETATM   25  O5  UNL     1      21.539  32.817   3.791  1.00  0.00    -0.288 OA
ATOM     26  H5  UNL     1      20.844  32.371   3.320  1.00  0.00     0.244 HD
ENDBRANCH  21  25
ENDBRANCH  19  20
ENDBRANCH  17  18
ENDBRANCH   6  17
BRANCH   5  27
HETATM   27  O3  UNL     1      23.350  28.338   4.172  1.00  0.00    -0.346 OA
ATOM     28  H3  UNL     1      22.424  28.157   4.271  1.00  0.00     0.219 HD
ENDBRANCH   5  27
TORSDOF 11
ENDMDL
MODEL 5
REMARK VINA RESULT: -7.542184696      3.870      6.816
REMARK  11 active torsions:
REMARK  status: ('A' for Active; 'I' for Inactive)
REMARK    1  A    between atoms: C3_3  and  C4_4 
REMARK    2  A    between atoms: C4_4  and  O1_5 
REMARK    3  A    between atoms: C4_4  and  O2_7 
REMARK    4  A    between atoms: O2_7  and  C5_8 
REMARK    5  A    between atoms: C5_8  and  C7_10 
REMARK    6  A    between atoms: C12_15  and  O3_16 
REMARK    7  A    between atoms: N1_18  and  C13_19 
REMARK    8  A    between atoms: C13_19  and  C14_20 
REMARK    9  A    between atoms: C15_21  and  C16_22 
REMARK   10  A    between atoms: C16_22  and  O4_23 
REMARK   11  A    between atoms: N2_25  and  O5_27 
ROOT
HETATM    1  C1  UNL     1      31.280  27.898   5.951  1.00  0.00     0.069 C 
HETATM    2  C2  UNL     1      31.174  27.004   7.148  1.00  0.00     0.021 A 
HETATM    3  C3  UNL     1      31.848  25.798   7.263  1.00  0.00     0.023 A 
HETATM    4  C11 UNL     1      31.473  25.310   8.498  1.00  0.00     0.070 A 
HETATM    5  C12 UNL     1      30.607  26.213   9.072  1.00  0.00     0.143 A 
HETATM    6  N1  UNL     1      30.441  27.242   8.223  1.00  0.00    -0.328 N 
ENDROOT
BRANCH   3   7
HETATM    7  C4  UNL     1      32.767  25.232   6.249  1.00  0.00     0.293 C 
BRANCH   7   8
HETATM    8  O1  UNL     1      33.405  24.148   6.959  1.00  0.00    -0.367 OA
ATOM      9  H1  UNL     1      34.094  23.880   6.362  1.00  0.00     0.213 HD
ENDBRANCH   7   8
BRANCH   7  10
HETATM   10  O2  UNL     1      32.215  24.662   5.160  1.00  0.00    -0.351 OA
BRANCH  10  11
HETATM   11  C5  UNL     1      32.505  25.154   3.929  1.00  0.00     0.128 C 
HETATM   12  C6  UNL     1      33.822  25.905   3.867  1.00  0.00     0.040 C 
BRANCH  11  13
HETATM   13  C7  UNL     1      32.395  24.111   2.878  1.00  0.00    -0.025 C 
HETATM   14  C8  UNL     1      31.848  24.642   1.585  1.00  0.00     0.017 C 
HETATM   15  C9  UNL     1      31.469  23.023   3.387  1.00  0.00     0.017 C 
HETATM   16  C10 UNL     1      33.721  23.446   2.564  1.00  0.00     0.017 C 
ENDBRANCH  11  13
ENDBRANCH  10  11
ENDBRANCH   7  10
ENDBRANCH   3   7
BRANCH   6  17
HETATM   17  C13 UNL     1      29.596  28.429   8.440  1.00  0.00     0.158 C 
BRANCH  17  18
HETATM   18  C14 UNL     1      28.283  28.273   7.831  1.00  0.00    -0.002 C 
HETATM   19  C15 UNL     1      27.369  29.206   7.962  1.00  0.00     0.055 C 
BRANCH  19  20
HETATM   20  C16 UNL     1      26.055  29.076   7.368  1.00  0.00     0.159 C 
HETATM   21  N2  UNL     1      24.991  29.345   8.019  1.00  0.00    -0.248 N 
ATOM     22  H2  UNL     1      24.078  29.244   7.576  1.00  0.00     0.196 HD
BRANCH  20  23
HETATM   23  O4  UNL     1      25.952  28.648   6.059  1.00  0.00    -0.345 OA
ATOM     24  H4  UNL     1      25.104  28.377   5.728  1.00  0.00     0.219 HD
ENDBRANCH  20  23
BRANCH  21  25
HETATM   25  O5  UNL     1      25.087  29.773   9.328  1.00  0.00    -0.288 OA
ATOM     26  H5  UNL     1      24.916  29.159  10.032  1.00  0.00     0.244 HD
ENDBRANCH  21  25
ENDBRANCH  19  20
ENDBRANCH  17  18
ENDBRANCH   6  17
BRANCH   5  27
HETATM   27  O3  UNL     1      30.000  26.096  10.316  1.00  0.00    -0.346 OA
ATOM     28  H3  UNL     1      29.312  26.652  10.661  1.00  0.00     0.219 HD
ENDBRANCH   5  27
TORSDOF 11
ENDMDL
