MODEL 1
REMARK VINA RESULT: -7.076532737      0.000      0.000
REMARK  10 active torsions:
REMARK  status: ('A' for Active; 'I' for Inactive)
REMARK    1  A    between atoms: C2_2  and  C3_3 
REMARK    2  A    between atoms: C3_3  and  C4_4 
REMARK    3  A    between atoms: C4_4  and  C5_5 
REMARK    4  A    between atoms: C5_5  and  C6_6 
REMARK    5  A    between atoms: C6_6  and  C7_8 
REMARK    6  A    between atoms: C10_12  and  N2_13 
REMARK    7  A    between atoms: C11_18  and  N4_19 
REMARK    8  A    between atoms: N4_19  and  N5_21 
REMARK    9  A    between atoms: N5_21  and  C12_23 
REMARK   10  A    between atoms: C12_23  and  N6_25 
ROOT
HETATM    1  N6  UNL     1      32.921  29.076   2.581  1.00  0.00    -0.269 N 
ATOM      2  H6  UNL     1      33.238  28.649   1.711  1.00  0.00     0.180 HD
HETATM    3  C13 UNL     1      33.507  30.278   2.990  1.00  0.00     0.184 C 
HETATM    4  N7  UNL     1      33.978  31.283   3.325  1.00  0.00    -0.172 NA
ENDROOT
BRANCH   1   5
HETATM    5  C12 UNL     1      31.900  28.426   3.329  1.00  0.00     0.199 C 
HETATM    6  S1  UNL     1      30.440  28.262   2.615  1.00  0.00    -0.038 SA
BRANCH   5   7
HETATM    7  N5  UNL     1      32.150  27.944   4.636  1.00  0.00    -0.274 N 
ATOM      8  H5  UNL     1      33.032  27.459   4.803  1.00  0.00     0.189 HD
BRANCH   7   9
HETATM    9  N4  UNL     1      31.354  28.075   5.613  1.00  0.00    -0.282 N 
ATOM     10  H4  UNL     1      30.694  28.849   5.683  1.00  0.00     0.188 HD
BRANCH   9  11
HETATM   11  C11 UNL     1      31.449  27.045   6.622  1.00  0.00     0.137 A 
HETATM   12  C7  UNL     1      30.792  27.160   7.826  1.00  0.00     0.079 A 
HETATM   13  C8  UNL     1      30.951  26.114   8.733  1.00  0.00     0.067 A 
HETATM   14  N1  UNL     1      30.290  26.190   9.989  1.00  0.00    -0.101 NA
HETATM   15  C9  UNL     1      31.740  25.060   8.367  1.00  0.00     0.075 A 
HETATM   16  C10 UNL     1      32.389  24.980   7.142  1.00  0.00     0.102 A 
HETATM   17  N3  UNL     1      32.221  25.999   6.284  1.00  0.00    -0.327 N 
ATOM     18  H3  UNL     1      32.680  25.978   5.373  1.00  0.00     0.169 HD
BRANCH  12  19
HETATM   19  C6  UNL     1      29.970  28.294   8.172  1.00  0.00     0.165 C 
HETATM   20  O1  UNL     1      30.600  29.367   8.505  1.00  0.00    -0.292 OA
BRANCH  19  21
HETATM   21  C5  UNL     1      28.486  28.297   8.166  1.00  0.00     0.084 C 
BRANCH  21  22
HETATM   22  C4  UNL     1      28.033  28.818   6.805  1.00  0.00     0.008 C 
BRANCH  22  23
HETATM   23  C3  UNL     1      26.543  28.949   6.712  1.00  0.00     0.000 C 
BRANCH  23  24
HETATM   24  C2  UNL     1      25.912  29.051   8.057  1.00  0.00    -0.005 C 
HETATM   25  C1  UNL     1      24.432  29.440   7.929  1.00  0.00     0.005 C 
ENDBRANCH  23  24
ENDBRANCH  22  23
ENDBRANCH  21  22
ENDBRANCH  19  21
ENDBRANCH  12  19
BRANCH  16  26
HETATM   26  N2  UNL     1      33.125  23.965   6.838  1.00  0.00    -0.385 N 
ATOM     27  H22 UNL     1      34.039  24.087   6.402  1.00  0.00     0.157 HD
ATOM     28  H21 UNL     1      32.815  23.011   7.024  1.00  0.00     0.157 HD
ENDBRANCH  16  26
ENDBRANCH   9  11
ENDBRANCH   7   9
ENDBRANCH   5   7
ENDBRANCH   1   5
TORSDOF 10
ENDMDL
MODEL 2
REMARK VINA RESULT: -7.064854618      1.306      1.975
REMARK  10 active torsions:
REMARK  status: ('A' for Active; 'I' for Inactive)
REMARK    1  A    between atoms: C2_2  and  C3_3 
REMARK    2  A    between atoms: C3_3  and  C4_4 
REMARK    3  A    between atoms: C4_4  and  C5_5 
REMARK    4  A    between atoms: C5_5  and  C6_6 
REMARK    5  A    between atoms: C6_6  and  C7_8 
REMARK    6  A    between atoms: C10_12  and  N2_13 
REMARK    7  A    between atoms: C11_18  and  N4_19 
REMARK    8  A    between atoms: N4_19  and  N5_21 
REMARK    9  A    between atoms: N5_21  and  C12_23 
REMARK   10  A    between atoms: C12_23  and  N6_25 
ROOT
HETATM    1  N6  UNL     1      31.499  26.407   2.515  1.00  0.00    -0.269 N 
ATOM      2  H6  UNL     1      31.150  26.359   1.558  1.00  0.00     0.180 HD
HETATM    3  C13 UNL     1      32.194  25.308   3.029  1.00  0.00     0.184 C 
HETATM    4  N7  UNL     1      32.787  24.406   3.454  1.00  0.00    -0.172 NA
ENDROOT
BRANCH   1   5
HETATM    5  C12 UNL     1      31.260  27.587   3.272  1.00  0.00     0.199 C 
HETATM    6  S1  UNL     1      30.170  28.648   2.678  1.00  0.00    -0.038 SA
BRANCH   5   7
HETATM    7  N5  UNL     1      31.943  27.821   4.489  1.00  0.00    -0.274 N 
ATOM      8  H5  UNL     1      32.963  27.779   4.478  1.00  0.00     0.189 HD
BRANCH   7   9
HETATM    9  N4  UNL     1      31.376  28.081   5.593  1.00  0.00    -0.282 N 
ATOM     10  H4  UNL     1      30.887  28.959   5.763  1.00  0.00     0.188 HD
BRANCH   9  11
HETATM   11  C11 UNL     1      31.474  27.042   6.591  1.00  0.00     0.137 A 
HETATM   12  C7  UNL     1      30.829  27.151   7.802  1.00  0.00     0.079 A 
HETATM   13  C8  UNL     1      30.989  26.096   8.699  1.00  0.00     0.067 A 
HETATM   14  N1  UNL     1      30.341  26.165   9.961  1.00  0.00    -0.101 NA
HETATM   15  C9  UNL     1      31.767  25.039   8.315  1.00  0.00     0.075 A 
HETATM   16  C10 UNL     1      32.402  24.965   7.082  1.00  0.00     0.102 A 
HETATM   17  N3  UNL     1      32.234  25.993   6.236  1.00  0.00    -0.327 N 
ATOM     18  H3  UNL     1      32.684  25.977   5.320  1.00  0.00     0.169 HD
BRANCH  12  19
HETATM   19  C6  UNL     1      30.019  28.288   8.167  1.00  0.00     0.165 C 
HETATM   20  O1  UNL     1      30.661  29.348   8.518  1.00  0.00    -0.292 OA
BRANCH  19  21
HETATM   21  C5  UNL     1      28.535  28.307   8.160  1.00  0.00     0.084 C 
BRANCH  21  22
HETATM   22  C4  UNL     1      28.089  28.823   6.794  1.00  0.00     0.008 C 
BRANCH  22  23
HETATM   23  C3  UNL     1      26.602  28.987   6.705  1.00  0.00     0.000 C 
BRANCH  23  24
HETATM   24  C2  UNL     1      25.967  29.013   8.052  1.00  0.00    -0.005 C 
HETATM   25  C1  UNL     1      24.477  29.364   7.938  1.00  0.00     0.005 C 
ENDBRANCH  23  24
ENDBRANCH  22  23
ENDBRANCH  21  22
ENDBRANCH  19  21
ENDBRANCH  12  19
BRANCH  16  26
HETATM   26  N2  UNL     1      33.128  23.947   6.762  1.00  0.00    -0.385 N 
ATOM     27  H22 UNL     1      33.088  23.080   7.299  1.00  0.00     0.157 HD
ATOM     28  H21 UNL     1      33.762  23.979   5.965  1.00  0.00     0.157 HD
ENDBRANCH  16  26
ENDBRANCH   9  11
ENDBRANCH   7   9
ENDBRANCH   5   7
ENDBRANCH   1   5
TORSDOF 10
ENDMDL
MODEL 3
REMARK VINA RESULT: -7.001606873      7.433     10.132
REMARK  10 active torsions:
REMARK  status: ('A' for Active; 'I' for Inactive)
REMARK    1  A    between atoms: C2_2  and  C3_3 
REMARK    2  A    between atoms: C3_3  and  C4_4 
REMARK    3  A    between atoms: C4_4  and  C5_5 
REMARK    4  A    between atoms: C5_5  and  C6_6 
REMARK    5  A    between atoms: C6_6  and  C7_8 
REMARK    6  A    between atoms: C10_12  and  N2_13 
REMARK    7  A    between atoms: C11_18  and  N4_19 
REMARK    8  A    between atoms: N4_19  and  N5_21 
REMARK    9  A    between atoms: N5_21  and  C12_23 
REMARK   10  A    between atoms: C12_23  and  N6_25 
ROOT
HETATM    1  N6  UNL     1      22.579  29.561   0.570  1.00  0.00    -0.269 N 
ATOM      2  H6  UNL     1      23.093  29.235  -0.248  1.00  0.00     0.180 HD
HETATM    3  C13 UNL     1      21.970  30.819   0.522  1.00  0.00     0.184 C 
HETATM    4  N7  UNL     1      21.449  31.854   0.481  1.00  0.00    -0.172 NA
ENDROOT
BRANCH   1   5
HETATM    5  C12 UNL     1      22.510  28.718   1.714  1.00  0.00     0.199 C 
HETATM    6  S1  UNL     1      23.644  27.550   1.851  1.00  0.00    -0.038 SA
BRANCH   5   7
HETATM    7  N5  UNL     1      21.498  28.893   2.688  1.00  0.00    -0.274 N 
ATOM      8  H5  UNL     1      20.530  28.913   2.367  1.00  0.00     0.189 HD
BRANCH   7   9
HETATM    9  N4  UNL     1      21.712  29.027   3.930  1.00  0.00    -0.282 N 
ATOM     10  H4  UNL     1      22.045  28.261   4.514  1.00  0.00     0.188 HD
BRANCH   9  11
HETATM   11  C11 UNL     1      21.449  30.346   4.457  1.00  0.00     0.137 A 
HETATM   12  C7  UNL     1      21.817  30.690   5.738  1.00  0.00     0.079 A 
HETATM   13  C8  UNL     1      21.516  31.986   6.154  1.00  0.00     0.067 A 
HETATM   14  N1  UNL     1      21.879  32.385   7.469  1.00  0.00    -0.101 NA
HETATM   15  C9  UNL     1      20.883  32.814   5.270  1.00  0.00     0.075 A 
HETATM   16  C10 UNL     1      20.526  32.429   3.984  1.00  0.00     0.102 A 
HETATM   17  N3  UNL     1      20.826  31.177   3.606  1.00  0.00    -0.327 N 
ATOM     18  H3  UNL     1      20.581  30.856   2.669  1.00  0.00     0.169 HD
BRANCH  12  19
HETATM   19  C6  UNL     1      22.484  29.782   6.640  1.00  0.00     0.165 C 
HETATM   20  O1  UNL     1      21.718  29.012   7.332  1.00  0.00    -0.292 OA
BRANCH  19  21
HETATM   21  C5  UNL     1      23.955  29.685   6.810  1.00  0.00     0.084 C 
BRANCH  21  22
HETATM   22  C4  UNL     1      24.448  28.556   5.909  1.00  0.00     0.008 C 
BRANCH  22  23
HETATM   23  C3  UNL     1      25.910  28.670   5.600  1.00  0.00     0.000 C 
BRANCH  23  24
HETATM   24  C2  UNL     1      26.713  28.941   6.825  1.00  0.00    -0.005 C 
HETATM   25  C1  UNL     1      28.210  28.990   6.487  1.00  0.00     0.005 C 
ENDBRANCH  23  24
ENDBRANCH  22  23
ENDBRANCH  21  22
ENDBRANCH  19  21
ENDBRANCH  12  19
BRANCH  16  26
HETATM   26  N2  UNL     1      19.928  33.245   3.183  1.00  0.00    -0.385 N 
ATOM     27  H22 UNL     1      20.258  34.203   3.060  1.00  0.00     0.157 HD
ATOM     28  H21 UNL     1      19.109  32.957   2.648  1.00  0.00     0.157 HD
ENDBRANCH  16  26
ENDBRANCH   9  11
ENDBRANCH   7   9
ENDBRANCH   5   7
ENDBRANCH   1   5
TORSDOF 10
ENDMDL
MODEL 4
REMARK VINA RESULT: -6.997815690      2.487      3.224
REMARK  10 active torsions:
REMARK  status: ('A' for Active; 'I' for Inactive)
REMARK    1  A    between atoms: C2_2  and  C3_3 
REMARK    2  A    between atoms: C3_3  and  C4_4 
REMARK    3  A    between atoms: C4_4  and  C5_5 
REMARK    4  A    between atoms: C5_5  and  C6_6 
REMARK    5  A    between atoms: C6_6  and  C7_8 
REMARK    6  A    between atoms: C10_12  and  N2_13 
REMARK    7  A    between atoms: C11_18  and  N4_19 
REMARK    8  A    between atoms: N4_19  and  N5_21 
REMARK    9  A    between atoms: N5_21  and  C12_23 
REMARK   10  A    between atoms: C12_23  and  N6_25 
ROOT
HETATM    1  N6  UNL     1      32.977  24.064   4.142  1.00  0.00    -0.269 N 
ATOM      2  H6  UNL     1      33.307  23.331   4.768  1.00  0.00     0.180 HD
HETATM    3  C13 UNL     1      31.969  23.756   3.222  1.00  0.00     0.184 C 
HETATM    4  N7  UNL     1      31.122  23.510   2.470  1.00  0.00    -0.172 NA
ENDROOT
BRANCH   1   5
HETATM    5  C12 UNL     1      33.558  25.359   4.238  1.00  0.00     0.199 C 
HETATM    6  S1  UNL     1      34.556  25.822   3.030  1.00  0.00    -0.038 SA
BRANCH   5   7
HETATM    7  N5  UNL     1      33.277  26.203   5.339  1.00  0.00    -0.274 N 
ATOM      8  H5  UNL     1      34.005  26.322   6.044  1.00  0.00     0.189 HD
BRANCH   7   9
HETATM    9  N4  UNL     1      32.183  26.820   5.509  1.00  0.00    -0.282 N 
ATOM     10  H4  UNL     1      31.765  27.403   4.785  1.00  0.00     0.188 HD
BRANCH   9  11
HETATM   11  C11 UNL     1      31.573  26.638   6.806  1.00  0.00     0.137 A 
HETATM   12  C7  UNL     1      30.639  27.527   7.288  1.00  0.00     0.079 A 
HETATM   13  C8  UNL     1      30.112  27.265   8.551  1.00  0.00     0.067 A 
HETATM   14  N1  UNL     1      29.143  28.155   9.087  1.00  0.00    -0.101 NA
HETATM   15  C9  UNL     1      30.556  26.156   9.215  1.00  0.00     0.075 A 
HETATM   16  C10 UNL     1      31.503  25.282   8.696  1.00  0.00     0.102 A 
HETATM   17  N3  UNL     1      31.996  25.555   7.478  1.00  0.00    -0.327 N 
ATOM     18  H3  UNL     1      32.693  24.937   7.061  1.00  0.00     0.169 HD
BRANCH  12  19
HETATM   19  C6  UNL     1      30.199  28.688   6.552  1.00  0.00     0.165 C 
HETATM   20  O1  UNL     1      30.887  29.762   6.731  1.00  0.00    -0.292 OA
BRANCH  19  21
HETATM   21  C5  UNL     1      29.038  28.715   5.628  1.00  0.00     0.084 C 
BRANCH  21  22
HETATM   22  C4  UNL     1      27.801  29.055   6.454  1.00  0.00     0.008 C 
BRANCH  22  23
HETATM   23  C3  UNL     1      26.529  28.672   5.761  1.00  0.00     0.000 C 
BRANCH  23  24
HETATM   24  C2  UNL     1      25.338  28.911   6.621  1.00  0.00    -0.005 C 
HETATM   25  C1  UNL     1      25.720  28.831   8.106  1.00  0.00     0.005 C 
ENDBRANCH  23  24
ENDBRANCH  22  23
ENDBRANCH  21  22
ENDBRANCH  19  21
ENDBRANCH  12  19
BRANCH  16  26
HETATM   26  N2  UNL     1      31.894  24.247   9.359  1.00  0.00    -0.385 N 
ATOM     27  H22 UNL     1      31.230  23.667   9.873  1.00  0.00     0.157 HD
ATOM     28  H21 UNL     1      32.877  23.977   9.389  1.00  0.00     0.157 HD
ENDBRANCH  16  26
ENDBRANCH   9  11
ENDBRANCH   7   9
ENDBRANCH   5   7
ENDBRANCH   1   5
TORSDOF 10
ENDMDL
MODEL 5
REMARK VINA RESULT: -6.983821451      7.788     10.771
REMARK  10 active torsions:
REMARK  status: ('A' for Active; 'I' for Inactive)
REMARK    1  A    between atoms: C2_2  and  C3_3 
REMARK    2  A    between atoms: C3_3  and  C4_4 
REMARK    3  A    between atoms: C4_4  and  C5_5 
REMARK    4  A    between atoms: C5_5  and  C6_6 
REMARK    5  A    between atoms: C6_6  and  C7_8 
REMARK    6  A    between atoms: C10_12  and  N2_13 
REMARK    7  A    between atoms: C11_18  and  N4_19 
REMARK    8  A    between atoms: N4_19  and  N5_21 
REMARK    9  A    between atoms: N5_21  and  C12_23 
REMARK   10  A    between atoms: C12_23  and  N6_25 
ROOT
HETATM    1  N6  UNL     1      19.892  26.945   1.722  1.00  0.00    -0.269 N 
ATOM      2  H6  UNL     1      19.314  27.557   1.146  1.00  0.00     0.180 HD
HETATM    3  C13 UNL     1      19.433  25.653   1.995  1.00  0.00     0.184 C 
HETATM    4  N7  UNL     1      19.065  24.575   2.209  1.00  0.00    -0.172 NA
ENDROOT
BRANCH   1   5
HETATM    5  C12 UNL     1      21.131  27.440   2.216  1.00  0.00     0.199 C 
HETATM    6  S1  UNL     1      22.428  26.453   2.104  1.00  0.00    -0.038 SA
BRANCH   5   7
HETATM    7  N5  UNL     1      21.225  28.736   2.778  1.00  0.00    -0.274 N 
ATOM      8  H5  UNL     1      20.819  29.511   2.253  1.00  0.00     0.189 HD
BRANCH   7   9
HETATM    9  N4  UNL     1      21.778  28.999   3.887  1.00  0.00    -0.282 N 
ATOM     10  H4  UNL     1      22.384  28.334   4.368  1.00  0.00     0.188 HD
BRANCH   9  11
HETATM   11  C11 UNL     1      21.488  30.309   4.421  1.00  0.00     0.137 A 
HETATM   12  C7  UNL     1      21.838  30.652   5.707  1.00  0.00     0.079 A 
HETATM   13  C8  UNL     1      21.511  31.939   6.128  1.00  0.00     0.067 A 
HETATM   14  N1  UNL     1      21.854  32.336   7.449  1.00  0.00    -0.101 NA
HETATM   15  C9  UNL     1      20.871  32.762   5.243  1.00  0.00     0.075 A 
HETATM   16  C10 UNL     1      20.533  32.380   3.952  1.00  0.00     0.102 A 
HETATM   17  N3  UNL     1      20.859  31.135   3.568  1.00  0.00    -0.327 N 
ATOM     18  H3  UNL     1      20.628  30.816   2.627  1.00  0.00     0.169 HD
BRANCH  12  19
HETATM   19  C6  UNL     1      22.511  29.749   6.609  1.00  0.00     0.165 C 
HETATM   20  O1  UNL     1      21.752  28.961   7.289  1.00  0.00    -0.292 OA
BRANCH  19  21
HETATM   21  C5  UNL     1      23.982  29.677   6.793  1.00  0.00     0.084 C 
BRANCH  21  22
HETATM   22  C4  UNL     1      24.500  28.542   5.914  1.00  0.00     0.008 C 
BRANCH  22  23
HETATM   23  C3  UNL     1      25.965  28.666   5.627  1.00  0.00     0.000 C 
BRANCH  23  24
HETATM   24  C2  UNL     1      26.748  28.942   6.862  1.00  0.00    -0.005 C 
HETATM   25  C1  UNL     1      28.251  28.989   6.548  1.00  0.00     0.005 C 
ENDBRANCH  23  24
ENDBRANCH  22  23
ENDBRANCH  21  22
ENDBRANCH  19  21
ENDBRANCH  12  19
BRANCH  16  26
HETATM   26  N2  UNL     1      19.929  33.190   3.149  1.00  0.00    -0.385 N 
ATOM     27  H22 UNL     1      20.101  34.195   3.185  1.00  0.00     0.157 HD
ATOM     28  H21 UNL     1      19.262  32.850   2.457  1.00  0.00     0.157 HD
ENDBRANCH  16  26
ENDBRANCH   9  11
ENDBRANCH   7   9
ENDBRANCH   5   7
ENDBRANCH   1   5
TORSDOF 10
ENDMDL
