MODEL 1
REMARK VINA RESULT: -5.532086083      0.000      0.000
REMARK  20 active torsions:
REMARK  status: ('A' for Active; 'I' for Inactive)
REMARK    1  A    between atoms: O1_2  and  C2_3 
REMARK    2  A    between atoms: C3_5  and  C4_6 
REMARK    3  A    between atoms: C3_5  and  C11_26 
REMARK    4  A    between atoms: C4_6  and  C5_7 
REMARK    5  A    between atoms: C6_8  and  O3_9 
REMARK    6  A    between atoms: C7_11  and  O4_12 
REMARK    7  A    between atoms: C8_14  and  O5_15 
REMARK    8  A    between atoms: C9_17  and  O6_18 
REMARK    9  A    between atoms: C10_20  and  N1_21 
REMARK   10  A    between atoms: N1_21  and  O7_22 
REMARK   11  A    between atoms: N1_21  and  O8_24 
REMARK   12  A    between atoms: C11_26  and  O9_27 
REMARK   13  A    between atoms: C11_26  and  C12_29 
REMARK   14  A    between atoms: C12_29  and  O10_30 
REMARK   15  A    between atoms: C13_32  and  O11_33 
REMARK   16  A    between atoms: C16_38  and  O13_39 
REMARK   17  A    between atoms: O13_39  and  C17_40 
REMARK   18  A    between atoms: C19_43  and  O15_44 
REMARK   19  A    between atoms: C19_43  and  C20_46 
REMARK   20  A    between atoms: C20_46  and  O16_47 
ROOT
HETATM    1  C2  UNL     1     -13.668  19.085   7.035  1.00  0.00     0.231 C 
HETATM    2  O2  UNL     1     -14.641  19.526   7.790  1.00  0.00    -0.329 OA
HETATM    3  C3  UNL     1     -15.093  20.816   8.039  1.00  0.00     0.139 C 
HETATM    4  C13 UNL     1     -14.617  21.577   6.850  1.00  0.00     0.191 C 
HETATM    5  C14 UNL     1     -13.244  21.252   6.323  1.00  0.00     0.195 C 
HETATM    6  O12 UNL     1     -12.198  21.356   7.175  1.00  0.00    -0.377 OA
HETATM    7  C15 UNL     1     -11.502  20.277   7.588  1.00  0.00     0.206 C 
HETATM    8  C16 UNL     1     -12.319  18.964   7.709  1.00  0.00     0.221 C 
HETATM    9  C19 UNL     1     -13.290  19.865   5.765  1.00  0.00     0.166 C 
ENDROOT
BRANCH   3  10
HETATM   10  C4  UNL     1     -14.750  21.199   9.414  1.00  0.00     0.033 C 
BRANCH  10  11
HETATM   11  C5  UNL     1     -14.039  22.370   9.891  1.00  0.00     0.028 A 
HETATM   12  C6  UNL     1     -12.771  22.257  10.459  1.00  0.00     0.114 A 
HETATM   13  C7  UNL     1     -12.057  23.360  10.890  1.00  0.00     0.136 A 
HETATM   14  C8  UNL     1     -12.606  24.642  10.768  1.00  0.00     0.137 A 
HETATM   15  C9  UNL     1     -13.845  24.772  10.223  1.00  0.00     0.129 A 
HETATM   16  C10 UNL     1     -14.559  23.647   9.789  1.00  0.00     0.114 A 
BRANCH  12  17
HETATM   17  O3  UNL     1     -12.148  21.024  10.638  1.00  0.00    -0.357 OA
ATOM     18  H3  UNL     1     -11.247  20.872  10.379  1.00  0.00     0.217 HD
ENDBRANCH  12  17
BRANCH  13  19
HETATM   19  O4  UNL     1     -10.801  23.225  11.444  1.00  0.00    -0.356 OA
ATOM     20  H4  UNL     1     -10.387  23.945  11.904  1.00  0.00     0.218 HD
ENDBRANCH  13  19
BRANCH  14  21
HETATM   21  O5  UNL     1     -11.838  25.709  11.218  1.00  0.00    -0.356 OA
ATOM     22  H5  UNL     1     -11.995  26.016  12.104  1.00  0.00     0.218 HD
ENDBRANCH  14  21
BRANCH  15  23
HETATM   23  O6  UNL     1     -14.365  26.054  10.117  1.00  0.00    -0.356 OA
ATOM     24  H6  UNL     1     -15.311  26.141  10.079  1.00  0.00     0.218 HD
ENDBRANCH  15  23
BRANCH  16  25
HETATM   25  N1  UNL     1     -15.871  23.988   9.349  1.00  0.00    -0.033 NA
BRANCH  25  26
HETATM   26  O7  UNL     1     -16.563  24.472  10.467  1.00  0.00    -0.284 OA
ATOM     27  H7  UNL     1     -16.757  25.386  10.299  1.00  0.00     0.240 HD
ENDBRANCH  25  26
BRANCH  25  28
HETATM   28  O8  UNL     1     -15.865  25.053   8.516  1.00  0.00    -0.284 OA
ATOM     29  H8  UNL     1     -15.399  25.793   8.887  1.00  0.00     0.240 HD
ENDBRANCH  25  28
ENDBRANCH  16  25
ENDBRANCH  10  11
ENDBRANCH   3  10
BRANCH   3  30
HETATM   30  C11 UNL     1     -16.606  20.630   7.935  1.00  0.00     0.183 C 
BRANCH  30  31
HETATM   31  O9  UNL     1     -17.148  21.132   6.747  1.00  0.00    -0.390 OA
ATOM     32  H9  UNL     1     -17.616  21.950   6.861  1.00  0.00     0.210 HD
ENDBRANCH  30  31
BRANCH  30  33
HETATM   33  C12 UNL     1     -17.513  21.011   9.005  1.00  0.00     0.199 C 
BRANCH  33  34
HETATM   34  O10 UNL     1     -18.092  22.283   8.888  1.00  0.00    -0.398 OA
ATOM     35  H10 UNL     1     -18.088  22.811   9.677  1.00  0.00     0.209 HD
ENDBRANCH  33  34
ENDBRANCH  30  33
ENDBRANCH   3  30
BRANCH   4  36
HETATM   36  O11 UNL     1     -14.974  22.861   6.665  1.00  0.00    -0.389 OA
ATOM     37  H11 UNL     1     -15.863  23.089   6.421  1.00  0.00     0.210 HD
ENDBRANCH   4  36
BRANCH   1  38
HETATM   38  O1  UNL     1     -14.062  17.872   6.505  1.00  0.00    -0.355 OA
HETATM   39  C1  UNL     1     -14.805  17.003   7.184  1.00  0.00     0.205 C 
ENDBRANCH   1  38
BRANCH   8  40
HETATM   40  O13 UNL     1     -12.353  18.583   9.060  1.00  0.00    -0.308 OA
BRANCH  40  41
HETATM   41  C17 UNL     1     -11.660  17.509   9.523  1.00  0.00     0.255 C 
HETATM   42  C18 UNL     1     -10.337  17.736  10.173  1.00  0.00     0.126 C 
HETATM   43  O14 UNL     1     -12.097  16.350   9.421  1.00  0.00    -0.266 OA
ENDBRANCH  40  41
ENDBRANCH   8  40
BRANCH   9  44
HETATM   44  O15 UNL     1     -11.970  19.416   5.396  1.00  0.00    -0.379 OA
ATOM     45  H15 UNL     1     -11.928  19.467   4.448  1.00  0.00     0.211 HD
ENDBRANCH   9  44
BRANCH   9  46
HETATM   46  C20 UNL     1     -14.034  19.616   4.537  1.00  0.00     0.210 C 
BRANCH  46  47
HETATM   47  O16 UNL     1     -15.418  19.493   4.820  1.00  0.00    -0.398 OA
ATOM     48  H16 UNL     1     -15.829  18.903   4.200  1.00  0.00     0.209 HD
ENDBRANCH  46  47
ENDBRANCH   9  46
TORSDOF 20
ENDMDL
MODEL 2
REMARK VINA RESULT: -5.529133942      1.610      3.007
REMARK  20 active torsions:
REMARK  status: ('A' for Active; 'I' for Inactive)
REMARK    1  A    between atoms: O1_2  and  C2_3 
REMARK    2  A    between atoms: C3_5  and  C4_6 
REMARK    3  A    between atoms: C3_5  and  C11_26 
REMARK    4  A    between atoms: C4_6  and  C5_7 
REMARK    5  A    between atoms: C6_8  and  O3_9 
REMARK    6  A    between atoms: C7_11  and  O4_12 
REMARK    7  A    between atoms: C8_14  and  O5_15 
REMARK    8  A    between atoms: C9_17  and  O6_18 
REMARK    9  A    between atoms: C10_20  and  N1_21 
REMARK   10  A    between atoms: N1_21  and  O7_22 
REMARK   11  A    between atoms: N1_21  and  O8_24 
REMARK   12  A    between atoms: C11_26  and  O9_27 
REMARK   13  A    between atoms: C11_26  and  C12_29 
REMARK   14  A    between atoms: C12_29  and  O10_30 
REMARK   15  A    between atoms: C13_32  and  O11_33 
REMARK   16  A    between atoms: C16_38  and  O13_39 
REMARK   17  A    between atoms: O13_39  and  C17_40 
REMARK   18  A    between atoms: C19_43  and  O15_44 
REMARK   19  A    between atoms: C19_43  and  C20_46 
REMARK   20  A    between atoms: C20_46  and  O16_47 
ROOT
HETATM    1  C2  UNL     1     -15.234  19.043   6.923  1.00  0.00     0.231 C 
HETATM    2  O2  UNL     1     -15.245  20.315   7.227  1.00  0.00    -0.329 OA
HETATM    3  C3  UNL     1     -14.216  21.184   7.567  1.00  0.00     0.139 C 
HETATM    4  C13 UNL     1     -13.013  20.529   6.980  1.00  0.00     0.191 C 
HETATM    5  C14 UNL     1     -12.920  19.030   7.085  1.00  0.00     0.195 C 
HETATM    6  O12 UNL     1     -12.983  18.476   8.318  1.00  0.00    -0.377 OA
HETATM    7  C15 UNL     1     -14.023  17.712   8.707  1.00  0.00     0.206 C 
HETATM    8  C16 UNL     1     -15.394  18.089   8.086  1.00  0.00     0.221 C 
HETATM    9  C19 UNL     1     -13.998  18.448   6.228  1.00  0.00     0.166 C 
ENDROOT
BRANCH   3  10
HETATM   10  C4  UNL     1     -14.316  21.529   8.990  1.00  0.00     0.033 C 
BRANCH  10  11
HETATM   11  C5  UNL     1     -13.451  22.372   9.794  1.00  0.00     0.028 A 
HETATM   12  C6  UNL     1     -12.272  21.873  10.345  1.00  0.00     0.114 A 
HETATM   13  C7  UNL     1     -11.414  22.663  11.085  1.00  0.00     0.136 A 
HETATM   14  C8  UNL     1     -11.717  24.012  11.308  1.00  0.00     0.137 A 
HETATM   15  C9  UNL     1     -12.867  24.516  10.784  1.00  0.00     0.129 A 
HETATM   16  C10 UNL     1     -13.729  23.705  10.035  1.00  0.00     0.114 A 
BRANCH  12  17
HETATM   17  O3  UNL     1     -11.891  20.541  10.193  1.00  0.00    -0.357 OA
ATOM     18  H3  UNL     1     -11.572  20.022  10.922  1.00  0.00     0.217 HD
ENDBRANCH  12  17
BRANCH  13  19
HETATM   19  O4  UNL     1     -10.249  22.149  11.616  1.00  0.00    -0.356 OA
ATOM     20  H4  UNL     1      -9.405  22.331  11.220  1.00  0.00     0.218 HD
ENDBRANCH  13  19
BRANCH  14  21
HETATM   21  O5  UNL     1     -10.813  24.753  12.058  1.00  0.00    -0.356 OA
ATOM     22  H5  UNL     1     -10.676  25.659  11.805  1.00  0.00     0.218 HD
ENDBRANCH  14  21
BRANCH  15  23
HETATM   23  O6  UNL     1     -13.144  25.855  11.023  1.00  0.00    -0.356 OA
ATOM     24  H6  UNL     1     -14.025  26.076  11.301  1.00  0.00     0.218 HD
ENDBRANCH  15  23
BRANCH  16  25
HETATM   25  N1  UNL     1     -14.921  24.395   9.668  1.00  0.00    -0.033 NA
BRANCH  25  26
HETATM   26  O7  UNL     1     -15.595  24.704  10.857  1.00  0.00    -0.284 OA
ATOM     27  H7  UNL     1     -16.423  24.239  10.835  1.00  0.00     0.240 HD
ENDBRANCH  25  26
BRANCH  25  28
HETATM   28  O8  UNL     1     -14.661  25.613   9.144  1.00  0.00    -0.284 OA
ATOM     29  H8  UNL     1     -15.437  26.012   8.769  1.00  0.00     0.240 HD
ENDBRANCH  25  28
ENDBRANCH  16  25
ENDBRANCH  10  11
ENDBRANCH   3  10
BRANCH   3  30
HETATM   30  C11 UNL     1     -14.570  22.412   6.730  1.00  0.00     0.183 C 
BRANCH  30  31
HETATM   31  O9  UNL     1     -15.795  22.989   7.080  1.00  0.00    -0.390 OA
ATOM     32  H9  UNL     1     -16.337  23.208   6.331  1.00  0.00     0.210 HD
ENDBRANCH  30  31
BRANCH  30  33
HETATM   33  C12 UNL     1     -14.504  22.411   5.278  1.00  0.00     0.199 C 
BRANCH  33  34
HETATM   34  O10 UNL     1     -15.512  21.687   4.625  1.00  0.00    -0.398 OA
ATOM     35  H10 UNL     1     -15.383  21.550   3.694  1.00  0.00     0.209 HD
ENDBRANCH  33  34
ENDBRANCH  30  33
ENDBRANCH   3  30
BRANCH   4  36
HETATM   36  O11 UNL     1     -11.816  21.145   6.996  1.00  0.00    -0.389 OA
ATOM     37  H11 UNL     1     -11.143  20.914   6.368  1.00  0.00     0.210 HD
ENDBRANCH   4  36
BRANCH   1  38
HETATM   38  O1  UNL     1     -16.213  18.827   5.973  1.00  0.00    -0.355 OA
HETATM   39  C1  UNL     1     -17.394  19.439   6.011  1.00  0.00     0.205 C 
ENDBRANCH   1  38
BRANCH   8  40
HETATM   40  O13 UNL     1     -16.242  18.531   9.114  1.00  0.00    -0.308 OA
BRANCH  40  41
HETATM   41  C17 UNL     1     -17.440  17.938   9.365  1.00  0.00     0.255 C 
HETATM   42  C18 UNL     1     -18.166  18.292  10.619  1.00  0.00     0.126 C 
HETATM   43  O14 UNL     1     -17.943  17.114   8.582  1.00  0.00    -0.266 OA
ENDBRANCH  40  41
ENDBRANCH   8  40
BRANCH   9  44
HETATM   44  O15 UNL     1     -14.084  17.020   6.409  1.00  0.00    -0.379 OA
ATOM     45  H15 UNL     1     -13.190  16.710   6.500  1.00  0.00     0.211 HD
ENDBRANCH   9  44
BRANCH   9  46
HETATM   46  C20 UNL     1     -13.887  18.550   4.778  1.00  0.00     0.210 C 
BRANCH  46  47
HETATM   47  O16 UNL     1     -12.966  17.588   4.289  1.00  0.00    -0.398 OA
ATOM     48  H16 UNL     1     -13.429  16.879   3.859  1.00  0.00     0.209 HD
ENDBRANCH  46  47
ENDBRANCH   9  46
TORSDOF 20
ENDMDL
MODEL 3
REMARK VINA RESULT: -4.938136572      2.802      7.015
REMARK  20 active torsions:
REMARK  status: ('A' for Active; 'I' for Inactive)
REMARK    1  A    between atoms: O1_2  and  C2_3 
REMARK    2  A    between atoms: C3_5  and  C4_6 
REMARK    3  A    between atoms: C3_5  and  C11_26 
REMARK    4  A    between atoms: C4_6  and  C5_7 
REMARK    5  A    between atoms: C6_8  and  O3_9 
REMARK    6  A    between atoms: C7_11  and  O4_12 
REMARK    7  A    between atoms: C8_14  and  O5_15 
REMARK    8  A    between atoms: C9_17  and  O6_18 
REMARK    9  A    between atoms: C10_20  and  N1_21 
REMARK   10  A    between atoms: N1_21  and  O7_22 
REMARK   11  A    between atoms: N1_21  and  O8_24 
REMARK   12  A    between atoms: C11_26  and  O9_27 
REMARK   13  A    between atoms: C11_26  and  C12_29 
REMARK   14  A    between atoms: C12_29  and  O10_30 
REMARK   15  A    between atoms: C13_32  and  O11_33 
REMARK   16  A    between atoms: C16_38  and  O13_39 
REMARK   17  A    between atoms: O13_39  and  C17_40 
REMARK   18  A    between atoms: C19_43  and  O15_44 
REMARK   19  A    between atoms: C19_43  and  C20_46 
REMARK   20  A    between atoms: C20_46  and  O16_47 
ROOT
HETATM    1  C2  UNL     1     -13.404  20.058   7.951  1.00  0.00     0.231 C 
HETATM    2  O2  UNL     1     -13.295  19.660   6.710  1.00  0.00    -0.329 OA
HETATM    3  C3  UNL     1     -14.241  19.164   5.821  1.00  0.00     0.139 C 
HETATM    4  C13 UNL     1     -15.524  19.690   6.366  1.00  0.00     0.191 C 
HETATM    5  C14 UNL     1     -15.693  19.692   7.863  1.00  0.00     0.195 C 
HETATM    6  O12 UNL     1     -15.556  18.515   8.517  1.00  0.00    -0.377 OA
HETATM    7  C15 UNL     1     -14.531  18.280   9.361  1.00  0.00     0.206 C 
HETATM    8  C16 UNL     1     -13.199  18.990   9.002  1.00  0.00     0.221 C 
HETATM    9  C19 UNL     1     -14.725  20.683   8.426  1.00  0.00     0.166 C 
ENDROOT
BRANCH   3  10
HETATM   10  C4  UNL     1     -14.001  17.733   5.598  1.00  0.00     0.033 C 
BRANCH  10  11
HETATM   11  C5  UNL     1     -14.941  16.628   5.632  1.00  0.00     0.028 A 
HETATM   12  C6  UNL     1     -14.914  15.696   6.668  1.00  0.00     0.114 A 
HETATM   13  C7  UNL     1     -15.819  14.654   6.743  1.00  0.00     0.136 A 
HETATM   14  C8  UNL     1     -16.802  14.505   5.756  1.00  0.00     0.137 A 
HETATM   15  C9  UNL     1     -16.839  15.401   4.734  1.00  0.00     0.129 A 
HETATM   16  C10 UNL     1     -15.917  16.454   4.668  1.00  0.00     0.114 A 
BRANCH  12  17
HETATM   17  O3  UNL     1     -13.966  15.750   7.686  1.00  0.00    -0.357 OA
ATOM     18  H3  UNL     1     -13.329  15.057   7.819  1.00  0.00     0.217 HD
ENDBRANCH  12  17
BRANCH  13  19
HETATM   19  O4  UNL     1     -15.778  13.746   7.780  1.00  0.00    -0.356 OA
ATOM     20  H4  UNL     1     -16.560  13.287   8.063  1.00  0.00     0.218 HD
ENDBRANCH  13  19
BRANCH  14  21
HETATM   21  O5  UNL     1     -17.682  13.439   5.890  1.00  0.00    -0.356 OA
ATOM     22  H5  UNL     1     -17.633  12.749   5.238  1.00  0.00     0.218 HD
ENDBRANCH  14  21
BRANCH  15  23
HETATM   23  O6  UNL     1     -17.821  15.228   3.768  1.00  0.00    -0.356 OA
ATOM     24  H6  UNL     1     -18.349  15.984   3.541  1.00  0.00     0.218 HD
ENDBRANCH  15  23
BRANCH  16  25
HETATM   25  N1  UNL     1     -16.061  17.212   3.471  1.00  0.00    -0.033 NA
BRANCH  25  26
HETATM   26  O7  UNL     1     -16.104  16.297   2.411  1.00  0.00    -0.284 OA
ATOM     27  H7  UNL     1     -15.497  16.609   1.751  1.00  0.00     0.240 HD
ENDBRANCH  25  26
BRANCH  25  28
HETATM   28  O8  UNL     1     -17.268  17.816   3.395  1.00  0.00    -0.284 OA
ATOM     29  H8  UNL     1     -17.532  17.974   2.496  1.00  0.00     0.240 HD
ENDBRANCH  25  28
ENDBRANCH  16  25
ENDBRANCH  10  11
ENDBRANCH   3  10
BRANCH   3  30
HETATM   30  C11 UNL     1     -13.891  19.934   4.549  1.00  0.00     0.183 C 
BRANCH  30  31
HETATM   31  O9  UNL     1     -14.879  19.854   3.561  1.00  0.00    -0.390 OA
ATOM     32  H9  UNL     1     -15.119  20.698   3.197  1.00  0.00     0.210 HD
ENDBRANCH  30  31
BRANCH  30  33
HETATM   33  C12 UNL     1     -12.611  19.787   3.877  1.00  0.00     0.199 C 
BRANCH  33  34
HETATM   34  O10 UNL     1     -11.484  20.144   4.632  1.00  0.00    -0.398 OA
ATOM     35  H10 UNL     1     -10.651  20.087   4.180  1.00  0.00     0.209 HD
ENDBRANCH  33  34
ENDBRANCH  30  33
ENDBRANCH   3  30
BRANCH   4  36
HETATM   36  O11 UNL     1     -16.678  19.521   5.695  1.00  0.00    -0.389 OA
ATOM     37  H11 UNL     1     -17.514  19.567   6.145  1.00  0.00     0.210 HD
ENDBRANCH   4  36
BRANCH   1  38
HETATM   38  O1  UNL     1     -12.522  21.105   8.138  1.00  0.00    -0.355 OA
HETATM   39  C1  UNL     1     -11.609  21.107   9.105  1.00  0.00     0.205 C 
ENDBRANCH   1  38
BRANCH   8  40
HETATM   40  O13 UNL     1     -12.243  18.011   8.687  1.00  0.00    -0.308 OA
BRANCH  40  41
HETATM   41  C17 UNL     1     -11.623  17.273   9.647  1.00  0.00     0.255 C 
HETATM   42  C18 UNL     1     -10.649  17.949  10.553  1.00  0.00     0.126 C 
HETATM   43  O14 UNL     1     -11.844  16.059   9.789  1.00  0.00    -0.266 OA
ENDBRANCH  40  41
ENDBRANCH   8  40
BRANCH   9  44
HETATM   44  O15 UNL     1     -14.705  20.620   9.867  1.00  0.00    -0.379 OA
ATOM     45  H15 UNL     1     -15.247  19.878  10.107  1.00  0.00     0.211 HD
ENDBRANCH   9  44
BRANCH   9  46
HETATM   46  C20 UNL     1     -14.953  22.106   8.202  1.00  0.00     0.210 C 
BRANCH  46  47
HETATM   47  O16 UNL     1     -14.629  22.843   9.370  1.00  0.00    -0.398 OA
ATOM     48  H16 UNL     1     -14.848  23.759   9.250  1.00  0.00     0.209 HD
ENDBRANCH  46  47
ENDBRANCH   9  46
TORSDOF 20
ENDMDL
MODEL 4
REMARK VINA RESULT: -4.936790232      1.845      3.788
REMARK  20 active torsions:
REMARK  status: ('A' for Active; 'I' for Inactive)
REMARK    1  A    between atoms: O1_2  and  C2_3 
REMARK    2  A    between atoms: C3_5  and  C4_6 
REMARK    3  A    between atoms: C3_5  and  C11_26 
REMARK    4  A    between atoms: C4_6  and  C5_7 
REMARK    5  A    between atoms: C6_8  and  O3_9 
REMARK    6  A    between atoms: C7_11  and  O4_12 
REMARK    7  A    between atoms: C8_14  and  O5_15 
REMARK    8  A    between atoms: C9_17  and  O6_18 
REMARK    9  A    between atoms: C10_20  and  N1_21 
REMARK   10  A    between atoms: N1_21  and  O7_22 
REMARK   11  A    between atoms: N1_21  and  O8_24 
REMARK   12  A    between atoms: C11_26  and  O9_27 
REMARK   13  A    between atoms: C11_26  and  C12_29 
REMARK   14  A    between atoms: C12_29  and  O10_30 
REMARK   15  A    between atoms: C13_32  and  O11_33 
REMARK   16  A    between atoms: C16_38  and  O13_39 
REMARK   17  A    between atoms: O13_39  and  C17_40 
REMARK   18  A    between atoms: C19_43  and  O15_44 
REMARK   19  A    between atoms: C19_43  and  C20_46 
REMARK   20  A    between atoms: C20_46  and  O16_47 
ROOT
HETATM    1  C2  UNL     1     -15.679  18.970   7.074  1.00  0.00     0.231 C 
HETATM    2  O2  UNL     1     -15.775  20.264   7.245  1.00  0.00    -0.329 OA
HETATM    3  C3  UNL     1     -14.803  21.231   7.470  1.00  0.00     0.139 C 
HETATM    4  C13 UNL     1     -13.567  20.602   6.926  1.00  0.00     0.191 C 
HETATM    5  C14 UNL     1     -13.368  19.131   7.183  1.00  0.00     0.195 C 
HETATM    6  O12 UNL     1     -13.372  18.706   8.468  1.00  0.00    -0.377 OA
HETATM    7  C15 UNL     1     -14.351  17.918   8.957  1.00  0.00     0.206 C 
HETATM    8  C16 UNL     1     -15.754  18.135   8.332  1.00  0.00     0.221 C 
HETATM    9  C19 UNL     1     -14.417  18.391   6.415  1.00  0.00     0.166 C 
ENDROOT
BRANCH   3  10
HETATM   10  C4  UNL     1     -14.904  21.715   8.852  1.00  0.00     0.033 C 
BRANCH  10  11
HETATM   11  C5  UNL     1     -14.078  22.682   9.550  1.00  0.00     0.028 A 
HETATM   12  C6  UNL     1     -14.496  24.002   9.707  1.00  0.00     0.114 A 
HETATM   13  C7  UNL     1     -13.744  24.934  10.397  1.00  0.00     0.136 A 
HETATM   14  C8  UNL     1     -12.516  24.567  10.962  1.00  0.00     0.137 A 
HETATM   15  C9  UNL     1     -12.088  23.285  10.812  1.00  0.00     0.129 A 
HETATM   16  C10 UNL     1     -12.859  22.348  10.111  1.00  0.00     0.114 A 
BRANCH  12  17
HETATM   17  O3  UNL     1     -15.693  24.467   9.169  1.00  0.00    -0.357 OA
ATOM     18  H3  UNL     1     -16.480  24.558   9.693  1.00  0.00     0.217 HD
ENDBRANCH  12  17
BRANCH  13  19
HETATM   19  O4  UNL     1     -14.180  26.234  10.546  1.00  0.00    -0.356 OA
ATOM     20  H4  UNL     1     -13.763  26.949  10.080  1.00  0.00     0.218 HD
ENDBRANCH  13  19
BRANCH  14  21
HETATM   21  O5  UNL     1     -11.810  25.550  11.643  1.00  0.00    -0.356 OA
ATOM     22  H5  UNL     1     -11.401  25.302  12.464  1.00  0.00     0.218 HD
ENDBRANCH  14  21
BRANCH  15  23
HETATM   23  O6  UNL     1     -10.867  22.949  11.380  1.00  0.00    -0.356 OA
ATOM     24  H6  UNL     1     -10.763  22.062  11.703  1.00  0.00     0.218 HD
ENDBRANCH  15  23
BRANCH  16  25
HETATM   25  N1  UNL     1     -12.187  21.099   9.981  1.00  0.00    -0.033 NA
BRANCH  25  26
HETATM   26  O7  UNL     1     -11.034  21.333   9.220  1.00  0.00    -0.284 OA
ATOM     27  H7  UNL     1     -10.892  20.560   8.687  1.00  0.00     0.240 HD
ENDBRANCH  25  26
BRANCH  25  28
HETATM   28  O8  UNL     1     -11.685  20.667  11.160  1.00  0.00    -0.284 OA
ATOM     29  H8  UNL     1     -11.116  19.915  11.051  1.00  0.00     0.240 HD
ENDBRANCH  25  28
ENDBRANCH  16  25
ENDBRANCH  10  11
ENDBRANCH   3  10
BRANCH   3  30
HETATM   30  C11 UNL     1     -15.255  22.338   6.519  1.00  0.00     0.183 C 
BRANCH  30  31
HETATM   31  O9  UNL     1     -16.529  22.837   6.812  1.00  0.00    -0.390 OA
ATOM     32  H9  UNL     1     -16.837  23.480   6.184  1.00  0.00     0.210 HD
ENDBRANCH  30  31
BRANCH  30  33
HETATM   33  C12 UNL     1     -15.178  22.204   5.074  1.00  0.00     0.199 C 
BRANCH  33  34
HETATM   34  O10 UNL     1     -16.112  21.334   4.494  1.00  0.00    -0.398 OA
ATOM     35  H10 UNL     1     -15.775  20.488   4.225  1.00  0.00     0.209 HD
ENDBRANCH  33  34
ENDBRANCH  30  33
ENDBRANCH   3  30
BRANCH   4  36
HETATM   36  O11 UNL     1     -12.417  21.296   6.851  1.00  0.00    -0.389 OA
ATOM     37  H11 UNL     1     -12.070  21.573   6.011  1.00  0.00     0.210 HD
ENDBRANCH   4  36
BRANCH   1  38
HETATM   38  O1  UNL     1     -16.657  18.590   6.174  1.00  0.00    -0.355 OA
HETATM   39  C1  UNL     1     -17.863  19.150   6.150  1.00  0.00     0.205 C 
ENDBRANCH   1  38
BRANCH   8  40
HETATM   40  O13 UNL     1     -16.615  18.623   9.328  1.00  0.00    -0.308 OA
BRANCH  40  41
HETATM   41  C17 UNL     1     -17.751  17.965   9.685  1.00  0.00     0.255 C 
HETATM   42  C18 UNL     1     -18.379  18.283  11.000  1.00  0.00     0.126 C 
HETATM   43  O14 UNL     1     -18.275  17.112   8.950  1.00  0.00    -0.266 OA
ENDBRANCH  40  41
ENDBRANCH   8  40
BRANCH   9  44
HETATM   44  O15 UNL     1     -14.399  16.987   6.744  1.00  0.00    -0.379 OA
ATOM     45  H15 UNL     1     -13.917  16.557   6.047  1.00  0.00     0.211 HD
ENDBRANCH   9  44
BRANCH   9  46
HETATM   46  C20 UNL     1     -14.336  18.348   4.960  1.00  0.00     0.210 C 
BRANCH  46  47
HETATM   47  O16 UNL     1     -13.029  17.977   4.553  1.00  0.00    -0.398 OA
ATOM     48  H16 UNL     1     -12.603  18.704   4.116  1.00  0.00     0.209 HD
ENDBRANCH  46  47
ENDBRANCH   9  46
TORSDOF 20
ENDMDL
MODEL 5
REMARK VINA RESULT: -4.777887526      2.339      6.420
REMARK  20 active torsions:
REMARK  status: ('A' for Active; 'I' for Inactive)
REMARK    1  A    between atoms: O1_2  and  C2_3 
REMARK    2  A    between atoms: C3_5  and  C4_6 
REMARK    3  A    between atoms: C3_5  and  C11_26 
REMARK    4  A    between atoms: C4_6  and  C5_7 
REMARK    5  A    between atoms: C6_8  and  O3_9 
REMARK    6  A    between atoms: C7_11  and  O4_12 
REMARK    7  A    between atoms: C8_14  and  O5_15 
REMARK    8  A    between atoms: C9_17  and  O6_18 
REMARK    9  A    between atoms: C10_20  and  N1_21 
REMARK   10  A    between atoms: N1_21  and  O7_22 
REMARK   11  A    between atoms: N1_21  and  O8_24 
REMARK   12  A    between atoms: C11_26  and  O9_27 
REMARK   13  A    between atoms: C11_26  and  C12_29 
REMARK   14  A    between atoms: C12_29  and  O10_30 
REMARK   15  A    between atoms: C13_32  and  O11_33 
REMARK   16  A    between atoms: C16_38  and  O13_39 
REMARK   17  A    between atoms: O13_39  and  C17_40 
REMARK   18  A    between atoms: C19_43  and  O15_44 
REMARK   19  A    between atoms: C19_43  and  C20_46 
REMARK   20  A    between atoms: C20_46  and  O16_47 
ROOT
HETATM    1  C2  UNL     1     -17.396  23.238   7.925  1.00  0.00     0.231 C 
HETATM    2  O2  UNL     1     -16.682  22.539   7.081  1.00  0.00    -0.329 OA
HETATM    3  C3  UNL     1     -16.389  21.181   7.035  1.00  0.00     0.139 C 
HETATM    4  C13 UNL     1     -17.501  20.570   7.817  1.00  0.00     0.191 C 
HETATM    5  C14 UNL     1     -17.955  21.292   9.058  1.00  0.00     0.195 C 
HETATM    6  O12 UNL     1     -17.033  21.552  10.013  1.00  0.00    -0.377 OA
HETATM    7  C15 UNL     1     -16.638  22.808  10.304  1.00  0.00     0.206 C 
HETATM    8  C16 UNL     1     -16.645  23.800   9.111  1.00  0.00     0.221 C 
HETATM    9  C19 UNL     1     -18.593  22.575   8.626  1.00  0.00     0.166 C 
ENDROOT
BRANCH   3  10
HETATM   10  C4  UNL     1     -14.976  20.972   7.371  1.00  0.00     0.033 C 
BRANCH  10  11
HETATM   11  C5  UNL     1     -14.358  19.890   8.112  1.00  0.00     0.028 A 
HETATM   12  C6  UNL     1     -13.716  20.127   9.327  1.00  0.00     0.114 A 
HETATM   13  C7  UNL     1     -13.149  19.109  10.070  1.00  0.00     0.136 A 
HETATM   14  C8  UNL     1     -13.204  17.788   9.608  1.00  0.00     0.137 A 
HETATM   15  C9  UNL     1     -13.820  17.538   8.421  1.00  0.00     0.129 A 
HETATM   16  C10 UNL     1     -14.391  18.578   7.677  1.00  0.00     0.114 A 
BRANCH  12  17
HETATM   17  O3  UNL     1     -13.595  21.407   9.861  1.00  0.00    -0.357 OA
ATOM     18  H3  UNL     1     -13.641  21.570  10.796  1.00  0.00     0.217 HD
ENDBRANCH  12  17
BRANCH  13  19
HETATM   19  O4  UNL     1     -12.523  19.366  11.272  1.00  0.00    -0.356 OA
ATOM     20  H4  UNL     1     -12.952  19.179  12.099  1.00  0.00     0.218 HD
ENDBRANCH  13  19
BRANCH  14  21
HETATM   21  O5  UNL     1     -12.617  16.811  10.402  1.00  0.00    -0.356 OA
ATOM     22  H5  UNL     1     -13.180  16.351  11.014  1.00  0.00     0.218 HD
ENDBRANCH  14  21
BRANCH  15  23
HETATM   23  O6  UNL     1     -13.857  16.220   7.986  1.00  0.00    -0.356 OA
ATOM     24  H6  UNL     1     -14.446  16.012   7.271  1.00  0.00     0.218 HD
ENDBRANCH  15  23
BRANCH  16  25
HETATM   25  N1  UNL     1     -14.891  18.120   6.423  1.00  0.00    -0.033 NA
BRANCH  25  26
HETATM   26  O7  UNL     1     -13.829  17.481   5.769  1.00  0.00    -0.284 OA
ATOM     27  H7  UNL     1     -14.210  16.941   5.087  1.00  0.00     0.240 HD
ENDBRANCH  25  26
BRANCH  25  28
HETATM   28  O8  UNL     1     -15.795  17.126   6.570  1.00  0.00    -0.284 OA
ATOM     29  H8  UNL     1     -16.234  16.920   5.753  1.00  0.00     0.240 HD
ENDBRANCH  25  28
ENDBRANCH  16  25
ENDBRANCH  10  11
ENDBRANCH   3  10
BRANCH   3  30
HETATM   30  C11 UNL     1     -16.601  20.878   5.553  1.00  0.00     0.183 C 
BRANCH  30  31
HETATM   31  O9  UNL     1     -17.125  19.602   5.316  1.00  0.00    -0.390 OA
ATOM     32  H9  UNL     1     -17.972  19.616   4.885  1.00  0.00     0.210 HD
ENDBRANCH  30  31
BRANCH  30  33
HETATM   33  C12 UNL     1     -15.566  21.100   4.556  1.00  0.00     0.199 C 
BRANCH  33  34
HETATM   34  O10 UNL     1     -14.896  19.951   4.110  1.00  0.00    -0.398 OA
ATOM     35  H10 UNL     1     -14.839  19.848   3.168  1.00  0.00     0.209 HD
ENDBRANCH  33  34
ENDBRANCH  30  33
ENDBRANCH   3  30
BRANCH   4  36
HETATM   36  O11 UNL     1     -17.635  19.232   7.894  1.00  0.00    -0.389 OA
ATOM     37  H11 UNL     1     -18.034  18.742   7.185  1.00  0.00     0.210 HD
ENDBRANCH   4  36
BRANCH   1  38
HETATM   38  O1  UNL     1     -18.019  24.247   7.216  1.00  0.00    -0.355 OA
HETATM   39  C1  UNL     1     -17.519  24.740   6.086  1.00  0.00     0.205 C 
ENDBRANCH   1  38
BRANCH   8  40
HETATM   40  O13 UNL     1     -15.323  24.196   8.853  1.00  0.00    -0.308 OA
BRANCH  40  41
HETATM   41  C17 UNL     1     -14.837  25.398   9.266  1.00  0.00     0.255 C 
HETATM   42  C18 UNL     1     -14.091  25.465  10.555  1.00  0.00     0.126 C 
HETATM   43  O14 UNL     1     -14.998  26.436   8.600  1.00  0.00    -0.266 OA
ENDBRANCH  40  41
ENDBRANCH   8  40
BRANCH   9  44
HETATM   44  O15 UNL     1     -18.901  23.404   9.765  1.00  0.00    -0.379 OA
ATOM     45  H15 UNL     1     -18.270  23.175  10.438  1.00  0.00     0.211 HD
ENDBRANCH   9  44
BRANCH   9  46
HETATM   46  C20 UNL     1     -19.879  22.535   7.941  1.00  0.00     0.210 C 
BRANCH  46  47
HETATM   47  O16 UNL     1     -20.643  23.685   8.267  1.00  0.00    -0.398 OA
ATOM     48  H16 UNL     1     -21.483  23.428   8.628  1.00  0.00     0.209 HD
ENDBRANCH  46  47
ENDBRANCH   9  46
TORSDOF 20
ENDMDL
