MODEL 1
REMARK VINA RESULT: -7.917996300      0.000      0.000
REMARK  12 active torsions:
REMARK  status: ('A' for Active; 'I' for Inactive)
REMARK    1  A    between atoms: C2_5  and  C3_6 
REMARK       I    between atoms: C3_6  and  N2_8 
REMARK    2  A    between atoms: N2_8  and  N3_9 
REMARK    3  A    between atoms: N3_9  and  C4_11 
REMARK    4  A    between atoms: C4_11  and  N4_12 
REMARK    5  A    between atoms: C4_11  and  C5_16 
REMARK    6  A    between atoms: C5_16  and  O2_17 
REMARK    7  A    between atoms: N6_23  and  C9_24 
REMARK    8  A    between atoms: C10_30  and  C11_31 
REMARK    9  A    between atoms: C12_35  and  C13_36 
REMARK   10  A    between atoms: C15_42  and  O6_43 
REMARK   11  A    between atoms: C16_45  and  O7_46 
REMARK   12  A    between atoms: C17_48  and  O8_49 
ROOT
HETATM    1  N1  UNL     1     -12.195  19.646   5.916  1.00  0.00    -0.384 N 
ATOM      2  H11 UNL     1     -11.800  20.188   6.685  1.00  0.00     0.157 HD
ATOM      3  H12 UNL     1     -11.638  19.418   5.092  1.00  0.00     0.157 HD
HETATM    4  C1  UNL     1     -13.409  19.230   5.901  1.00  0.00     0.126 A 
HETATM    5  C2  UNL     1     -13.938  18.505   4.869  1.00  0.00     0.119 A 
HETATM    6  C6  UNL     1     -15.267  18.062   4.932  1.00  0.00     0.095 A 
HETATM    7  N5  UNL     1     -15.805  17.328   3.868  1.00  0.00    -0.099 NA
HETATM    8  C7  UNL     1     -16.001  18.387   6.066  1.00  0.00     0.078 A 
HETATM    9  C8  UNL     1     -15.446  19.119   7.095  1.00  0.00     0.057 A 
HETATM   10  N6  UNL     1     -14.154  19.536   7.004  1.00  0.00    -0.280 N 
HETATM   11  C14 UNL     1     -16.453  19.285   8.132  1.00  0.00     0.095 C 
HETATM   12  C15 UNL     1     -16.444  18.320   9.265  1.00  0.00     0.161 C 
HETATM   13  C16 UNL     1     -17.897  18.363   9.729  1.00  0.00     0.178 C 
HETATM   14  C17 UNL     1     -18.646  18.241   8.425  1.00  0.00     0.172 C 
HETATM   15  C18 UNL     1     -17.775  18.956   7.409  1.00  0.00     0.125 C 
HETATM   16  N12 UNL     1     -17.363  18.047   6.356  1.00  0.00    -0.379 N 
ATOM     17  H12 UNL     1     -17.924  17.318   5.916  1.00  0.00     0.160 HD
ENDROOT
BRANCH  10  18
HETATM   18  C9  UNL     1     -13.584  20.296   8.036  1.00  0.00     0.168 A 
HETATM   19  N7  UNL     1     -13.673  21.652   8.179  1.00  0.00    -0.223 N 
HETATM   20  O3  UNL     1     -13.041  22.038   9.214  1.00  0.00    -0.155 OA
ATOM     21  H7  UNL     1     -14.178  22.270   7.544  1.00  0.00     0.198 HD
HETATM   22  N8  UNL     1     -12.516  21.001   9.794  1.00  0.00    -0.234 N 
HETATM   23  C10 UNL     1     -12.832  19.876   9.088  1.00  0.00     0.148 A 
ATOM     24  H8  UNL     1     -11.954  21.024  10.644  1.00  0.00     0.197 HD
BRANCH  23  25
HETATM   25  C11 UNL     1     -12.420  18.519   9.401  1.00  0.00     0.161 A 
HETATM   26  N9  UNL     1     -13.057  17.362   9.195  1.00  0.00    -0.240 N 
HETATM   27  O4  UNL     1     -12.335  16.361   9.588  1.00  0.00    -0.212 OA
ATOM     28  H9  UNL     1     -13.987  17.279   8.783  1.00  0.00     0.196 HD
HETATM   29  C12 UNL     1     -11.191  16.791  10.071  1.00  0.00     0.237 A 
HETATM   30  N11 UNL     1     -11.228  18.148   9.960  1.00  0.00    -0.314 N 
ATOM     31  H11 UNL     1     -10.486  18.786  10.249  1.00  0.00     0.170 HD
BRANCH  29  32
HETATM   32  C13 UNL     1     -10.080  16.029  10.621  1.00  0.00     0.308 C 
HETATM   33  N10 UNL     1      -9.877  14.661  10.373  1.00  0.00    -0.054 NA
HETATM   34  O5  UNL     1      -9.273  16.653  11.355  1.00  0.00    -0.267 OA
ENDBRANCH  29  32
ENDBRANCH  23  25
ENDBRANCH  10  18
BRANCH   5  35
HETATM   35  C3  UNL     1     -13.184  18.124   3.692  1.00  0.00     0.351 C 
HETATM   36  O1  UNL     1     -13.045  18.995   2.807  1.00  0.00    -0.249 OA
HETATM   37  N2  UNL     1     -12.639  16.821   3.550  1.00  0.00    -0.284 NA
BRANCH  37  38
HETATM   38  N3  UNL     1     -12.160  15.684   3.420  1.00  0.00    -0.235 N 
ATOM     39  H3  UNL     1     -11.554  15.360   4.173  1.00  0.00     0.197 HD
BRANCH  38  40
HETATM   40  C4  UNL     1     -12.361  14.778   2.335  1.00  0.00     0.331 C 
BRANCH  40  41
HETATM   41  N4  UNL     1     -11.315  13.804   2.270  1.00  0.00    -0.054 N 
ATOM     42  H43 UNL     1     -10.671  13.893   3.056  1.00  0.00     0.277 HD
ATOM     43  H42 UNL     1     -11.665  12.865   2.459  1.00  0.00     0.277 HD
ATOM     44  H41 UNL     1     -10.824  13.847   1.377  1.00  0.00     0.277 HD
ENDBRANCH  40  41
BRANCH  40  45
HETATM   45  C5  UNL     1     -12.498  15.540   1.005  1.00  0.00     0.220 C 
BRANCH  45  46
HETATM   46  O2  UNL     1     -11.426  16.345   0.726  1.00  0.00    -0.397 OA
ATOM     47  H2  UNL     1     -11.542  17.242   1.014  1.00  0.00     0.209 HD
ENDBRANCH  45  46
ENDBRANCH  40  45
ENDBRANCH  38  40
ENDBRANCH  37  38
ENDBRANCH   5  35
BRANCH  12  48
HETATM   48  O6  UNL     1     -15.702  18.790  10.329  1.00  0.00    -0.392 OA
ATOM     49  H6  UNL     1     -14.826  18.422  10.336  1.00  0.00     0.210 HD
ENDBRANCH  12  48
BRANCH  13  50
HETATM   50  O7  UNL     1     -18.173  17.379  10.639  1.00  0.00    -0.390 OA
ATOM     51  H7  UNL     1     -19.080  17.402  10.922  1.00  0.00     0.210 HD
ENDBRANCH  13  50
BRANCH  14  52
HETATM   52  O8  UNL     1     -19.831  18.957   8.538  1.00  0.00    -0.391 OA
ATOM     53  H8  UNL     1     -19.998  19.384   7.707  1.00  0.00     0.210 HD
ENDBRANCH  14  52
TORSDOF 12
ENDMDL
MODEL 2
REMARK VINA RESULT: -7.466543845      1.562      2.132
REMARK  12 active torsions:
REMARK  status: ('A' for Active; 'I' for Inactive)
REMARK    1  A    between atoms: C2_5  and  C3_6 
REMARK       I    between atoms: C3_6  and  N2_8 
REMARK    2  A    between atoms: N2_8  and  N3_9 
REMARK    3  A    between atoms: N3_9  and  C4_11 
REMARK    4  A    between atoms: C4_11  and  N4_12 
REMARK    5  A    between atoms: C4_11  and  C5_16 
REMARK    6  A    between atoms: C5_16  and  O2_17 
REMARK    7  A    between atoms: N6_23  and  C9_24 
REMARK    8  A    between atoms: C10_30  and  C11_31 
REMARK    9  A    between atoms: C12_35  and  C13_36 
REMARK   10  A    between atoms: C15_42  and  O6_43 
REMARK   11  A    between atoms: C16_45  and  O7_46 
REMARK   12  A    between atoms: C17_48  and  O8_49 
ROOT
HETATM    1  N1  UNL     1     -12.308  19.422   6.071  1.00  0.00    -0.384 N 
ATOM      2  H11 UNL     1     -11.872  19.977   6.808  1.00  0.00     0.157 HD
ATOM      3  H12 UNL     1     -11.777  19.121   5.254  1.00  0.00     0.157 HD
HETATM    4  C1  UNL     1     -13.544  19.077   6.091  1.00  0.00     0.126 A 
HETATM    5  C2  UNL     1     -14.129  18.333   5.102  1.00  0.00     0.119 A 
HETATM    6  C6  UNL     1     -15.480  17.972   5.201  1.00  0.00     0.095 A 
HETATM    7  N5  UNL     1     -16.073  17.219   4.182  1.00  0.00    -0.099 NA
HETATM    8  C7  UNL     1     -16.178  18.396   6.326  1.00  0.00     0.078 A 
HETATM    9  C8  UNL     1     -15.568  19.144   7.311  1.00  0.00     0.057 A 
HETATM   10  N6  UNL     1     -14.256  19.480   7.185  1.00  0.00    -0.280 N 
HETATM   11  C14 UNL     1     -16.549  19.420   8.349  1.00  0.00     0.095 C 
HETATM   12  C15 UNL     1     -16.580  18.512   9.529  1.00  0.00     0.161 C 
HETATM   13  C16 UNL     1     -18.022  18.663  10.006  1.00  0.00     0.178 C 
HETATM   14  C17 UNL     1     -18.794  18.520   8.718  1.00  0.00     0.172 C 
HETATM   15  C18 UNL     1     -17.898  19.132   7.657  1.00  0.00     0.125 C 
HETATM   16  N12 UNL     1     -17.553  18.149   6.648  1.00  0.00    -0.379 N 
ATOM     17  H12 UNL     1     -18.161  17.434   6.250  1.00  0.00     0.160 HD
ENDROOT
BRANCH  10  18
HETATM   18  C9  UNL     1     -13.629  20.256   8.171  1.00  0.00     0.168 A 
HETATM   19  N7  UNL     1     -13.695  21.616   8.288  1.00  0.00    -0.223 N 
HETATM   20  O3  UNL     1     -13.010  22.016   9.282  1.00  0.00    -0.155 OA
ATOM     21  H7  UNL     1     -14.222  22.226   7.663  1.00  0.00     0.198 HD
HETATM   22  N8  UNL     1     -12.470  20.986   9.860  1.00  0.00    -0.234 N 
HETATM   23  C10 UNL     1     -12.832  19.850   9.196  1.00  0.00     0.148 A 
ATOM     24  H8  UNL     1     -11.868  21.021  10.682  1.00  0.00     0.197 HD
BRANCH  23  25
HETATM   25  C11 UNL     1     -12.421  18.494   9.520  1.00  0.00     0.161 A 
HETATM   26  N9  UNL     1     -13.089  17.344   9.390  1.00  0.00    -0.240 N 
HETATM   27  O4  UNL     1     -12.358  16.341   9.763  1.00  0.00    -0.212 OA
ATOM     28  H9  UNL     1     -14.045  17.266   9.043  1.00  0.00     0.196 HD
HETATM   29  C12 UNL     1     -11.178  16.765  10.157  1.00  0.00     0.237 A 
HETATM   30  N11 UNL     1     -11.201  18.118  10.010  1.00  0.00    -0.314 N 
ATOM     31  H11 UNL     1     -10.431  18.751  10.230  1.00  0.00     0.170 HD
BRANCH  29  32
HETATM   32  C13 UNL     1     -10.045  15.999  10.655  1.00  0.00     0.308 C 
HETATM   33  N10 UNL     1      -9.828  14.644  10.350  1.00  0.00    -0.054 NA
HETATM   34  O5  UNL     1      -9.231  16.607  11.394  1.00  0.00    -0.267 OA
ENDBRANCH  29  32
ENDBRANCH  23  25
ENDBRANCH  10  18
BRANCH   5  35
HETATM   35  C3  UNL     1     -13.414  17.852   3.937  1.00  0.00     0.351 C 
HETATM   36  O1  UNL     1     -13.021  16.667   3.967  1.00  0.00    -0.249 OA
HETATM   37  N2  UNL     1     -13.167  18.693   2.820  1.00  0.00    -0.284 NA
BRANCH  37  38
HETATM   38  N3  UNL     1     -12.947  19.423   1.841  1.00  0.00    -0.235 N 
ATOM     39  H3  UNL     1     -13.286  19.085   0.941  1.00  0.00     0.197 HD
BRANCH  38  40
HETATM   40  C4  UNL     1     -12.274  20.682   1.831  1.00  0.00     0.331 C 
BRANCH  40  41
HETATM   41  N4  UNL     1     -11.351  20.770   0.742  1.00  0.00    -0.054 N 
ATOM     42  H43 UNL     1     -10.394  20.896   1.072  1.00  0.00     0.277 HD
ATOM     43  H42 UNL     1     -11.237  19.872   0.274  1.00  0.00     0.277 HD
ATOM     44  H41 UNL     1     -11.620  21.503   0.086  1.00  0.00     0.277 HD
ENDBRANCH  40  41
BRANCH  40  45
HETATM   45  C5  UNL     1     -11.575  20.937   3.179  1.00  0.00     0.220 C 
BRANCH  45  46
HETATM   46  O2  UNL     1     -10.713  19.937   3.542  1.00  0.00    -0.397 OA
ATOM     47  H2  UNL     1     -10.945  19.089   3.182  1.00  0.00     0.209 HD
ENDBRANCH  45  46
ENDBRANCH  40  45
ENDBRANCH  38  40
ENDBRANCH  37  38
ENDBRANCH   5  35
BRANCH  12  48
HETATM   48  O6  UNL     1     -15.798  18.991  10.560  1.00  0.00    -0.392 OA
ATOM     49  H6  UNL     1     -15.822  18.414  11.315  1.00  0.00     0.210 HD
ENDBRANCH  12  48
BRANCH  13  50
HETATM   50  O7  UNL     1     -18.342  17.743  10.967  1.00  0.00    -0.390 OA
ATOM     51  H7  UNL     1     -18.229  18.092  11.844  1.00  0.00     0.210 HD
ENDBRANCH  13  50
BRANCH  14  52
HETATM   52  O8  UNL     1     -19.934  19.308   8.808  1.00  0.00    -0.391 OA
ATOM     53  H8  UNL     1     -20.649  18.843   8.391  1.00  0.00     0.210 HD
ENDBRANCH  14  52
TORSDOF 12
ENDMDL
MODEL 3
REMARK VINA RESULT: -7.390842550      3.779      7.197
REMARK  12 active torsions:
REMARK  status: ('A' for Active; 'I' for Inactive)
REMARK    1  A    between atoms: C2_5  and  C3_6 
REMARK       I    between atoms: C3_6  and  N2_8 
REMARK    2  A    between atoms: N2_8  and  N3_9 
REMARK    3  A    between atoms: N3_9  and  C4_11 
REMARK    4  A    between atoms: C4_11  and  N4_12 
REMARK    5  A    between atoms: C4_11  and  C5_16 
REMARK    6  A    between atoms: C5_16  and  O2_17 
REMARK    7  A    between atoms: N6_23  and  C9_24 
REMARK    8  A    between atoms: C10_30  and  C11_31 
REMARK    9  A    between atoms: C12_35  and  C13_36 
REMARK   10  A    between atoms: C15_42  and  O6_43 
REMARK   11  A    between atoms: C16_45  and  O7_46 
REMARK   12  A    between atoms: C17_48  and  O8_49 
ROOT
HETATM    1  N1  UNL     1     -16.410  19.122   7.819  1.00  0.00    -0.384 N 
ATOM      2  H11 UNL     1     -17.388  19.350   7.642  1.00  0.00     0.157 HD
ATOM      3  H12 UNL     1     -16.039  18.195   7.610  1.00  0.00     0.157 HD
HETATM    4  C1  UNL     1     -15.578  19.954   8.331  1.00  0.00     0.126 A 
HETATM    5  C2  UNL     1     -14.266  19.648   8.570  1.00  0.00     0.119 A 
HETATM    6  C6  UNL     1     -13.407  20.616   9.111  1.00  0.00     0.095 A 
HETATM    7  N5  UNL     1     -12.068  20.292   9.360  1.00  0.00    -0.099 NA
HETATM    8  C7  UNL     1     -13.940  21.869   9.384  1.00  0.00     0.078 A 
HETATM    9  C8  UNL     1     -15.266  22.155   9.134  1.00  0.00     0.057 A 
HETATM   10  N6  UNL     1     -16.075  21.195   8.611  1.00  0.00    -0.280 N 
HETATM   11  C14 UNL     1     -15.514  23.538   9.514  1.00  0.00     0.095 C 
HETATM   12  C15 UNL     1     -15.439  24.572   8.446  1.00  0.00     0.161 C 
HETATM   13  C16 UNL     1     -15.094  25.826   9.244  1.00  0.00     0.178 C 
HETATM   14  C17 UNL     1     -13.973  25.337  10.127  1.00  0.00     0.172 C 
HETATM   15  C18 UNL     1     -14.312  23.886  10.416  1.00  0.00     0.125 C 
HETATM   16  N12 UNL     1     -13.264  23.009   9.930  1.00  0.00    -0.379 N 
ATOM     17  H12 UNL     1     -12.258  23.169   9.969  1.00  0.00     0.160 HD
ENDROOT
BRANCH  10  18
HETATM   18  C9  UNL     1     -17.430  21.469   8.370  1.00  0.00     0.168 A 
HETATM   19  N7  UNL     1     -17.968  21.884   7.184  1.00  0.00    -0.223 N 
HETATM   20  O3  UNL     1     -19.224  22.053   7.295  1.00  0.00    -0.155 OA
ATOM     21  H7  UNL     1     -17.435  22.037   6.328  1.00  0.00     0.198 HD
HETATM   22  N8  UNL     1     -19.578  21.772   8.512  1.00  0.00    -0.234 N 
HETATM   23  C10 UNL     1     -18.480  21.396   9.230  1.00  0.00     0.148 A 
ATOM     24  H8  UNL     1     -20.529  21.824   8.876  1.00  0.00     0.197 HD
BRANCH  23  25
HETATM   25  C11 UNL     1     -18.455  21.021  10.634  1.00  0.00     0.161 A 
HETATM   26  N9  UNL     1     -18.531  21.789  11.726  1.00  0.00    -0.240 N 
HETATM   27  O4  UNL     1     -18.505  21.065  12.801  1.00  0.00    -0.212 OA
ATOM     28  H9  UNL     1     -18.599  22.806  11.714  1.00  0.00     0.196 HD
HETATM   29  C12 UNL     1     -18.413  19.793  12.486  1.00  0.00     0.237 A 
HETATM   30  N11 UNL     1     -18.381  19.747  11.126  1.00  0.00    -0.314 N 
ATOM     31  H11 UNL     1     -18.311  18.899  10.564  1.00  0.00     0.170 HD
BRANCH  29  32
HETATM   32  C13 UNL     1     -18.355  18.631  13.362  1.00  0.00     0.308 C 
HETATM   33  N10 UNL     1     -17.892  18.680  14.688  1.00  0.00    -0.054 NA
HETATM   34  O5  UNL     1     -18.747  17.538  12.881  1.00  0.00    -0.267 OA
ENDBRANCH  29  32
ENDBRANCH  23  25
ENDBRANCH  10  18
BRANCH   5  35
HETATM   35  C3  UNL     1     -13.679  18.360   8.263  1.00  0.00     0.351 C 
HETATM   36  O1  UNL     1     -13.753  17.975   7.076  1.00  0.00    -0.249 OA
HETATM   37  N2  UNL     1     -13.056  17.571   9.266  1.00  0.00    -0.284 NA
BRANCH  37  38
HETATM   38  N3  UNL     1     -12.512  16.876  10.138  1.00  0.00    -0.235 N 
ATOM     39  H3  UNL     1     -13.003  16.025  10.409  1.00  0.00     0.197 HD
BRANCH  38  40
HETATM   40  C4  UNL     1     -11.276  17.134  10.805  1.00  0.00     0.331 C 
BRANCH  40  41
HETATM   41  N4  UNL     1     -10.368  17.849   9.962  1.00  0.00    -0.054 N 
ATOM     42  H43 UNL     1     -10.123  17.308   9.133  1.00  0.00     0.277 HD
ATOM     43  H42 UNL     1     -10.825  18.638   9.504  1.00  0.00     0.277 HD
ATOM     44  H41 UNL     1      -9.538  18.143  10.475  1.00  0.00     0.277 HD
ENDBRANCH  40  41
BRANCH  40  45
HETATM   45  C5  UNL     1     -10.650  15.824  11.317  1.00  0.00     0.220 C 
BRANCH  45  46
HETATM   46  O2  UNL     1      -9.501  16.016  12.038  1.00  0.00    -0.397 OA
ATOM     47  H2  UNL     1      -9.412  15.418  12.770  1.00  0.00     0.209 HD
ENDBRANCH  45  46
ENDBRANCH  40  45
ENDBRANCH  38  40
ENDBRANCH  37  38
ENDBRANCH   5  35
BRANCH  12  48
HETATM   48  O6  UNL     1     -16.677  24.817   7.888  1.00  0.00    -0.392 OA
ATOM     49  H6  UNL     1     -16.602  25.204   7.023  1.00  0.00     0.210 HD
ENDBRANCH  12  48
BRANCH  13  50
HETATM   50  O7  UNL     1     -14.762  26.875   8.429  1.00  0.00    -0.390 OA
ATOM     51  H7  UNL     1     -13.853  27.130   8.531  1.00  0.00     0.210 HD
ENDBRANCH  13  50
BRANCH  14  52
HETATM   52  O8  UNL     1     -14.037  26.030  11.329  1.00  0.00    -0.391 OA
ATOM     53  H8  UNL     1     -13.197  26.446  11.475  1.00  0.00     0.210 HD
ENDBRANCH  14  52
TORSDOF 12
ENDMDL
MODEL 4
REMARK VINA RESULT: -7.335784336      2.127      5.270
REMARK  12 active torsions:
REMARK  status: ('A' for Active; 'I' for Inactive)
REMARK    1  A    between atoms: C2_5  and  C3_6 
REMARK       I    between atoms: C3_6  and  N2_8 
REMARK    2  A    between atoms: N2_8  and  N3_9 
REMARK    3  A    between atoms: N3_9  and  C4_11 
REMARK    4  A    between atoms: C4_11  and  N4_12 
REMARK    5  A    between atoms: C4_11  and  C5_16 
REMARK    6  A    between atoms: C5_16  and  O2_17 
REMARK    7  A    between atoms: N6_23  and  C9_24 
REMARK    8  A    between atoms: C10_30  and  C11_31 
REMARK    9  A    between atoms: C12_35  and  C13_36 
REMARK   10  A    between atoms: C15_42  and  O6_43 
REMARK   11  A    between atoms: C16_45  and  O7_46 
REMARK   12  A    between atoms: C17_48  and  O8_49 
ROOT
HETATM    1  N1  UNL     1     -15.810  19.416   9.433  1.00  0.00    -0.384 N 
ATOM      2  H11 UNL     1     -15.147  19.924  10.018  1.00  0.00     0.157 HD
ATOM      3  H12 UNL     1     -16.710  19.107   9.802  1.00  0.00     0.157 HD
HETATM    4  C1  UNL     1     -15.571  19.103   8.211  1.00  0.00     0.126 A 
HETATM    5  C2  UNL     1     -16.461  18.421   7.427  1.00  0.00     0.119 A 
HETATM    6  C6  UNL     1     -16.142  18.134   6.091  1.00  0.00     0.095 A 
HETATM    7  N5  UNL     1     -17.053  17.428   5.298  1.00  0.00    -0.099 NA
HETATM    8  C7  UNL     1     -14.910  18.566   5.617  1.00  0.00     0.078 A 
HETATM    9  C8  UNL     1     -14.030  19.254   6.426  1.00  0.00     0.057 A 
HETATM   10  N6  UNL     1     -14.367  19.516   7.717  1.00  0.00    -0.280 N 
HETATM   11  C14 UNL     1     -12.845  19.574   5.644  1.00  0.00     0.095 C 
HETATM   12  C15 UNL     1     -12.781  20.917   5.006  1.00  0.00     0.161 C 
HETATM   13  C16 UNL     1     -11.840  20.664   3.830  1.00  0.00     0.178 C 
HETATM   14  C17 UNL     1     -12.408  19.396   3.243  1.00  0.00     0.172 C 
HETATM   15  C18 UNL     1     -12.943  18.621   4.434  1.00  0.00     0.125 C 
HETATM   16  N12 UNL     1     -14.370  18.396   4.300  1.00  0.00    -0.379 N 
ATOM     17  H12 UNL     1     -14.881  18.165   3.448  1.00  0.00     0.160 HD
ENDROOT
BRANCH  10  18
HETATM   18  C9  UNL     1     -13.472  20.198   8.555  1.00  0.00     0.168 A 
HETATM   19  N7  UNL     1     -13.371  21.554   8.691  1.00  0.00    -0.223 N 
HETATM   20  O3  UNL     1     -12.457  21.856   9.522  1.00  0.00    -0.155 OA
ATOM     21  H7  UNL     1     -13.949  22.230   8.193  1.00  0.00     0.198 HD
HETATM   22  N8  UNL     1     -11.919  20.761   9.969  1.00  0.00    -0.234 N 
HETATM   23  C10 UNL     1     -12.527  19.686   9.389  1.00  0.00     0.148 A 
ATOM     24  H8  UNL     1     -11.159  20.713  10.647  1.00  0.00     0.197 HD
BRANCH  23  25
HETATM   25  C11 UNL     1     -12.201  18.288   9.612  1.00  0.00     0.161 A 
HETATM   26  N9  UNL     1     -12.871  17.186   9.260  1.00  0.00    -0.240 N 
HETATM   27  O4  UNL     1     -12.227  16.120   9.617  1.00  0.00    -0.212 OA
ATOM     28  H9  UNL     1     -13.769  17.186   8.776  1.00  0.00     0.196 HD
HETATM   29  C12 UNL     1     -11.106  16.450  10.217  1.00  0.00     0.237 A 
HETATM   30  N11 UNL     1     -11.073  17.811  10.222  1.00  0.00    -0.314 N 
ATOM     31  H11 UNL     1     -10.328  18.384  10.618  1.00  0.00     0.170 HD
BRANCH  29  32
HETATM   32  C13 UNL     1     -10.076  15.589  10.779  1.00  0.00     0.308 C 
HETATM   33  N10 UNL     1      -9.407  15.861  11.985  1.00  0.00    -0.054 NA
HETATM   34  O5  UNL     1      -9.790  14.551  10.132  1.00  0.00    -0.267 OA
ENDBRANCH  29  32
ENDBRANCH  23  25
ENDBRANCH  10  18
BRANCH   5  35
HETATM   35  C3  UNL     1     -17.764  17.988   7.888  1.00  0.00     0.351 C 
HETATM   36  O1  UNL     1     -18.594  18.884   8.153  1.00  0.00    -0.249 OA
HETATM   37  N2  UNL     1     -18.078  16.611   8.040  1.00  0.00    -0.284 NA
BRANCH  37  38
HETATM   38  N3  UNL     1     -18.357  15.411   8.175  1.00  0.00    -0.235 N 
ATOM     39  H3  UNL     1     -19.039  15.184   8.899  1.00  0.00     0.197 HD
BRANCH  38  40
HETATM   40  C4  UNL     1     -17.833  14.309   7.433  1.00  0.00     0.331 C 
BRANCH  40  41
HETATM   41  N4  UNL     1     -17.993  13.079   8.146  1.00  0.00    -0.054 N 
ATOM     42  H43 UNL     1     -17.942  13.221   9.154  1.00  0.00     0.277 HD
ATOM     43  H42 UNL     1     -18.950  12.732   8.085  1.00  0.00     0.277 HD
ATOM     44  H41 UNL     1     -17.321  12.379   7.832  1.00  0.00     0.277 HD
ENDBRANCH  40  41
BRANCH  40  45
HETATM   45  C5  UNL     1     -16.359  14.553   7.063  1.00  0.00     0.220 C 
BRANCH  45  46
HETATM   46  O2  UNL     1     -15.483  13.787   7.784  1.00  0.00    -0.397 OA
ATOM     47  H2  UNL     1     -14.728  13.504   7.283  1.00  0.00     0.209 HD
ENDBRANCH  45  46
ENDBRANCH  40  45
ENDBRANCH  38  40
ENDBRANCH  37  38
ENDBRANCH   5  35
BRANCH  12  48
HETATM   48  O6  UNL     1     -12.130  21.831   5.809  1.00  0.00    -0.392 OA
ATOM     49  H6  UNL     1     -12.467  21.819   6.698  1.00  0.00     0.210 HD
ENDBRANCH  12  48
BRANCH  13  50
HETATM   50  O7  UNL     1     -11.804  21.725   2.967  1.00  0.00    -0.390 OA
ATOM     51  H7  UNL     1     -11.047  22.280   3.119  1.00  0.00     0.210 HD
ENDBRANCH  13  50
BRANCH  14  52
HETATM   52  O8  UNL     1     -11.359  18.662   2.703  1.00  0.00    -0.391 OA
ATOM     53  H8  UNL     1     -11.528  18.544   1.776  1.00  0.00     0.210 HD
ENDBRANCH  14  52
TORSDOF 12
ENDMDL
MODEL 5
REMARK VINA RESULT: -7.293171460      3.373      6.813
REMARK  12 active torsions:
REMARK  status: ('A' for Active; 'I' for Inactive)
REMARK    1  A    between atoms: C2_5  and  C3_6 
REMARK       I    between atoms: C3_6  and  N2_8 
REMARK    2  A    between atoms: N2_8  and  N3_9 
REMARK    3  A    between atoms: N3_9  and  C4_11 
REMARK    4  A    between atoms: C4_11  and  N4_12 
REMARK    5  A    between atoms: C4_11  and  C5_16 
REMARK    6  A    between atoms: C5_16  and  O2_17 
REMARK    7  A    between atoms: N6_23  and  C9_24 
REMARK    8  A    between atoms: C10_30  and  C11_31 
REMARK    9  A    between atoms: C12_35  and  C13_36 
REMARK   10  A    between atoms: C15_42  and  O6_43 
REMARK   11  A    between atoms: C16_45  and  O7_46 
REMARK   12  A    between atoms: C17_48  and  O8_49 
ROOT
HETATM    1  N1  UNL     1     -15.339  18.540   7.581  1.00  0.00    -0.384 N 
ATOM      2  H11 UNL     1     -14.451  18.397   7.100  1.00  0.00     0.157 HD
ATOM      3  H12 UNL     1     -16.071  17.829   7.560  1.00  0.00     0.157 HD
HETATM    4  C1  UNL     1     -15.624  19.614   8.224  1.00  0.00     0.126 A 
HETATM    5  C2  UNL     1     -16.816  19.805   8.868  1.00  0.00     0.119 A 
HETATM    6  C6  UNL     1     -17.050  20.996   9.572  1.00  0.00     0.095 A 
HETATM    7  N5  UNL     1     -18.275  21.188  10.221  1.00  0.00    -0.099 NA
HETATM    8  C7  UNL     1     -16.036  21.946   9.583  1.00  0.00     0.078 A 
HETATM    9  C8  UNL     1     -14.842  21.731   8.927  1.00  0.00     0.057 A 
HETATM   10  N6  UNL     1     -14.646  20.567   8.252  1.00  0.00    -0.280 N 
HETATM   11  C14 UNL     1     -13.992  22.894   9.132  1.00  0.00     0.095 C 
HETATM   12  C15 UNL     1     -13.003  22.840  10.243  1.00  0.00     0.161 C 
HETATM   13  C16 UNL     1     -12.808  24.319  10.565  1.00  0.00     0.178 C 
HETATM   14  C17 UNL     1     -14.231  24.816  10.627  1.00  0.00     0.172 C 
HETATM   15  C18 UNL     1     -14.978  23.984   9.601  1.00  0.00     0.125 C 
HETATM   16  N12 UNL     1     -16.041  23.225  10.231  1.00  0.00    -0.379 N 
ATOM     17  H12 UNL     1     -16.662  23.535  10.978  1.00  0.00     0.160 HD
ENDROOT
BRANCH  10  18
HETATM   18  C9  UNL     1     -13.443  20.344   7.565  1.00  0.00     0.168 A 
HETATM   19  N7  UNL     1     -13.139  20.788   6.310  1.00  0.00    -0.223 N 
HETATM   20  O3  UNL     1     -11.972  20.411   5.969  1.00  0.00    -0.155 OA
ATOM     21  H7  UNL     1     -13.762  21.346   5.726  1.00  0.00     0.198 HD
HETATM   22  N8  UNL     1     -11.455  19.722   6.941  1.00  0.00    -0.234 N 
HETATM   23  C10 UNL     1     -12.345  19.652   7.973  1.00  0.00     0.148 A 
ATOM     24  H8  UNL     1     -10.528  19.297   6.933  1.00  0.00     0.197 HD
BRANCH  23  25
HETATM   25  C11 UNL     1     -12.150  18.955   9.233  1.00  0.00     0.161 A 
HETATM   26  N9  UNL     1     -12.598  19.257  10.456  1.00  0.00    -0.240 N 
HETATM   27  O4  UNL     1     -12.231  18.360  11.316  1.00  0.00    -0.212 OA
ATOM     28  H9  UNL     1     -13.154  20.082  10.681  1.00  0.00     0.196 HD
HETATM   29  C12 UNL     1     -11.528  17.423  10.719  1.00  0.00     0.237 A 
HETATM   30  N11 UNL     1     -11.468  17.782   9.408  1.00  0.00    -0.314 N 
ATOM     31  H11 UNL     1     -10.990  17.261   8.672  1.00  0.00     0.170 HD
BRANCH  29  32
HETATM   32  C13 UNL     1     -10.917  16.231  11.287  1.00  0.00     0.308 C 
HETATM   33  N10 UNL     1     -10.741  16.028  12.667  1.00  0.00    -0.054 NA
HETATM   34  O5  UNL     1     -10.536  15.348  10.477  1.00  0.00    -0.267 OA
ENDBRANCH  29  32
ENDBRANCH  23  25
ENDBRANCH  10  18
BRANCH   5  35
HETATM   35  C3  UNL     1     -17.875  18.817   8.899  1.00  0.00     0.351 C 
HETATM   36  O1  UNL     1     -18.431  18.553   7.811  1.00  0.00    -0.249 OA
HETATM   37  N2  UNL     1     -18.265  18.186  10.110  1.00  0.00    -0.284 NA
BRANCH  37  38
HETATM   38  N3  UNL     1     -18.611  17.632  11.164  1.00  0.00    -0.235 N 
ATOM     39  H3  UNL     1     -18.443  16.628  11.223  1.00  0.00     0.197 HD
BRANCH  38  40
HETATM   40  C4  UNL     1     -19.217  18.240  12.305  1.00  0.00     0.331 C 
BRANCH  40  41
HETATM   41  N4  UNL     1     -20.137  19.266  11.921  1.00  0.00    -0.054 N 
ATOM     42  H43 UNL     1     -20.815  18.925  11.239  1.00  0.00     0.277 HD
ATOM     43  H42 UNL     1     -20.780  19.495  12.678  1.00  0.00     0.277 HD
ATOM     44  H41 UNL     1     -19.649  20.094  11.581  1.00  0.00     0.277 HD
ENDBRANCH  40  41
BRANCH  40  45
HETATM   45  C5  UNL     1     -18.146  18.782  13.268  1.00  0.00     0.220 C 
BRANCH  45  46
HETATM   46  O2  UNL     1     -18.082  20.150  13.296  1.00  0.00    -0.397 OA
ATOM     47  H2  UNL     1     -18.752  20.548  13.838  1.00  0.00     0.209 HD
ENDBRANCH  45  46
ENDBRANCH  40  45
ENDBRANCH  38  40
ENDBRANCH  37  38
ENDBRANCH   5  35
BRANCH  12  48
HETATM   48  O6  UNL     1     -11.773  22.391   9.808  1.00  0.00    -0.392 OA
ATOM     49  H6  UNL     1     -11.644  21.471  10.009  1.00  0.00     0.210 HD
ENDBRANCH  12  48
BRANCH  13  50
HETATM   50  O7  UNL     1     -12.090  24.501  11.716  1.00  0.00    -0.390 OA
ATOM     51  H7  UNL     1     -12.147  25.396  12.031  1.00  0.00     0.210 HD
ENDBRANCH  13  50
BRANCH  14  52
HETATM   52  O8  UNL     1     -14.248  26.134  10.190  1.00  0.00    -0.391 OA
ATOM     53  H8  UNL     1     -14.330  26.696  10.951  1.00  0.00     0.210 HD
ENDBRANCH  14  52
TORSDOF 12
ENDMDL
