MODEL 1
REMARK VINA RESULT: -6.347271558      0.000      0.000
REMARK  14 active torsions:
REMARK  status: ('A' for Active; 'I' for Inactive)
REMARK    1  A    between atoms: C6_12  and  N4_13 
REMARK    2  A    between atoms: N4_13  and  C7_15 
REMARK    3  A    between atoms: N10_25  and  O1_26 
REMARK    4  A    between atoms: C12_31  and  O3_32 
REMARK    5  A    between atoms: C13_34  and  N11_35 
REMARK    6  A    between atoms: N11_35  and  C14_37 
REMARK    7  A    between atoms: C14_37  and  C15_38 
REMARK    8  A    between atoms: C14_37  and  C20_48 
REMARK    9  A    between atoms: C15_38  and  C16_39 
REMARK   10  A    between atoms: C16_39  and  C17_40 
REMARK   11  A    between atoms: C17_40  and  C18_42 
REMARK   12  A    between atoms: C18_42  and  N12_44 
REMARK   13  A    between atoms: C20_48  and  N13_49 
REMARK   14  A    between atoms: C20_48  and  O5_53 
ROOT
HETATM    1  C1  UNL     1     -17.675  18.772   9.969  1.00  0.00     0.025 C 
HETATM    2  C2  UNL     1     -16.606  19.171   9.288  1.00  0.00     0.002 C 
HETATM    3  C3  UNL     1     -16.334  20.628   9.350  1.00  0.00     0.119 A 
HETATM    4  N1  UNL     1     -17.532  21.207   9.568  1.00  0.00    -0.327 N 
ATOM      5  H1  UNL     1     -18.385  20.647   9.568  1.00  0.00     0.169 HD
HETATM    6  C4  UNL     1     -17.586  22.496   9.780  1.00  0.00     0.129 A 
HETATM    7  N2  UNL     1     -18.746  23.061   9.986  1.00  0.00    -0.384 N 
ATOM      8  H21 UNL     1     -18.788  24.066  10.152  1.00  0.00     0.157 HD
ATOM      9  H22 UNL     1     -19.611  22.521   9.988  1.00  0.00     0.157 HD
HETATM   10  C5  UNL     1     -16.423  23.223   9.778  1.00  0.00     0.134 A 
HETATM   11  N3  UNL     1     -16.557  24.601  10.020  1.00  0.00    -0.094 NA
HETATM   12  C6  UNL     1     -15.139  22.658   9.558  1.00  0.00     0.141 A 
HETATM   13  N8  UNL     1     -15.170  21.327   9.337  1.00  0.00    -0.295 N 
HETATM   14  C9  UNL     1     -13.867  20.877   8.976  1.00  0.00     0.225 C 
HETATM   15  N9  UNL     1     -13.448  21.548   7.693  1.00  0.00    -0.082 NA
HETATM   16  N10 UNL     1     -12.296  20.789   7.393  1.00  0.00    -0.129 N 
HETATM   17  C10 UNL     1     -12.471  19.438   7.882  1.00  0.00     0.270 C 
HETATM   18  O2  UNL     1     -11.640  18.524   7.910  1.00  0.00    -0.269 OA
HETATM   19  C11 UNL     1     -13.906  19.494   8.325  1.00  0.00     0.153 C 
HETATM   20  C12 UNL     1     -14.369  18.373   9.142  1.00  0.00     0.161 C 
HETATM   21  C13 UNL     1     -15.810  18.147   8.630  1.00  0.00     0.143 C 
ENDROOT
BRANCH  21  22
HETATM   22  N11 UNL     1     -16.218  16.828   8.636  1.00  0.00    -0.402 N 
ATOM     23  H11 UNL     1     -16.332  16.319   9.513  1.00  0.00     0.154 HD
BRANCH  22  24
HETATM   24  C14 UNL     1     -16.484  16.177   7.345  1.00  0.00     0.133 C 
BRANCH  24  25
HETATM   25  C15 UNL     1     -16.337  17.126   6.217  1.00  0.00     0.036 C 
BRANCH  25  26
HETATM   26  C16 UNL     1     -16.905  16.602   4.938  1.00  0.00     0.083 C 
BRANCH  26  27
HETATM   27  C17 UNL     1     -15.955  16.837   3.793  1.00  0.00     0.156 C 
HETATM   28  O4  UNL     1     -15.911  17.922   3.271  1.00  0.00    -0.296 OA
BRANCH  27  29
HETATM   29  C18 UNL     1     -15.083  15.751   3.311  1.00  0.00     0.248 C 
HETATM   30  C19 UNL     1     -15.632  14.382   3.616  1.00  0.00     0.048 C 
BRANCH  29  31
HETATM   31  N12 UNL     1     -13.771  15.871   3.875  1.00  0.00    -0.069 N 
ATOM     32 3H12 UNL     1     -13.696  16.680   4.490  1.00  0.00     0.275 HD
ATOM     33 2H12 UNL     1     -13.585  15.140   4.562  1.00  0.00     0.275 HD
ATOM     34 1H12 UNL     1     -13.065  15.887   3.139  1.00  0.00     0.275 HD
ENDBRANCH  29  31
ENDBRANCH  27  29
ENDBRANCH  26  27
ENDBRANCH  25  26
ENDBRANCH  24  25
BRANCH  24  35
HETATM   35  C20 UNL     1     -15.443  15.101   7.269  1.00  0.00     0.338 C 
BRANCH  35  36
HETATM   36  N13 UNL     1     -15.536  13.765   7.638  1.00  0.00    -0.051 N 
ATOM     37 3H13 UNL     1     -15.515  13.764   8.658  1.00  0.00     0.277 HD
ATOM     38 2H13 UNL     1     -16.492  13.489   7.413  1.00  0.00     0.277 HD
ATOM     39 1H13 UNL     1     -14.953  12.978   7.354  1.00  0.00     0.277 HD
ENDBRANCH  35  36
BRANCH  35  40
HETATM   40  O5  UNL     1     -14.275  15.437   6.789  1.00  0.00    -0.368 OA
ATOM     41  H5  UNL     1     -13.989  14.995   5.998  1.00  0.00     0.212 HD
ENDBRANCH  35  40
ENDBRANCH  24  35
ENDBRANCH  22  24
ENDBRANCH  21  22
BRANCH  20  42
HETATM   42  O3  UNL     1     -13.622  17.239   8.941  1.00  0.00    -0.392 OA
ATOM     43  H3  UNL     1     -14.025  16.469   9.326  1.00  0.00     0.210 HD
ENDBRANCH  20  42
BRANCH  12  44
HETATM   44  N4  UNL     1     -14.090  23.516   9.683  1.00  0.00    -0.311 N 
ATOM     45  H4  UNL     1     -14.122  24.153   8.888  1.00  0.00     0.170 HD
BRANCH  44  46
HETATM   46  C7  UNL     1     -12.990  23.877  10.459  1.00  0.00     0.194 C 
HETATM   47  N5  UNL     1     -12.736  25.081  10.856  1.00  0.00    -0.346 N 
HETATM   48  C8  UNL     1     -11.523  25.083  11.637  1.00  0.00     0.259 C 
ATOM     49  H5  UNL     1     -13.305  25.903  10.649  1.00  0.00     0.163 HD
HETATM   50  N6  UNL     1     -11.163  23.701  11.815  1.00  0.00    -0.119 NA
HETATM   51  N7  UNL     1     -11.916  23.034  10.873  1.00  0.00    -0.274 N 
ATOM     52  H7  UNL     1     -11.734  22.091  10.529  1.00  0.00     0.185 HD
ENDBRANCH  44  46
ENDBRANCH  12  44
BRANCH  16  53
HETATM   53  O1  UNL     1     -11.231  21.300   6.743  1.00  0.00    -0.268 OA
ATOM     54  H1  UNL     1     -10.421  20.819   6.623  1.00  0.00     0.246 HD
ENDBRANCH  16  53
TORSDOF 14
ENDMDL
MODEL 2
REMARK VINA RESULT: -6.209271535      3.328      7.184
REMARK  14 active torsions:
REMARK  status: ('A' for Active; 'I' for Inactive)
REMARK    1  A    between atoms: C6_12  and  N4_13 
REMARK    2  A    between atoms: N4_13  and  C7_15 
REMARK    3  A    between atoms: N10_25  and  O1_26 
REMARK    4  A    between atoms: C12_31  and  O3_32 
REMARK    5  A    between atoms: C13_34  and  N11_35 
REMARK    6  A    between atoms: N11_35  and  C14_37 
REMARK    7  A    between atoms: C14_37  and  C15_38 
REMARK    8  A    between atoms: C14_37  and  C20_48 
REMARK    9  A    between atoms: C15_38  and  C16_39 
REMARK   10  A    between atoms: C16_39  and  C17_40 
REMARK   11  A    between atoms: C17_40  and  C18_42 
REMARK   12  A    between atoms: C18_42  and  N12_44 
REMARK   13  A    between atoms: C20_48  and  N13_49 
REMARK   14  A    between atoms: C20_48  and  O5_53 
ROOT
HETATM    1  C1  UNL     1     -19.098  20.123   8.945  1.00  0.00     0.025 C 
HETATM    2  C2  UNL     1     -17.901  20.585   9.291  1.00  0.00     0.002 C 
HETATM    3  C3  UNL     1     -16.755  19.801   8.770  1.00  0.00     0.119 A 
HETATM    4  N1  UNL     1     -17.225  18.548   8.602  1.00  0.00    -0.327 N 
ATOM      5  H1  UNL     1     -18.168  18.303   8.908  1.00  0.00     0.169 HD
HETATM    6  C4  UNL     1     -16.456  17.650   8.043  1.00  0.00     0.129 A 
HETATM    7  N2  UNL     1     -16.907  16.434   7.885  1.00  0.00    -0.384 N 
ATOM      8  H21 UNL     1     -16.308  15.733   7.449  1.00  0.00     0.157 HD
ATOM      9  H22 UNL     1     -17.844  16.167   8.186  1.00  0.00     0.157 HD
HETATM   10  C5  UNL     1     -15.196  18.008   7.639  1.00  0.00     0.134 A 
HETATM   11  N3  UNL     1     -14.429  16.993   7.039  1.00  0.00    -0.094 NA
HETATM   12  C6  UNL     1     -14.659  19.313   7.789  1.00  0.00     0.141 A 
HETATM   13  N8  UNL     1     -15.509  20.177   8.383  1.00  0.00    -0.295 N 
HETATM   14  C9  UNL     1     -14.837  21.409   8.630  1.00  0.00     0.225 C 
HETATM   15  N9  UNL     1     -13.688  21.167   9.577  1.00  0.00    -0.082 NA
HETATM   16  N10 UNL     1     -13.344  22.502   9.881  1.00  0.00    -0.129 N 
HETATM   17  C10 UNL     1     -14.533  23.325   9.835  1.00  0.00     0.270 C 
HETATM   18  O2  UNL     1     -14.613  24.554   9.929  1.00  0.00    -0.269 OA
HETATM   19  C11 UNL     1     -15.587  22.270   9.646  1.00  0.00     0.153 C 
HETATM   20  C12 UNL     1     -16.917  22.752   9.276  1.00  0.00     0.161 C 
HETATM   21  C13 UNL     1     -17.855  21.813  10.069  1.00  0.00     0.143 C 
ENDROOT
BRANCH  21  22
HETATM   22  N11 UNL     1     -19.020  22.410  10.510  1.00  0.00    -0.402 N 
ATOM     23  H11 UNL     1     -19.560  23.021   9.897  1.00  0.00     0.154 HD
BRANCH  22  24
HETATM   24  C14 UNL     1     -19.460  22.140  11.887  1.00  0.00     0.133 C 
BRANCH  24  25
HETATM   25  C15 UNL     1     -18.595  21.135  12.548  1.00  0.00     0.036 C 
BRANCH  25  26
HETATM   26  C16 UNL     1     -19.286  19.830  12.772  1.00  0.00     0.083 C 
BRANCH  26  27
HETATM   27  C17 UNL     1     -18.301  18.691  12.754  1.00  0.00     0.156 C 
HETATM   28  O4  UNL     1     -17.858  18.304  11.703  1.00  0.00    -0.296 OA
BRANCH  27  29
HETATM   29  C18 UNL     1     -17.877  18.050  14.013  1.00  0.00     0.248 C 
HETATM   30  C19 UNL     1     -19.035  17.518  14.815  1.00  0.00     0.048 C 
BRANCH  29  31
HETATM   31  N12 UNL     1     -17.126  18.968  14.817  1.00  0.00    -0.069 N 
ATOM     32 3H12 UNL     1     -16.367  19.400  14.290  1.00  0.00     0.275 HD
ATOM     33 2H12 UNL     1     -17.661  19.810  15.031  1.00  0.00     0.275 HD
ATOM     34 1H12 UNL     1     -16.787  18.509  15.663  1.00  0.00     0.275 HD
ENDBRANCH  29  31
ENDBRANCH  27  29
ENDBRANCH  26  27
ENDBRANCH  25  26
ENDBRANCH  24  25
BRANCH  24  35
HETATM   35  C20 UNL     1     -19.338  23.470  12.565  1.00  0.00     0.338 C 
BRANCH  35  36
HETATM   36  N13 UNL     1     -20.264  24.137  13.359  1.00  0.00    -0.051 N 
ATOM     37 3H13 UNL     1     -21.066  23.509  13.424  1.00  0.00     0.277 HD
ATOM     38 2H13 UNL     1     -19.869  24.128  14.300  1.00  0.00     0.277 HD
ATOM     39 1H13 UNL     1     -20.659  25.069  13.240  1.00  0.00     0.277 HD
ENDBRANCH  35  36
BRANCH  35  40
HETATM   40  O5  UNL     1     -18.213  24.116  12.409  1.00  0.00    -0.368 OA
ATOM     41  H5  UNL     1     -18.262  25.064  12.357  1.00  0.00     0.212 HD
ENDBRANCH  35  40
ENDBRANCH  24  35
ENDBRANCH  22  24
ENDBRANCH  21  22
BRANCH  20  42
HETATM   42  O3  UNL     1     -17.127  24.052   9.662  1.00  0.00    -0.392 OA
ATOM     43  H3  UNL     1     -17.088  24.159  10.605  1.00  0.00     0.210 HD
ENDBRANCH  20  42
BRANCH  12  44
HETATM   44  N4  UNL     1     -13.426  19.508   7.246  1.00  0.00    -0.311 N 
ATOM     45  H4  UNL     1     -12.739  19.311   7.974  1.00  0.00     0.170 HD
BRANCH  44  46
HETATM   46  C7  UNL     1     -12.722  19.868   6.099  1.00  0.00     0.194 C 
HETATM   47  N5  UNL     1     -12.755  19.213   4.984  1.00  0.00    -0.346 N 
HETATM   48  C8  UNL     1     -11.910  19.872   4.017  1.00  0.00     0.259 C 
ATOM     49  H5  UNL     1     -13.293  18.364   4.814  1.00  0.00     0.163 HD
HETATM   50  N6  UNL     1     -11.496  21.108   4.627  1.00  0.00    -0.119 NA
HETATM   51  N7  UNL     1     -11.786  20.937   5.963  1.00  0.00    -0.274 N 
ATOM     52  H7  UNL     1     -11.396  21.485   6.729  1.00  0.00     0.185 HD
ENDBRANCH  44  46
ENDBRANCH  12  44
BRANCH  16  53
HETATM   53  O1  UNL     1     -12.084  22.886  10.166  1.00  0.00    -0.268 OA
ATOM     54  H1  UNL     1     -11.879  23.520  10.843  1.00  0.00     0.246 HD
ENDBRANCH  16  53
TORSDOF 14
ENDMDL
MODEL 3
REMARK VINA RESULT: -6.186539912      1.151      1.363
REMARK  14 active torsions:
REMARK  status: ('A' for Active; 'I' for Inactive)
REMARK    1  A    between atoms: C6_12  and  N4_13 
REMARK    2  A    between atoms: N4_13  and  C7_15 
REMARK    3  A    between atoms: N10_25  and  O1_26 
REMARK    4  A    between atoms: C12_31  and  O3_32 
REMARK    5  A    between atoms: C13_34  and  N11_35 
REMARK    6  A    between atoms: N11_35  and  C14_37 
REMARK    7  A    between atoms: C14_37  and  C15_38 
REMARK    8  A    between atoms: C14_37  and  C20_48 
REMARK    9  A    between atoms: C15_38  and  C16_39 
REMARK   10  A    between atoms: C16_39  and  C17_40 
REMARK   11  A    between atoms: C17_40  and  C18_42 
REMARK   12  A    between atoms: C18_42  and  N12_44 
REMARK   13  A    between atoms: C20_48  and  N13_49 
REMARK   14  A    between atoms: C20_48  and  O5_53 
ROOT
HETATM    1  C1  UNL     1     -17.923  18.448  10.072  1.00  0.00     0.025 C 
HETATM    2  C2  UNL     1     -17.024  18.963   9.238  1.00  0.00     0.002 C 
HETATM    3  C3  UNL     1     -16.784  20.417   9.400  1.00  0.00     0.119 A 
HETATM    4  N1  UNL     1     -17.928  20.914   9.913  1.00  0.00    -0.327 N 
ATOM      5  H1  UNL     1     -18.749  20.317  10.022  1.00  0.00     0.169 HD
HETATM    6  C4  UNL     1     -17.972  22.172  10.268  1.00  0.00     0.129 A 
HETATM    7  N2  UNL     1     -19.081  22.658  10.759  1.00  0.00    -0.384 N 
ATOM      8  H21 UNL     1     -19.116  23.639  11.036  1.00  0.00     0.157 HD
ATOM      9  H22 UNL     1     -19.913  22.080  10.874  1.00  0.00     0.157 HD
HETATM   10  C5  UNL     1     -16.853  22.949  10.113  1.00  0.00     0.134 A 
HETATM   11  N3  UNL     1     -16.972  24.289  10.522  1.00  0.00    -0.094 NA
HETATM   12  C6  UNL     1     -15.626  22.471   9.582  1.00  0.00     0.141 A 
HETATM   13  N8  UNL     1     -15.666  21.169   9.231  1.00  0.00    -0.295 N 
HETATM   14  C9  UNL     1     -14.451  20.819   8.573  1.00  0.00     0.225 C 
HETATM   15  N9  UNL     1     -14.318  21.633   7.311  1.00  0.00    -0.082 NA
HETATM   16  N10 UNL     1     -13.231  20.963   6.709  1.00  0.00    -0.129 N 
HETATM   17  C10 UNL     1     -13.268  19.564   7.076  1.00  0.00     0.270 C 
HETATM   18  O2  UNL     1     -12.425  18.692   6.840  1.00  0.00    -0.269 OA
HETATM   19  C11 UNL     1     -14.585  19.507   7.799  1.00  0.00     0.153 C 
HETATM   20  C12 UNL     1     -14.843  18.290   8.566  1.00  0.00     0.161 C 
HETATM   21  C13 UNL     1     -16.351  18.048   8.330  1.00  0.00     0.143 C 
ENDROOT
BRANCH  21  22
HETATM   22  N11 UNL     1     -16.714  16.717   8.275  1.00  0.00    -0.402 N 
ATOM     23  H11 UNL     1     -16.650  16.122   9.102  1.00  0.00     0.154 HD
BRANCH  22  24
HETATM   24  C14 UNL     1     -17.197  16.180   6.995  1.00  0.00     0.133 C 
BRANCH  24  25
HETATM   25  C15 UNL     1     -16.815  17.053   5.860  1.00  0.00     0.036 C 
BRANCH  25  26
HETATM   26  C16 UNL     1     -16.120  16.313   4.765  1.00  0.00     0.083 C 
BRANCH  26  27
HETATM   27  C17 UNL     1     -14.684  16.752   4.647  1.00  0.00     0.156 C 
HETATM   28  O4  UNL     1     -13.820  16.111   5.190  1.00  0.00    -0.296 OA
BRANCH  27  29
HETATM   29  C18 UNL     1     -14.332  17.957   3.873  1.00  0.00     0.248 C 
HETATM   30  C19 UNL     1     -14.868  17.924   2.466  1.00  0.00     0.048 C 
BRANCH  29  31
HETATM   31  N12 UNL     1     -12.911  18.134   3.835  1.00  0.00    -0.069 N 
ATOM     32 3H12 UNL     1     -12.572  18.650   4.647  1.00  0.00     0.275 HD
ATOM     33 2H12 UNL     1     -12.415  17.257   3.995  1.00  0.00     0.275 HD
ATOM     34 1H12 UNL     1     -12.628  18.575   2.960  1.00  0.00     0.275 HD
ENDBRANCH  29  31
ENDBRANCH  27  29
ENDBRANCH  26  27
ENDBRANCH  25  26
ENDBRANCH  24  25
BRANCH  24  35
HETATM   35  C20 UNL     1     -16.517  14.849   6.889  1.00  0.00     0.338 C 
BRANCH  35  36
HETATM   36  N13 UNL     1     -15.290  14.449   7.404  1.00  0.00    -0.051 N 
ATOM     37 3H13 UNL     1     -14.600  14.720   6.702  1.00  0.00     0.277 HD
ATOM     38 2H13 UNL     1     -15.106  15.079   8.185  1.00  0.00     0.277 HD
ATOM     39 1H13 UNL     1     -14.998  13.526   7.726  1.00  0.00     0.277 HD
ENDBRANCH  35  36
BRANCH  35  40
HETATM   40  O5  UNL     1     -17.144  13.911   6.229  1.00  0.00    -0.368 OA
ATOM     41  H5  UNL     1     -17.412  13.143   6.719  1.00  0.00     0.212 HD
ENDBRANCH  35  40
ENDBRANCH  24  35
ENDBRANCH  22  24
ENDBRANCH  21  22
BRANCH  20  42
HETATM   42  O3  UNL     1     -14.123  17.218   8.101  1.00  0.00    -0.392 OA
ATOM     43  H3  UNL     1     -14.624  16.412   8.118  1.00  0.00     0.210 HD
ENDBRANCH  20  42
BRANCH  12  44
HETATM   44  N4  UNL     1     -14.596  23.361   9.588  1.00  0.00    -0.311 N 
ATOM     45  H4  UNL     1     -14.722  23.976   8.785  1.00  0.00     0.170 HD
BRANCH  44  46
HETATM   46  C7  UNL     1     -13.440  23.772  10.248  1.00  0.00     0.194 C 
HETATM   47  N5  UNL     1     -13.210  24.984  10.639  1.00  0.00    -0.346 N 
HETATM   48  C8  UNL     1     -11.921  25.042  11.284  1.00  0.00     0.259 C 
ATOM     49  H5  UNL     1     -13.842  25.775  10.511  1.00  0.00     0.163 HD
HETATM   50  N6  UNL     1     -11.469  23.681  11.395  1.00  0.00    -0.119 NA
HETATM   51  N7  UNL     1     -12.282  22.986  10.527  1.00  0.00    -0.274 N 
ATOM     52  H7  UNL     1     -12.089  22.060  10.146  1.00  0.00     0.185 HD
ENDBRANCH  44  46
ENDBRANCH  12  44
BRANCH  16  53
HETATM   53  O1  UNL     1     -12.334  21.586   5.919  1.00  0.00    -0.268 OA
ATOM     54  H1  UNL     1     -12.063  21.243   5.076  1.00  0.00     0.246 HD
ENDBRANCH  16  53
TORSDOF 14
ENDMDL
MODEL 4
REMARK VINA RESULT: -6.156036306      2.857      7.994
REMARK  14 active torsions:
REMARK  status: ('A' for Active; 'I' for Inactive)
REMARK    1  A    between atoms: C6_12  and  N4_13 
REMARK    2  A    between atoms: N4_13  and  C7_15 
REMARK    3  A    between atoms: N10_25  and  O1_26 
REMARK    4  A    between atoms: C12_31  and  O3_32 
REMARK    5  A    between atoms: C13_34  and  N11_35 
REMARK    6  A    between atoms: N11_35  and  C14_37 
REMARK    7  A    between atoms: C14_37  and  C15_38 
REMARK    8  A    between atoms: C14_37  and  C20_48 
REMARK    9  A    between atoms: C15_38  and  C16_39 
REMARK   10  A    between atoms: C16_39  and  C17_40 
REMARK   11  A    between atoms: C17_40  and  C18_42 
REMARK   12  A    between atoms: C18_42  and  N12_44 
REMARK   13  A    between atoms: C20_48  and  N13_49 
REMARK   14  A    between atoms: C20_48  and  O5_53 
ROOT
HETATM    1  C1  UNL     1     -15.593  17.949   9.087  1.00  0.00     0.025 C 
HETATM    2  C2  UNL     1     -14.821  18.136   8.021  1.00  0.00     0.002 C 
HETATM    3  C3  UNL     1     -15.069  17.200   6.898  1.00  0.00     0.119 A 
HETATM    4  N1  UNL     1     -15.567  16.083   7.467  1.00  0.00    -0.327 N 
ATOM      5  H1  UNL     1     -15.615  15.996   8.482  1.00  0.00     0.169 HD
HETATM    6  C4  UNL     1     -15.988  15.112   6.698  1.00  0.00     0.129 A 
HETATM    7  N2  UNL     1     -16.465  14.026   7.246  1.00  0.00    -0.384 N 
ATOM      8  H21 UNL     1     -16.793  13.269   6.647  1.00  0.00     0.157 HD
ATOM      9  H22 UNL     1     -16.520  13.917   8.258  1.00  0.00     0.157 HD
HETATM   10  C5  UNL     1     -15.914  15.258   5.337  1.00  0.00     0.134 A 
HETATM   11  N3  UNL     1     -16.391  14.177   4.574  1.00  0.00    -0.094 NA
HETATM   12  C6  UNL     1     -15.403  16.415   4.693  1.00  0.00     0.141 A 
HETATM   13  N8  UNL     1     -14.980  17.365   5.553  1.00  0.00    -0.295 N 
HETATM   14  C9  UNL     1     -14.348  18.415   4.827  1.00  0.00     0.225 C 
HETATM   15  N9  UNL     1     -13.137  17.866   4.115  1.00  0.00    -0.082 NA
HETATM   16  N10 UNL     1     -12.538  19.074   3.698  1.00  0.00    -0.129 N 
HETATM   17  C10 UNL     1     -12.828  20.112   4.664  1.00  0.00     0.270 C 
HETATM   18  O2  UNL     1     -12.575  21.319   4.586  1.00  0.00    -0.269 OA
HETATM   19  C11 UNL     1     -13.499  19.302   5.738  1.00  0.00     0.153 C 
HETATM   20  C12 UNL     1     -14.190  20.064   6.777  1.00  0.00     0.161 C 
HETATM   21  C13 UNL     1     -13.888  19.251   8.057  1.00  0.00     0.143 C 
ENDROOT
BRANCH  21  22
HETATM   22  N11 UNL     1     -13.749  20.016   9.199  1.00  0.00    -0.402 N 
ATOM     23  H11 UNL     1     -14.489  20.653   9.496  1.00  0.00     0.154 HD
BRANCH  22  24
HETATM   24  C14 UNL     1     -12.508  19.885   9.976  1.00  0.00     0.133 C 
BRANCH  24  25
HETATM   25  C15 UNL     1     -11.498  19.076   9.255  1.00  0.00     0.036 C 
BRANCH  25  26
HETATM   26  C16 UNL     1     -10.592  18.324  10.173  1.00  0.00     0.083 C 
BRANCH  26  27
HETATM   27  C17 UNL     1     -10.902  16.850  10.146  1.00  0.00     0.156 C 
HETATM   28  O4  UNL     1     -11.863  16.457   9.535  1.00  0.00    -0.296 OA
BRANCH  27  29
HETATM   29  C18 UNL     1     -10.037  15.891  10.858  1.00  0.00     0.248 C 
HETATM   30  C19 UNL     1      -9.862  14.596  10.110  1.00  0.00     0.048 C 
BRANCH  29  31
HETATM   31  N12 UNL     1     -10.559  15.617  12.164  1.00  0.00    -0.069 N 
ATOM     32 3H12 UNL     1     -11.408  16.150  12.352  1.00  0.00     0.275 HD
ATOM     33 2H12 UNL     1     -10.953  14.677  12.225  1.00  0.00     0.275 HD
ATOM     34 1H12 UNL     1      -9.845  15.776  12.875  1.00  0.00     0.275 HD
ENDBRANCH  29  31
ENDBRANCH  27  29
ENDBRANCH  26  27
ENDBRANCH  25  26
ENDBRANCH  24  25
BRANCH  24  35
HETATM   35  C20 UNL     1     -12.038  21.299  10.134  1.00  0.00     0.338 C 
BRANCH  35  36
HETATM   36  N13 UNL     1     -11.058  21.808  10.978  1.00  0.00    -0.051 N 
ATOM     37 3H13 UNL     1     -11.048  22.814  10.807  1.00  0.00     0.277 HD
ATOM     38 2H13 UNL     1     -11.442  21.723  11.919  1.00  0.00     0.277 HD
ATOM     39 1H13 UNL     1     -10.078  21.538  11.060  1.00  0.00     0.277 HD
ENDBRANCH  35  36
BRANCH  35  40
HETATM   40  O5  UNL     1     -12.610  22.203   9.383  1.00  0.00    -0.368 OA
ATOM     41  H5  UNL     1     -12.075  22.940   9.111  1.00  0.00     0.212 HD
ENDBRANCH  35  40
ENDBRANCH  24  35
ENDBRANCH  22  24
ENDBRANCH  21  22
BRANCH  20  42
HETATM   42  O3  UNL     1     -13.694  21.337   6.908  1.00  0.00    -0.392 OA
ATOM     43  H3  UNL     1     -12.797  21.344   7.220  1.00  0.00     0.210 HD
ENDBRANCH  20  42
BRANCH  12  44
HETATM   44  N4  UNL     1     -15.493  16.421   3.334  1.00  0.00    -0.311 N 
ATOM     45  H4  UNL     1     -16.347  16.920   3.089  1.00  0.00     0.170 HD
BRANCH  44  46
HETATM   46  C7  UNL     1     -14.890  16.020   2.144  1.00  0.00     0.194 C 
HETATM   47  N5  UNL     1     -15.101  14.885   1.561  1.00  0.00    -0.346 N 
HETATM   48  C8  UNL     1     -14.313  14.812   0.354  1.00  0.00     0.259 C 
ATOM     49  H5  UNL     1     -15.728  14.155   1.900  1.00  0.00     0.163 HD
HETATM   50  N6  UNL     1     -13.728  16.116   0.182  1.00  0.00    -0.119 NA
HETATM   51  N7  UNL     1     -13.885  16.719   1.410  1.00  0.00    -0.274 N 
ATOM     52  H7  UNL     1     -13.367  17.533   1.741  1.00  0.00     0.185 HD
ENDBRANCH  44  46
ENDBRANCH  12  44
BRANCH  16  53
HETATM   53  O1  UNL     1     -11.815  19.180   2.565  1.00  0.00    -0.268 OA
ATOM     54  H1  UNL     1     -12.007  19.819   1.889  1.00  0.00     0.246 HD
ENDBRANCH  16  53
TORSDOF 14
ENDMDL
MODEL 5
REMARK VINA RESULT: -6.100305710      1.427      1.925
REMARK  14 active torsions:
REMARK  status: ('A' for Active; 'I' for Inactive)
REMARK    1  A    between atoms: C6_12  and  N4_13 
REMARK    2  A    between atoms: N4_13  and  C7_15 
REMARK    3  A    between atoms: N10_25  and  O1_26 
REMARK    4  A    between atoms: C12_31  and  O3_32 
REMARK    5  A    between atoms: C13_34  and  N11_35 
REMARK    6  A    between atoms: N11_35  and  C14_37 
REMARK    7  A    between atoms: C14_37  and  C15_38 
REMARK    8  A    between atoms: C14_37  and  C20_48 
REMARK    9  A    between atoms: C15_38  and  C16_39 
REMARK   10  A    between atoms: C16_39  and  C17_40 
REMARK   11  A    between atoms: C17_40  and  C18_42 
REMARK   12  A    between atoms: C18_42  and  N12_44 
REMARK   13  A    between atoms: C20_48  and  N13_49 
REMARK   14  A    between atoms: C20_48  and  O5_53 
ROOT
HETATM    1  C1  UNL     1     -17.703  18.773   9.974  1.00  0.00     0.025 C 
HETATM    2  C2  UNL     1     -16.637  19.174   9.289  1.00  0.00     0.002 C 
HETATM    3  C3  UNL     1     -16.369  20.631   9.347  1.00  0.00     0.119 A 
HETATM    4  N1  UNL     1     -17.569  21.207   9.569  1.00  0.00    -0.327 N 
ATOM      5  H1  UNL     1     -18.420  20.645   9.573  1.00  0.00     0.169 HD
HETATM    6  C4  UNL     1     -17.626  22.497   9.779  1.00  0.00     0.129 A 
HETATM    7  N2  UNL     1     -18.787  23.058   9.989  1.00  0.00    -0.384 N 
ATOM      8  H21 UNL     1     -18.832  24.063  10.152  1.00  0.00     0.157 HD
ATOM      9  H22 UNL     1     -19.650  22.515   9.993  1.00  0.00     0.157 HD
HETATM   10  C5  UNL     1     -16.465  23.227   9.772  1.00  0.00     0.134 A 
HETATM   11  N3  UNL     1     -16.602  24.605  10.013  1.00  0.00    -0.094 NA
HETATM   12  C6  UNL     1     -15.181  22.666   9.548  1.00  0.00     0.141 A 
HETATM   13  N8  UNL     1     -15.208  21.334   9.330  1.00  0.00    -0.295 N 
HETATM   14  C9  UNL     1     -13.905  20.887   8.965  1.00  0.00     0.225 C 
HETATM   15  N9  UNL     1     -13.492  21.558   7.679  1.00  0.00    -0.082 NA
HETATM   16  N10 UNL     1     -12.339  20.802   7.376  1.00  0.00    -0.129 N 
HETATM   17  C10 UNL     1     -12.508  19.452   7.868  1.00  0.00     0.270 C 
HETATM   18  O2  UNL     1     -11.674  18.540   7.894  1.00  0.00    -0.269 OA
HETATM   19  C11 UNL     1     -13.942  19.504   8.316  1.00  0.00     0.153 C 
HETATM   20  C12 UNL     1     -14.398  18.382   9.136  1.00  0.00     0.161 C 
HETATM   21  C13 UNL     1     -15.841  18.151   8.629  1.00  0.00     0.143 C 
ENDROOT
BRANCH  21  22
HETATM   22  N11 UNL     1     -16.244  16.831   8.638  1.00  0.00    -0.402 N 
ATOM     23  H11 UNL     1     -16.349  16.321   9.516  1.00  0.00     0.154 HD
BRANCH  22  24
HETATM   24  C14 UNL     1     -16.520  16.180   7.349  1.00  0.00     0.133 C 
BRANCH  24  25
HETATM   25  C15 UNL     1     -16.444  17.143   6.226  1.00  0.00     0.036 C 
BRANCH  25  26
HETATM   26  C16 UNL     1     -17.784  17.633   5.787  1.00  0.00     0.083 C 
BRANCH  26  27
HETATM   27  C17 UNL     1     -17.845  19.137   5.823  1.00  0.00     0.156 C 
HETATM   28  O4  UNL     1     -18.815  19.682   6.283  1.00  0.00    -0.296 OA
BRANCH  27  29
HETATM   29  C18 UNL     1     -16.725  19.942   5.301  1.00  0.00     0.248 C 
HETATM   30  C19 UNL     1     -16.727  21.354   5.824  1.00  0.00     0.048 C 
BRANCH  29  31
HETATM   31  N12 UNL     1     -16.749  19.968   3.869  1.00  0.00    -0.069 N 
ATOM     32 3H12 UNL     1     -16.240  19.181   3.467  1.00  0.00     0.275 HD
ATOM     33 2H12 UNL     1     -17.676  19.754   3.501  1.00  0.00     0.275 HD
ATOM     34 1H12 UNL     1     -16.400  20.862   3.521  1.00  0.00     0.275 HD
ENDBRANCH  29  31
ENDBRANCH  27  29
ENDBRANCH  26  27
ENDBRANCH  25  26
ENDBRANCH  24  25
BRANCH  24  35
HETATM   35  C20 UNL     1     -15.440  15.147   7.235  1.00  0.00     0.338 C 
BRANCH  35  36
HETATM   36  N13 UNL     1     -15.455  13.816   7.634  1.00  0.00    -0.051 N 
ATOM     37 3H13 UNL     1     -14.633  13.702   8.227  1.00  0.00     0.277 HD
ATOM     38 2H13 UNL     1     -16.238  13.738   8.284  1.00  0.00     0.277 HD
ATOM     39 1H13 UNL     1     -15.494  12.973   7.061  1.00  0.00     0.277 HD
ENDBRANCH  35  36
BRANCH  35  40
HETATM   40  O5  UNL     1     -14.316  15.521   6.683  1.00  0.00    -0.368 OA
ATOM     41  H5  UNL     1     -13.518  15.137   7.026  1.00  0.00     0.212 HD
ENDBRANCH  35  40
ENDBRANCH  24  35
ENDBRANCH  22  24
ENDBRANCH  21  22
BRANCH  20  42
HETATM   42  O3  UNL     1     -13.649  17.250   8.934  1.00  0.00    -0.392 OA
ATOM     43  H3  UNL     1     -13.607  17.003   8.018  1.00  0.00     0.210 HD
ENDBRANCH  20  42
BRANCH  12  44
HETATM   44  N4  UNL     1     -14.133  23.527   9.669  1.00  0.00    -0.311 N 
ATOM     45  H4  UNL     1     -14.183  24.177   8.885  1.00  0.00     0.170 HD
BRANCH  44  46
HETATM   46  C7  UNL     1     -13.022  23.881  10.431  1.00  0.00     0.194 C 
HETATM   47  N5  UNL     1     -12.775  25.077  10.857  1.00  0.00    -0.346 N 
HETATM   48  C8  UNL     1     -11.545  25.073  11.611  1.00  0.00     0.259 C 
ATOM     49  H5  UNL     1     -13.360  25.895  10.688  1.00  0.00     0.163 HD
HETATM   50  N6  UNL     1     -11.162  23.691  11.740  1.00  0.00    -0.119 NA
HETATM   51  N7  UNL     1     -11.926  23.042  10.796  1.00  0.00    -0.274 N 
ATOM     52  H7  UNL     1     -11.740  22.112  10.420  1.00  0.00     0.185 HD
ENDBRANCH  44  46
ENDBRANCH  12  44
BRANCH  16  53
HETATM   53  O1  UNL     1     -11.278  21.315   6.722  1.00  0.00    -0.268 OA
ATOM     54  H1  UNL     1     -11.361  21.977   6.045  1.00  0.00     0.246 HD
ENDBRANCH  16  53
TORSDOF 14
ENDMDL
