MODEL 1
REMARK VINA RESULT: -8.143261845      0.000      0.000
REMARK  15 active torsions:
REMARK  status: ('A' for Active; 'I' for Inactive)
REMARK    1  A    between atoms: N1_2  and  C3_4 
REMARK    2  A    between atoms: C3_4  and  C4_5 
REMARK    3  A    between atoms: C4_5  and  C5_6 
REMARK    4  A    between atoms: C5_6  and  N2_7 
REMARK    5  A    between atoms: N2_7  and  C6_10 
REMARK    6  A    between atoms: C6_10  and  C7_11 
REMARK    7  A    between atoms: C7_11  and  C8_12 
REMARK    8  A    between atoms: C8_12  and  C9_13 
REMARK    9  A    between atoms: C9_13  and  N3_14 
REMARK   10  A    between atoms: N3_14  and  C10_16 
REMARK   11  A    between atoms: C11_19  and  O1_20 
REMARK   12  A    between atoms: C12_22  and  C13_23 
REMARK   13  A    between atoms: C13_23  and  C14_24 
REMARK   14  A    between atoms: C14_24  and  C15_25 
REMARK   15  A    between atoms: C15_25  and  N5_26 
ROOT
HETATM    1  C10 UNL     1     -20.232 -20.758 -44.805  1.00  0.00     0.680 A 
HETATM    2  N4  UNL     1     -19.135 -21.413 -45.209  1.00  0.00    -0.169 N 
ATOM      3  H4  UNL     1     -19.076 -21.973 -46.059  1.00  0.00     0.186 HD
HETATM    4  C11 UNL     1     -18.127 -21.230 -44.345  1.00  0.00     0.178 A 
HETATM    5  C12 UNL     1     -18.612 -20.409 -43.332  1.00  0.00     0.078 A 
HETATM    6  N8  UNL     1     -19.920 -20.141 -43.656  1.00  0.00    -0.191 N 
ATOM      7  H8  UNL     1     -20.556 -19.562 -43.108  1.00  0.00     0.184 HD
ENDROOT
BRANCH   1   8
HETATM    8  N3  UNL     1     -21.395 -20.697 -45.378  1.00  0.00    -0.226 N 
ATOM      9  H3  UNL     1     -21.524 -20.016 -46.128  1.00  0.00     0.177 HD
BRANCH   8  10
HETATM   10  C9  UNL     1     -22.509 -21.527 -45.024  1.00  0.00     0.138 C 
BRANCH  10  11
HETATM   11  C8  UNL     1     -23.615 -20.643 -44.548  1.00  0.00     0.022 C 
BRANCH  11  12
HETATM   12  C7  UNL     1     -23.885 -20.858 -43.091  1.00  0.00     0.029 C 
BRANCH  12  13
HETATM   13  C6  UNL     1     -23.167 -19.870 -42.245  1.00  0.00     0.232 C 
BRANCH  13  14
HETATM   14  N2  UNL     1     -23.627 -19.842 -40.880  1.00  0.00    -0.075 N 
ATOM     15  H22 UNL     1     -23.680 -18.883 -40.538  1.00  0.00     0.277 HD
ATOM     16  H21 UNL     1     -22.912 -20.209 -40.252  1.00  0.00     0.277 HD
BRANCH  14  17
HETATM   17  C5  UNL     1     -24.868 -20.516 -40.674  1.00  0.00     0.234 C 
BRANCH  17  18
HETATM   18  C4  UNL     1     -25.205 -20.643 -39.202  1.00  0.00     0.057 C 
BRANCH  18  19
HETATM   19  C3  UNL     1     -24.086 -20.095 -38.341  1.00  0.00     0.273 C 
BRANCH  19  20
HETATM   20  N1  UNL     1     -24.552 -19.391 -37.182  1.00  0.00     0.080 N 
HETATM   21  C1  UNL     1     -23.713 -19.592 -36.029  1.00  0.00     0.309 C 
HETATM   22  C2  UNL     1     -24.809 -17.997 -37.401  1.00  0.00     0.309 C 
ENDBRANCH  19  20
ENDBRANCH  18  19
ENDBRANCH  17  18
ENDBRANCH  14  17
ENDBRANCH  13  14
ENDBRANCH  12  13
ENDBRANCH  11  12
ENDBRANCH  10  11
ENDBRANCH   8  10
ENDBRANCH   1   8
BRANCH   4  23
HETATM   23  O1  UNL     1     -16.846 -21.794 -44.485  1.00  0.00    -0.344 OA
ATOM     24  H1  UNL     1     -16.610 -22.670 -44.206  1.00  0.00     0.219 HD
ENDBRANCH   4  23
BRANCH   5  25
HETATM   25  C13 UNL     1     -17.878 -19.881 -42.172  1.00  0.00     0.064 C 
BRANCH  25  26
HETATM   26  C14 UNL     1     -16.864 -20.699 -41.507  1.00  0.00     0.026 C 
BRANCH  26  27
HETATM   27  C15 UNL     1     -15.502 -20.143 -41.364  1.00  0.00     0.122 C 
BRANCH  27  28
HETATM   28  N5  UNL     1     -15.405 -18.825 -40.813  1.00  0.00    -0.367 N 
HETATM   29  C16 UNL     1     -14.333 -18.314 -40.344  1.00  0.00     0.196 C 
HETATM   30  N6  UNL     1     -14.349 -17.000 -39.824  1.00  0.00    -0.067 NA
HETATM   31  N7  UNL     1     -13.139 -19.069 -40.351  1.00  0.00    -0.067 NA
ATOM     32  H5  UNL     1     -16.250 -18.255 -40.794  1.00  0.00     0.161 HD
ENDBRANCH  27  28
ENDBRANCH  26  27
ENDBRANCH  25  26
ENDBRANCH   5  25
TORSDOF 15
ENDMDL
MODEL 2
REMARK VINA RESULT: -8.051175154      2.017      2.654
REMARK  15 active torsions:
REMARK  status: ('A' for Active; 'I' for Inactive)
REMARK    1  A    between atoms: N1_2  and  C3_4 
REMARK    2  A    between atoms: C3_4  and  C4_5 
REMARK    3  A    between atoms: C4_5  and  C5_6 
REMARK    4  A    between atoms: C5_6  and  N2_7 
REMARK    5  A    between atoms: N2_7  and  C6_10 
REMARK    6  A    between atoms: C6_10  and  C7_11 
REMARK    7  A    between atoms: C7_11  and  C8_12 
REMARK    8  A    between atoms: C8_12  and  C9_13 
REMARK    9  A    between atoms: C9_13  and  N3_14 
REMARK   10  A    between atoms: N3_14  and  C10_16 
REMARK   11  A    between atoms: C11_19  and  O1_20 
REMARK   12  A    between atoms: C12_22  and  C13_23 
REMARK   13  A    between atoms: C13_23  and  C14_24 
REMARK   14  A    between atoms: C14_24  and  C15_25 
REMARK   15  A    between atoms: C15_25  and  N5_26 
ROOT
HETATM    1  C10 UNL     1     -21.550 -19.931 -43.770  1.00  0.00     0.680 A 
HETATM    2  N4  UNL     1     -21.415 -20.074 -45.094  1.00  0.00    -0.169 N 
ATOM      3  H4  UNL     1     -22.176 -19.983 -45.767  1.00  0.00     0.186 HD
HETATM    4  C11 UNL     1     -20.144 -20.354 -45.415  1.00  0.00     0.178 A 
HETATM    5  C12 UNL     1     -19.429 -20.389 -44.222  1.00  0.00     0.078 A 
HETATM    6  N8  UNL     1     -20.339 -20.122 -43.228  1.00  0.00    -0.191 N 
ATOM      7  H8  UNL     1     -20.126 -20.076 -42.231  1.00  0.00     0.184 HD
ENDROOT
BRANCH   1   8
HETATM    8  N3  UNL     1     -22.622 -19.657 -43.091  1.00  0.00    -0.226 N 
ATOM      9  H3  UNL     1     -22.517 -19.134 -42.220  1.00  0.00     0.177 HD
BRANCH   8  10
HETATM   10  C9  UNL     1     -23.945 -20.042 -43.488  1.00  0.00     0.138 C 
BRANCH  10  11
HETATM   11  C8  UNL     1     -24.416 -21.113 -42.560  1.00  0.00     0.022 C 
BRANCH  11  12
HETATM   12  C7  UNL     1     -24.596 -20.581 -41.172  1.00  0.00     0.029 C 
BRANCH  12  13
HETATM   13  C6  UNL     1     -25.523 -21.424 -40.374  1.00  0.00     0.232 C 
BRANCH  13  14
HETATM   14  N2  UNL     1     -25.717 -20.948 -39.028  1.00  0.00    -0.075 N 
ATOM     15  H22 UNL     1     -25.047 -21.383 -38.394  1.00  0.00     0.277 HD
ATOM     16  H21 UNL     1     -26.585 -21.316 -38.639  1.00  0.00     0.277 HD
BRANCH  14  17
HETATM   17  C5  UNL     1     -25.674 -19.528 -38.906  1.00  0.00     0.234 C 
BRANCH  17  18
HETATM   18  C4  UNL     1     -24.772 -19.085 -37.771  1.00  0.00     0.057 C 
BRANCH  18  19
HETATM   19  C3  UNL     1     -23.548 -19.971 -37.675  1.00  0.00     0.273 C 
BRANCH  19  20
HETATM   20  N1  UNL     1     -23.042 -20.102 -36.340  1.00  0.00     0.080 N 
HETATM   21  C1  UNL     1     -21.682 -19.647 -36.208  1.00  0.00     0.309 C 
HETATM   22  C2  UNL     1     -23.882 -19.526 -35.330  1.00  0.00     0.309 C 
ENDBRANCH  19  20
ENDBRANCH  18  19
ENDBRANCH  17  18
ENDBRANCH  14  17
ENDBRANCH  13  14
ENDBRANCH  12  13
ENDBRANCH  11  12
ENDBRANCH  10  11
ENDBRANCH   8  10
ENDBRANCH   1   8
BRANCH   4  23
HETATM   23  O1  UNL     1     -19.682 -20.569 -46.726  1.00  0.00    -0.344 OA
ATOM     24  H1  UNL     1     -18.947 -20.112 -47.119  1.00  0.00     0.219 HD
ENDBRANCH   4  23
BRANCH   5  25
HETATM   25  C13 UNL     1     -17.986 -20.611 -44.044  1.00  0.00     0.064 C 
BRANCH  25  26
HETATM   26  C14 UNL     1     -17.478 -21.202 -42.806  1.00  0.00     0.026 C 
BRANCH  26  27
HETATM   27  C15 UNL     1     -16.510 -20.423 -42.006  1.00  0.00     0.122 C 
BRANCH  27  28
HETATM   28  N5  UNL     1     -15.859 -21.120 -40.937  1.00  0.00    -0.367 N 
HETATM   29  C16 UNL     1     -16.288 -21.165 -39.736  1.00  0.00     0.196 C 
HETATM   30  N6  UNL     1     -15.565 -21.885 -38.757  1.00  0.00    -0.067 NA
HETATM   31  N7  UNL     1     -17.484 -20.496 -39.397  1.00  0.00    -0.067 NA
ATOM     32  H5  UNL     1     -14.992 -21.613 -41.151  1.00  0.00     0.161 HD
ENDBRANCH  27  28
ENDBRANCH  26  27
ENDBRANCH  25  26
ENDBRANCH   5  25
TORSDOF 15
ENDMDL
MODEL 3
REMARK VINA RESULT: -8.009524991      2.103      3.093
REMARK  15 active torsions:
REMARK  status: ('A' for Active; 'I' for Inactive)
REMARK    1  A    between atoms: N1_2  and  C3_4 
REMARK    2  A    between atoms: C3_4  and  C4_5 
REMARK    3  A    between atoms: C4_5  and  C5_6 
REMARK    4  A    between atoms: C5_6  and  N2_7 
REMARK    5  A    between atoms: N2_7  and  C6_10 
REMARK    6  A    between atoms: C6_10  and  C7_11 
REMARK    7  A    between atoms: C7_11  and  C8_12 
REMARK    8  A    between atoms: C8_12  and  C9_13 
REMARK    9  A    between atoms: C9_13  and  N3_14 
REMARK   10  A    between atoms: N3_14  and  C10_16 
REMARK   11  A    between atoms: C11_19  and  O1_20 
REMARK   12  A    between atoms: C12_22  and  C13_23 
REMARK   13  A    between atoms: C13_23  and  C14_24 
REMARK   14  A    between atoms: C14_24  and  C15_25 
REMARK   15  A    between atoms: C15_25  and  N5_26 
ROOT
HETATM    1  C10 UNL     1     -21.492 -19.837 -43.676  1.00  0.00     0.680 A 
HETATM    2  N4  UNL     1     -21.388 -19.943 -45.007  1.00  0.00    -0.169 N 
ATOM      3  H4  UNL     1     -22.156 -19.795 -45.662  1.00  0.00     0.186 HD
HETATM    4  C11 UNL     1     -20.137 -20.269 -45.361  1.00  0.00     0.178 A 
HETATM    5  C12 UNL     1     -19.403 -20.375 -44.184  1.00  0.00     0.078 A 
HETATM    6  N8  UNL     1     -20.282 -20.100 -43.164  1.00  0.00    -0.191 N 
ATOM      7  H8  UNL     1     -20.049 -20.097 -42.171  1.00  0.00     0.184 HD
ENDROOT
BRANCH   1   8
HETATM    8  N3  UNL     1     -22.538 -19.536 -42.968  1.00  0.00    -0.226 N 
ATOM      9  H3  UNL     1     -22.412 -18.920 -42.165  1.00  0.00     0.177 HD
BRANCH   8  10
HETATM   10  C9  UNL     1     -23.861 -20.017 -43.246  1.00  0.00     0.138 C 
BRANCH  10  11
HETATM   11  C8  UNL     1     -24.265 -20.934 -42.139  1.00  0.00     0.022 C 
BRANCH  11  12
HETATM   12  C7  UNL     1     -24.506 -20.173 -40.872  1.00  0.00     0.029 C 
BRANCH  12  13
HETATM   13  C6  UNL     1     -25.456 -20.882 -39.975  1.00  0.00     0.232 C 
BRANCH  13  14
HETATM   14  N2  UNL     1     -25.098 -20.801 -38.582  1.00  0.00    -0.075 N 
ATOM     15  H22 UNL     1     -24.466 -21.560 -38.330  1.00  0.00     0.277 HD
ATOM     16  H21 UNL     1     -25.896 -21.039 -37.993  1.00  0.00     0.277 HD
BRANCH  14  17
HETATM   17  C5  UNL     1     -24.549 -19.542 -38.199  1.00  0.00     0.234 C 
BRANCH  17  18
HETATM   18  C4  UNL     1     -25.626 -18.552 -37.803  1.00  0.00     0.057 C 
BRANCH  18  19
HETATM   19  C3  UNL     1     -25.213 -17.136 -38.146  1.00  0.00     0.273 C 
BRANCH  19  20
HETATM   20  N1  UNL     1     -26.176 -16.440 -38.948  1.00  0.00     0.080 N 
HETATM   21  C1  UNL     1     -25.610 -15.323 -39.660  1.00  0.00     0.309 C 
HETATM   22  C2  UNL     1     -26.936 -17.283 -39.825  1.00  0.00     0.309 C 
ENDBRANCH  19  20
ENDBRANCH  18  19
ENDBRANCH  17  18
ENDBRANCH  14  17
ENDBRANCH  13  14
ENDBRANCH  12  13
ENDBRANCH  11  12
ENDBRANCH  10  11
ENDBRANCH   8  10
ENDBRANCH   1   8
BRANCH   4  23
HETATM   23  O1  UNL     1     -19.708 -20.462 -46.687  1.00  0.00    -0.344 OA
ATOM     24  H1  UNL     1     -19.878 -21.243 -47.199  1.00  0.00     0.219 HD
ENDBRANCH   4  23
BRANCH   5  25
HETATM   25  C13 UNL     1     -17.969 -20.668 -44.041  1.00  0.00     0.064 C 
BRANCH  25  26
HETATM   26  C14 UNL     1     -17.454 -21.243 -42.798  1.00  0.00     0.026 C 
BRANCH  26  27
HETATM   27  C15 UNL     1     -16.503 -20.444 -41.999  1.00  0.00     0.122 C 
BRANCH  27  28
HETATM   28  N5  UNL     1     -15.853 -21.119 -40.916  1.00  0.00    -0.367 N 
HETATM   29  C16 UNL     1     -16.292 -21.154 -39.718  1.00  0.00     0.196 C 
HETATM   30  N6  UNL     1     -15.569 -21.852 -38.724  1.00  0.00    -0.067 NA
HETATM   31  N7  UNL     1     -17.498 -20.493 -39.397  1.00  0.00    -0.067 NA
ATOM     32  H5  UNL     1     -14.979 -21.605 -41.116  1.00  0.00     0.161 HD
ENDBRANCH  27  28
ENDBRANCH  26  27
ENDBRANCH  25  26
ENDBRANCH   5  25
TORSDOF 15
ENDMDL
MODEL 4
REMARK VINA RESULT: -8.009412626      0.959      1.061
REMARK  15 active torsions:
REMARK  status: ('A' for Active; 'I' for Inactive)
REMARK    1  A    between atoms: N1_2  and  C3_4 
REMARK    2  A    between atoms: C3_4  and  C4_5 
REMARK    3  A    between atoms: C4_5  and  C5_6 
REMARK    4  A    between atoms: C5_6  and  N2_7 
REMARK    5  A    between atoms: N2_7  and  C6_10 
REMARK    6  A    between atoms: C6_10  and  C7_11 
REMARK    7  A    between atoms: C7_11  and  C8_12 
REMARK    8  A    between atoms: C8_12  and  C9_13 
REMARK    9  A    between atoms: C9_13  and  N3_14 
REMARK   10  A    between atoms: N3_14  and  C10_16 
REMARK   11  A    between atoms: C11_19  and  O1_20 
REMARK   12  A    between atoms: C12_22  and  C13_23 
REMARK   13  A    between atoms: C13_23  and  C14_24 
REMARK   14  A    between atoms: C14_24  and  C15_25 
REMARK   15  A    between atoms: C15_25  and  N5_26 
ROOT
HETATM    1  C10 UNL     1     -19.748 -20.344 -44.033  1.00  0.00     0.680 A 
HETATM    2  N4  UNL     1     -18.987 -21.172 -44.761  1.00  0.00    -0.169 N 
ATOM      3  H4  UNL     1     -19.260 -21.571 -45.658  1.00  0.00     0.186 HD
HETATM    4  C11 UNL     1     -17.817 -21.404 -44.148  1.00  0.00     0.178 A 
HETATM    5  C12 UNL     1     -17.837 -20.678 -42.961  1.00  0.00     0.078 A 
HETATM    6  N8  UNL     1     -19.052 -20.037 -42.930  1.00  0.00    -0.191 N 
ATOM      7  H8  UNL     1     -19.375 -19.422 -42.182  1.00  0.00     0.184 HD
ENDROOT
BRANCH   1   8
HETATM    8  N3  UNL     1     -20.936 -19.893 -44.301  1.00  0.00    -0.226 N 
ATOM      9  H3  UNL     1     -21.061 -19.353 -45.158  1.00  0.00     0.177 HD
BRANCH   8  10
HETATM   10  C9  UNL     1     -22.082 -20.104 -43.465  1.00  0.00     0.138 C 
BRANCH  10  11
HETATM   11  C8  UNL     1     -23.118 -20.818 -44.270  1.00  0.00     0.022 C 
BRANCH  11  12
HETATM   12  C7  UNL     1     -24.244 -21.286 -43.401  1.00  0.00     0.029 C 
BRANCH  12  13
HETATM   13  C6  UNL     1     -24.221 -20.632 -42.067  1.00  0.00     0.232 C 
BRANCH  13  14
HETATM   14  N2  UNL     1     -25.041 -21.297 -41.087  1.00  0.00    -0.075 N 
ATOM     15  H22 UNL     1     -24.608 -22.171 -40.790  1.00  0.00     0.277 HD
ATOM     16  H21 UNL     1     -25.889 -21.664 -41.519  1.00  0.00     0.277 HD
BRANCH  14  17
HETATM   17  C5  UNL     1     -25.362 -20.488 -39.957  1.00  0.00     0.234 C 
BRANCH  17  18
HETATM   18  C4  UNL     1     -24.177 -19.662 -39.497  1.00  0.00     0.057 C 
BRANCH  18  19
HETATM   19  C3  UNL     1     -23.695 -20.117 -38.136  1.00  0.00     0.273 C 
BRANCH  19  20
HETATM   20  N1  UNL     1     -24.369 -19.471 -37.048  1.00  0.00     0.080 N 
HETATM   21  C1  UNL     1     -23.686 -19.632 -35.790  1.00  0.00     0.309 C 
HETATM   22  C2  UNL     1     -24.698 -18.095 -37.288  1.00  0.00     0.309 C 
ENDBRANCH  19  20
ENDBRANCH  18  19
ENDBRANCH  17  18
ENDBRANCH  14  17
ENDBRANCH  13  14
ENDBRANCH  12  13
ENDBRANCH  11  12
ENDBRANCH  10  11
ENDBRANCH   8  10
ENDBRANCH   1   8
BRANCH   4  23
HETATM   23  O1  UNL     1     -16.804 -22.237 -44.654  1.00  0.00    -0.344 OA
ATOM     24  H1  UNL     1     -16.074 -22.567 -44.144  1.00  0.00     0.219 HD
ENDBRANCH   4  23
BRANCH   5  25
HETATM   25  C13 UNL     1     -16.767 -20.564 -41.958  1.00  0.00     0.064 C 
BRANCH  25  26
HETATM   26  C14 UNL     1     -17.074 -20.114 -40.600  1.00  0.00     0.026 C 
BRANCH  26  27
HETATM   27  C15 UNL     1     -15.951 -19.728 -39.721  1.00  0.00     0.122 C 
BRANCH  27  28
HETATM   28  N5  UNL     1     -15.388 -18.429 -39.938  1.00  0.00    -0.367 N 
HETATM   29  C16 UNL     1     -14.168 -18.211 -40.243  1.00  0.00     0.196 C 
HETATM   30  N6  UNL     1     -13.717 -16.884 -40.436  1.00  0.00    -0.067 NA
HETATM   31  N7  UNL     1     -13.279 -19.298 -40.385  1.00  0.00    -0.067 NA
ATOM     32  H5  UNL     1     -16.006 -17.622 -39.843  1.00  0.00     0.161 HD
ENDBRANCH  27  28
ENDBRANCH  26  27
ENDBRANCH  25  26
ENDBRANCH   5  25
TORSDOF 15
ENDMDL
MODEL 5
REMARK VINA RESULT: -7.974127383      2.237      3.655
REMARK  15 active torsions:
REMARK  status: ('A' for Active; 'I' for Inactive)
REMARK    1  A    between atoms: N1_2  and  C3_4 
REMARK    2  A    between atoms: C3_4  and  C4_5 
REMARK    3  A    between atoms: C4_5  and  C5_6 
REMARK    4  A    between atoms: C5_6  and  N2_7 
REMARK    5  A    between atoms: N2_7  and  C6_10 
REMARK    6  A    between atoms: C6_10  and  C7_11 
REMARK    7  A    between atoms: C7_11  and  C8_12 
REMARK    8  A    between atoms: C8_12  and  C9_13 
REMARK    9  A    between atoms: C9_13  and  N3_14 
REMARK   10  A    between atoms: N3_14  and  C10_16 
REMARK   11  A    between atoms: C11_19  and  O1_20 
REMARK   12  A    between atoms: C12_22  and  C13_23 
REMARK   13  A    between atoms: C13_23  and  C14_24 
REMARK   14  A    between atoms: C14_24  and  C15_25 
REMARK   15  A    between atoms: C15_25  and  N5_26 
ROOT
HETATM    1  C10 UNL     1     -20.274 -20.868 -44.936  1.00  0.00     0.680 A 
HETATM    2  N4  UNL     1     -19.142 -21.493 -45.285  1.00  0.00    -0.169 N 
ATOM      3  H4  UNL     1     -19.038 -22.086 -46.108  1.00  0.00     0.186 HD
HETATM    4  C11 UNL     1     -18.164 -21.232 -44.405  1.00  0.00     0.178 A 
HETATM    5  C12 UNL     1     -18.709 -20.390 -43.441  1.00  0.00     0.078 A 
HETATM    6  N8  UNL     1     -20.017 -20.191 -43.808  1.00  0.00    -0.191 N 
ATOM      7  H8  UNL     1     -20.691 -19.616 -43.301  1.00  0.00     0.184 HD
ENDROOT
BRANCH   1   8
HETATM    8  N3  UNL     1     -21.423 -20.880 -45.539  1.00  0.00    -0.226 N 
ATOM      9  H3  UNL     1     -21.528 -20.313 -46.382  1.00  0.00     0.177 HD
BRANCH   8  10
HETATM   10  C9  UNL     1     -22.555 -21.640 -45.095  1.00  0.00     0.138 C 
BRANCH  10  11
HETATM   11  C8  UNL     1     -23.587 -20.686 -44.590  1.00  0.00     0.022 C 
BRANCH  11  12
HETATM   12  C7  UNL     1     -24.203 -21.185 -43.319  1.00  0.00     0.029 C 
BRANCH  12  13
HETATM   13  C6  UNL     1     -23.818 -20.348 -42.153  1.00  0.00     0.232 C 
BRANCH  13  14
HETATM   14  N2  UNL     1     -22.963 -19.241 -42.500  1.00  0.00    -0.075 N 
ATOM     15  H22 UNL     1     -22.857 -19.172 -43.511  1.00  0.00     0.277 HD
ATOM     16  H21 UNL     1     -21.996 -19.439 -42.239  1.00  0.00     0.277 HD
BRANCH  14  17
HETATM   17  C5  UNL     1     -23.384 -17.993 -41.953  1.00  0.00     0.234 C 
BRANCH  17  18
HETATM   18  C4  UNL     1     -22.961 -16.824 -42.821  1.00  0.00     0.057 C 
BRANCH  18  19
HETATM   19  C3  UNL     1     -22.296 -17.307 -44.093  1.00  0.00     0.273 C 
BRANCH  19  20
HETATM   20  N1  UNL     1     -21.364 -16.366 -44.641  1.00  0.00     0.080 N 
HETATM   21  C1  UNL     1     -21.628 -15.011 -44.232  1.00  0.00     0.309 C 
HETATM   22  C2  UNL     1     -19.986 -16.711 -44.438  1.00  0.00     0.309 C 
ENDBRANCH  19  20
ENDBRANCH  18  19
ENDBRANCH  17  18
ENDBRANCH  14  17
ENDBRANCH  13  14
ENDBRANCH  12  13
ENDBRANCH  11  12
ENDBRANCH  10  11
ENDBRANCH   8  10
ENDBRANCH   1   8
BRANCH   4  23
HETATM   23  O1  UNL     1     -16.858 -21.746 -44.490  1.00  0.00    -0.344 OA
ATOM     24  H1  UNL     1     -16.609 -22.627 -44.237  1.00  0.00     0.219 HD
ENDBRANCH   4  23
BRANCH   5  25
HETATM   25  C13 UNL     1     -18.027 -19.783 -42.288  1.00  0.00     0.064 C 
BRANCH  25  26
HETATM   26  C14 UNL     1     -17.057 -20.558 -41.513  1.00  0.00     0.026 C 
BRANCH  26  27
HETATM   27  C15 UNL     1     -15.648 -20.114 -41.514  1.00  0.00     0.122 C 
BRANCH  27  28
HETATM   28  N5  UNL     1     -15.401 -18.771 -41.084  1.00  0.00    -0.367 N 
HETATM   29  C16 UNL     1     -14.293 -18.358 -40.602  1.00  0.00     0.196 C 
HETATM   30  N6  UNL     1     -14.157 -17.007 -40.208  1.00  0.00    -0.067 NA
HETATM   31  N7  UNL     1     -13.213 -19.257 -40.466  1.00  0.00    -0.067 NA
ATOM     32  H5  UNL     1     -16.162 -18.098 -41.169  1.00  0.00     0.161 HD
ENDBRANCH  27  28
ENDBRANCH  26  27
ENDBRANCH  25  26
ENDBRANCH   5  25
TORSDOF 15
ENDMDL
