MODEL 1
REMARK VINA RESULT: -7.596034393      0.000      0.000
REMARK  15 active torsions:
REMARK  status: ('A' for Active; 'I' for Inactive)
REMARK    1  A    between atoms: N1_2  and  C2_5 
REMARK    2  A    between atoms: C2_5  and  C3_6 
REMARK    3  A    between atoms: C3_6  and  C4_7 
REMARK    4  A    between atoms: N3_13  and  C8_14 
REMARK    5  A    between atoms: C8_14  and  C9_15 
REMARK    6  A    between atoms: C9_15  and  C10_16 
REMARK    7  A    between atoms: C10_16  and  C11_17 
REMARK    8  A    between atoms: C11_17  and  N4_18 
REMARK    9  A    between atoms: N4_18  and  C12_19 
REMARK   10  A    between atoms: N4_18  and  C14_23 
REMARK   11  A    between atoms: C12_19  and  C13_20 
REMARK   12  A    between atoms: C13_20  and  O1_21 
REMARK   13  A    between atoms: C14_23  and  C15_24 
REMARK   14  A    between atoms: C15_24  and  O2_25 
REMARK   15  A    between atoms: C16_27  and  N5_28 
ROOT
HETATM    1  C4  UNL     1     -19.399 -20.881 -44.634  1.00  0.00     0.040 A 
HETATM    2  N2  UNL     1     -19.683 -21.802 -45.605  1.00  0.00    -0.367 N 
ATOM      3  H2  UNL     1     -18.912 -22.281 -46.071  1.00  0.00     0.165 HD
HETATM    4  C5  UNL     1     -20.944 -22.098 -45.967  1.00  0.00     0.090 A 
HETATM    5  C6  UNL     1     -22.062 -21.519 -45.414  1.00  0.00     0.050 A 
HETATM    6  C7  UNL     1     -21.874 -20.577 -44.427  1.00  0.00     0.082 A 
HETATM    7  N3  UNL     1     -22.694 -19.811 -43.689  1.00  0.00    -0.181 N 
HETATM    8  C16 UNL     1     -21.908 -19.055 -42.883  1.00  0.00     0.679 A 
HETATM    9  N6  UNL     1     -20.604 -19.327 -43.098  1.00  0.00    -0.188 N 
ATOM     10  H6  UNL     1     -19.825 -18.883 -42.611  1.00  0.00     0.184 HD
HETATM   11  C17 UNL     1     -20.481 -20.269 -44.047  1.00  0.00     0.099 A 
ENDROOT
BRANCH   7  12
HETATM   12  C8  UNL     1     -24.136 -19.775 -43.727  1.00  0.00     0.148 C 
BRANCH  12  13
HETATM   13  C9  UNL     1     -24.730 -20.992 -43.039  1.00  0.00     0.022 C 
BRANCH  13  14
HETATM   14  C10 UNL     1     -24.550 -20.878 -41.519  1.00  0.00     0.032 C 
BRANCH  14  15
HETATM   15  C11 UNL     1     -25.215 -19.605 -41.028  1.00  0.00     0.272 C 
BRANCH  15  16
HETATM   16  N4  UNL     1     -24.857 -19.267 -39.685  1.00  0.00     0.092 N 
BRANCH  16  17
HETATM   17  C12 UNL     1     -25.840 -18.380 -39.144  1.00  0.00     0.298 C 
BRANCH  17  18
HETATM   18  C13 UNL     1     -25.351 -17.118 -38.520  1.00  0.00     0.194 C 
BRANCH  18  19
HETATM   19  O1  UNL     1     -24.958 -17.132 -37.217  1.00  0.00    -0.399 OA
ATOM     20  H1  UNL     1     -25.616 -17.209 -36.536  1.00  0.00     0.209 HD
ENDBRANCH  18  19
ENDBRANCH  17  18
ENDBRANCH  16  17
BRANCH  16  21
HETATM   21  C14 UNL     1     -24.669 -20.411 -38.867  1.00  0.00     0.298 C 
BRANCH  21  22
HETATM   22  C15 UNL     1     -23.681 -20.345 -37.759  1.00  0.00     0.194 C 
BRANCH  22  23
HETATM   23  O2  UNL     1     -24.135 -20.890 -36.589  1.00  0.00    -0.399 OA
ATOM     24  H2  UNL     1     -24.000 -21.828 -36.529  1.00  0.00     0.209 HD
ENDBRANCH  22  23
ENDBRANCH  21  22
ENDBRANCH  16  21
ENDBRANCH  15  16
ENDBRANCH  14  15
ENDBRANCH  13  14
ENDBRANCH  12  13
ENDBRANCH   7  12
BRANCH   8  25
HETATM   25  N5  UNL     1     -22.355 -18.220 -42.049  1.00  0.00    -0.234 N 
ATOM     26  H52 UNL     1     -22.440 -17.216 -42.204  1.00  0.00     0.174 HD
ATOM     27  H51 UNL     1     -22.679 -18.469 -41.114  1.00  0.00     0.174 HD
ENDBRANCH   8  25
BRANCH   1  28
HETATM   28  C3  UNL     1     -17.994 -20.632 -44.258  1.00  0.00     0.087 C 
BRANCH  28  29
HETATM   29  C2  UNL     1     -17.655 -20.823 -42.828  1.00  0.00     0.237 C 
BRANCH  29  30
HETATM   30  N1  UNL     1     -16.315 -21.162 -42.505  1.00  0.00    -0.079 N 
HETATM   31  C1  UNL     1     -15.870 -20.287 -41.415  1.00  0.00     0.267 C 
ATOM     32  H12 UNL     1     -15.695 -21.128 -43.314  1.00  0.00     0.276 HD
ATOM     33  H11 UNL     1     -16.202 -22.152 -42.285  1.00  0.00     0.276 HD
ENDBRANCH  29  30
ENDBRANCH  28  29
ENDBRANCH   1  28
TORSDOF 15
ENDMDL
MODEL 2
REMARK VINA RESULT: -7.585526009      3.411      7.151
REMARK  15 active torsions:
REMARK  status: ('A' for Active; 'I' for Inactive)
REMARK    1  A    between atoms: N1_2  and  C2_5 
REMARK    2  A    between atoms: C2_5  and  C3_6 
REMARK    3  A    between atoms: C3_6  and  C4_7 
REMARK    4  A    between atoms: N3_13  and  C8_14 
REMARK    5  A    between atoms: C8_14  and  C9_15 
REMARK    6  A    between atoms: C9_15  and  C10_16 
REMARK    7  A    between atoms: C10_16  and  C11_17 
REMARK    8  A    between atoms: C11_17  and  N4_18 
REMARK    9  A    between atoms: N4_18  and  C12_19 
REMARK   10  A    between atoms: N4_18  and  C14_23 
REMARK   11  A    between atoms: C12_19  and  C13_20 
REMARK   12  A    between atoms: C13_20  and  O1_21 
REMARK   13  A    between atoms: C14_23  and  C15_24 
REMARK   14  A    between atoms: C15_24  and  O2_25 
REMARK   15  A    between atoms: C16_27  and  N5_28 
ROOT
HETATM    1  C4  UNL     1     -24.902 -19.694 -38.961  1.00  0.00     0.040 A 
HETATM    2  N2  UNL     1     -25.519 -20.911 -38.858  1.00  0.00    -0.367 N 
ATOM      3  H2  UNL     1     -25.839 -21.225 -37.941  1.00  0.00     0.165 HD
HETATM    4  C5  UNL     1     -25.717 -21.707 -39.922  1.00  0.00     0.090 A 
HETATM    5  C6  UNL     1     -25.330 -21.394 -41.204  1.00  0.00     0.050 A 
HETATM    6  C7  UNL     1     -24.699 -20.187 -41.406  1.00  0.00     0.082 A 
HETATM    7  N3  UNL     1     -24.180 -19.563 -42.476  1.00  0.00    -0.181 N 
HETATM    8  C16 UNL     1     -23.670 -18.386 -42.038  1.00  0.00     0.679 A 
HETATM    9  N6  UNL     1     -23.855 -18.253 -40.707  1.00  0.00    -0.188 N 
ATOM     10  H6  UNL     1     -23.555 -17.451 -40.153  1.00  0.00     0.184 HD
HETATM   11  C17 UNL     1     -24.492 -19.329 -40.222  1.00  0.00     0.099 A 
ENDROOT
BRANCH   7  12
HETATM   12  C8  UNL     1     -24.153 -20.032 -43.841  1.00  0.00     0.148 C 
BRANCH  12  13
HETATM   13  C9  UNL     1     -23.250 -21.246 -43.982  1.00  0.00     0.022 C 
BRANCH  13  14
HETATM   14  C10 UNL     1     -22.343 -21.086 -45.210  1.00  0.00     0.032 C 
BRANCH  14  15
HETATM   15  C11 UNL     1     -21.487 -19.844 -45.044  1.00  0.00     0.272 C 
BRANCH  15  16
HETATM   16  N4  UNL     1     -20.444 -20.005 -44.078  1.00  0.00     0.092 N 
BRANCH  16  17
HETATM   17  C12 UNL     1     -19.505 -20.973 -44.556  1.00  0.00     0.298 C 
BRANCH  17  18
HETATM   18  C13 UNL     1     -18.117 -20.900 -44.018  1.00  0.00     0.194 C 
BRANCH  18  19
HETATM   19  O1  UNL     1     -17.139 -21.644 -44.603  1.00  0.00    -0.399 OA
ATOM     20  H1  UNL     1     -16.262 -21.624 -44.239  1.00  0.00     0.209 HD
ENDBRANCH  18  19
ENDBRANCH  17  18
ENDBRANCH  16  17
BRANCH  16  21
HETATM   21  C14 UNL     1     -19.815 -18.778 -43.745  1.00  0.00     0.298 C 
BRANCH  21  22
HETATM   22  C15 UNL     1     -20.086 -17.582 -44.586  1.00  0.00     0.194 C 
BRANCH  22  23
HETATM   23  O2  UNL     1     -19.077 -17.292 -45.463  1.00  0.00    -0.399 OA
ATOM     24  H2  UNL     1     -18.409 -17.966 -45.510  1.00  0.00     0.209 HD
ENDBRANCH  22  23
ENDBRANCH  21  22
ENDBRANCH  16  21
ENDBRANCH  15  16
ENDBRANCH  14  15
ENDBRANCH  13  14
ENDBRANCH  12  13
ENDBRANCH   7  12
BRANCH   8  25
HETATM   25  N5  UNL     1     -23.108 -17.542 -42.788  1.00  0.00    -0.234 N 
ATOM     26  H52 UNL     1     -23.315 -16.543 -42.816  1.00  0.00     0.174 HD
ATOM     27  H51 UNL     1     -22.376 -17.776 -43.460  1.00  0.00     0.174 HD
ENDBRANCH   8  25
BRANCH   1  28
HETATM   28  C3  UNL     1     -24.750 -18.852 -37.758  1.00  0.00     0.087 C 
BRANCH  28  29
HETATM   29  C2  UNL     1     -24.210 -19.523 -36.553  1.00  0.00     0.237 C 
BRANCH  29  30
HETATM   30  N1  UNL     1     -23.147 -18.888 -35.861  1.00  0.00    -0.079 N 
HETATM   31  C1  UNL     1     -21.908 -19.614 -36.156  1.00  0.00     0.267 C 
ATOM     32  H12 UNL     1     -23.324 -18.803 -34.860  1.00  0.00     0.276 HD
ATOM     33  H11 UNL     1     -23.079 -17.892 -36.074  1.00  0.00     0.276 HD
ENDBRANCH  29  30
ENDBRANCH  28  29
ENDBRANCH   1  28
TORSDOF 15
ENDMDL
MODEL 3
REMARK VINA RESULT: -7.579749914      3.704      4.681
REMARK  15 active torsions:
REMARK  status: ('A' for Active; 'I' for Inactive)
REMARK    1  A    between atoms: N1_2  and  C2_5 
REMARK    2  A    between atoms: C2_5  and  C3_6 
REMARK    3  A    between atoms: C3_6  and  C4_7 
REMARK    4  A    between atoms: N3_13  and  C8_14 
REMARK    5  A    between atoms: C8_14  and  C9_15 
REMARK    6  A    between atoms: C9_15  and  C10_16 
REMARK    7  A    between atoms: C10_16  and  C11_17 
REMARK    8  A    between atoms: C11_17  and  N4_18 
REMARK    9  A    between atoms: N4_18  and  C12_19 
REMARK   10  A    between atoms: N4_18  and  C14_23 
REMARK   11  A    between atoms: C12_19  and  C13_20 
REMARK   12  A    between atoms: C13_20  and  O1_21 
REMARK   13  A    between atoms: C14_23  and  C15_24 
REMARK   14  A    between atoms: C15_24  and  O2_25 
REMARK   15  A    between atoms: C16_27  and  N5_28 
ROOT
HETATM    1  C4  UNL     1     -19.287 -20.751 -44.474  1.00  0.00     0.040 A 
HETATM    2  N2  UNL     1     -19.417 -21.439 -45.650  1.00  0.00    -0.367 N 
ATOM      3  H2  UNL     1     -18.575 -21.722 -46.152  1.00  0.00     0.165 HD
HETATM    4  C5  UNL     1     -20.617 -21.756 -46.166  1.00  0.00     0.090 A 
HETATM    5  C6  UNL     1     -21.820 -21.429 -45.584  1.00  0.00     0.050 A 
HETATM    6  C7  UNL     1     -21.788 -20.734 -44.396  1.00  0.00     0.082 A 
HETATM    7  N3  UNL     1     -22.724 -20.243 -43.568  1.00  0.00    -0.181 N 
HETATM    8  C16 UNL     1     -22.069 -19.630 -42.551  1.00  0.00     0.679 A 
HETATM    9  N6  UNL     1     -20.733 -19.723 -42.721  1.00  0.00    -0.188 N 
ATOM     10  H6  UNL     1     -20.035 -19.337 -42.086  1.00  0.00     0.184 HD
HETATM   11  C17 UNL     1     -20.459 -20.398 -43.848  1.00  0.00     0.099 A 
ENDROOT
BRANCH   7  12
HETATM   12  C8  UNL     1     -24.158 -20.332 -43.708  1.00  0.00     0.148 C 
BRANCH  12  13
HETATM   13  C9  UNL     1     -24.774 -18.955 -43.892  1.00  0.00     0.022 C 
BRANCH  13  14
HETATM   14  C10 UNL     1     -23.960 -18.146 -44.910  1.00  0.00     0.032 C 
BRANCH  14  15
HETATM   15  C11 UNL     1     -23.657 -16.774 -44.337  1.00  0.00     0.272 C 
BRANCH  15  16
HETATM   16  N4  UNL     1     -22.499 -16.166 -44.918  1.00  0.00     0.092 N 
BRANCH  16  17
HETATM   17  C12 UNL     1     -22.050 -15.105 -44.071  1.00  0.00     0.298 C 
BRANCH  17  18
HETATM   18  C13 UNL     1     -21.916 -13.753 -44.685  1.00  0.00     0.194 C 
BRANCH  18  19
HETATM   19  O1  UNL     1     -20.680 -13.301 -45.029  1.00  0.00    -0.399 OA
ATOM     20  H1  UNL     1     -20.082 -13.884 -45.482  1.00  0.00     0.209 HD
ENDBRANCH  18  19
ENDBRANCH  17  18
ENDBRANCH  16  17
BRANCH  16  21
HETATM   21  C14 UNL     1     -21.468 -17.103 -45.185  1.00  0.00     0.298 C 
BRANCH  21  22
HETATM   22  C15 UNL     1     -20.108 -16.848 -44.642  1.00  0.00     0.194 C 
BRANCH  22  23
HETATM   23  O2  UNL     1     -19.102 -17.207 -45.497  1.00  0.00    -0.399 OA
ATOM     24  H2  UNL     1     -18.233 -17.076 -45.136  1.00  0.00     0.209 HD
ENDBRANCH  22  23
ENDBRANCH  21  22
ENDBRANCH  16  21
ENDBRANCH  15  16
ENDBRANCH  14  15
ENDBRANCH  13  14
ENDBRANCH  12  13
ENDBRANCH   7  12
BRANCH   8  25
HETATM   25  N5  UNL     1     -22.648 -19.061 -41.585  1.00  0.00    -0.234 N 
ATOM     26  H52 UNL     1     -23.052 -18.125 -41.605  1.00  0.00     0.174 HD
ATOM     27  H51 UNL     1     -22.769 -19.486 -40.665  1.00  0.00     0.174 HD
ENDBRANCH   8  25
BRANCH   1  28
HETATM   28  C3  UNL     1     -17.939 -20.470 -43.943  1.00  0.00     0.087 C 
BRANCH  28  29
HETATM   29  C2  UNL     1     -17.582 -21.144 -42.672  1.00  0.00     0.237 C 
BRANCH  29  30
HETATM   30  N1  UNL     1     -16.216 -21.154 -42.290  1.00  0.00    -0.079 N 
HETATM   31  C1  UNL     1     -16.014 -20.112 -41.279  1.00  0.00     0.267 C 
ATOM     32  H12 UNL     1     -15.584 -21.059 -43.085  1.00  0.00     0.276 HD
ATOM     33  H11 UNL     1     -15.903 -22.073 -41.974  1.00  0.00     0.276 HD
ENDBRANCH  29  30
ENDBRANCH  28  29
ENDBRANCH   1  28
TORSDOF 15
ENDMDL
MODEL 4
REMARK VINA RESULT: -7.571596322      3.476      7.259
REMARK  15 active torsions:
REMARK  status: ('A' for Active; 'I' for Inactive)
REMARK    1  A    between atoms: N1_2  and  C2_5 
REMARK    2  A    between atoms: C2_5  and  C3_6 
REMARK    3  A    between atoms: C3_6  and  C4_7 
REMARK    4  A    between atoms: N3_13  and  C8_14 
REMARK    5  A    between atoms: C8_14  and  C9_15 
REMARK    6  A    between atoms: C9_15  and  C10_16 
REMARK    7  A    between atoms: C10_16  and  C11_17 
REMARK    8  A    between atoms: C11_17  and  N4_18 
REMARK    9  A    between atoms: N4_18  and  C12_19 
REMARK   10  A    between atoms: N4_18  and  C14_23 
REMARK   11  A    between atoms: C12_19  and  C13_20 
REMARK   12  A    between atoms: C13_20  and  O1_21 
REMARK   13  A    between atoms: C14_23  and  C15_24 
REMARK   14  A    between atoms: C15_24  and  O2_25 
REMARK   15  A    between atoms: C16_27  and  N5_28 
ROOT
HETATM    1  C4  UNL     1     -24.636 -19.400 -39.645  1.00  0.00     0.040 A 
HETATM    2  N2  UNL     1     -25.033 -18.150 -39.255  1.00  0.00    -0.367 N 
ATOM      3  H2  UNL     1     -25.344 -18.009 -38.293  1.00  0.00     0.165 HD
HETATM    4  C5  UNL     1     -25.027 -17.101 -40.095  1.00  0.00     0.090 A 
HETATM    5  C6  UNL     1     -24.632 -17.168 -41.411  1.00  0.00     0.050 A 
HETATM    6  C7  UNL     1     -24.216 -18.388 -41.894  1.00  0.00     0.082 A 
HETATM    7  N3  UNL     1     -23.788 -18.832 -43.087  1.00  0.00    -0.181 N 
HETATM    8  C16 UNL     1     -23.538 -20.157 -42.948  1.00  0.00     0.679 A 
HETATM    9  N6  UNL     1     -23.802 -20.562 -41.688  1.00  0.00    -0.188 N 
ATOM     10  H6  UNL     1     -23.691 -21.516 -41.345  1.00  0.00     0.184 HD
HETATM   11  C17 UNL     1     -24.231 -19.525 -40.952  1.00  0.00     0.099 A 
ENDROOT
BRANCH   7  12
HETATM   12  C8  UNL     1     -23.619 -18.069 -44.301  1.00  0.00     0.148 C 
BRANCH  12  13
HETATM   13  C9  UNL     1     -22.344 -17.244 -44.253  1.00  0.00     0.022 C 
BRANCH  13  14
HETATM   14  C10 UNL     1     -21.249 -17.919 -45.089  1.00  0.00     0.032 C 
BRANCH  14  15
HETATM   15  C11 UNL     1     -20.289 -18.647 -44.166  1.00  0.00     0.272 C 
BRANCH  15  16
HETATM   16  N4  UNL     1     -19.524 -19.655 -44.834  1.00  0.00     0.092 N 
BRANCH  16  17
HETATM   17  C12 UNL     1     -19.251 -20.722 -43.921  1.00  0.00     0.298 C 
BRANCH  17  18
HETATM   18  C13 UNL     1     -17.820 -21.036 -43.647  1.00  0.00     0.194 C 
BRANCH  18  19
HETATM   19  O1  UNL     1     -17.128 -21.802 -44.533  1.00  0.00    -0.399 OA
ATOM     20  H1  UNL     1     -16.180 -21.754 -44.545  1.00  0.00     0.209 HD
ENDBRANCH  18  19
ENDBRANCH  17  18
ENDBRANCH  16  17
BRANCH  16  21
HETATM   21  C14 UNL     1     -20.152 -20.120 -46.018  1.00  0.00     0.298 C 
BRANCH  21  22
HETATM   22  C15 UNL     1     -20.471 -21.567 -46.140  1.00  0.00     0.194 C 
BRANCH  22  23
HETATM   23  O2  UNL     1     -21.704 -21.811 -46.681  1.00  0.00    -0.399 OA
ATOM     24  H2  UNL     1     -21.805 -22.696 -47.011  1.00  0.00     0.209 HD
ENDBRANCH  22  23
ENDBRANCH  21  22
ENDBRANCH  16  21
ENDBRANCH  15  16
ENDBRANCH  14  15
ENDBRANCH  13  14
ENDBRANCH  12  13
ENDBRANCH   7  12
BRANCH   8  25
HETATM   25  N5  UNL     1     -23.112 -20.893 -43.881  1.00  0.00    -0.234 N 
ATOM     26  H52 UNL     1     -22.893 -20.582 -44.827  1.00  0.00     0.174 HD
ATOM     27  H51 UNL     1     -22.944 -21.894 -43.783  1.00  0.00     0.174 HD
ENDBRANCH   8  25
BRANCH   1  28
HETATM   28  C3  UNL     1     -24.630 -20.500 -38.660  1.00  0.00     0.087 C 
BRANCH  28  29
HETATM   29  C2  UNL     1     -23.899 -20.244 -37.397  1.00  0.00     0.237 C 
BRANCH  29  30
HETATM   30  N1  UNL     1     -22.483 -20.171 -37.454  1.00  0.00    -0.079 N 
HETATM   31  C1  UNL     1     -21.991 -19.757 -36.137  1.00  0.00     0.267 C 
ATOM     32  H12 UNL     1     -22.151 -19.566 -38.206  1.00  0.00     0.276 HD
ATOM     33  H11 UNL     1     -22.057 -21.040 -37.778  1.00  0.00     0.276 HD
ENDBRANCH  29  30
ENDBRANCH  28  29
ENDBRANCH   1  28
TORSDOF 15
ENDMDL
MODEL 5
REMARK VINA RESULT: -7.541863101      3.732      7.437
REMARK  15 active torsions:
REMARK  status: ('A' for Active; 'I' for Inactive)
REMARK    1  A    between atoms: N1_2  and  C2_5 
REMARK    2  A    between atoms: C2_5  and  C3_6 
REMARK    3  A    between atoms: C3_6  and  C4_7 
REMARK    4  A    between atoms: N3_13  and  C8_14 
REMARK    5  A    between atoms: C8_14  and  C9_15 
REMARK    6  A    between atoms: C9_15  and  C10_16 
REMARK    7  A    between atoms: C10_16  and  C11_17 
REMARK    8  A    between atoms: C11_17  and  N4_18 
REMARK    9  A    between atoms: N4_18  and  C12_19 
REMARK   10  A    between atoms: N4_18  and  C14_23 
REMARK   11  A    between atoms: C12_19  and  C13_20 
REMARK   12  A    between atoms: C13_20  and  O1_21 
REMARK   13  A    between atoms: C14_23  and  C15_24 
REMARK   14  A    between atoms: C15_24  and  O2_25 
REMARK   15  A    between atoms: C16_27  and  N5_28 
ROOT
HETATM    1  C4  UNL     1     -24.655 -17.951 -40.432  1.00  0.00     0.040 A 
HETATM    2  N2  UNL     1     -24.114 -19.204 -40.334  1.00  0.00    -0.367 N 
ATOM      3  H2  UNL     1     -24.390 -19.801 -39.554  1.00  0.00     0.165 HD
HETATM    4  C5  UNL     1     -23.230 -19.676 -41.231  1.00  0.00     0.090 A 
HETATM    5  C6  UNL     1     -22.782 -18.967 -42.320  1.00  0.00     0.050 A 
HETATM    6  C7  UNL     1     -23.272 -17.693 -42.501  1.00  0.00     0.082 A 
HETATM    7  N3  UNL     1     -23.063 -16.724 -43.408  1.00  0.00    -0.181 N 
HETATM    8  C16 UNL     1     -23.832 -15.669 -43.042  1.00  0.00     0.679 A 
HETATM    9  N6  UNL     1     -24.524 -15.951 -41.918  1.00  0.00    -0.188 N 
ATOM     10  H6  UNL     1     -25.168 -15.312 -41.451  1.00  0.00     0.184 HD
HETATM   11  C17 UNL     1     -24.241 -17.196 -41.504  1.00  0.00     0.099 A 
ENDROOT
BRANCH   7  12
HETATM   12  C8  UNL     1     -22.192 -16.767 -44.558  1.00  0.00     0.148 C 
BRANCH  12  13
HETATM   13  C9  UNL     1     -20.771 -16.385 -44.180  1.00  0.00     0.022 C 
BRANCH  13  14
HETATM   14  C10 UNL     1     -19.820 -17.558 -44.454  1.00  0.00     0.032 C 
BRANCH  14  15
HETATM   15  C11 UNL     1     -20.520 -18.576 -45.335  1.00  0.00     0.272 C 
BRANCH  15  16
HETATM   16  N4  UNL     1     -20.126 -19.924 -45.058  1.00  0.00     0.092 N 
BRANCH  16  17
HETATM   17  C12 UNL     1     -19.429 -19.963 -43.810  1.00  0.00     0.298 C 
BRANCH  17  18
HETATM   18  C13 UNL     1     -18.306 -20.935 -43.687  1.00  0.00     0.194 C 
BRANCH  18  19
HETATM   19  O1  UNL     1     -17.966 -21.695 -44.763  1.00  0.00    -0.399 OA
ATOM     20  H1  UNL     1     -17.181 -22.229 -44.724  1.00  0.00     0.209 HD
ENDBRANCH  18  19
ENDBRANCH  17  18
ENDBRANCH  16  17
BRANCH  16  21
HETATM   21  C14 UNL     1     -21.221 -20.826 -45.081  1.00  0.00     0.298 C 
BRANCH  21  22
HETATM   22  C15 UNL     1     -21.236 -21.908 -46.101  1.00  0.00     0.194 C 
BRANCH  22  23
HETATM   23  O2  UNL     1     -20.167 -21.870 -46.953  1.00  0.00    -0.399 OA
ATOM     24  H2  UNL     1     -19.386 -22.280 -46.601  1.00  0.00     0.209 HD
ENDBRANCH  22  23
ENDBRANCH  21  22
ENDBRANCH  16  21
ENDBRANCH  15  16
ENDBRANCH  14  15
ENDBRANCH  13  14
ENDBRANCH  12  13
ENDBRANCH   7  12
BRANCH   8  25
HETATM   25  N5  UNL     1     -23.884 -14.582 -43.681  1.00  0.00    -0.234 N 
ATOM     26  H52 UNL     1     -23.195 -14.263 -44.363  1.00  0.00     0.174 HD
ATOM     27  H51 UNL     1     -24.632 -13.896 -43.576  1.00  0.00     0.174 HD
ENDBRANCH   8  25
BRANCH   1  28
HETATM   28  C3  UNL     1     -25.649 -17.509 -39.435  1.00  0.00     0.087 C 
BRANCH  28  29
HETATM   29  C2  UNL     1     -25.649 -18.237 -38.144  1.00  0.00     0.237 C 
BRANCH  29  30
HETATM   30  N1  UNL     1     -24.726 -17.822 -37.150  1.00  0.00    -0.079 N 
HETATM   31  C1  UNL     1     -24.057 -19.013 -36.618  1.00  0.00     0.267 C 
ATOM     32  H12 UNL     1     -25.161 -17.257 -36.420  1.00  0.00     0.276 HD
ATOM     33  H11 UNL     1     -24.068 -17.121 -37.493  1.00  0.00     0.276 HD
ENDBRANCH  29  30
ENDBRANCH  28  29
ENDBRANCH   1  28
TORSDOF 15
ENDMDL
