MODEL 1
REMARK VINA RESULT: -9.095823695      0.000      0.000
REMARK  7 active torsions:
REMARK  status: ('A' for Active; 'I' for Inactive)
REMARK    1  A    between atoms: C2_2  and  C3_3 
REMARK    2  A    between atoms: C3_3  and  C4_4 
REMARK    3  A    between atoms: C3_3  and  N6_32 
REMARK    4  A    between atoms: C5_5  and  C6_6 
REMARK    5  A    between atoms: C9_14  and  C10_15 
REMARK    6  A    between atoms: C13_18  and  C14_19 
REMARK    7  A    between atoms: C16_23  and  N4_24 
ROOT
HETATM    1  C6  UNL     1      -0.325 -11.306 -24.352  1.00  0.00     0.084 A 
HETATM    2  C7  UNL     1      -1.703 -11.322 -24.095  1.00  0.00     0.125 A 
HETATM    3 CL1  UNL     1      -2.753 -10.279 -25.031  1.00  0.00    -0.063 Cl
HETATM    4  N1  UNL     1      -2.226 -12.119 -23.146  1.00  0.00    -0.342 N 
ATOM      5  H1  UNL     1      -3.231 -12.115 -22.974  1.00  0.00     0.167 HD
HETATM    6  C8  UNL     1      -1.423 -12.919 -22.426  1.00  0.00     0.182 A 
HETATM    7  N2  UNL     1      -0.111 -12.896 -22.682  1.00  0.00    -0.350 N 
ATOM      8  H2  UNL     1       0.490 -13.508 -22.130  1.00  0.00     0.166 HD
HETATM    9  C9  UNL     1       0.478 -12.117 -23.622  1.00  0.00     0.065 A 
ENDROOT
BRANCH   9  10
HETATM   10  C10 UNL     1       1.922 -12.147 -23.821  1.00  0.00    -0.008 A 
HETATM   11  C11 UNL     1       2.706 -11.077 -23.443  1.00  0.00     0.014 A 
HETATM   12  C12 UNL     1       4.081 -11.071 -23.590  1.00  0.00     0.013 A 
HETATM   13  C13 UNL     1       4.716 -12.167 -24.134  1.00  0.00    -0.023 A 
HETATM   14  C18 UNL     1       3.944 -13.245 -24.515  1.00  0.00     0.013 A 
HETATM   15  C19 UNL     1       2.558 -13.238 -24.360  1.00  0.00     0.014 A 
BRANCH  13  16
HETATM   16  C14 UNL     1       6.176 -12.182 -24.299  1.00  0.00     0.006 A 
HETATM   17  C15 UNL     1       6.855 -13.284 -24.738  1.00  0.00     0.119 A 
HETATM   18  N3  UNL     1       8.200 -13.226 -24.865  1.00  0.00    -0.201 N 
HETATM   19  C16 UNL     1       8.910 -12.118 -24.577  1.00  0.00     0.675 A 
ATOM     20  H3  UNL     1       8.697 -14.054 -25.193  1.00  0.00     0.183 HD
HETATM   21  N5  UNL     1       8.259 -11.038 -24.147  1.00  0.00    -0.201 N 
HETATM   22  C17 UNL     1       6.907 -11.045 -24.003  1.00  0.00     0.119 A 
ATOM     23  H5  UNL     1       8.783 -10.192 -23.923  1.00  0.00     0.183 HD
BRANCH  19  24
HETATM   24  N4  UNL     1      10.197 -12.096 -24.709  1.00  0.00    -0.234 N 
ATOM     25  H42 UNL     1      10.764 -12.869 -24.363  1.00  0.00     0.174 HD
ATOM     26  H41 UNL     1      10.667 -11.310 -25.159  1.00  0.00     0.174 HD
ENDBRANCH  19  24
ENDBRANCH  13  16
ENDBRANCH   9  10
BRANCH   1  27
HETATM   27  C5  UNL     1       0.227 -10.434 -25.343  1.00  0.00    -0.059 C 
HETATM   28  C4  UNL     1       0.721  -9.695 -26.164  1.00  0.00    -0.065 C 
BRANCH  28  29
HETATM   29  C3  UNL     1       1.342  -8.758 -27.165  1.00  0.00     0.300 C 
BRANCH  29  30
HETATM   30  C2  UNL     1       2.299  -7.857 -26.488  1.00  0.00     0.044 C 
HETATM   31  C1  UNL     1       2.431  -7.979 -25.011  1.00  0.00     0.008 C 
ENDBRANCH  29  30
BRANCH  29  32
HETATM   32  N6  UNL     1       0.280  -8.209 -27.901  1.00  0.00     0.095 N 
HETATM   33  C20 UNL     1      -0.431  -7.180 -27.212  1.00  0.00     0.310 C 
HETATM   34  C21 UNL     1       0.811  -7.634 -29.127  1.00  0.00     0.310 C 
ENDBRANCH  29  32
ENDBRANCH  28  29
ENDBRANCH   1  27
TORSDOF 7
ENDMDL
MODEL 2
REMARK VINA RESULT: -8.982668140      3.512      5.209
REMARK  7 active torsions:
REMARK  status: ('A' for Active; 'I' for Inactive)
REMARK    1  A    between atoms: C2_2  and  C3_3 
REMARK    2  A    between atoms: C3_3  and  C4_4 
REMARK    3  A    between atoms: C3_3  and  N6_32 
REMARK    4  A    between atoms: C5_5  and  C6_6 
REMARK    5  A    between atoms: C9_14  and  C10_15 
REMARK    6  A    between atoms: C13_18  and  C14_19 
REMARK    7  A    between atoms: C16_23  and  N4_24 
ROOT
HETATM    1  C6  UNL     1       3.643 -12.666 -24.414  1.00  0.00     0.084 A 
HETATM    2  C7  UNL     1       2.307 -12.584 -23.997  1.00  0.00     0.125 A 
HETATM    3 CL1  UNL     1       1.723 -11.084 -23.307  1.00  0.00    -0.063 Cl
HETATM    4  N1  UNL     1       1.475 -13.633 -24.117  1.00  0.00    -0.342 N 
ATOM      5  H1  UNL     1       0.506 -13.554 -23.806  1.00  0.00     0.167 HD
HETATM    6  C8  UNL     1       1.920 -14.785 -24.645  1.00  0.00     0.182 A 
HETATM    7  N2  UNL     1       3.195 -14.849 -25.040  1.00  0.00    -0.350 N 
ATOM      8  H2  UNL     1       3.523 -15.728 -25.440  1.00  0.00     0.166 HD
HETATM    9  C9  UNL     1       4.084 -13.831 -24.947  1.00  0.00     0.065 A 
ENDROOT
BRANCH   9  10
HETATM   10  C10 UNL     1       5.463 -13.997 -25.390  1.00  0.00    -0.008 A 
HETATM   11  C11 UNL     1       5.911 -13.380 -26.539  1.00  0.00     0.014 A 
HETATM   12  C12 UNL     1       7.216 -13.490 -26.984  1.00  0.00     0.013 A 
HETATM   13  C13 UNL     1       8.123 -14.240 -26.268  1.00  0.00    -0.023 A 
HETATM   14  C18 UNL     1       7.689 -14.862 -25.115  1.00  0.00     0.013 A 
HETATM   15  C19 UNL     1       6.370 -14.743 -24.677  1.00  0.00     0.014 A 
BRANCH  13  16
HETATM   16  C14 UNL     1       9.514 -14.370 -26.722  1.00  0.00     0.006 A 
HETATM   17  C15 UNL     1      10.400 -15.234 -26.142  1.00  0.00     0.119 A 
HETATM   18  N3  UNL     1      11.666 -15.299 -26.612  1.00  0.00    -0.201 N 
HETATM   19  C16 UNL     1      12.100 -14.544 -27.639  1.00  0.00     0.675 A 
ATOM     20  H3  UNL     1      12.319 -15.948 -26.171  1.00  0.00     0.183 HD
HETATM   21  N5  UNL     1      11.245 -13.697 -28.212  1.00  0.00    -0.201 N 
HETATM   22  C17 UNL     1       9.962 -13.594 -27.777  1.00  0.00     0.119 A 
ATOM     23  H5  UNL     1      11.560 -13.117 -28.990  1.00  0.00     0.183 HD
BRANCH  19  24
HETATM   24  N4  UNL     1      13.318 -14.630 -28.065  1.00  0.00    -0.234 N 
ATOM     25  H42 UNL     1      14.088 -14.268 -27.503  1.00  0.00     0.174 HD
ATOM     26  H41 UNL     1      13.533 -15.060 -28.965  1.00  0.00     0.174 HD
ENDBRANCH  19  24
ENDBRANCH  13  16
ENDBRANCH   9  10
BRANCH   1  27
HETATM   27  C5  UNL     1       4.530 -11.555 -24.256  1.00  0.00    -0.059 C 
HETATM   28  C4  UNL     1       5.279 -10.617 -24.091  1.00  0.00    -0.065 C 
BRANCH  28  29
HETATM   29  C3  UNL     1       6.192  -9.442 -23.867  1.00  0.00     0.300 C 
BRANCH  29  30
HETATM   30  C2  UNL     1       7.527  -9.914 -23.439  1.00  0.00     0.044 C 
HETATM   31  C1  UNL     1       8.061 -11.143 -24.085  1.00  0.00     0.008 C 
ENDBRANCH  29  30
BRANCH  29  32
HETATM   32  N6  UNL     1       5.484  -8.544 -23.052  1.00  0.00     0.095 N 
HETATM   33  C20 UNL     1       4.279  -8.054 -23.641  1.00  0.00     0.310 C 
HETATM   34  C21 UNL     1       5.127  -9.222 -21.815  1.00  0.00     0.310 C 
ENDBRANCH  29  32
ENDBRANCH  28  29
ENDBRANCH   1  27
TORSDOF 7
ENDMDL
MODEL 3
REMARK VINA RESULT: -8.744998116      3.670      5.514
REMARK  7 active torsions:
REMARK  status: ('A' for Active; 'I' for Inactive)
REMARK    1  A    between atoms: C2_2  and  C3_3 
REMARK    2  A    between atoms: C3_3  and  C4_4 
REMARK    3  A    between atoms: C3_3  and  N6_32 
REMARK    4  A    between atoms: C5_5  and  C6_6 
REMARK    5  A    between atoms: C9_14  and  C10_15 
REMARK    6  A    between atoms: C13_18  and  C14_19 
REMARK    7  A    between atoms: C16_23  and  N4_24 
ROOT
HETATM    1  C6  UNL     1       3.960 -12.757 -24.476  1.00  0.00     0.084 A 
HETATM    2  C7  UNL     1       2.616 -12.763 -24.075  1.00  0.00     0.125 A 
HETATM    3 CL1  UNL     1       1.956 -11.341 -23.295  1.00  0.00    -0.063 Cl
HETATM    4  N1  UNL     1       1.834 -13.838 -24.278  1.00  0.00    -0.342 N 
ATOM      5  H1  UNL     1       0.859 -13.824 -23.978  1.00  0.00     0.167 HD
HETATM    6  C8  UNL     1       2.338 -14.931 -24.875  1.00  0.00     0.182 A 
HETATM    7  N2  UNL     1       3.620 -14.910 -25.253  1.00  0.00    -0.350 N 
ATOM      8  H2  UNL     1       3.992 -15.745 -25.707  1.00  0.00     0.166 HD
HETATM    9  C9  UNL     1       4.460 -13.862 -25.078  1.00  0.00     0.065 A 
ENDROOT
BRANCH   9  10
HETATM   10  C10 UNL     1       5.850 -13.937 -25.511  1.00  0.00    -0.008 A 
HETATM   11  C11 UNL     1       6.766 -14.688 -24.806  1.00  0.00     0.014 A 
HETATM   12  C12 UNL     1       8.089 -14.807 -25.193  1.00  0.00     0.013 A 
HETATM   13  C13 UNL     1       8.533 -14.157 -26.324  1.00  0.00    -0.023 A 
HETATM   14  C18 UNL     1       7.626 -13.403 -27.040  1.00  0.00     0.013 A 
HETATM   15  C19 UNL     1       6.295 -13.292 -26.639  1.00  0.00     0.014 A 
BRANCH  13  16
HETATM   16  C14 UNL     1       9.934 -14.270 -26.753  1.00  0.00     0.006 A 
HETATM   17  C15 UNL     1      10.397 -13.701 -27.906  1.00  0.00     0.119 A 
HETATM   18  N3  UNL     1      11.700 -13.847 -28.239  1.00  0.00    -0.201 N 
HETATM   19  C16 UNL     1      12.572 -14.535 -27.477  1.00  0.00     0.675 A 
ATOM     20  H3  UNL     1      12.035 -13.419 -29.102  1.00  0.00     0.183 HD
HETATM   21  N5  UNL     1      12.131 -15.095 -26.351  1.00  0.00    -0.201 N 
HETATM   22  C17 UNL     1      10.831 -14.977 -25.972  1.00  0.00     0.119 A 
ATOM     23  H5  UNL     1      12.779 -15.620 -25.765  1.00  0.00     0.183 HD
BRANCH  19  24
HETATM   24  N4  UNL     1      13.812 -14.656 -27.824  1.00  0.00    -0.234 N 
ATOM     25  H42 UNL     1      14.111 -15.441 -28.403  1.00  0.00     0.174 HD
ATOM     26  H41 UNL     1      14.511 -13.974 -27.530  1.00  0.00     0.174 HD
ENDBRANCH  19  24
ENDBRANCH  13  16
ENDBRANCH   9  10
BRANCH   1  27
HETATM   27  C5  UNL     1       4.793 -11.620 -24.230  1.00  0.00    -0.059 C 
HETATM   28  C4  UNL     1       5.508 -10.659 -24.053  1.00  0.00    -0.065 C 
BRANCH  28  29
HETATM   29  C3  UNL     1       6.417  -9.478 -23.844  1.00  0.00     0.300 C 
BRANCH  29  30
HETATM   30  C2  UNL     1       7.760  -9.942 -23.430  1.00  0.00     0.044 C 
HETATM   31  C1  UNL     1       8.289 -11.176 -24.071  1.00  0.00     0.008 C 
ENDBRANCH  29  30
BRANCH  29  32
HETATM   32  N6  UNL     1       5.714  -8.582 -23.023  1.00  0.00     0.095 N 
HETATM   33  C20 UNL     1       4.548  -8.030 -23.635  1.00  0.00     0.310 C 
HETATM   34  C21 UNL     1       5.293  -9.284 -21.821  1.00  0.00     0.310 C 
ENDBRANCH  29  32
ENDBRANCH  28  29
ENDBRANCH   1  27
TORSDOF 7
ENDMDL
MODEL 4
REMARK VINA RESULT: -8.333210117      3.822      6.807
REMARK  7 active torsions:
REMARK  status: ('A' for Active; 'I' for Inactive)
REMARK    1  A    between atoms: C2_2  and  C3_3 
REMARK    2  A    between atoms: C3_3  and  C4_4 
REMARK    3  A    between atoms: C3_3  and  N6_32 
REMARK    4  A    between atoms: C5_5  and  C6_6 
REMARK    5  A    between atoms: C9_14  and  C10_15 
REMARK    6  A    between atoms: C13_18  and  C14_19 
REMARK    7  A    between atoms: C16_23  and  N4_24 
ROOT
HETATM    1  C6  UNL     1       4.268 -12.432 -24.282  1.00  0.00     0.084 A 
HETATM    2  C7  UNL     1       4.749 -13.685 -24.687  1.00  0.00     0.125 A 
HETATM    3 CL1  UNL     1       3.604 -14.975 -24.990  1.00  0.00    -0.063 Cl
HETATM    4  N1  UNL     1       6.065 -13.910 -24.843  1.00  0.00    -0.342 N 
ATOM      5  H1  UNL     1       6.395 -14.829 -25.138  1.00  0.00     0.167 HD
HETATM    6  C8  UNL     1       6.946 -12.922 -24.611  1.00  0.00     0.182 A 
HETATM    7  N2  UNL     1       6.474 -11.732 -24.227  1.00  0.00    -0.350 N 
ATOM      8  H2  UNL     1       7.151 -10.988 -24.053  1.00  0.00     0.166 HD
HETATM    9  C9  UNL     1       5.163 -11.441 -24.050  1.00  0.00     0.065 A 
ENDROOT
BRANCH   9  10
HETATM   10  C10 UNL     1       4.741 -10.115 -23.613  1.00  0.00    -0.008 A 
HETATM   11  C11 UNL     1       5.048  -9.662 -22.348  1.00  0.00     0.014 A 
HETATM   12  C12 UNL     1       4.691  -8.403 -21.899  1.00  0.00     0.013 A 
HETATM   13  C13 UNL     1       3.999  -7.551 -22.732  1.00  0.00    -0.023 A 
HETATM   14  C18 UNL     1       3.687  -7.991 -24.002  1.00  0.00     0.013 A 
HETATM   15  C19 UNL     1       4.054  -9.262 -24.442  1.00  0.00     0.014 A 
BRANCH  13  16
HETATM   16  C14 UNL     1       3.610  -6.209 -22.276  1.00  0.00     0.006 A 
HETATM   17  C15 UNL     1       2.839  -5.371 -23.033  1.00  0.00     0.119 A 
HETATM   18  N3  UNL     1       2.520  -4.149 -22.549  1.00  0.00    -0.201 N 
HETATM   19  C16 UNL     1       2.930  -3.715 -21.341  1.00  0.00     0.675 A 
ATOM     20  H3  UNL     1       1.945  -3.531 -23.122  1.00  0.00     0.183 HD
HETATM   21  N5  UNL     1       3.682  -4.524 -20.596  1.00  0.00    -0.201 N 
HETATM   22  C17 UNL     1       4.030  -5.762 -21.036  1.00  0.00     0.119 A 
ATOM     23  H5  UNL     1       4.002  -4.209 -19.680  1.00  0.00     0.183 HD
BRANCH  19  24
HETATM   24  N4  UNL     1       2.608  -2.540 -20.908  1.00  0.00    -0.234 N 
ATOM     25  H42 UNL     1       1.789  -2.059 -21.282  1.00  0.00     0.174 HD
ATOM     26  H41 UNL     1       3.159  -2.073 -20.188  1.00  0.00     0.174 HD
ENDBRANCH  19  24
ENDBRANCH  13  16
ENDBRANCH   9  10
BRANCH   1  27
HETATM   27  C5  UNL     1       2.869 -12.210 -24.090  1.00  0.00    -0.059 C 
HETATM   28  C4  UNL     1       1.688 -11.991 -23.933  1.00  0.00    -0.065 C 
BRANCH  28  29
HETATM   29  C3  UNL     1       0.227 -11.699 -23.721  1.00  0.00     0.300 C 
BRANCH  29  30
HETATM   30  C2  UNL     1      -0.411 -12.816 -22.991  1.00  0.00     0.044 C 
HETATM   31  C1  UNL     1       0.089 -13.117 -21.622  1.00  0.00     0.008 C 
ENDBRANCH  29  30
BRANCH  29  32
HETATM   32  N6  UNL     1      -0.282 -11.313 -24.972  1.00  0.00     0.095 N 
HETATM   33  C20 UNL     1      -1.705 -11.381 -25.065  1.00  0.00     0.310 C 
HETATM   34  C21 UNL     1       0.113  -9.938 -25.231  1.00  0.00     0.310 C 
ENDBRANCH  29  32
ENDBRANCH  28  29
ENDBRANCH   1  27
TORSDOF 7
ENDMDL
MODEL 5
REMARK VINA RESULT: -8.266567831      3.810      6.834
REMARK  7 active torsions:
REMARK  status: ('A' for Active; 'I' for Inactive)
REMARK    1  A    between atoms: C2_2  and  C3_3 
REMARK    2  A    between atoms: C3_3  and  C4_4 
REMARK    3  A    between atoms: C3_3  and  N6_32 
REMARK    4  A    between atoms: C5_5  and  C6_6 
REMARK    5  A    between atoms: C9_14  and  C10_15 
REMARK    6  A    between atoms: C13_18  and  C14_19 
REMARK    7  A    between atoms: C16_23  and  N4_24 
ROOT
HETATM    1  C6  UNL     1       4.298 -12.407 -24.239  1.00  0.00     0.084 A 
HETATM    2  C7  UNL     1       4.724 -13.670 -24.674  1.00  0.00     0.125 A 
HETATM    3 CL1  UNL     1       3.525 -14.905 -24.996  1.00  0.00    -0.063 Cl
HETATM    4  N1  UNL     1       6.029 -13.945 -24.845  1.00  0.00    -0.342 N 
ATOM      5  H1  UNL     1       6.319 -14.871 -25.161  1.00  0.00     0.167 HD
HETATM    6  C8  UNL     1       6.951 -13.000 -24.598  1.00  0.00     0.182 A 
HETATM    7  N2  UNL     1       6.531 -11.800 -24.186  1.00  0.00    -0.350 N 
ATOM      8  H2  UNL     1       7.240 -11.088 -24.002  1.00  0.00     0.166 HD
HETATM    9  C9  UNL     1       5.235 -11.459 -23.994  1.00  0.00     0.065 A 
ENDROOT
BRANCH   9  10
HETATM   10  C10 UNL     1       4.871 -10.127 -23.525  1.00  0.00    -0.008 A 
HETATM   11  C11 UNL     1       4.248  -9.231 -24.368  1.00  0.00     0.014 A 
HETATM   12  C12 UNL     1       3.863  -7.967 -23.961  1.00  0.00     0.013 A 
HETATM   13  C13 UNL     1       4.102  -7.563 -22.665  1.00  0.00    -0.023 A 
HETATM   14  C18 UNL     1       4.723  -8.450 -21.810  1.00  0.00     0.013 A 
HETATM   15  C19 UNL     1       5.105  -9.723 -22.233  1.00  0.00     0.014 A 
BRANCH  13  16
HETATM   16  C14 UNL     1       3.701  -6.224 -22.211  1.00  0.00     0.006 A 
HETATM   17  C15 UNL     1       4.041  -5.733 -20.981  1.00  0.00     0.119 A 
HETATM   18  N3  UNL     1       3.636  -4.492 -20.630  1.00  0.00    -0.201 N 
HETATM   19  C16 UNL     1       2.905  -3.707 -21.445  1.00  0.00     0.675 A 
ATOM     20  H3  UNL     1       3.894  -4.135 -19.709  1.00  0.00     0.183 HD
HETATM   21  N5  UNL     1       2.568  -4.176 -22.646  1.00  0.00    -0.201 N 
HETATM   22  C17 UNL     1       2.950  -5.417 -23.047  1.00  0.00     0.119 A 
ATOM     23  H5  UNL     1       2.013  -3.595 -23.274  1.00  0.00     0.183 HD
BRANCH  19  24
HETATM   24  N4  UNL     1       2.533  -2.524 -21.078  1.00  0.00    -0.234 N 
ATOM     25  H42 UNL     1       3.083  -1.999 -20.398  1.00  0.00     0.174 HD
ATOM     26  H41 UNL     1       1.691  -2.094 -21.459  1.00  0.00     0.174 HD
ENDBRANCH  19  24
ENDBRANCH  13  16
ENDBRANCH   9  10
BRANCH   1  27
HETATM   27  C5  UNL     1       2.910 -12.132 -24.032  1.00  0.00    -0.059 C 
HETATM   28  C4  UNL     1       1.729 -11.931 -23.853  1.00  0.00    -0.065 C 
BRANCH  28  29
HETATM   29  C3  UNL     1       0.256 -11.700 -23.650  1.00  0.00     0.300 C 
BRANCH  29  30
HETATM   30  C2  UNL     1      -0.352 -12.872 -22.984  1.00  0.00     0.044 C 
HETATM   31  C1  UNL     1       0.020 -13.128 -21.567  1.00  0.00     0.008 C 
ENDBRANCH  29  30
BRANCH  29  32
HETATM   32  N6  UNL     1      -0.248 -11.272 -24.889  1.00  0.00     0.095 N 
HETATM   33  C20 UNL     1      -1.656 -11.458 -25.036  1.00  0.00     0.310 C 
HETATM   34  C21 UNL     1       0.028  -9.852 -25.038  1.00  0.00     0.310 C 
ENDBRANCH  29  32
ENDBRANCH  28  29
ENDBRANCH   1  27
TORSDOF 7
ENDMDL
