MODEL 1
REMARK VINA RESULT: -7.545053802      0.000      0.000
REMARK  9 active torsions:
REMARK  status: ('A' for Active; 'I' for Inactive)
REMARK    1  A    between atoms: N1_1  and  C1_4 
REMARK    2  A    between atoms: C2_7  and  N3_8 
REMARK    3  A    between atoms: C4_14  and  C5_15 
REMARK    4  A    between atoms: C5_15  and  N5_16 
REMARK    5  A    between atoms: C7_22  and  C8_23 
REMARK    6  A    between atoms: C8_23  and  N9_24 
REMARK    7  A    between atoms: C8_23  and  C9_28 
REMARK    8  A    between atoms: N10_29  and  N11_31 
REMARK       I    between atoms: C10_33  and  N13_35 
REMARK    9  A    between atoms: N13_35  and  N14_37 
ROOT
HETATM    1  N5  UNL     1      -2.709 -42.895  19.413  1.00  0.00    -0.303 N 
HETATM    2  C6  UNL     1      -1.772 -41.851  19.719  1.00  0.00     0.208 C 
HETATM    3  N6  UNL     1      -1.143 -41.720  20.985  1.00  0.00    -0.062 NA
HETATM    4  N7  UNL     1      -1.636 -41.091  18.657  1.00  0.00    -0.270 N 
ATOM      5  H7  UNL     1      -1.031 -40.273  18.589  1.00  0.00     0.189 HD
HETATM    6  N8  UNL     1      -2.462 -41.588  17.624  1.00  0.00    -0.244 N 
HETATM    7  C7  UNL     1      -3.309 -41.885  16.485  1.00  0.00     0.345 C 
HETATM    8  N15 UNL     1      -3.815 -43.005  17.234  1.00  0.00    -0.010 N 
ATOM      9 1H15 UNL     1      -4.140 -43.845  16.756  1.00  0.00     0.284 HD
ATOM     10 2H15 UNL     1      -4.714 -42.945  17.714  1.00  0.00     0.284 HD
HETATM   11  C11 UNL     1      -2.604 -43.018  17.972  1.00  0.00     0.415 C 
ENDROOT
BRANCH   1  12
HETATM   12  C5  UNL     1      -3.564 -43.679  20.228  1.00  0.00     0.188 C 
BRANCH  12  13
HETATM   13  C4  UNL     1      -4.619 -42.979  20.950  1.00  0.00     0.043 A 
HETATM   14  N4  UNL     1      -5.387 -42.060  20.352  1.00  0.00    -0.351 N 
HETATM   15  C3  UNL     1      -6.363 -41.433  21.070  1.00  0.00     0.122 A 
ATOM     16  H4  UNL     1      -5.244 -41.831  19.368  1.00  0.00     0.166 HD
HETATM   17  C2  UNL     1      -7.163 -40.479  20.454  1.00  0.00     0.145 A 
HETATM   18  C13 UNL     1      -6.599 -41.700  22.397  1.00  0.00     0.151 A 
HETATM   19  N2  UNL     1      -8.105 -39.883  21.178  1.00  0.00    -0.175 N 
HETATM   20  C1  UNL     1      -8.317 -40.169  22.491  1.00  0.00     0.679 A 
ATOM     21  H2  UNL     1      -8.695 -39.181  20.730  1.00  0.00     0.186 HD
HETATM   22  N17 UNL     1      -7.561 -41.084  23.115  1.00  0.00    -0.174 N 
ATOM     23  H17 UNL     1      -7.709 -41.307  24.099  1.00  0.00     0.186 HD
HETATM   24  N16 UNL     1      -5.805 -42.642  22.995  1.00  0.00    -0.348 N 
HETATM   25  C12 UNL     1      -4.842 -43.260  22.282  1.00  0.00     0.116 A 
ATOM     26  H16 UNL     1      -5.942 -42.876  23.978  1.00  0.00     0.167 HD
BRANCH  17  27
HETATM   27  N3  UNL     1      -6.945 -40.223  19.207  1.00  0.00    -0.383 N 
ATOM     28  H32 UNL     1      -7.550 -39.542  18.748  1.00  0.00     0.157 HD
ATOM     29  H31 UNL     1      -6.205 -40.661  18.659  1.00  0.00     0.157 HD
ENDBRANCH  17  27
BRANCH  20  30
HETATM   30  N1  UNL     1      -9.241 -39.571  23.163  1.00  0.00    -0.234 N 
ATOM     31  H12 UNL     1     -10.197 -39.921  23.096  1.00  0.00     0.174 HD
ATOM     32  H11 UNL     1      -9.028 -38.765  23.751  1.00  0.00     0.174 HD
ENDBRANCH  20  30
ENDBRANCH  12  13
ENDBRANCH   1  12
BRANCH   7  33
HETATM   33  C8  UNL     1      -2.661 -42.122  15.181  1.00  0.00     0.274 C 
BRANCH  33  34
HETATM   34  N9  UNL     1      -3.499 -42.249  14.044  1.00  0.00    -0.067 N 
ATOM     35  H93 UNL     1      -4.430 -41.897  14.271  1.00  0.00     0.275 HD
ATOM     36  H92 UNL     1      -3.208 -41.576  13.335  1.00  0.00     0.275 HD
ATOM     37  H91 UNL     1      -3.583 -43.172  13.618  1.00  0.00     0.275 HD
ENDBRANCH  33  34
BRANCH  33  38
HETATM   38  C9  UNL     1      -1.655 -41.056  14.921  1.00  0.00     0.116 C 
HETATM   39  N10 UNL     1      -0.446 -41.128  15.350  1.00  0.00    -0.311 N 
ATOM     40  H10 UNL     1      -0.184 -41.953  15.888  1.00  0.00     0.185 HD
BRANCH  39  41
HETATM   41  N11 UNL     1       0.520 -40.174  15.138  1.00  0.00    -0.273 N 
HETATM   42  C10 UNL     1       0.464 -38.946  15.448  1.00  0.00     0.226 C 
HETATM   43  N12 UNL     1       1.566 -38.100  15.149  1.00  0.00    -0.060 NA
HETATM   44  N13 UNL     1      -0.655 -38.355  16.086  1.00  0.00    -0.212 N 
ATOM     45  H13 UNL     1      -1.349 -38.968  16.515  1.00  0.00     0.196 HD
ATOM     46  H11 UNL     1       1.377 -40.489  14.682  1.00  0.00     0.189 HD
BRANCH  44  47
HETATM   47  N14 UNL     1      -0.855 -36.978  16.157  1.00  0.00    -0.036 N 
HETATM   48  O1  UNL     1      -1.325 -36.363  15.172  1.00  0.00    -0.516 OA
HETATM   49  O2  UNL     1      -0.556 -36.231  17.275  1.00  0.00    -0.516 OA
ENDBRANCH  44  47
ENDBRANCH  39  41
ENDBRANCH  33  38
ENDBRANCH   7  33
TORSDOF 9
ENDMDL
MODEL 2
REMARK VINA RESULT: -7.441142754      1.389      2.203
REMARK  9 active torsions:
REMARK  status: ('A' for Active; 'I' for Inactive)
REMARK    1  A    between atoms: N1_1  and  C1_4 
REMARK    2  A    between atoms: C2_7  and  N3_8 
REMARK    3  A    between atoms: C4_14  and  C5_15 
REMARK    4  A    between atoms: C5_15  and  N5_16 
REMARK    5  A    between atoms: C7_22  and  C8_23 
REMARK    6  A    between atoms: C8_23  and  N9_24 
REMARK    7  A    between atoms: C8_23  and  C9_28 
REMARK    8  A    between atoms: N10_29  and  N11_31 
REMARK       I    between atoms: C10_33  and  N13_35 
REMARK    9  A    between atoms: N13_35  and  N14_37 
ROOT
HETATM    1  N5  UNL     1      -2.908 -42.074  18.105  1.00  0.00    -0.303 N 
HETATM    2  C6  UNL     1      -1.865 -41.213  18.588  1.00  0.00     0.208 C 
HETATM    3  N6  UNL     1      -1.324 -41.311  19.897  1.00  0.00    -0.062 NA
HETATM    4  N7  UNL     1      -1.547 -40.370  17.633  1.00  0.00    -0.270 N 
ATOM      5  H7  UNL     1      -0.833 -39.645  17.699  1.00  0.00     0.189 HD
HETATM    6  N8  UNL     1      -2.351 -40.630  16.501  1.00  0.00    -0.244 N 
HETATM    7  C7  UNL     1      -3.140 -40.677  15.285  1.00  0.00     0.345 C 
HETATM    8  N15 UNL     1      -3.849 -41.788  15.865  1.00  0.00    -0.010 N 
ATOM      9 1H15 UNL     1      -4.247 -42.517  15.272  1.00  0.00     0.284 HD
ATOM     10 2H15 UNL     1      -4.765 -41.653  16.293  1.00  0.00     0.284 HD
HETATM   11  C11 UNL     1      -2.710 -42.054  16.669  1.00  0.00     0.415 C 
ENDROOT
BRANCH   1  12
HETATM   12  C5  UNL     1      -3.921 -42.810  18.769  1.00  0.00     0.188 C 
BRANCH  12  13
HETATM   13  C4  UNL     1      -4.949 -42.048  19.467  1.00  0.00     0.043 A 
HETATM   14  N4  UNL     1      -5.362 -42.389  20.694  1.00  0.00    -0.351 N 
HETATM   15  C3  UNL     1      -6.326 -41.643  21.307  1.00  0.00     0.122 A 
ATOM     16  H4  UNL     1      -4.959 -43.198  21.167  1.00  0.00     0.166 HD
HETATM   17  C2  UNL     1      -6.758 -41.992  22.581  1.00  0.00     0.145 A 
HETATM   18  C13 UNL     1      -6.905 -40.545  20.718  1.00  0.00     0.151 A 
HETATM   19  N2  UNL     1      -7.699 -41.249  23.153  1.00  0.00    -0.175 N 
HETATM   20  C1  UNL     1      -8.253 -40.165  22.546  1.00  0.00     0.679 A 
ATOM     21  H2  UNL     1      -8.019 -41.501  24.088  1.00  0.00     0.186 HD
HETATM   22  N17 UNL     1      -7.859 -39.803  21.317  1.00  0.00    -0.174 N 
ATOM     23  H17 UNL     1      -8.267 -38.993  20.850  1.00  0.00     0.186 HD
HETATM   24  N16 UNL     1      -6.472 -40.209  19.463  1.00  0.00    -0.348 N 
HETATM   25  C12 UNL     1      -5.519 -40.948  18.861  1.00  0.00     0.116 A 
ATOM     26  H16 UNL     1      -6.871 -39.402  18.984  1.00  0.00     0.167 HD
BRANCH  17  27
HETATM   27  N3  UNL     1      -6.218 -43.024  23.138  1.00  0.00    -0.383 N 
ATOM     28  H32 UNL     1      -6.455 -43.218  24.112  1.00  0.00     0.157 HD
ATOM     29  H31 UNL     1      -5.570 -43.653  22.663  1.00  0.00     0.157 HD
ENDBRANCH  17  27
BRANCH  20  30
HETATM   30  N1  UNL     1      -9.165 -39.466  23.132  1.00  0.00    -0.234 N 
ATOM     31  H12 UNL     1      -9.860 -39.950  23.702  1.00  0.00     0.174 HD
ATOM     32  H11 UNL     1      -9.196 -38.451  23.033  1.00  0.00     0.174 HD
ENDBRANCH  20  30
ENDBRANCH  12  13
ENDBRANCH   1  12
BRANCH   7  33
HETATM   33  C8  UNL     1      -2.432 -40.863  14.004  1.00  0.00     0.274 C 
BRANCH  33  34
HETATM   34  N9  UNL     1      -3.131 -40.539  12.814  1.00  0.00    -0.067 N 
ATOM     35  H93 UNL     1      -4.009 -40.078  13.054  1.00  0.00     0.275 HD
ATOM     36  H92 UNL     1      -2.644 -39.785  12.331  1.00  0.00     0.275 HD
ATOM     37  H91 UNL     1      -3.318 -41.295  12.155  1.00  0.00     0.275 HD
ENDBRANCH  33  34
BRANCH  33  38
HETATM   38  C9  UNL     1      -1.149 -40.108  14.028  1.00  0.00     0.116 C 
HETATM   39  N10 UNL     1      -1.017 -38.952  13.483  1.00  0.00    -0.311 N 
ATOM     40  H10 UNL     1      -1.834 -38.552  13.021  1.00  0.00     0.185 HD
BRANCH  39  41
HETATM   41  N11 UNL     1       0.142 -38.214  13.476  1.00  0.00    -0.273 N 
HETATM   42  C10 UNL     1       0.499 -37.342  14.326  1.00  0.00     0.226 C 
HETATM   43  N12 UNL     1       1.741 -36.672  14.157  1.00  0.00    -0.060 NA
HETATM   44  N13 UNL     1      -0.283 -36.990  15.455  1.00  0.00    -0.212 N 
ATOM     45  H13 UNL     1      -1.051 -37.605  15.724  1.00  0.00     0.196 HD
ATOM     46  H11 UNL     1       0.786 -38.386  12.704  1.00  0.00     0.189 HD
BRANCH  44  47
HETATM   47  N14 UNL     1      -0.055 -35.844  16.213  1.00  0.00    -0.036 N 
HETATM   48  O1  UNL     1      -0.364 -35.826  17.427  1.00  0.00    -0.516 OA
HETATM   49  O2  UNL     1       0.505 -34.698  15.694  1.00  0.00    -0.516 OA
ENDBRANCH  44  47
ENDBRANCH  39  41
ENDBRANCH  33  38
ENDBRANCH   7  33
TORSDOF 9
ENDMDL
MODEL 3
REMARK VINA RESULT: -7.299987266      2.111      2.577
REMARK  9 active torsions:
REMARK  status: ('A' for Active; 'I' for Inactive)
REMARK    1  A    between atoms: N1_1  and  C1_4 
REMARK    2  A    between atoms: C2_7  and  N3_8 
REMARK    3  A    between atoms: C4_14  and  C5_15 
REMARK    4  A    between atoms: C5_15  and  N5_16 
REMARK    5  A    between atoms: C7_22  and  C8_23 
REMARK    6  A    between atoms: C8_23  and  N9_24 
REMARK    7  A    between atoms: C8_23  and  C9_28 
REMARK    8  A    between atoms: N10_29  and  N11_31 
REMARK       I    between atoms: C10_33  and  N13_35 
REMARK    9  A    between atoms: N13_35  and  N14_37 
ROOT
HETATM    1  N5  UNL     1      -3.249 -42.218  18.243  1.00  0.00    -0.303 N 
HETATM    2  C6  UNL     1      -2.239 -41.773  19.162  1.00  0.00     0.208 C 
HETATM    3  N6  UNL     1      -1.988 -42.411  20.406  1.00  0.00    -0.062 NA
HETATM    4  N7  UNL     1      -1.645 -40.722  18.648  1.00  0.00    -0.270 N 
ATOM      5  H7  UNL     1      -0.886 -40.199  19.085  1.00  0.00     0.189 HD
HETATM    6  N8  UNL     1      -2.226 -40.429  17.394  1.00  0.00    -0.244 N 
HETATM    7  C7  UNL     1      -2.752 -39.915  16.144  1.00  0.00     0.345 C 
HETATM    8  N15 UNL     1      -3.679 -41.017  16.156  1.00  0.00    -0.010 N 
ATOM      9 1H15 UNL     1      -4.024 -41.414  15.282  1.00  0.00     0.284 HD
ATOM     10 2H15 UNL     1      -4.643 -40.881  16.461  1.00  0.00     0.284 HD
HETATM   11  C11 UNL     1      -2.762 -41.738  16.964  1.00  0.00     0.415 C 
ENDROOT
BRANCH   1  12
HETATM   12  C5  UNL     1      -4.448 -42.951  18.425  1.00  0.00     0.188 C 
BRANCH  12  13
HETATM   13  C4  UNL     1      -5.389 -42.451  19.420  1.00  0.00     0.043 A 
HETATM   14  N4  UNL     1      -5.764 -41.166  19.446  1.00  0.00    -0.351 N 
HETATM   15  C3  UNL     1      -6.647 -40.746  20.398  1.00  0.00     0.122 A 
ATOM     16  H4  UNL     1      -5.393 -40.507  18.762  1.00  0.00     0.166 HD
HETATM   17  C2  UNL     1      -7.041 -39.414  20.429  1.00  0.00     0.145 A 
HETATM   18  C13 UNL     1      -7.177 -41.589  21.345  1.00  0.00     0.151 A 
HETATM   19  N2  UNL     1      -7.901 -39.032  21.367  1.00  0.00    -0.175 N 
HETATM   20  C1  UNL     1      -8.411 -39.890  22.292  1.00  0.00     0.679 A 
ATOM     21  H2  UNL     1      -8.192 -38.055  21.395  1.00  0.00     0.186 HD
HETATM   22  N17 UNL     1      -8.051 -41.181  22.289  1.00  0.00    -0.174 N 
ATOM     23  H17 UNL     1      -8.426 -41.834  22.977  1.00  0.00     0.186 HD
HETATM   24  N16 UNL     1      -6.784 -42.899  21.305  1.00  0.00    -0.348 N 
HETATM   25  C12 UNL     1      -5.911 -43.311  20.364  1.00  0.00     0.116 A 
ATOM     26  H16 UNL     1      -7.151 -43.564  21.987  1.00  0.00     0.167 HD
BRANCH  17  27
HETATM   27  N3  UNL     1      -6.544 -38.618  19.542  1.00  0.00    -0.383 N 
ATOM     28  H32 UNL     1      -7.026 -37.735  19.371  1.00  0.00     0.157 HD
ATOM     29  H31 UNL     1      -5.701 -38.822  19.004  1.00  0.00     0.157 HD
ENDBRANCH  17  27
BRANCH  20  30
HETATM   30  N1  UNL     1      -9.245 -39.484  23.189  1.00  0.00    -0.234 N 
ATOM     31  H12 UNL     1      -9.406 -38.481  23.287  1.00  0.00     0.174 HD
ATOM     32  H11 UNL     1      -9.737 -40.146  23.789  1.00  0.00     0.174 HD
ENDBRANCH  20  30
ENDBRANCH  12  13
ENDBRANCH   1  12
BRANCH   7  33
HETATM   33  C8  UNL     1      -1.823 -39.767  15.008  1.00  0.00     0.274 C 
BRANCH  33  34
HETATM   34  N9  UNL     1      -2.385 -39.570  13.721  1.00  0.00    -0.067 N 
ATOM     35  H93 UNL     1      -3.350 -39.255  13.819  1.00  0.00     0.275 HD
ATOM     36  H92 UNL     1      -1.959 -38.750  13.290  1.00  0.00     0.275 HD
ATOM     37  H91 UNL     1      -2.351 -40.351  13.065  1.00  0.00     0.275 HD
ENDBRANCH  33  34
BRANCH  33  38
HETATM   38  C9  UNL     1      -0.863 -38.663  15.287  1.00  0.00     0.116 C 
HETATM   39  N10 UNL     1      -1.198 -37.424  15.223  1.00  0.00    -0.311 N 
ATOM     40  H10 UNL     1      -2.161 -37.208  14.970  1.00  0.00     0.185 HD
BRANCH  39  41
HETATM   41  N11 UNL     1      -0.353 -36.369  15.472  1.00  0.00    -0.273 N 
HETATM   42  C10 UNL     1       0.242 -35.647  14.615  1.00  0.00     0.226 C 
HETATM   43  N12 UNL     1       1.084 -34.591  15.057  1.00  0.00    -0.060 NA
HETATM   44  N13 UNL     1       0.114 -35.836  13.215  1.00  0.00    -0.212 N 
ATOM     45  H13 UNL     1      -0.648 -36.420  12.872  1.00  0.00     0.196 HD
ATOM     46  H11 UNL     1      -0.188 -36.140  16.452  1.00  0.00     0.189 HD
BRANCH  44  47
HETATM   47  N14 UNL     1       0.979 -35.262  12.286  1.00  0.00    -0.036 N 
HETATM   48  O1  UNL     1       0.640 -34.223  11.674  1.00  0.00    -0.516 OA
HETATM   49  O2  UNL     1       2.219 -35.784  11.992  1.00  0.00    -0.516 OA
ENDBRANCH  44  47
ENDBRANCH  39  41
ENDBRANCH  33  38
ENDBRANCH   7  33
TORSDOF 9
ENDMDL
MODEL 4
REMARK VINA RESULT: -7.297102439      2.664      4.897
REMARK  9 active torsions:
REMARK  status: ('A' for Active; 'I' for Inactive)
REMARK    1  A    between atoms: N1_1  and  C1_4 
REMARK    2  A    between atoms: C2_7  and  N3_8 
REMARK    3  A    between atoms: C4_14  and  C5_15 
REMARK    4  A    between atoms: C5_15  and  N5_16 
REMARK    5  A    between atoms: C7_22  and  C8_23 
REMARK    6  A    between atoms: C8_23  and  N9_24 
REMARK    7  A    between atoms: C8_23  and  C9_28 
REMARK    8  A    between atoms: N10_29  and  N11_31 
REMARK       I    between atoms: C10_33  and  N13_35 
REMARK    9  A    between atoms: N13_35  and  N14_37 
ROOT
HETATM    1  N5  UNL     1      -1.902 -39.990  15.856  1.00  0.00    -0.303 N 
HETATM    2  C6  UNL     1      -2.469 -38.703  15.565  1.00  0.00     0.208 C 
HETATM    3  N6  UNL     1      -3.818 -38.368  15.853  1.00  0.00    -0.062 NA
HETATM    4  N7  UNL     1      -1.543 -37.958  15.007  1.00  0.00    -0.270 N 
ATOM      5  H7  UNL     1      -1.666 -36.994  14.698  1.00  0.00     0.189 HD
HETATM    6  N8  UNL     1      -0.348 -38.705  14.905  1.00  0.00    -0.244 N 
HETATM    7  C7  UNL     1       0.929 -39.334  14.626  1.00  0.00     0.345 C 
HETATM    8  N15 UNL     1       0.409 -40.521  15.252  1.00  0.00    -0.010 N 
ATOM      9 1H15 UNL     1       1.032 -41.170  15.733  1.00  0.00     0.284 HD
ATOM     10 2H15 UNL     1       0.058 -41.295  14.687  1.00  0.00     0.284 HD
HETATM   11  C11 UNL     1      -0.487 -39.702  15.988  1.00  0.00     0.415 C 
ENDROOT
BRANCH   1  12
HETATM   12  C5  UNL     1      -2.480 -41.276  16.006  1.00  0.00     0.188 C 
BRANCH  12  13
HETATM   13  C4  UNL     1      -2.925 -41.653  17.342  1.00  0.00     0.043 A 
HETATM   14  N4  UNL     1      -4.118 -41.274  17.816  1.00  0.00    -0.351 N 
HETATM   15  C3  UNL     1      -4.489 -41.652  19.073  1.00  0.00     0.122 A 
ATOM     16  H4  UNL     1      -4.744 -40.708  17.243  1.00  0.00     0.166 HD
HETATM   17  C2  UNL     1      -5.728 -41.263  19.570  1.00  0.00     0.145 A 
HETATM   18  C13 UNL     1      -3.687 -42.413  19.890  1.00  0.00     0.151 A 
HETATM   19  N2  UNL     1      -6.063 -41.645  20.798  1.00  0.00    -0.175 N 
HETATM   20  C1  UNL     1      -5.247 -42.400  21.583  1.00  0.00     0.679 A 
ATOM     21  H2  UNL     1      -6.970 -41.361  21.167  1.00  0.00     0.186 HD
HETATM   22  N17 UNL     1      -4.047 -42.791  21.134  1.00  0.00    -0.174 N 
ATOM     23  H17 UNL     1      -3.426 -43.356  21.713  1.00  0.00     0.186 HD
HETATM   24  N16 UNL     1      -2.470 -42.792  19.391  1.00  0.00    -0.348 N 
HETATM   25  C12 UNL     1      -2.106 -42.416  18.148  1.00  0.00     0.116 A 
ATOM     26  H16 UNL     1      -1.839 -43.357  19.958  1.00  0.00     0.167 HD
BRANCH  17  27
HETATM   27  N3  UNL     1      -6.485 -40.548  18.807  1.00  0.00    -0.383 N 
ATOM     28  H32 UNL     1      -7.326 -40.142  19.217  1.00  0.00     0.157 HD
ATOM     29  H31 UNL     1      -6.290 -40.367  17.822  1.00  0.00     0.157 HD
ENDBRANCH  17  27
BRANCH  20  30
HETATM   30  N1  UNL     1      -5.606 -42.752  22.771  1.00  0.00    -0.234 N 
ATOM     31  H12 UNL     1      -4.931 -42.664  23.531  1.00  0.00     0.174 HD
ATOM     32  H11 UNL     1      -6.543 -43.112  22.953  1.00  0.00     0.174 HD
ENDBRANCH  20  30
ENDBRANCH  12  13
ENDBRANCH   1  12
BRANCH   7  33
HETATM   33  C8  UNL     1       2.147 -38.705  15.172  1.00  0.00     0.274 C 
BRANCH  33  34
HETATM   34  N9  UNL     1       3.388 -39.338  14.909  1.00  0.00    -0.067 N 
ATOM     35  H93 UNL     1       4.122 -38.632  14.855  1.00  0.00     0.275 HD
ATOM     36  H92 UNL     1       3.682 -39.858  15.736  1.00  0.00     0.275 HD
ATOM     37  H91 UNL     1       3.445 -39.946  14.092  1.00  0.00     0.275 HD
ENDBRANCH  33  34
BRANCH  33  38
HETATM   38  C9  UNL     1       2.224 -37.289  14.719  1.00  0.00     0.116 C 
HETATM   39  N10 UNL     1       2.649 -36.959  13.552  1.00  0.00    -0.311 N 
ATOM     40  H10 UNL     1       2.941 -37.709  12.927  1.00  0.00     0.185 HD
BRANCH  39  41
HETATM   41  N11 UNL     1       2.741 -35.670  13.085  1.00  0.00    -0.273 N 
HETATM   42  C10 UNL     1       1.845 -35.013  12.472  1.00  0.00     0.226 C 
HETATM   43  N12 UNL     1       2.118 -33.681  12.059  1.00  0.00    -0.060 NA
HETATM   44  N13 UNL     1       0.564 -35.539  12.170  1.00  0.00    -0.212 N 
ATOM     45  H13 UNL     1       0.263 -36.388  12.648  1.00  0.00     0.196 HD
ATOM     46  H11 UNL     1       3.625 -35.189  13.249  1.00  0.00     0.189 HD
BRANCH  44  47
HETATM   47  N14 UNL     1      -0.304 -34.953  11.251  1.00  0.00    -0.036 N 
HETATM   48  O1  UNL     1      -1.258 -34.249  11.653  1.00  0.00    -0.516 OA
HETATM   49  O2  UNL     1      -0.171 -35.106   9.889  1.00  0.00    -0.516 OA
ENDBRANCH  44  47
ENDBRANCH  39  41
ENDBRANCH  33  38
ENDBRANCH   7  33
TORSDOF 9
ENDMDL
MODEL 5
REMARK VINA RESULT: -7.232701903      1.879      2.305
REMARK  9 active torsions:
REMARK  status: ('A' for Active; 'I' for Inactive)
REMARK    1  A    between atoms: N1_1  and  C1_4 
REMARK    2  A    between atoms: C2_7  and  N3_8 
REMARK    3  A    between atoms: C4_14  and  C5_15 
REMARK    4  A    between atoms: C5_15  and  N5_16 
REMARK    5  A    between atoms: C7_22  and  C8_23 
REMARK    6  A    between atoms: C8_23  and  N9_24 
REMARK    7  A    between atoms: C8_23  and  C9_28 
REMARK    8  A    between atoms: N10_29  and  N11_31 
REMARK       I    between atoms: C10_33  and  N13_35 
REMARK    9  A    between atoms: N13_35  and  N14_37 
ROOT
HETATM    1  N5  UNL     1      -4.566 -42.295  16.982  1.00  0.00    -0.303 N 
HETATM    2  C6  UNL     1      -3.539 -41.832  17.874  1.00  0.00     0.208 C 
HETATM    3  N6  UNL     1      -3.469 -42.216  19.239  1.00  0.00    -0.062 NA
HETATM    4  N7  UNL     1      -2.742 -41.029  17.208  1.00  0.00    -0.270 N 
ATOM      5  H7  UNL     1      -1.925 -40.556  17.592  1.00  0.00     0.189 HD
HETATM    6  N8  UNL     1      -3.198 -40.926  15.875  1.00  0.00    -0.244 N 
HETATM    7  C7  UNL     1      -3.561 -40.617  14.505  1.00  0.00     0.345 C 
HETATM    8  N15 UNL     1      -4.670 -41.522  14.663  1.00  0.00    -0.010 N 
ATOM      9 1H15 UNL     1      -5.037 -42.038  13.863  1.00  0.00     0.284 HD
ATOM     10 2H15 UNL     1      -5.608 -41.167  14.849  1.00  0.00     0.284 HD
HETATM   11  C11 UNL     1      -3.938 -42.190  15.678  1.00  0.00     0.415 C 
ENDROOT
BRANCH   1  12
HETATM   12  C5  UNL     1      -5.884 -42.763  17.206  1.00  0.00     0.188 C 
BRANCH  12  13
HETATM   13  C4  UNL     1      -6.561 -42.296  18.409  1.00  0.00     0.043 A 
HETATM   14  N4  UNL     1      -6.526 -41.010  18.778  1.00  0.00    -0.351 N 
HETATM   15  C3  UNL     1      -7.175 -40.621  19.913  1.00  0.00     0.122 A 
ATOM     16  H4  UNL     1      -6.019 -40.326  18.215  1.00  0.00     0.166 HD
HETATM   17  C2  UNL     1      -7.144 -39.287  20.300  1.00  0.00     0.145 A 
HETATM   18  C13 UNL     1      -7.872 -41.498  20.710  1.00  0.00     0.151 A 
HETATM   19  N2  UNL     1      -7.784 -38.937  21.410  1.00  0.00    -0.175 N 
HETATM   20  C1  UNL     1      -8.467 -39.827  22.179  1.00  0.00     0.679 A 
ATOM     21  H2  UNL     1      -7.763 -37.958  21.699  1.00  0.00     0.186 HD
HETATM   22  N17 UNL     1      -8.517 -41.121  21.834  1.00  0.00    -0.174 N 
ATOM     23  H17 UNL     1      -9.025 -41.799  22.402  1.00  0.00     0.186 HD
HETATM   24  N16 UNL     1      -7.898 -42.810  20.320  1.00  0.00    -0.348 N 
HETATM   25  C12 UNL     1      -7.256 -43.190  19.197  1.00  0.00     0.116 A 
ATOM     26  H16 UNL     1      -8.403 -43.498  20.877  1.00  0.00     0.167 HD
BRANCH  17  27
HETATM   27  N3  UNL     1      -6.489 -38.459  19.556  1.00  0.00    -0.383 N 
ATOM     28  H32 UNL     1      -6.974 -38.055  18.753  1.00  0.00     0.157 HD
ATOM     29  H31 UNL     1      -5.520 -38.188  19.723  1.00  0.00     0.157 HD
ENDBRANCH  17  27
BRANCH  20  30
HETATM   30  N1  UNL     1      -9.078 -39.451  23.252  1.00  0.00    -0.234 N 
ATOM     31  H12 UNL     1      -8.712 -39.756  24.154  1.00  0.00     0.174 HD
ATOM     32  H11 UNL     1      -9.909 -38.861  23.205  1.00  0.00     0.174 HD
ENDBRANCH  20  30
ENDBRANCH  12  13
ENDBRANCH   1  12
BRANCH   7  33
HETATM   33  C8  UNL     1      -2.565 -40.873  13.448  1.00  0.00     0.274 C 
BRANCH  33  34
HETATM   34  N9  UNL     1      -2.828 -40.350  12.157  1.00  0.00    -0.067 N 
ATOM     35  H93 UNL     1      -2.454 -39.403  12.094  1.00  0.00     0.275 HD
ATOM     36  H92 UNL     1      -2.245 -40.832  11.473  1.00  0.00     0.275 HD
ATOM     37  H91 UNL     1      -3.796 -40.351  11.834  1.00  0.00     0.275 HD
ENDBRANCH  33  34
BRANCH  33  38
HETATM   38  C9  UNL     1      -1.227 -40.399  13.896  1.00  0.00     0.116 C 
HETATM   39  N10 UNL     1      -0.763 -39.243  13.580  1.00  0.00    -0.311 N 
ATOM     40  H10 UNL     1      -1.347 -38.642  13.000  1.00  0.00     0.185 HD
BRANCH  39  41
HETATM   41  N11 UNL     1       0.463 -38.757  13.966  1.00  0.00    -0.273 N 
HETATM   42  C10 UNL     1       0.692 -37.853  14.826  1.00  0.00     0.226 C 
HETATM   43  N12 UNL     1       2.034 -37.474  15.099  1.00  0.00    -0.060 NA
HETATM   44  N13 UNL     1      -0.332 -37.185  15.544  1.00  0.00    -0.212 N 
ATOM     45  H13 UNL     1      -1.269 -37.589  15.541  1.00  0.00     0.196 HD
ATOM     46  H11 UNL     1       1.279 -39.169  13.512  1.00  0.00     0.189 HD
BRANCH  44  47
HETATM   47  N14 UNL     1      -0.122 -36.004  16.252  1.00  0.00    -0.036 N 
HETATM   48  O1  UNL     1      -0.452 -35.931  17.458  1.00  0.00    -0.516 OA
HETATM   49  O2  UNL     1       0.442 -34.881  15.689  1.00  0.00    -0.516 OA
ENDBRANCH  44  47
ENDBRANCH  39  41
ENDBRANCH  33  38
ENDBRANCH   7  33
TORSDOF 9
ENDMDL
