MODEL 1
REMARK VINA RESULT: -5.071153837      0.000      0.000
REMARK  3 active torsions:
REMARK  status: ('A' for Active; 'I' for Inactive)
REMARK       I    between atoms: N1_2  and  C2_4 
REMARK       I    between atoms: C2_4  and  N3_13 
REMARK       I    between atoms: N2_5  and  C3_7 
REMARK    1  A    between atoms: C3_7  and  C4_9 
REMARK    2  A    between atoms: N3_13  and  C8_15 
REMARK    3  A    between atoms: C8_15  and  C11_18 
ROOT
HETATM    1  C1  UNL     1       9.165  -9.930   0.162  1.00  0.00     0.165 C 
HETATM    2  N1  UNL     1       8.354  -8.738   0.243  1.00  0.00    -0.231 N 
ATOM      3  H1  UNL     1       7.926  -8.501   1.138  1.00  0.00     0.177 HD
HETATM    4  C2  UNL     1       8.122  -7.875  -0.874  1.00  0.00     0.677 C 
HETATM    5  N2  UNL     1       7.018  -7.955  -1.538  1.00  0.00    -0.160 N 
ATOM      6  H2  UNL     1       6.888  -7.322  -2.327  1.00  0.00     0.187 HD
HETATM    7  C3  UNL     1       5.986  -8.858  -1.241  1.00  0.00     0.240 C 
HETATM    8  O1  UNL     1       5.791  -9.195  -0.042  1.00  0.00    -0.272 OA
HETATM    9  N3  UNL     1       9.068  -6.906  -1.302  1.00  0.00    -0.208 N 
ATOM     10  H3  UNL     1       9.487  -7.013  -2.227  1.00  0.00     0.179 HD
ENDROOT
BRANCH   9  11
HETATM   11  C8  UNL     1       9.466  -5.779  -0.494  1.00  0.00     0.128 C 
HETATM   12  C9  UNL     1      10.736  -6.073   0.287  1.00  0.00     0.050 C 
HETATM   13  C10 UNL     1       9.712  -4.587  -1.383  1.00  0.00     0.050 C 
BRANCH  11  14
HETATM   14  C11 UNL     1       8.424  -5.389   0.488  1.00  0.00     0.202 C 
HETATM   15  O2  UNL     1       7.560  -4.518   0.251  1.00  0.00    -0.646 OA
HETATM   16  O3  UNL     1       8.436  -6.038   1.712  1.00  0.00    -0.646 OA
ENDBRANCH  11  14
ENDBRANCH   9  11
BRANCH   7  17
HETATM   17  C4  UNL     1       5.079  -9.467  -2.247  1.00  0.00     0.083 A 
HETATM   18  C5  UNL     1       3.756  -8.720  -2.404  1.00  0.00     0.019 A 
HETATM   19  C6  UNL     1       4.783  -8.797  -3.520  1.00  0.00    -0.005 A 
HETATM   20  C7  UNL     1       4.348  -9.696  -4.659  1.00  0.00     0.011 C 
ENDBRANCH   7  17
TORSDOF 3
ENDMDL
MODEL 2
REMARK VINA RESULT: -5.056579058      0.890      1.294
REMARK  3 active torsions:
REMARK  status: ('A' for Active; 'I' for Inactive)
REMARK       I    between atoms: N1_2  and  C2_4 
REMARK       I    between atoms: C2_4  and  N3_13 
REMARK       I    between atoms: N2_5  and  C3_7 
REMARK    1  A    between atoms: C3_7  and  C4_9 
REMARK    2  A    between atoms: N3_13  and  C8_15 
REMARK    3  A    between atoms: C8_15  and  C11_18 
ROOT
HETATM    1  C1  UNL     1       9.367  -9.934  -0.470  1.00  0.00     0.165 C 
HETATM    2  N1  UNL     1       8.399  -8.960  -0.023  1.00  0.00    -0.231 N 
ATOM      3  H1  UNL     1       8.048  -9.026   0.932  1.00  0.00     0.177 HD
HETATM    4  C2  UNL     1       7.909  -7.907  -0.859  1.00  0.00     0.677 C 
HETATM    5  N2  UNL     1       6.761  -8.018  -1.437  1.00  0.00    -0.160 N 
ATOM      6  H2  UNL     1       6.445  -7.247  -2.024  1.00  0.00     0.187 HD
HETATM    7  C3  UNL     1       5.920  -9.134  -1.307  1.00  0.00     0.240 C 
HETATM    8  O1  UNL     1       5.920  -9.780  -0.225  1.00  0.00    -0.272 OA
HETATM    9  N3  UNL     1       8.641  -6.712  -1.092  1.00  0.00    -0.208 N 
ATOM     10  H3  UNL     1       8.960  -6.517  -2.041  1.00  0.00     0.179 HD
ENDROOT
BRANCH   9  11
HETATM   11  C8  UNL     1       8.954  -5.762  -0.052  1.00  0.00     0.128 C 
HETATM   12  C9  UNL     1       8.233  -6.096   1.243  1.00  0.00     0.050 C 
HETATM   13  C10 UNL     1      10.439  -5.772   0.205  1.00  0.00     0.050 C 
BRANCH  11  14
HETATM   14  C11 UNL     1       8.580  -4.374  -0.421  1.00  0.00     0.202 C 
HETATM   15  O2  UNL     1       8.957  -3.827  -1.479  1.00  0.00    -0.646 OA
HETATM   16  O3  UNL     1       7.775  -3.679   0.468  1.00  0.00    -0.646 OA
ENDBRANCH  11  14
ENDBRANCH   9  11
BRANCH   7  17
HETATM   17  C4  UNL     1       5.005  -9.632  -2.366  1.00  0.00     0.083 A 
HETATM   18  C5  UNL     1       3.724  -8.811  -2.498  1.00  0.00     0.019 A 
HETATM   19  C6  UNL     1       4.769  -8.870  -3.599  1.00  0.00    -0.005 A 
HETATM   20  C7  UNL     1       4.314  -9.672  -4.800  1.00  0.00     0.011 C 
ENDBRANCH   7  17
TORSDOF 3
ENDMDL
MODEL 3
REMARK VINA RESULT: -5.023612604      1.034      1.512
REMARK  3 active torsions:
REMARK  status: ('A' for Active; 'I' for Inactive)
REMARK       I    between atoms: N1_2  and  C2_4 
REMARK       I    between atoms: C2_4  and  N3_13 
REMARK       I    between atoms: N2_5  and  C3_7 
REMARK    1  A    between atoms: C3_7  and  C4_9 
REMARK    2  A    between atoms: N3_13  and  C8_15 
REMARK    3  A    between atoms: C8_15  and  C11_18 
ROOT
HETATM    1  C1  UNL     1       9.080  -9.783   0.033  1.00  0.00     0.165 C 
HETATM    2  N1  UNL     1       8.232  -8.616   0.080  1.00  0.00    -0.231 N 
ATOM      3  H1  UNL     1       7.799  -8.365   0.969  1.00  0.00     0.177 HD
HETATM    4  C2  UNL     1       7.969  -7.795  -1.062  1.00  0.00     0.677 C 
HETATM    5  N2  UNL     1       6.866  -7.932  -1.720  1.00  0.00    -0.160 N 
ATOM      6  H2  UNL     1       6.714  -7.329  -2.528  1.00  0.00     0.187 HD
HETATM    7  C3  UNL     1       5.864  -8.858  -1.391  1.00  0.00     0.240 C 
HETATM    8  O1  UNL     1       5.684  -9.164  -0.182  1.00  0.00    -0.272 OA
HETATM    9  N3  UNL     1       8.882  -6.811  -1.524  1.00  0.00    -0.208 N 
ATOM     10  H3  UNL     1       9.301  -6.933  -2.446  1.00  0.00     0.179 HD
ENDROOT
BRANCH   9  11
HETATM   11  C8  UNL     1       9.245  -5.646  -0.752  1.00  0.00     0.128 C 
HETATM   12  C9  UNL     1       9.600  -4.472  -1.649  1.00  0.00     0.050 C 
HETATM   13  C10 UNL     1       8.088  -5.248   0.128  1.00  0.00     0.050 C 
BRANCH  11  14
HETATM   14  C11 UNL     1      10.409  -5.893   0.134  1.00  0.00     0.202 C 
HETATM   15  O2  UNL     1      11.586  -5.650  -0.208  1.00  0.00    -0.646 OA
HETATM   16  O3  UNL     1      10.147  -6.419   1.389  1.00  0.00    -0.646 OA
ENDBRANCH  11  14
ENDBRANCH   9  11
BRANCH   7  17
HETATM   17  C4  UNL     1       4.976  -9.527  -2.374  1.00  0.00     0.083 A 
HETATM   18  C5  UNL     1       3.661  -8.786  -2.608  1.00  0.00     0.019 A 
HETATM   19  C6  UNL     1       4.711  -8.941  -3.695  1.00  0.00    -0.005 A 
HETATM   20  C7  UNL     1       4.294  -9.911  -4.782  1.00  0.00     0.011 C 
ENDBRANCH   7  17
TORSDOF 3
ENDMDL
MODEL 4
REMARK VINA RESULT: -5.000394407      2.987      6.422
REMARK  3 active torsions:
REMARK  status: ('A' for Active; 'I' for Inactive)
REMARK       I    between atoms: N1_2  and  C2_4 
REMARK       I    between atoms: C2_4  and  N3_13 
REMARK       I    between atoms: N2_5  and  C3_7 
REMARK    1  A    between atoms: C3_7  and  C4_9 
REMARK    2  A    between atoms: N3_13  and  C8_15 
REMARK    3  A    between atoms: C8_15  and  C11_18 
ROOT
HETATM    1  C1  UNL     1       8.042  -9.568  -2.972  1.00  0.00     0.165 C 
HETATM    2  N1  UNL     1       6.800  -9.070  -2.432  1.00  0.00    -0.231 N 
ATOM      3  H1  UNL     1       6.597  -8.074  -2.515  1.00  0.00     0.177 HD
HETATM    4  C2  UNL     1       5.838  -9.909  -1.784  1.00  0.00     0.677 C 
HETATM    5  N2  UNL     1       5.780  -9.955  -0.495  1.00  0.00    -0.160 N 
ATOM      6  H2  UNL     1       5.082 -10.564  -0.070  1.00  0.00     0.187 HD
HETATM    7  C3  UNL     1       6.619  -9.219   0.356  1.00  0.00     0.240 C 
HETATM    8  O1  UNL     1       7.029  -8.087  -0.015  1.00  0.00    -0.272 OA
HETATM    9  N3  UNL     1       4.918 -10.717  -2.504  1.00  0.00    -0.208 N 
ATOM     10  H3  UNL     1       4.988 -11.730  -2.413  1.00  0.00     0.179 HD
ENDROOT
BRANCH   9  11
HETATM   11  C8  UNL     1       3.890 -10.172  -3.358  1.00  0.00     0.128 C 
HETATM   12  C9  UNL     1       2.701 -11.112  -3.467  1.00  0.00     0.050 C 
HETATM   13  C10 UNL     1       3.415  -8.857  -2.795  1.00  0.00     0.050 C 
BRANCH  11  14
HETATM   14  C11 UNL     1       4.376  -9.913  -4.736  1.00  0.00     0.202 C 
HETATM   15  O2  UNL     1       4.095 -10.650  -5.705  1.00  0.00    -0.646 OA
HETATM   16  O3  UNL     1       5.175  -8.797  -4.924  1.00  0.00    -0.646 OA
ENDBRANCH  11  14
ENDBRANCH   9  11
BRANCH   7  17
HETATM   17  C4  UNL     1       7.076  -9.675   1.693  1.00  0.00     0.083 A 
HETATM   18  C5  UNL     1       7.811 -11.013   1.661  1.00  0.00     0.019 A 
HETATM   19  C6  UNL     1       8.502  -9.716   2.046  1.00  0.00    -0.005 A 
HETATM   20  C7  UNL     1       8.824  -9.637   3.524  1.00  0.00     0.011 C 
ENDBRANCH   7  17
TORSDOF 3
ENDMDL
MODEL 5
REMARK VINA RESULT: -4.905104739      3.028      6.455
REMARK  3 active torsions:
REMARK  status: ('A' for Active; 'I' for Inactive)
REMARK       I    between atoms: N1_2  and  C2_4 
REMARK       I    between atoms: C2_4  and  N3_13 
REMARK       I    between atoms: N2_5  and  C3_7 
REMARK    1  A    between atoms: C3_7  and  C4_9 
REMARK    2  A    between atoms: N3_13  and  C8_15 
REMARK    3  A    between atoms: C8_15  and  C11_18 
ROOT
HETATM    1  C1  UNL     1       8.168 -10.317  -3.626  1.00  0.00     0.165 C 
HETATM    2  N1  UNL     1       7.053  -9.447  -3.333  1.00  0.00    -0.231 N 
ATOM      3  H1  UNL     1       6.976  -8.567  -3.842  1.00  0.00     0.177 HD
HETATM    4  C2  UNL     1       6.051  -9.762  -2.361  1.00  0.00     0.677 C 
HETATM    5  N2  UNL     1       6.101  -9.237  -1.183  1.00  0.00    -0.160 N 
ATOM      6  H2  UNL     1       5.369  -9.485  -0.518  1.00  0.00     0.187 HD
HETATM    7  C3  UNL     1       7.100  -8.346  -0.762  1.00  0.00     0.240 C 
HETATM    8  O1  UNL     1       7.620  -7.565  -1.602  1.00  0.00    -0.272 OA
HETATM    9  N3  UNL     1       4.974 -10.648  -2.632  1.00  0.00    -0.208 N 
ATOM     10  H3  UNL     1       4.918 -11.519  -2.105  1.00  0.00     0.179 HD
ENDROOT
BRANCH   9  11
HETATM   11  C8  UNL     1       3.955 -10.373  -3.616  1.00  0.00     0.128 C 
HETATM   12  C9  UNL     1       2.689 -11.168  -3.343  1.00  0.00     0.050 C 
HETATM   13  C10 UNL     1       3.617  -8.904  -3.591  1.00  0.00     0.050 C 
BRANCH  11  14
HETATM   14  C11 UNL     1       4.394 -10.702  -4.995  1.00  0.00     0.202 C 
HETATM   15  O2  UNL     1       5.169  -9.974  -5.652  1.00  0.00    -0.646 OA
HETATM   16  O3  UNL     1       3.907 -11.874  -5.551  1.00  0.00    -0.646 OA
ENDBRANCH  11  14
ENDBRANCH   9  11
BRANCH   7  17
HETATM   17  C4  UNL     1       7.610  -8.243   0.629  1.00  0.00     0.083 A 
HETATM   18  C5  UNL     1       6.600  -7.643   1.604  1.00  0.00     0.019 A 
HETATM   19  C6  UNL     1       7.073  -9.082   1.709  1.00  0.00    -0.005 A 
HETATM   20  C7  UNL     1       7.992  -9.315   2.890  1.00  0.00     0.011 C 
ENDBRANCH   7  17
TORSDOF 3
ENDMDL
