MODEL 1
REMARK VINA RESULT: -4.535435183      0.000      0.000
REMARK  3 active torsions:
REMARK  status: ('A' for Active; 'I' for Inactive)
REMARK    1  A    between atoms: C2_2  and  C5_5 
REMARK    2  A    between atoms: N1_8  and  C8_9 
REMARK    3  A    between atoms: C8_9  and  S2_11 
ROOT
HETATM    1  C5  UNL     1      68.190  38.408  -1.067  1.00  0.00     0.161 C 
HETATM    2  C6  UNL     1      67.742  39.816  -1.280  1.00  0.00     0.057 C 
HETATM    3  C7  UNL     1      66.481  39.908  -0.455  1.00  0.00     0.160 C 
HETATM    4  N1  UNL     1      66.149  38.533  -0.238  1.00  0.00    -0.239 N 
HETATM    5  O1  UNL     1      67.250  37.748  -0.316  1.00  0.00    -0.270 OA
ENDROOT
BRANCH   1   6
HETATM    6  C2  UNL     1      69.545  38.423  -0.349  1.00  0.00    -0.023 C 
HETATM    7  C1  UNL     1      70.435  37.449  -1.070  1.00  0.00     0.017 C 
HETATM    8  C3  UNL     1      69.360  38.079   1.104  1.00  0.00     0.017 C 
HETATM    9  C4  UNL     1      70.128  39.817  -0.454  1.00  0.00     0.017 C 
ENDBRANCH   1   6
BRANCH   4  10
HETATM   10  C8  UNL     1      64.850  38.036   0.023  1.00  0.00     0.175 C 
HETATM   11  S1  UNL     1      63.512  38.793  -0.514  1.00  0.00    -0.050 SA
BRANCH  10  12
HETATM   12  S2  UNL     1      64.698  36.540   0.966  1.00  0.00     0.013 SA
HETATM   13 CL1  UNL     1      62.670  36.187   1.359  1.00  0.00    -0.036 Cl
ENDBRANCH  10  12
ENDBRANCH   4  10
TORSDOF 3
ENDMDL
MODEL 2
REMARK VINA RESULT: -4.494718335      1.975      2.667
REMARK  3 active torsions:
REMARK  status: ('A' for Active; 'I' for Inactive)
REMARK    1  A    between atoms: C2_2  and  C5_5 
REMARK    2  A    between atoms: N1_8  and  C8_9 
REMARK    3  A    between atoms: C8_9  and  S2_11 
ROOT
HETATM    1  C5  UNL     1      66.755  38.024  -0.675  1.00  0.00     0.161 C 
HETATM    2  C6  UNL     1      65.665  38.023  -1.696  1.00  0.00     0.057 C 
HETATM    3  C7  UNL     1      64.425  37.752  -0.879  1.00  0.00     0.160 C 
HETATM    4  N1  UNL     1      64.962  37.239   0.344  1.00  0.00    -0.239 N 
HETATM    5  O1  UNL     1      66.226  37.682   0.544  1.00  0.00    -0.270 OA
ENDROOT
BRANCH   1   6
HETATM    6  C2  UNL     1      67.383  39.422  -0.623  1.00  0.00    -0.023 C 
HETATM    7  C1  UNL     1      68.803  39.248  -0.163  1.00  0.00     0.017 C 
HETATM    8  C3  UNL     1      66.580  40.311   0.287  1.00  0.00     0.017 C 
HETATM    9  C4  UNL     1      67.370  40.006  -2.020  1.00  0.00     0.017 C 
ENDBRANCH   1   6
BRANCH   4  10
HETATM   10  C8  UNL     1      64.283  36.380   1.240  1.00  0.00     0.175 C 
HETATM   11  S1  UNL     1      62.658  36.272   1.267  1.00  0.00    -0.050 SA
BRANCH  10  12
HETATM   12  S2  UNL     1      65.251  35.400   2.358  1.00  0.00     0.013 SA
HETATM   13 CL1  UNL     1      64.938  36.090   4.313  1.00  0.00    -0.036 Cl
ENDBRANCH  10  12
ENDBRANCH   4  10
TORSDOF 3
ENDMDL
MODEL 3
REMARK VINA RESULT: -4.464802288      3.644      5.068
REMARK  3 active torsions:
REMARK  status: ('A' for Active; 'I' for Inactive)
REMARK    1  A    between atoms: C2_2  and  C5_5 
REMARK    2  A    between atoms: N1_8  and  C8_9 
REMARK    3  A    between atoms: C8_9  and  S2_11 
ROOT
HETATM    1  C5  UNL     1      65.997  38.933   0.121  1.00  0.00     0.161 C 
HETATM    2  C6  UNL     1      66.105  40.170  -0.708  1.00  0.00     0.057 C 
HETATM    3  C7  UNL     1      67.453  40.028  -1.371  1.00  0.00     0.160 C 
HETATM    4  N1  UNL     1      68.090  39.026  -0.572  1.00  0.00    -0.239 N 
HETATM    5  O1  UNL     1      67.175  38.234   0.035  1.00  0.00    -0.270 OA
ENDROOT
BRANCH   1   6
HETATM    6  C2  UNL     1      64.826  38.090  -0.399  1.00  0.00    -0.023 C 
HETATM    7  C1  UNL     1      64.518  37.068   0.660  1.00  0.00     0.017 C 
HETATM    8  C3  UNL     1      65.187  37.470  -1.721  1.00  0.00     0.017 C 
HETATM    9  C4  UNL     1      63.630  38.998  -0.591  1.00  0.00     0.017 C 
ENDBRANCH   1   6
BRANCH   4  10
HETATM   10  C8  UNL     1      69.488  38.866  -0.421  1.00  0.00     0.175 C 
HETATM   11  S1  UNL     1      70.282  37.588  -1.043  1.00  0.00    -0.050 SA
BRANCH  10  12
HETATM   12  S2  UNL     1      70.382  40.109   0.477  1.00  0.00     0.013 SA
HETATM   13 CL1  UNL     1      70.477  39.552   2.496  1.00  0.00    -0.036 Cl
ENDBRANCH  10  12
ENDBRANCH   4  10
TORSDOF 3
ENDMDL
MODEL 4
REMARK VINA RESULT: -4.464410268      3.964      4.932
REMARK  3 active torsions:
REMARK  status: ('A' for Active; 'I' for Inactive)
REMARK    1  A    between atoms: C2_2  and  C5_5 
REMARK    2  A    between atoms: N1_8  and  C8_9 
REMARK    3  A    between atoms: C8_9  and  S2_11 
ROOT
HETATM    1  C5  UNL     1      68.681  40.038  -0.619  1.00  0.00     0.161 C 
HETATM    2  C6  UNL     1      68.310  38.631  -0.957  1.00  0.00     0.057 C 
HETATM    3  C7  UNL     1      68.511  37.897   0.347  1.00  0.00     0.160 C 
HETATM    4  N1  UNL     1      69.323  38.807   1.095  1.00  0.00    -0.239 N 
HETATM    5  O1  UNL     1      69.145  40.080   0.671  1.00  0.00    -0.270 OA
ENDROOT
BRANCH   1   6
HETATM    6  C2  UNL     1      67.443  40.929  -0.781  1.00  0.00    -0.023 C 
HETATM    7  C1  UNL     1      67.301  41.718   0.490  1.00  0.00     0.017 C 
HETATM    8  C3  UNL     1      66.236  40.081  -1.079  1.00  0.00     0.017 C 
HETATM    9  C4  UNL     1      67.680  41.873  -1.941  1.00  0.00     0.017 C 
ENDBRANCH   1   6
BRANCH   4  10
HETATM   10  C8  UNL     1      70.203  38.446   2.143  1.00  0.00     0.175 C 
HETATM   11  S1  UNL     1      71.274  39.500   2.772  1.00  0.00    -0.050 SA
BRANCH  10  12
HETATM   12  S2  UNL     1      70.120  36.790   2.775  1.00  0.00     0.013 SA
HETATM   13 CL1  UNL     1      71.048  35.494   1.412  1.00  0.00    -0.036 Cl
ENDBRANCH  10  12
ENDBRANCH   4  10
TORSDOF 3
ENDMDL
MODEL 5
REMARK VINA RESULT: -4.455301140      3.644      5.051
REMARK  3 active torsions:
REMARK  status: ('A' for Active; 'I' for Inactive)
REMARK    1  A    between atoms: C2_2  and  C5_5 
REMARK    2  A    between atoms: N1_8  and  C8_9 
REMARK    3  A    between atoms: C8_9  and  S2_11 
ROOT
HETATM    1  C5  UNL     1      65.999  38.955   0.132  1.00  0.00     0.161 C 
HETATM    2  C6  UNL     1      66.104  40.177  -0.721  1.00  0.00     0.057 C 
HETATM    3  C7  UNL     1      67.447  40.018  -1.392  1.00  0.00     0.160 C 
HETATM    4  N1  UNL     1      68.087  39.029  -0.579  1.00  0.00    -0.239 N 
HETATM    5  O1  UNL     1      67.174  38.252   0.050  1.00  0.00    -0.270 OA
ENDROOT
BRANCH   1   6
HETATM    6  C2  UNL     1      64.822  38.106  -0.363  1.00  0.00    -0.023 C 
HETATM    7  C1  UNL     1      63.671  39.043  -0.594  1.00  0.00     0.017 C 
HETATM    8  C3  UNL     1      64.507  37.031   0.642  1.00  0.00     0.017 C 
HETATM    9  C4  UNL     1      65.217  37.454  -1.672  1.00  0.00     0.017 C 
ENDBRANCH   1   6
BRANCH   4  10
HETATM   10  C8  UNL     1      69.485  38.868  -0.436  1.00  0.00     0.175 C 
HETATM   11  S1  UNL     1      70.276  37.591  -1.065  1.00  0.00    -0.050 SA
BRANCH  10  12
HETATM   12  S2  UNL     1      70.385  40.109   0.460  1.00  0.00     0.013 SA
HETATM   13 CL1  UNL     1      70.476  39.556   2.481  1.00  0.00    -0.036 Cl
ENDBRANCH  10  12
ENDBRANCH   4  10
TORSDOF 3
ENDMDL
