MODEL 1
REMARK VINA RESULT: -6.884213259      0.000      0.000
REMARK  0 active torsions:
REMARK  status: ('A' for Active; 'I' for Inactive)
ROOT
HETATM    1  C1  UNL     1      68.143  41.152   0.844  1.00  0.00     0.015 C 
HETATM    2  C2  UNL     1      68.681  40.392  -0.318  1.00  0.00    -0.039 C 
HETATM    3  C3  UNL     1      69.053  39.011   0.137  1.00  0.00     0.015 C 
HETATM    4  C4  UNL     1      68.599  37.918  -0.773  1.00  0.00     0.056 C 
HETATM    5  C5  UNL     1      67.184  38.093  -1.073  1.00  0.00     0.019 C 
HETATM    6  N1  UNL     1      66.257  37.203  -0.962  1.00  0.00    -0.243 N 
ATOM      7  H1  UNL     1      66.446  36.254  -0.640  1.00  0.00     0.196 HD
HETATM    8  O1  UNL     1      64.996  37.627  -1.312  1.00  0.00    -0.113 OA
HETATM    9  O2  UNL     1      64.504  38.833  -1.124  1.00  0.00    -0.216 OA
HETATM   10  C6  UNL     1      65.499  39.782  -0.787  1.00  0.00     0.223 C 
HETATM   11  C7  UNL     1      66.715  39.417  -1.558  1.00  0.00     0.065 C 
HETATM   12  C8  UNL     1      67.824  40.409  -1.546  1.00  0.00     0.007 C 
HETATM   13  C9  UNL     1      67.413  41.806  -1.861  1.00  0.00     0.026 C 
HETATM   14  C10 UNL     1      68.684  42.554  -2.290  1.00  0.00     0.082 C 
HETATM   15 CL1  UNL     1      68.233  44.270  -2.502  1.00  0.00    -0.125 Cl
HETATM   16  C11 UNL     1      69.724  42.480  -1.227  1.00  0.00     0.021 C 
HETATM   17  C12 UNL     1      69.996  41.082  -0.726  1.00  0.00     0.011 C 
ENDROOT
TORSDOF 0
ENDMDL
MODEL 2
REMARK VINA RESULT: -6.153536164      3.962      5.023
REMARK  0 active torsions:
REMARK  status: ('A' for Active; 'I' for Inactive)
ROOT
HETATM    1  C1  UNL     1      67.526  41.285   0.590  1.00  0.00     0.015 C 
HETATM    2  C2  UNL     1      68.459  40.898  -0.503  1.00  0.00    -0.039 C 
HETATM    3  C3  UNL     1      69.432  42.018  -0.729  1.00  0.00     0.015 C 
HETATM    4  C4  UNL     1      70.854  41.583  -0.863  1.00  0.00     0.056 C 
HETATM    5  C5  UNL     1      71.198  40.699   0.244  1.00  0.00     0.019 C 
HETATM    6  N1  UNL     1      72.216  40.809   1.028  1.00  0.00    -0.243 N 
ATOM      7  H1  UNL     1      72.899  41.560   0.936  1.00  0.00     0.196 HD
HETATM    8  O1  UNL     1      72.311  39.839   1.999  1.00  0.00    -0.113 OA
HETATM    9  O2  UNL     1      71.305  39.264   2.623  1.00  0.00    -0.216 OA
HETATM   10  C6  UNL     1      70.059  39.517   1.998  1.00  0.00     0.223 C 
HETATM   11  C7  UNL     1      70.314  39.542   0.535  1.00  0.00     0.065 C 
HETATM   12  C8  UNL     1      69.112  39.558  -0.342  1.00  0.00     0.007 C 
HETATM   13  C9  UNL     1      68.087  38.529  -0.014  1.00  0.00     0.026 C 
HETATM   14  C10 UNL     1      67.211  38.362  -1.265  1.00  0.00     0.082 C 
HETATM   15 CL1  UNL     1      65.876  37.259  -0.824  1.00  0.00    -0.125 Cl
HETATM   16  C11 UNL     1      66.616  39.666  -1.669  1.00  0.00     0.021 C 
HETATM   17  C12 UNL     1      67.616  40.791  -1.787  1.00  0.00     0.011 C 
ENDROOT
TORSDOF 0
ENDMDL
MODEL 3
REMARK VINA RESULT: -6.046441512      3.020      4.147
REMARK  0 active torsions:
REMARK  status: ('A' for Active; 'I' for Inactive)
ROOT
HETATM    1  C1  UNL     1      70.913  39.193  -1.067  1.00  0.00     0.015 C 
HETATM    2  C2  UNL     1      70.534  40.461  -0.385  1.00  0.00    -0.039 C 
HETATM    3  C3  UNL     1      70.413  41.547  -1.414  1.00  0.00     0.015 C 
HETATM    4  C4  UNL     1      69.198  42.402  -1.270  1.00  0.00     0.056 C 
HETATM    5  C5  UNL     1      68.019  41.553  -1.147  1.00  0.00     0.019 C 
HETATM    6  N1  UNL     1      66.934  41.639  -1.838  1.00  0.00    -0.243 N 
ATOM      7  H1  UNL     1      66.802  42.342  -2.564  1.00  0.00     0.196 HD
HETATM    8  O1  UNL     1      65.967  40.711  -1.524  1.00  0.00    -0.113 OA
HETATM    9  O2  UNL     1      66.179  39.468  -1.147  1.00  0.00    -0.216 OA
HETATM   10  C6  UNL     1      67.530  39.227  -0.795  1.00  0.00     0.223 C 
HETATM   11  C7  UNL     1      68.026  40.463  -0.137  1.00  0.00     0.065 C 
HETATM   12  C8  UNL     1      69.352  40.366   0.530  1.00  0.00     0.007 C 
HETATM   13  C9  UNL     1      69.506  39.199   1.442  1.00  0.00     0.026 C 
HETATM   14  C10 UNL     1      70.674  39.526   2.385  1.00  0.00     0.082 C 
HETATM   15 CL1  UNL     1      70.979  38.064   3.366  1.00  0.00    -0.125 Cl
HETATM   16  C11 UNL     1      71.910  39.824   1.609  1.00  0.00     0.021 C 
HETATM   17  C12 UNL     1      71.721  40.849   0.516  1.00  0.00     0.011 C 
ENDROOT
TORSDOF 0
ENDMDL
MODEL 4
REMARK VINA RESULT: -6.045060547      4.206      5.189
REMARK  0 active torsions:
REMARK  status: ('A' for Active; 'I' for Inactive)
ROOT
HETATM    1  C1  UNL     1      71.015  39.002  -0.735  1.00  0.00     0.015 C 
HETATM    2  C2  UNL     1      70.029  38.204   0.043  1.00  0.00    -0.039 C 
HETATM    3  C3  UNL     1      70.614  36.851   0.325  1.00  0.00     0.015 C 
HETATM    4  C4  UNL     1      70.438  36.383   1.732  1.00  0.00     0.056 C 
HETATM    5  C5  UNL     1      70.869  37.430   2.649  1.00  0.00     0.019 C 
HETATM    6  N1  UNL     1      71.696  37.301   3.630  1.00  0.00    -0.243 N 
ATOM      7  H1  UNL     1      72.141  36.412   3.857  1.00  0.00     0.196 HD
HETATM    8  O1  UNL     1      71.935  38.451   4.347  1.00  0.00    -0.113 OA
HETATM    9  O2  UNL     1      71.981  39.673   3.859  1.00  0.00    -0.216 OA
HETATM   10  C6  UNL     1      71.461  39.756   2.544  1.00  0.00     0.223 C 
HETATM   11  C7  UNL     1      70.325  38.802   2.474  1.00  0.00     0.065 C 
HETATM   12  C8  UNL     1      69.472  38.883   1.257  1.00  0.00     0.007 C 
HETATM   13  C9  UNL     1      69.015  40.256   0.908  1.00  0.00     0.026 C 
HETATM   14  C10 UNL     1      67.796  40.096  -0.013  1.00  0.00     0.082 C 
HETATM   15 CL1  UNL     1      67.347  41.731  -0.575  1.00  0.00    -0.125 Cl
HETATM   16  C11 UNL     1      68.142  39.278  -1.208  1.00  0.00     0.021 C 
HETATM   17  C12 UNL     1      68.821  37.968  -0.884  1.00  0.00     0.011 C 
ENDROOT
TORSDOF 0
ENDMDL
MODEL 5
REMARK VINA RESULT: -5.933121313      1.381      1.643
REMARK  0 active torsions:
REMARK  status: ('A' for Active; 'I' for Inactive)
ROOT
HETATM    1  C1  UNL     1      69.494  40.175   1.399  1.00  0.00     0.015 C 
HETATM    2  C2  UNL     1      69.719  39.701   0.007  1.00  0.00    -0.039 C 
HETATM    3  C3  UNL     1      69.515  38.215  -0.039  1.00  0.00     0.015 C 
HETATM    4  C4  UNL     1      68.691  37.739  -1.189  1.00  0.00     0.056 C 
HETATM    5  C5  UNL     1      67.462  38.519  -1.261  1.00  0.00     0.019 C 
HETATM    6  N1  UNL     1      66.260  38.057  -1.334  1.00  0.00    -0.243 N 
ATOM      7  H1  UNL     1      66.059  37.058  -1.348  1.00  0.00     0.196 HD
HETATM    8  O1  UNL     1      65.270  39.011  -1.391  1.00  0.00    -0.113 OA
HETATM    9  O2  UNL     1      65.282  40.177  -0.781  1.00  0.00    -0.216 OA
HETATM   10  C6  UNL     1      66.561  40.516  -0.275  1.00  0.00     0.223 C 
HETATM   11  C7  UNL     1      67.556  40.002  -1.251  1.00  0.00     0.065 C 
HETATM   12  C8  UNL     1      68.962  40.444  -1.052  1.00  0.00     0.007 C 
HETATM   13  C9  UNL     1      69.134  41.911  -0.865  1.00  0.00     0.026 C 
HETATM   14  C10 UNL     1      70.604  42.228  -1.176  1.00  0.00     0.082 C 
HETATM   15 CL1  UNL     1      70.861  43.953  -0.789  1.00  0.00    -0.125 Cl
HETATM   16  C11 UNL     1      71.511  41.423  -0.311  1.00  0.00     0.021 C 
HETATM   17  C12 UNL     1      71.207  39.943  -0.307  1.00  0.00     0.011 C 
ENDROOT
TORSDOF 0
ENDMDL
