MODEL 1
REMARK VINA RESULT: -5.119558551      0.000      0.000
REMARK  0 active torsions:
REMARK  status: ('A' for Active; 'I' for Inactive)
ROOT
HETATM    1  C1  UNL     1      67.411  41.376  -1.881  1.00  0.00     0.016 C 
HETATM    2  C2  UNL     1      68.218  40.695  -0.765  1.00  0.00    -0.031 C 
HETATM    3  C3  UNL     1      67.637  41.193   0.554  1.00  0.00     0.016 C 
HETATM    4  C4  UNL     1      69.641  41.072  -0.932  1.00  0.00     0.012 C 
HETATM    5  C5  UNL     1      70.640  40.039  -0.595  1.00  0.00     0.032 C 
HETATM    6  C6  UNL     1      70.192  38.938   0.287  1.00  0.00     0.097 C 
HETATM    7  C7  UNL     1      68.837  38.383  -0.028  1.00  0.00     0.052 C 
HETATM    8  C8  UNL     1      68.016  39.223  -0.935  1.00  0.00     0.092 C 
HETATM    9 CL1  UNL     1      66.283  38.839  -0.698  1.00  0.00    -0.124 Cl
HETATM   10  S1  UNL     1      70.231  39.419   2.058  1.00  0.00    -0.146 SA
HETATM   11  C9  UNL     1      71.653  38.508   2.766  1.00  0.00     0.102 C 
HETATM   12  C10 UNL     1      72.808  38.732   1.781  1.00  0.00     0.189 C 
HETATM   13  O1  UNL     1      72.480  38.104   0.536  1.00  0.00    -0.319 OA
HETATM   14  C11 UNL     1      71.176  37.821   0.164  1.00  0.00     0.278 C 
HETATM   15  O2  UNL     1      70.831  36.669  -0.262  1.00  0.00    -0.263 OA
ENDROOT
TORSDOF 0
ENDMDL
MODEL 2
REMARK VINA RESULT: -4.983291397      1.853      2.579
REMARK  0 active torsions:
REMARK  status: ('A' for Active; 'I' for Inactive)
ROOT
HETATM    1  C1  UNL     1      65.907  39.440  -0.874  1.00  0.00     0.016 C 
HETATM    2  C2  UNL     1      67.437  39.578  -0.867  1.00  0.00    -0.031 C 
HETATM    3  C3  UNL     1      67.798  40.449  -2.065  1.00  0.00     0.016 C 
HETATM    4  C4  UNL     1      68.020  38.218  -0.962  1.00  0.00     0.012 C 
HETATM    5  C5  UNL     1      69.270  37.984  -0.213  1.00  0.00     0.032 C 
HETATM    6  C6  UNL     1      70.058  39.179   0.164  1.00  0.00     0.097 C 
HETATM    7  C7  UNL     1      69.256  40.334   0.681  1.00  0.00     0.052 C 
HETATM    8  C8  UNL     1      67.797  40.240   0.425  1.00  0.00     0.092 C 
HETATM    9 CL1  UNL     1      67.079  41.882   0.459  1.00  0.00    -0.124 Cl
HETATM   10  S1  UNL     1      71.110  39.770  -1.220  1.00  0.00    -0.146 SA
HETATM   11  C9  UNL     1      72.820  39.321  -0.742  1.00  0.00     0.102 C 
HETATM   12  C10 UNL     1      72.739  37.860  -0.277  1.00  0.00     0.189 C 
HETATM   13  O1  UNL     1      71.938  37.800   0.909  1.00  0.00    -0.319 OA
HETATM   14  C11 UNL     1      71.015  38.779   1.238  1.00  0.00     0.278 C 
HETATM   15  O2  UNL     1      70.982  39.312   2.396  1.00  0.00    -0.263 OA
ENDROOT
TORSDOF 0
ENDMDL
MODEL 3
REMARK VINA RESULT: -4.872858836      4.296      5.887
REMARK  0 active torsions:
REMARK  status: ('A' for Active; 'I' for Inactive)
ROOT
HETATM    1  C1  UNL     1      69.281  39.310  -1.362  1.00  0.00     0.016 C 
HETATM    2  C2  UNL     1      68.067  38.814  -0.562  1.00  0.00    -0.031 C 
HETATM    3  C3  UNL     1      68.597  38.370   0.796  1.00  0.00     0.016 C 
HETATM    4  C4  UNL     1      67.444  37.700  -1.317  1.00  0.00     0.012 C 
HETATM    5  C5  UNL     1      65.974  37.603  -1.253  1.00  0.00     0.032 C 
HETATM    6  C6  UNL     1      65.305  38.290  -0.124  1.00  0.00     0.097 C 
HETATM    7  C7  UNL     1      65.831  39.657   0.189  1.00  0.00     0.052 C 
HETATM    8  C8  UNL     1      67.137  39.979  -0.438  1.00  0.00     0.092 C 
HETATM    9 CL1  UNL     1      67.946  41.273   0.501  1.00  0.00    -0.124 Cl
HETATM   10  S1  UNL     1      65.343  37.282   1.410  1.00  0.00    -0.146 SA
HETATM   11  C9  UNL     1      63.625  36.690   1.632  1.00  0.00     0.102 C 
HETATM   12  C10 UNL     1      63.200  36.159   0.256  1.00  0.00     0.189 C 
HETATM   13  O1  UNL     1      63.155  37.254  -0.666  1.00  0.00    -0.319 OA
HETATM   14  C11 UNL     1      63.858  38.430  -0.463  1.00  0.00     0.278 C 
HETATM   15  O2  UNL     1      63.301  39.574  -0.561  1.00  0.00    -0.263 OA
ENDROOT
TORSDOF 0
ENDMDL
MODEL 4
REMARK VINA RESULT: -4.832819618      2.720      4.773
REMARK  0 active torsions:
REMARK  status: ('A' for Active; 'I' for Inactive)
ROOT
HETATM    1  C1  UNL     1      72.017  36.947   2.330  1.00  0.00     0.016 C 
HETATM    2  C2  UNL     1      71.347  37.888   1.317  1.00  0.00    -0.031 C 
HETATM    3  C3  UNL     1      72.462  38.720   0.696  1.00  0.00     0.016 C 
HETATM    4  C4  UNL     1      70.361  38.720   2.047  1.00  0.00     0.012 C 
HETATM    5  C5  UNL     1      69.121  39.060   1.322  1.00  0.00     0.032 C 
HETATM    6  C6  UNL     1      69.159  38.957  -0.154  1.00  0.00     0.097 C 
HETATM    7  C7  UNL     1      69.854  37.743  -0.689  1.00  0.00     0.052 C 
HETATM    8  C8  UNL     1      70.681  37.012   0.303  1.00  0.00     0.092 C 
HETATM    9 CL1  UNL     1      71.931  36.055  -0.553  1.00  0.00    -0.124 Cl
HETATM   10  S1  UNL     1      69.906  40.447  -0.925  1.00  0.00    -0.146 SA
HETATM   11  C9  UNL     1      68.503  41.337  -1.695  1.00  0.00     0.102 C 
HETATM   12  C10 UNL     1      67.409  41.374  -0.619  1.00  0.00     0.189 C 
HETATM   13  O1  UNL     1      66.971  40.034  -0.362  1.00  0.00    -0.319 OA
HETATM   14  C11 UNL     1      67.751  38.926  -0.649  1.00  0.00     0.278 C 
HETATM   15  O2  UNL     1      67.293  37.930  -1.301  1.00  0.00    -0.263 OA
ENDROOT
TORSDOF 0
ENDMDL
MODEL 5
REMARK VINA RESULT: -4.778316005      2.613      3.555
REMARK  0 active torsions:
REMARK  status: ('A' for Active; 'I' for Inactive)
ROOT
HETATM    1  C1  UNL     1      68.098  38.664  -0.921  1.00  0.00     0.016 C 
HETATM    2  C2  UNL     1      69.384  38.343  -0.143  1.00  0.00    -0.031 C 
HETATM    3  C3  UNL     1      70.261  37.521  -1.080  1.00  0.00     0.016 C 
HETATM    4  C4  UNL     1      69.006  37.594   1.078  1.00  0.00     0.012 C 
HETATM    5  C5  UNL     1      69.808  37.861   2.288  1.00  0.00     0.032 C 
HETATM    6  C6  UNL     1      71.147  38.458   2.086  1.00  0.00     0.097 C 
HETATM    7  C7  UNL     1      71.206  39.558   1.072  1.00  0.00     0.052 C 
HETATM    8  C8  UNL     1      70.015  39.657   0.192  1.00  0.00     0.092 C 
HETATM    9 CL1  UNL     1      70.464  40.494  -1.328  1.00  0.00    -0.124 Cl
HETATM   10  S1  UNL     1      72.403  37.191   1.649  1.00  0.00    -0.146 SA
HETATM   11  C9  UNL     1      73.445  37.020   3.145  1.00  0.00     0.102 C 
HETATM   12  C10 UNL     1      72.457  36.896   4.314  1.00  0.00     0.189 C 
HETATM   13  O1  UNL     1      71.736  38.127   4.439  1.00  0.00    -0.319 OA
HETATM   14  C11 UNL     1      71.601  39.023   3.391  1.00  0.00     0.278 C 
HETATM   15  O2  UNL     1      71.851  40.266   3.532  1.00  0.00    -0.263 OA
ENDROOT
TORSDOF 0
ENDMDL
