MODEL 1
REMARK VINA RESULT: -8.180567583      0.000      0.000
REMARK  5 active torsions:
REMARK  status: ('A' for Active; 'I' for Inactive)
REMARK    1  A    between atoms: C2_2  and  C3_3 
REMARK    2  A    between atoms: C3_3  and  N1_4 
REMARK    3  A    between atoms: C4_5  and  C5_6 
REMARK    4  A    between atoms: C7_8  and  N2_9 
REMARK    5  A    between atoms: C16_23  and  C17_24 
ROOT
HETATM    1  C5  UNL     1     -14.681  11.979  -5.275  1.00  0.00     0.083 A 
HETATM    2  C6  UNL     1     -14.979  10.666  -5.463  1.00  0.00     0.082 A 
HETATM    3  C7  UNL     1     -14.711  10.056  -6.703  1.00  0.00     0.106 A 
HETATM    4  N4  UNL     1     -14.167  10.777  -7.678  1.00  0.00    -0.332 N 
ATOM      5  H4  UNL     1     -13.975  10.331  -8.575  1.00  0.00     0.168 HD
HETATM    6  C16 UNL     1     -13.860  12.090  -7.519  1.00  0.00     0.087 A 
HETATM    7  N5  UNL     1     -14.121  12.652  -6.336  1.00  0.00    -0.342 N 
ATOM      8  H5  UNL     1     -13.892  13.638  -6.211  1.00  0.00     0.167 HD
ENDROOT
BRANCH   3   9
HETATM    9  N2  UNL     1     -15.052   8.683  -6.813  1.00  0.00    -0.366 N 
HETATM   10  C8  UNL     1     -15.663   8.140  -8.026  1.00  0.00     0.125 C 
HETATM   11  C9  UNL     1     -16.655   7.151  -7.494  1.00  0.00     0.031 C 
HETATM   12  C10 UNL     1     -16.007   6.633  -6.243  1.00  0.00    -0.020 C 
HETATM   13  C11 UNL     1     -15.456   5.256  -6.519  1.00  0.00     0.039 C 
HETATM   14  C14 UNL     1     -17.002   6.593  -5.110  1.00  0.00     0.039 C 
HETATM   15  C15 UNL     1     -14.906   7.610  -5.879  1.00  0.00     0.134 C 
HETATM   16  C12 UNL     1     -16.584   4.286  -6.689  1.00  0.00     0.233 C 
HETATM   17  N3  UNL     1     -17.527   4.317  -5.596  1.00  0.00    -0.075 N 
HETATM   18  C13 UNL     1     -18.099   5.643  -5.463  1.00  0.00     0.233 C 
ATOM     19  H32 UNL     1     -18.246   3.600  -5.694  1.00  0.00     0.277 HD
ATOM     20  H31 UNL     1     -17.109   3.993  -4.724  1.00  0.00     0.277 HD
ENDBRANCH   3   9
BRANCH   1  21
HETATM   21  C4  UNL     1     -14.891  12.771  -4.071  1.00  0.00     0.151 A 
HETATM   22  N1  UNL     1     -15.047  12.450  -2.790  1.00  0.00    -0.306 N 
HETATM   23  C20 UNL     1     -15.208  13.630  -2.085  1.00  0.00     0.194 A 
HETATM   24  N7  UNL     1     -15.148  14.642  -2.939  1.00  0.00    -0.274 N 
HETATM   25  S1  UNL     1     -15.434  13.698  -0.472  1.00  0.00    -0.039 SA
HETATM   26  N6  UNL     1     -14.962  14.152  -4.117  1.00  0.00    -0.281 N 
ATOM     27  H7  UNL     1     -15.233  15.631  -2.707  1.00  0.00     0.189 HD
ATOM     28  H6  UNL     1     -14.877  14.707  -4.968  1.00  0.00     0.188 HD
BRANCH  22  29
HETATM   29  C3  UNL     1     -15.053  11.150  -2.205  1.00  0.00     0.133 C 
BRANCH  29  30
HETATM   30  C2  UNL     1     -13.668  10.518  -2.118  1.00  0.00     0.016 C 
HETATM   31  C1  UNL     1     -13.003  10.858  -0.803  1.00  0.00     0.006 C 
ENDBRANCH  29  30
ENDBRANCH  22  29
ENDBRANCH   1  21
BRANCH   6  32
HETATM   32  C17 UNL     1     -13.251  12.864  -8.638  1.00  0.00     0.053 A 
HETATM   33  C18 UNL     1     -12.814  14.262  -8.435  1.00  0.00     0.013 A 
HETATM   34  C19 UNL     1     -11.795  13.140  -8.644  1.00  0.00     0.013 A 
ENDBRANCH   6  32
TORSDOF 5
ENDMDL
MODEL 2
REMARK VINA RESULT: -8.130892441      1.722      2.073
REMARK  5 active torsions:
REMARK  status: ('A' for Active; 'I' for Inactive)
REMARK    1  A    between atoms: C2_2  and  C3_3 
REMARK    2  A    between atoms: C3_3  and  N1_4 
REMARK    3  A    between atoms: C4_5  and  C5_6 
REMARK    4  A    between atoms: C7_8  and  N2_9 
REMARK    5  A    between atoms: C16_23  and  C17_24 
ROOT
HETATM    1  C5  UNL     1     -15.105  12.456  -5.854  1.00  0.00     0.083 A 
HETATM    2  C6  UNL     1     -15.382  11.132  -5.992  1.00  0.00     0.082 A 
HETATM    3  C7  UNL     1     -14.605  10.339  -6.858  1.00  0.00     0.106 A 
HETATM    4  N4  UNL     1     -13.607  10.900  -7.533  1.00  0.00    -0.332 N 
ATOM      5  H4  UNL     1     -13.047  10.321  -8.158  1.00  0.00     0.168 HD
HETATM    6  C16 UNL     1     -13.308  12.219  -7.415  1.00  0.00     0.087 A 
HETATM    7  N5  UNL     1     -14.056  12.956  -6.588  1.00  0.00    -0.342 N 
ATOM      8  H5  UNL     1     -13.835  13.947  -6.497  1.00  0.00     0.167 HD
ENDROOT
BRANCH   3   9
HETATM    9  N2  UNL     1     -14.962   8.968  -6.942  1.00  0.00    -0.366 N 
HETATM   10  C8  UNL     1     -15.635   8.422  -8.120  1.00  0.00     0.125 C 
HETATM   11  C9  UNL     1     -16.608   7.445  -7.534  1.00  0.00     0.031 C 
HETATM   12  C10 UNL     1     -15.905   6.930  -6.312  1.00  0.00    -0.020 C 
HETATM   13  C11 UNL     1     -15.379   5.547  -6.604  1.00  0.00     0.039 C 
HETATM   14  C14 UNL     1     -16.845   6.906  -5.132  1.00  0.00     0.039 C 
HETATM   15  C15 UNL     1     -14.780   7.900  -6.008  1.00  0.00     0.134 C 
HETATM   16  C12 UNL     1     -16.522   4.585  -6.713  1.00  0.00     0.233 C 
HETATM   17  N3  UNL     1     -17.411   4.631  -5.577  1.00  0.00    -0.075 N 
HETATM   18  C13 UNL     1     -17.965   5.963  -5.425  1.00  0.00     0.233 C 
ATOM     19  H32 UNL     1     -18.139   3.920  -5.634  1.00  0.00     0.277 HD
ATOM     20  H31 UNL     1     -16.954   4.310  -4.723  1.00  0.00     0.277 HD
ENDBRANCH   3   9
BRANCH   1  21
HETATM   21  C4  UNL     1     -15.800  13.423  -5.015  1.00  0.00     0.151 A 
HETATM   22  N1  UNL     1     -16.616  13.298  -3.973  1.00  0.00    -0.306 N 
HETATM   23  C20 UNL     1     -16.971  14.574  -3.571  1.00  0.00     0.194 A 
HETATM   24  N7  UNL     1     -16.371  15.448  -4.366  1.00  0.00    -0.274 N 
HETATM   25  S1  UNL     1     -17.970  14.885  -2.320  1.00  0.00    -0.039 SA
HETATM   26  N6  UNL     1     -15.675  14.784  -5.225  1.00  0.00    -0.281 N 
ATOM     27  H7  UNL     1     -16.445  16.463  -4.309  1.00  0.00     0.189 HD
ATOM     28  H6  UNL     1     -15.108  15.206  -5.961  1.00  0.00     0.188 HD
BRANCH  22  29
HETATM   29  C3  UNL     1     -17.068  12.098  -3.351  1.00  0.00     0.133 C 
BRANCH  29  30
HETATM   30  C2  UNL     1     -18.338  11.531  -3.977  1.00  0.00     0.016 C 
HETATM   31  C1  UNL     1     -19.415  11.341  -2.932  1.00  0.00     0.006 C 
ENDBRANCH  29  30
ENDBRANCH  22  29
ENDBRANCH   1  21
BRANCH   6  32
HETATM   32  C17 UNL     1     -12.180  12.810  -8.189  1.00  0.00     0.053 A 
HETATM   33  C18 UNL     1     -11.964  12.442  -9.604  1.00  0.00     0.013 A 
HETATM   34  C19 UNL     1     -12.447  13.841  -9.220  1.00  0.00     0.013 A 
ENDBRANCH   6  32
TORSDOF 5
ENDMDL
MODEL 3
REMARK VINA RESULT: -8.124160133      1.098      1.293
REMARK  5 active torsions:
REMARK  status: ('A' for Active; 'I' for Inactive)
REMARK    1  A    between atoms: C2_2  and  C3_3 
REMARK    2  A    between atoms: C3_3  and  N1_4 
REMARK    3  A    between atoms: C4_5  and  C5_6 
REMARK    4  A    between atoms: C7_8  and  N2_9 
REMARK    5  A    between atoms: C16_23  and  C17_24 
ROOT
HETATM    1  C5  UNL     1     -14.991  12.447  -5.822  1.00  0.00     0.083 A 
HETATM    2  C6  UNL     1     -15.292  11.128  -5.943  1.00  0.00     0.082 A 
HETATM    3  C7  UNL     1     -14.553  10.317  -6.825  1.00  0.00     0.106 A 
HETATM    4  N4  UNL     1     -13.566  10.857  -7.531  1.00  0.00    -0.332 N 
ATOM      5  H4  UNL     1     -13.033  10.265  -8.169  1.00  0.00     0.168 HD
HETATM    6  C16 UNL     1     -13.243  12.172  -7.432  1.00  0.00     0.087 A 
HETATM    7  N5  UNL     1     -13.955  12.926  -6.589  1.00  0.00    -0.342 N 
ATOM      8  H5  UNL     1     -13.716  13.914  -6.511  1.00  0.00     0.167 HD
ENDROOT
BRANCH   3   9
HETATM    9  N2  UNL     1     -14.934   8.951  -6.889  1.00  0.00    -0.366 N 
HETATM   10  C8  UNL     1     -15.629   8.403  -8.054  1.00  0.00     0.125 C 
HETATM   11  C9  UNL     1     -16.612   7.449  -7.446  1.00  0.00     0.031 C 
HETATM   12  C10 UNL     1     -15.904   6.937  -6.226  1.00  0.00    -0.020 C 
HETATM   13  C11 UNL     1     -15.405   5.541  -6.507  1.00  0.00     0.039 C 
HETATM   14  C14 UNL     1     -16.831   6.942  -5.036  1.00  0.00     0.039 C 
HETATM   15  C15 UNL     1     -14.760   7.891  -5.945  1.00  0.00     0.134 C 
HETATM   16  C12 UNL     1     -16.565   4.598  -6.593  1.00  0.00     0.233 C 
HETATM   17  N3  UNL     1     -17.441   4.672  -5.448  1.00  0.00    -0.075 N 
HETATM   18  C13 UNL     1     -17.971   6.014  -5.306  1.00  0.00     0.233 C 
ATOM     19  H32 UNL     1     -18.181   3.973  -5.490  1.00  0.00     0.277 HD
ATOM     20  H31 UNL     1     -16.980   4.353  -4.596  1.00  0.00     0.277 HD
ENDBRANCH   3   9
BRANCH   1  21
HETATM   21  C4  UNL     1     -15.646  13.431  -4.970  1.00  0.00     0.151 A 
HETATM   22  N1  UNL     1     -16.096  13.392  -3.720  1.00  0.00    -0.306 N 
HETATM   23  C20 UNL     1     -16.627  14.637  -3.432  1.00  0.00     0.194 A 
HETATM   24  N7  UNL     1     -16.494  15.408  -4.502  1.00  0.00    -0.274 N 
HETATM   25  S1  UNL     1     -17.296  15.027  -1.997  1.00  0.00    -0.039 SA
HETATM   26  N6  UNL     1     -15.916  14.711  -5.419  1.00  0.00    -0.281 N 
ATOM     27  H7  UNL     1     -16.793  16.379  -4.584  1.00  0.00     0.189 HD
ATOM     28  H6  UNL     1     -15.689  15.057  -6.352  1.00  0.00     0.188 HD
BRANCH  22  29
HETATM   29  C3  UNL     1     -16.059  12.297  -2.808  1.00  0.00     0.133 C 
BRANCH  29  30
HETATM   30  C2  UNL     1     -14.673  12.037  -2.228  1.00  0.00     0.016 C 
HETATM   31  C1  UNL     1     -14.267  10.594  -2.427  1.00  0.00     0.006 C 
ENDBRANCH  29  30
ENDBRANCH  22  29
ENDBRANCH   1  21
BRANCH   6  32
HETATM   32  C17 UNL     1     -12.128  12.740  -8.241  1.00  0.00     0.053 A 
HETATM   33  C18 UNL     1     -11.990  12.402  -9.674  1.00  0.00     0.013 A 
HETATM   34  C19 UNL     1     -12.399  13.808  -9.232  1.00  0.00     0.013 A 
ENDBRANCH   6  32
TORSDOF 5
ENDMDL
MODEL 4
REMARK VINA RESULT: -8.018399827      2.848      6.741
REMARK  5 active torsions:
REMARK  status: ('A' for Active; 'I' for Inactive)
REMARK    1  A    between atoms: C2_2  and  C3_3 
REMARK    2  A    between atoms: C3_3  and  N1_4 
REMARK    3  A    between atoms: C4_5  and  C5_6 
REMARK    4  A    between atoms: C7_8  and  N2_9 
REMARK    5  A    between atoms: C16_23  and  C17_24 
ROOT
HETATM    1  C5  UNL     1     -14.817  10.649  -7.227  1.00  0.00     0.083 A 
HETATM    2  C6  UNL     1     -15.320  11.493  -6.288  1.00  0.00     0.082 A 
HETATM    3  C7  UNL     1     -14.700  12.736  -6.059  1.00  0.00     0.106 A 
HETATM    4  N4  UNL     1     -13.626  13.068  -6.768  1.00  0.00    -0.332 N 
ATOM      5  H4  UNL     1     -13.182  13.970  -6.598  1.00  0.00     0.168 HD
HETATM    6  C16 UNL     1     -13.102  12.244  -7.711  1.00  0.00     0.087 A 
HETATM    7  N5  UNL     1     -13.703  11.069  -7.915  1.00  0.00    -0.342 N 
ATOM      8  H5  UNL     1     -13.313  10.447  -8.623  1.00  0.00     0.167 HD
ENDROOT
BRANCH   3   9
HETATM    9  N2  UNL     1     -15.291  13.556  -5.062  1.00  0.00    -0.366 N 
HETATM   10  C8  UNL     1     -14.580  13.896  -3.829  1.00  0.00     0.125 C 
HETATM   11  C9  UNL     1     -15.660  13.854  -2.791  1.00  0.00     0.031 C 
HETATM   12  C10 UNL     1     -16.885  14.304  -3.533  1.00  0.00    -0.020 C 
HETATM   13  C11 UNL     1     -17.188  15.730  -3.146  1.00  0.00     0.039 C 
HETATM   14  C14 UNL     1     -18.054  13.405  -3.215  1.00  0.00     0.039 C 
HETATM   15  C15 UNL     1     -16.576  14.182  -5.012  1.00  0.00     0.134 C 
HETATM   16  C12 UNL     1     -17.667  15.778  -1.728  1.00  0.00     0.233 C 
HETATM   17  N3  UNL     1     -18.760  14.871  -1.470  1.00  0.00    -0.075 N 
HETATM   18  C13 UNL     1     -18.360  13.507  -1.756  1.00  0.00     0.233 C 
ATOM     19  H32 UNL     1     -19.121  14.970  -0.521  1.00  0.00     0.277 HD
ATOM     20  H31 UNL     1     -19.603  15.135  -1.980  1.00  0.00     0.277 HD
ENDBRANCH   3   9
BRANCH   1  21
HETATM   21  C4  UNL     1     -15.320   9.331  -7.593  1.00  0.00     0.151 A 
HETATM   22  N1  UNL     1     -15.553   8.224  -6.895  1.00  0.00    -0.306 N 
HETATM   23  C20 UNL     1     -16.037   7.274  -7.778  1.00  0.00     0.194 A 
HETATM   24  N7  UNL     1     -16.091   7.812  -8.987  1.00  0.00    -0.274 N 
HETATM   25  S1  UNL     1     -16.451   5.759  -7.339  1.00  0.00    -0.039 SA
HETATM   26  N6  UNL     1     -15.671   9.027  -8.896  1.00  0.00    -0.281 N 
ATOM     27  H7  UNL     1     -16.409   7.349  -9.838  1.00  0.00     0.189 HD
ATOM     28  H6  UNL     1     -15.606   9.678  -9.679  1.00  0.00     0.188 HD
BRANCH  22  29
HETATM   29  C3  UNL     1     -15.358   8.008  -5.500  1.00  0.00     0.133 C 
BRANCH  29  30
HETATM   30  C2  UNL     1     -16.551   8.427  -4.648  1.00  0.00     0.016 C 
HETATM   31  C1  UNL     1     -16.104   9.253  -3.463  1.00  0.00     0.006 C 
ENDBRANCH  29  30
ENDBRANCH  22  29
ENDBRANCH   1  21
BRANCH   6  32
HETATM   32  C17 UNL     1     -11.896  12.653  -8.484  1.00  0.00     0.053 A 
HETATM   33  C18 UNL     1     -11.826  12.430  -9.944  1.00  0.00     0.013 A 
HETATM   34  C19 UNL     1     -11.948  13.842  -9.369  1.00  0.00     0.013 A 
ENDBRANCH   6  32
TORSDOF 5
ENDMDL
MODEL 5
REMARK VINA RESULT: -7.878709649      2.850      5.101
REMARK  5 active torsions:
REMARK  status: ('A' for Active; 'I' for Inactive)
REMARK    1  A    between atoms: C2_2  and  C3_3 
REMARK    2  A    between atoms: C3_3  and  N1_4 
REMARK    3  A    between atoms: C4_5  and  C5_6 
REMARK    4  A    between atoms: C7_8  and  N2_9 
REMARK    5  A    between atoms: C16_23  and  C17_24 
ROOT
HETATM    1  C5  UNL     1     -14.055  12.118  -7.427  1.00  0.00     0.083 A 
HETATM    2  C6  UNL     1     -14.276  10.779  -7.508  1.00  0.00     0.082 A 
HETATM    3  C7  UNL     1     -15.050  10.135  -6.525  1.00  0.00     0.106 A 
HETATM    4  N4  UNL     1     -15.557  10.849  -5.525  1.00  0.00    -0.332 N 
ATOM      5  H4  UNL     1     -16.117  10.377  -4.815  1.00  0.00     0.168 HD
HETATM    6  C16 UNL     1     -15.351  12.186  -5.418  1.00  0.00     0.087 A 
HETATM    7  N5  UNL     1     -14.614  12.781  -6.360  1.00  0.00    -0.342 N 
ATOM      8  H5  UNL     1     -14.457  13.786  -6.284  1.00  0.00     0.167 HD
ENDROOT
BRANCH   3   9
HETATM    9  N2  UNL     1     -15.233   8.736  -6.687  1.00  0.00    -0.366 N 
HETATM   10  C8  UNL     1     -15.640   8.161  -7.969  1.00  0.00     0.125 C 
HETATM   11  C9  UNL     1     -16.579   7.065  -7.566  1.00  0.00     0.031 C 
HETATM   12  C10 UNL     1     -16.029   6.588  -6.253  1.00  0.00    -0.020 C 
HETATM   13  C11 UNL     1     -15.310   5.280  -6.477  1.00  0.00     0.039 C 
HETATM   14  C14 UNL     1     -17.138   6.422  -5.245  1.00  0.00     0.039 C 
HETATM   15  C15 UNL     1     -15.084   7.663  -5.753  1.00  0.00     0.134 C 
HETATM   16  C12 UNL     1     -16.305   4.205  -6.788  1.00  0.00     0.233 C 
HETATM   17  N3  UNL     1     -17.365   4.115  -5.812  1.00  0.00    -0.075 N 
HETATM   18  C13 UNL     1     -18.083   5.373  -5.733  1.00  0.00     0.233 C 
ATOM     19  H32 UNL     1     -17.990   3.332  -6.000  1.00  0.00     0.277 HD
ATOM     20  H31 UNL     1     -17.019   3.817  -4.900  1.00  0.00     0.277 HD
ENDBRANCH   3   9
BRANCH   1  21
HETATM   21  C4  UNL     1     -13.280  12.944  -8.343  1.00  0.00     0.151 A 
HETATM   22  N1  UNL     1     -12.363  12.663  -9.263  1.00  0.00    -0.306 N 
HETATM   23  C20 UNL     1     -11.971  13.861  -9.835  1.00  0.00     0.194 A 
HETATM   24  N7  UNL     1     -12.649  14.843  -9.260  1.00  0.00    -0.274 N 
HETATM   25  S1  UNL     1     -10.852  13.977 -11.015  1.00  0.00    -0.039 SA
HETATM   26  N6  UNL     1     -13.427  14.319  -8.376  1.00  0.00    -0.281 N 
ATOM     27  H7  UNL     1     -12.571  15.836  -9.479  1.00  0.00     0.189 HD
ATOM     28  H6  UNL     1     -14.065  14.847  -7.781  1.00  0.00     0.188 HD
BRANCH  22  29
HETATM   29  C3  UNL     1     -11.849  11.384  -9.628  1.00  0.00     0.133 C 
BRANCH  29  30
HETATM   30  C2  UNL     1     -12.362  10.887 -10.975  1.00  0.00     0.016 C 
HETATM   31  C1  UNL     1     -11.231  10.322 -11.806  1.00  0.00     0.006 C 
ENDBRANCH  29  30
ENDBRANCH  22  29
ENDBRANCH   1  21
BRANCH   6  32
HETATM   32  C17 UNL     1     -15.936  12.952  -4.281  1.00  0.00     0.053 A 
HETATM   33  C18 UNL     1     -15.137  13.973  -3.571  1.00  0.00     0.013 A 
HETATM   34  C19 UNL     1     -16.316  14.374  -4.459  1.00  0.00     0.013 A 
ENDBRANCH   6  32
TORSDOF 5
ENDMDL
