MODEL 1
REMARK VINA RESULT: -7.081485696      0.000      0.000
REMARK  4 active torsions:
REMARK  status: ('A' for Active; 'I' for Inactive)
REMARK    1  A    between atoms: O1_2  and  C2_3 
REMARK    2  A    between atoms: C2_3  and  C3_5 
REMARK    3  A    between atoms: C7_13  and  N3_14 
REMARK    4  A    between atoms: N5_21  and  N6_22 
ROOT
HETATM    1  C3  UNL     1       4.181  18.561  14.844  1.00  0.00     0.094 A 
HETATM    2  N1  UNL     1       4.364  17.409  15.348  1.00  0.00    -0.340 N 
ATOM      3  H1  UNL     1       5.089  17.333  16.061  1.00  0.00     0.167 HD
HETATM    4  C4  UNL     1       3.667  16.216  15.024  1.00  0.00     0.125 A 
HETATM    5  N2  UNL     1       3.936  15.038  15.616  1.00  0.00    -0.325 N 
ATOM      6  H2  UNL     1       4.666  14.983  16.327  1.00  0.00     0.169 HD
HETATM    7  C5  UNL     1       3.248  13.931  15.275  1.00  0.00     0.149 A 
HETATM    8  C6  UNL     1       2.249  13.966  14.312  1.00  0.00     0.105 A 
HETATM    9  C7  UNL     1       1.565  12.836  13.983  1.00  0.00     0.119 A 
HETATM   10  N4  UNL     1       1.939  11.691  14.667  1.00  0.00    -0.317 N 
ATOM     11  H4  UNL     1       1.455  10.819  14.454  1.00  0.00     0.170 HD
HETATM   12  C8  UNL     1       2.901  11.675  15.589  1.00  0.00     0.200 A 
HETATM   13  S1  UNL     1       3.217  10.219  16.305  1.00  0.00    -0.038 SA
HETATM   14  N5  UNL     1       3.587  12.776  15.929  1.00  0.00    -0.219 N 
HETATM   15  C9  UNL     1       1.992  15.182  13.721  1.00  0.00     0.207 A 
HETATM   16  O3  UNL     1       1.111  15.328  12.839  1.00  0.00    -0.286 OA
HETATM   17  C10 UNL     1       2.691  16.337  14.058  1.00  0.00     0.105 A 
HETATM   18  C11 UNL     1       2.422  17.615  13.437  1.00  0.00     0.173 A 
HETATM   19  O4  UNL     1       1.504  17.680  12.543  1.00  0.00    -0.292 OA
HETATM   20  C12 UNL     1       3.173  18.818  13.810  1.00  0.00     0.147 A 
ENDROOT
BRANCH   1  21
HETATM   21  C2  UNL     1       4.983  19.724  15.277  1.00  0.00     0.305 C 
HETATM   22  O2  UNL     1       6.175  19.860  14.917  1.00  0.00    -0.258 OA
BRANCH  21  23
HETATM   23  O1  UNL     1       4.445  20.706  16.097  1.00  0.00    -0.322 OA
HETATM   24  C1  UNL     1       4.550  22.073  15.710  1.00  0.00     0.213 C 
ENDBRANCH  21  23
ENDBRANCH   1  21
BRANCH  14  25
HETATM   25  N6  UNL     1       4.592  12.739  16.898  1.00  0.00    -0.335 N 
ATOM     26  H62 UNL     1       4.818  13.558  17.463  1.00  0.00     0.177 HD
ATOM     27  H61 UNL     1       5.139  11.897  17.082  1.00  0.00     0.177 HD
ENDBRANCH  14  25
BRANCH   9  28
HETATM   28  N3  UNL     1       0.656  12.781  13.131  1.00  0.00    -0.385 N 
ATOM     29  H32 UNL     1       0.830  13.113  12.183  1.00  0.00     0.157 HD
ATOM     30  H31 UNL     1      -0.282  12.420  13.308  1.00  0.00     0.157 HD
ENDBRANCH   9  28
TORSDOF 4
ENDMDL
MODEL 2
REMARK VINA RESULT: -6.661074696      3.695      7.166
REMARK  4 active torsions:
REMARK  status: ('A' for Active; 'I' for Inactive)
REMARK    1  A    between atoms: O1_2  and  C2_3 
REMARK    2  A    between atoms: C2_3  and  C3_5 
REMARK    3  A    between atoms: C7_13  and  N3_14 
REMARK    4  A    between atoms: N5_21  and  N6_22 
ROOT
HETATM    1  C3  UNL     1       0.739  12.057  14.154  1.00  0.00     0.094 A 
HETATM    2  N1  UNL     1       0.923  13.285  13.886  1.00  0.00    -0.340 N 
ATOM      3  H1  UNL     1       0.253  13.718  13.250  1.00  0.00     0.167 HD
HETATM    4  C4  UNL     1       1.960  14.119  14.377  1.00  0.00     0.125 A 
HETATM    5  N2  UNL     1       2.070  15.415  14.032  1.00  0.00    -0.325 N 
ATOM      6  H2  UNL     1       1.390  15.830  13.394  1.00  0.00     0.169 HD
HETATM    7  C5  UNL     1       3.074  16.168  14.524  1.00  0.00     0.149 A 
HETATM    8  C6  UNL     1       4.018  15.640  15.393  1.00  0.00     0.105 A 
HETATM    9  C7  UNL     1       5.023  16.419  15.878  1.00  0.00     0.119 A 
HETATM   10  N4  UNL     1       5.022  17.735  15.445  1.00  0.00    -0.317 N 
ATOM     11  H4  UNL     1       5.756  18.358  15.782  1.00  0.00     0.170 HD
HETATM   12  C8  UNL     1       4.107  18.227  14.610  1.00  0.00     0.200 A 
HETATM   13  S1  UNL     1       4.258  19.820  14.198  1.00  0.00    -0.038 SA
HETATM   14  N5  UNL     1       3.108  17.477  14.120  1.00  0.00    -0.219 N 
HETATM   15  C9  UNL     1       3.885  14.313  15.730  1.00  0.00     0.207 A 
HETATM   16  O3  UNL     1       4.682  13.734  16.508  1.00  0.00    -0.286 OA
HETATM   17  C10 UNL     1       2.857  13.518  15.234  1.00  0.00     0.105 A 
HETATM   18  C11 UNL     1       2.716  12.122  15.588  1.00  0.00     0.173 A 
HETATM   19  O4  UNL     1       3.574  11.605  16.390  1.00  0.00    -0.292 OA
HETATM   20  C12 UNL     1       1.623  11.306  15.052  1.00  0.00     0.147 A 
ENDROOT
BRANCH   1  21
HETATM   21  C2  UNL     1      -0.390  11.304  13.569  1.00  0.00     0.305 C 
HETATM   22  O2  UNL     1      -0.381  10.052  13.524  1.00  0.00    -0.258 OA
BRANCH  21  23
HETATM   23  O1  UNL     1      -1.499  11.957  13.050  1.00  0.00    -0.322 OA
HETATM   24  C1  UNL     1      -2.778  11.735  13.637  1.00  0.00     0.213 C 
ENDBRANCH  21  23
ENDBRANCH   1  21
BRANCH  14  25
HETATM   25  N6  UNL     1       2.158  18.011  13.245  1.00  0.00    -0.335 N 
ATOM     26  H62 UNL     1       1.160  17.955  13.446  1.00  0.00     0.177 HD
ATOM     27  H61 UNL     1       2.421  18.475  12.376  1.00  0.00     0.177 HD
ENDBRANCH  14  25
BRANCH   9  28
HETATM   28  N3  UNL     1       5.910  16.024  16.660  1.00  0.00    -0.385 N 
ATOM     29  H32 UNL     1       5.851  15.089  17.064  1.00  0.00     0.157 HD
ATOM     30  H31 UNL     1       6.720  16.576  16.944  1.00  0.00     0.157 HD
ENDBRANCH   9  28
TORSDOF 4
ENDMDL
MODEL 3
REMARK VINA RESULT: -6.485569309      0.980      1.029
REMARK  4 active torsions:
REMARK  status: ('A' for Active; 'I' for Inactive)
REMARK    1  A    between atoms: O1_2  and  C2_3 
REMARK    2  A    between atoms: C2_3  and  C3_5 
REMARK    3  A    between atoms: C7_13  and  N3_14 
REMARK    4  A    between atoms: N5_21  and  N6_22 
ROOT
HETATM    1  C3  UNL     1       4.924  19.266  14.646  1.00  0.00     0.094 A 
HETATM    2  N1  UNL     1       4.917  18.163  15.277  1.00  0.00    -0.340 N 
ATOM      3  H1  UNL     1       5.498  18.113  16.114  1.00  0.00     0.167 HD
HETATM    4  C4  UNL     1       4.186  16.994  14.942  1.00  0.00     0.125 A 
HETATM    5  N2  UNL     1       4.246  15.869  15.677  1.00  0.00    -0.325 N 
ATOM      6  H2  UNL     1       4.834  15.838  16.511  1.00  0.00     0.169 HD
HETATM    7  C5  UNL     1       3.534  14.782  15.319  1.00  0.00     0.149 A 
HETATM    8  C6  UNL     1       2.725  14.785  14.191  1.00  0.00     0.105 A 
HETATM    9  C7  UNL     1       2.014  13.676  13.848  1.00  0.00     0.119 A 
HETATM   10  N4  UNL     1       2.163  12.585  14.689  1.00  0.00    -0.317 N 
ATOM     11  H4  UNL     1       1.650  11.731  14.472  1.00  0.00     0.170 HD
HETATM   12  C8  UNL     1       2.945  12.600  15.769  1.00  0.00     0.200 A 
HETATM   13  S1  UNL     1       3.005  11.209  16.659  1.00  0.00    -0.038 SA
HETATM   14  N5  UNL     1       3.654  13.681  16.126  1.00  0.00    -0.219 N 
HETATM   15  C9  UNL     1       2.680  15.946  13.456  1.00  0.00     0.207 A 
HETATM   16  O3  UNL     1       1.982  16.060  12.419  1.00  0.00    -0.286 OA
HETATM   17  C10 UNL     1       3.407  17.079  13.808  1.00  0.00     0.105 A 
HETATM   18  C11 UNL     1       3.362  18.301  13.035  1.00  0.00     0.173 A 
HETATM   19  O4  UNL     1       2.622  18.335  11.987  1.00  0.00    -0.292 OA
HETATM   20  C12 UNL     1       4.137  19.482  13.427  1.00  0.00     0.147 A 
ENDROOT
BRANCH   1  21
HETATM   21  C2  UNL     1       5.736  20.410  15.110  1.00  0.00     0.305 C 
HETATM   22  O2  UNL     1       6.827  20.695  14.564  1.00  0.00    -0.258 OA
BRANCH  21  23
HETATM   23  O1  UNL     1       5.320  21.209  16.165  1.00  0.00    -0.322 OA
HETATM   24  C1  UNL     1       4.352  22.228  15.930  1.00  0.00     0.213 C 
ENDBRANCH  21  23
ENDBRANCH   1  21
BRANCH  14  25
HETATM   25  N6  UNL     1       4.468  13.676  17.260  1.00  0.00    -0.335 N 
ATOM     26  H62 UNL     1       4.374  12.960  17.980  1.00  0.00     0.177 HD
ATOM     27  H61 UNL     1       5.188  14.383  17.416  1.00  0.00     0.177 HD
ENDBRANCH  14  25
BRANCH   9  28
HETATM   28  N3  UNL     1       1.265  13.595  12.854  1.00  0.00    -0.385 N 
ATOM     29  H32 UNL     1       1.667  13.453  11.927  1.00  0.00     0.157 HD
ATOM     30  H31 UNL     1       0.248  13.661  12.888  1.00  0.00     0.157 HD
ENDBRANCH   9  28
TORSDOF 4
ENDMDL
MODEL 4
REMARK VINA RESULT: -6.338994247      2.133      3.216
REMARK  4 active torsions:
REMARK  status: ('A' for Active; 'I' for Inactive)
REMARK    1  A    between atoms: O1_2  and  C2_3 
REMARK    2  A    between atoms: C2_3  and  C3_5 
REMARK    3  A    between atoms: C7_13  and  N3_14 
REMARK    4  A    between atoms: N5_21  and  N6_22 
ROOT
HETATM    1  C3  UNL     1       3.875  18.045  14.041  1.00  0.00     0.094 A 
HETATM    2  N1  UNL     1       3.083  17.135  13.640  1.00  0.00    -0.340 N 
ATOM      3  H1  UNL     1       2.491  17.366  12.843  1.00  0.00     0.167 HD
HETATM    4  C4  UNL     1       2.937  15.833  14.183  1.00  0.00     0.125 A 
HETATM    5  N2  UNL     1       2.065  14.937  13.686  1.00  0.00    -0.325 N 
ATOM      6  H2  UNL     1       1.480  15.187  12.888  1.00  0.00     0.169 HD
HETATM    7  C5  UNL     1       1.960  13.711  14.237  1.00  0.00     0.149 A 
HETATM    8  C6  UNL     1       2.738  13.335  15.323  1.00  0.00     0.105 A 
HETATM    9  C7  UNL     1       2.615  12.091  15.863  1.00  0.00     0.119 A 
HETATM   10  N4  UNL     1       1.683  11.265  15.258  1.00  0.00    -0.317 N 
ATOM     11  H4  UNL     1       1.556  10.323  15.627  1.00  0.00     0.170 HD
HETATM   12  C8  UNL     1       0.944  11.642  14.214  1.00  0.00     0.200 A 
HETATM   13  S1  UNL     1      -0.120  10.528  13.618  1.00  0.00    -0.038 SA
HETATM   14  N5  UNL     1       1.048  12.862  13.666  1.00  0.00    -0.219 N 
HETATM   15  C9  UNL     1       3.621  14.268  15.814  1.00  0.00     0.207 A 
HETATM   16  O3  UNL     1       4.372  14.035  16.792  1.00  0.00    -0.286 OA
HETATM   17  C10 UNL     1       3.745  15.539  15.261  1.00  0.00     0.105 A 
HETATM   18  C11 UNL     1       4.673  16.522  15.776  1.00  0.00     0.173 A 
HETATM   19  O4  UNL     1       5.406  16.203  16.780  1.00  0.00    -0.292 OA
HETATM   20  C12 UNL     1       4.785  17.854  15.175  1.00  0.00     0.147 A 
ENDROOT
BRANCH   1  21
HETATM   21  C2  UNL     1       3.926  19.365  13.378  1.00  0.00     0.305 C 
HETATM   22  O2  UNL     1       3.791  19.473  12.137  1.00  0.00    -0.258 OA
BRANCH  21  23
HETATM   23  O1  UNL     1       4.122  20.530  14.105  1.00  0.00    -0.322 OA
HETATM   24  C1  UNL     1       5.405  21.149  14.099  1.00  0.00     0.213 C 
ENDBRANCH  21  23
ENDBRANCH   1  21
BRANCH  14  25
HETATM   25  N6  UNL     1       0.264  13.239  12.573  1.00  0.00    -0.335 N 
ATOM     26  H62 UNL     1      -0.703  13.541  12.691  1.00  0.00     0.177 HD
ATOM     27  H61 UNL     1       0.623  13.230  11.618  1.00  0.00     0.177 HD
ENDBRANCH  14  25
BRANCH   9  28
HETATM   28  N3  UNL     1       3.274  11.674  16.837  1.00  0.00    -0.385 N 
ATOM     29  H32 UNL     1       4.287  11.586  16.763  1.00  0.00     0.157 HD
ATOM     30  H31 UNL     1       2.871  11.403  17.734  1.00  0.00     0.157 HD
ENDBRANCH   9  28
TORSDOF 4
ENDMDL
MODEL 5
REMARK VINA RESULT: -6.309569414      3.696      7.279
REMARK  4 active torsions:
REMARK  status: ('A' for Active; 'I' for Inactive)
REMARK    1  A    between atoms: O1_2  and  C2_3 
REMARK    2  A    between atoms: C2_3  and  C3_5 
REMARK    3  A    between atoms: C7_13  and  N3_14 
REMARK    4  A    between atoms: N5_21  and  N6_22 
ROOT
HETATM    1  C3  UNL     1       0.707  12.112  13.938  1.00  0.00     0.094 A 
HETATM    2  N1  UNL     1       0.827  13.373  13.831  1.00  0.00    -0.340 N 
ATOM      3  H1  UNL     1       0.077  13.862  13.343  1.00  0.00     0.167 HD
HETATM    4  C4  UNL     1       1.894  14.172  14.317  1.00  0.00     0.125 A 
HETATM    5  N2  UNL     1       1.930  15.507  14.152  1.00  0.00    -0.325 N 
ATOM      6  H2  UNL     1       1.170  15.978  13.660  1.00  0.00     0.169 HD
HETATM    7  C5  UNL     1       2.966  16.224  14.631  1.00  0.00     0.149 A 
HETATM    8  C6  UNL     1       4.018  15.619  15.304  1.00  0.00     0.105 A 
HETATM    9  C7  UNL     1       5.053  16.364  15.780  1.00  0.00     0.119 A 
HETATM   10  N4  UNL     1       4.969  17.726  15.544  1.00  0.00    -0.317 N 
ATOM     11  H4  UNL     1       5.722  18.325  15.882  1.00  0.00     0.170 HD
HETATM   12  C8  UNL     1       3.951  18.291  14.896  1.00  0.00     0.200 A 
HETATM   13  S1  UNL     1       4.013  19.931  14.703  1.00  0.00    -0.038 SA
HETATM   14  N5  UNL     1       2.920  17.577  14.418  1.00  0.00    -0.219 N 
HETATM   15  C9  UNL     1       3.958  14.254  15.460  1.00  0.00     0.207 A 
HETATM   16  O3  UNL     1       4.855  13.605  16.052  1.00  0.00    -0.286 OA
HETATM   17  C10 UNL     1       2.899  13.494  14.973  1.00  0.00     0.105 A 
HETATM   18  C11 UNL     1       2.835  12.058  15.136  1.00  0.00     0.173 A 
HETATM   19  O4  UNL     1       3.793  11.470  15.755  1.00  0.00    -0.292 OA
HETATM   20  C12 UNL     1       1.708  11.280  14.614  1.00  0.00     0.147 A 
ENDROOT
BRANCH   1  21
HETATM   21  C2  UNL     1      -0.464  11.403  13.381  1.00  0.00     0.305 C 
HETATM   22  O2  UNL     1      -1.538  12.005  13.153  1.00  0.00    -0.258 OA
BRANCH  21  23
HETATM   23  O1  UNL     1      -0.414  10.047  13.090  1.00  0.00    -0.322 OA
HETATM   24  C1  UNL     1      -1.031   9.565  11.900  1.00  0.00     0.213 C 
ENDBRANCH  21  23
ENDBRANCH   1  21
BRANCH  14  25
HETATM   25  N6  UNL     1       1.862  18.188  13.741  1.00  0.00    -0.335 N 
ATOM     26  H62 UNL     1       0.892  18.026  14.012  1.00  0.00     0.177 HD
ATOM     27  H61 UNL     1       2.013  18.819  12.954  1.00  0.00     0.177 HD
ENDBRANCH  14  25
BRANCH   9  28
HETATM   28  N3  UNL     1       6.035  15.900  16.394  1.00  0.00    -0.385 N 
ATOM     29  H32 UNL     1       6.557  15.118  15.998  1.00  0.00     0.157 HD
ATOM     30  H31 UNL     1       6.374  16.248  17.291  1.00  0.00     0.157 HD
ENDBRANCH   9  28
TORSDOF 4
ENDMDL
