MODEL 1
REMARK VINA RESULT: -7.930380214      0.000      0.000
REMARK  3 active torsions:
REMARK  status: ('A' for Active; 'I' for Inactive)
REMARK    1  A    between atoms: C5_10  and  C6_11 
REMARK    2  A    between atoms: C7_16  and  N5_17 
REMARK    3  A    between atoms: C8_22  and  O2_23 
ROOT
HETATM    1  C1  UNL     1       1.659  10.650  14.855  1.00  0.00     0.164 C 
HETATM    2  N1  UNL     1       2.092  12.024  14.796  1.00  0.00    -0.269 N 
HETATM    3  C2  UNL     1       1.597  12.853  13.881  1.00  0.00     0.281 A 
HETATM    4  O1  UNL     1       0.742  12.490  13.033  1.00  0.00    -0.265 OA
HETATM    5  C3  UNL     1       2.034  14.164  13.852  1.00  0.00     0.148 A 
HETATM    6  N2  UNL     1       1.719  15.184  13.069  1.00  0.00    -0.328 N 
ATOM      7  H2  UNL     1       1.052  15.175  12.297  1.00  0.00     0.168 HD
HETATM    8  C4  UNL     1       2.448  16.235  13.487  1.00  0.00     0.160 A 
HETATM    9  S1  UNL     1       2.740  17.885  13.153  1.00  0.00    -0.045 SA
HETATM   10  C5  UNL     1       3.880  18.177  14.360  1.00  0.00     0.105 A 
HETATM   11  C8  UNL     1       3.986  16.952  14.986  1.00  0.00     0.171 A 
HETATM   12  N7  UNL     1       3.241  15.963  14.523  1.00  0.00    -0.253 N 
HETATM   13  C9  UNL     1       2.991  14.627  14.779  1.00  0.00     0.154 A 
HETATM   14  N8  UNL     1       3.441  13.725  15.672  1.00  0.00    -0.287 N 
HETATM   15  C10 UNL     1       4.428  14.107  16.666  1.00  0.00     0.163 C 
HETATM   16  C11 UNL     1       2.998  12.423  15.690  1.00  0.00     0.332 A 
HETATM   17  O3  UNL     1       3.476  11.664  16.556  1.00  0.00    -0.246 OA
ENDROOT
BRANCH  10  18
HETATM   18  C6  UNL     1       4.564  19.445  14.638  1.00  0.00     0.157 A 
HETATM   19  N3  UNL     1       5.710  19.892  14.128  1.00  0.00    -0.270 N 
HETATM   20  N4  UNL     1       6.002  21.100  14.634  1.00  0.00    -0.131 N 
ATOM     21  H3  UNL     1       6.283  19.388  13.451  1.00  0.00     0.189 HD
HETATM   22  C7  UNL     1       5.010  21.420  15.487  1.00  0.00     0.692 A 
ATOM     23  H4  UNL     1       6.821  21.668  14.414  1.00  0.00     0.205 HD
HETATM   24  N6  UNL     1       4.141  20.404  15.481  1.00  0.00    -0.173 N 
ATOM     25  H6  UNL     1       3.285  20.363  16.034  1.00  0.00     0.186 HD
BRANCH  22  26
HETATM   26  N5  UNL     1       4.974  22.523  16.152  1.00  0.00    -0.233 N 
ATOM     27  H52 UNL     1       5.228  23.465  15.857  1.00  0.00     0.174 HD
ATOM     28  H51 UNL     1       4.665  22.584  17.122  1.00  0.00     0.174 HD
ENDBRANCH  22  26
ENDBRANCH  10  18
BRANCH  11  29
HETATM   29  O2  UNL     1       4.922  16.954  16.076  1.00  0.00    -0.344 OA
ATOM     30  H2  UNL     1       5.034  16.098  16.474  1.00  0.00     0.219 HD
ENDBRANCH  11  29
TORSDOF 3
ENDMDL
MODEL 2
REMARK VINA RESULT: -7.091433108      1.397      2.583
REMARK  3 active torsions:
REMARK  status: ('A' for Active; 'I' for Inactive)
REMARK    1  A    between atoms: C5_10  and  C6_11 
REMARK    2  A    between atoms: C7_16  and  N5_17 
REMARK    3  A    between atoms: C8_22  and  O2_23 
ROOT
HETATM    1  C1  UNL     1       1.178  10.345  14.719  1.00  0.00     0.164 C 
HETATM    2  N1  UNL     1       1.718  11.681  14.769  1.00  0.00    -0.269 N 
HETATM    3  C2  UNL     1       2.560  12.038  15.736  1.00  0.00     0.281 A 
HETATM    4  O1  UNL     1       2.923  11.244  16.641  1.00  0.00    -0.265 OA
HETATM    5  C3  UNL     1       3.059  13.327  15.755  1.00  0.00     0.148 A 
HETATM    6  N2  UNL     1       3.894  13.940  16.579  1.00  0.00    -0.328 N 
ATOM      7  H2  UNL     1       4.344  13.536  17.401  1.00  0.00     0.168 HD
HETATM    8  C4  UNL     1       4.035  15.198  16.124  1.00  0.00     0.160 A 
HETATM    9  S1  UNL     1       4.839  16.667  16.465  1.00  0.00    -0.045 SA
HETATM   10  C5  UNL     1       4.238  17.574  15.178  1.00  0.00     0.105 A 
HETATM   11  C8  UNL     1       3.421  16.676  14.523  1.00  0.00     0.171 A 
HETATM   12  N7  UNL     1       3.328  15.457  15.025  1.00  0.00    -0.253 N 
HETATM   13  C9  UNL     1       2.687  14.259  14.765  1.00  0.00     0.154 A 
HETATM   14  N8  UNL     1       1.831  13.820  13.822  1.00  0.00    -0.287 N 
HETATM   15  C10 UNL     1       1.389  14.706  12.761  1.00  0.00     0.163 C 
HETATM   16  C11 UNL     1       1.342  12.534  13.815  1.00  0.00     0.332 A 
HETATM   17  O3  UNL     1       0.554  12.223  12.900  1.00  0.00    -0.246 OA
ENDROOT
BRANCH  10  18
HETATM   18  C6  UNL     1       4.542  18.976  14.870  1.00  0.00     0.157 A 
HETATM   19  N3  UNL     1       5.173  19.469  13.805  1.00  0.00    -0.270 N 
HETATM   20  N4  UNL     1       5.254  20.806  13.892  1.00  0.00    -0.131 N 
ATOM     21  H3  UNL     1       5.541  18.910  13.035  1.00  0.00     0.189 HD
HETATM   22  C7  UNL     1       4.657  21.162  15.045  1.00  0.00     0.692 A 
ATOM     23  H4  UNL     1       5.686  21.432  13.212  1.00  0.00     0.205 HD
HETATM   24  N6  UNL     1       4.229  20.040  15.632  1.00  0.00    -0.173 N 
ATOM     25  H6  UNL     1       3.736  19.997  16.524  1.00  0.00     0.186 HD
BRANCH  22  26
HETATM   26  N5  UNL     1       4.556  22.383  15.445  1.00  0.00    -0.233 N 
ATOM     27  H52 UNL     1       5.177  22.918  16.051  1.00  0.00     0.174 HD
ATOM     28  H51 UNL     1       3.788  22.999  15.180  1.00  0.00     0.174 HD
ENDBRANCH  22  26
ENDBRANCH  10  18
BRANCH  11  29
HETATM   29  O2  UNL     1       2.783  17.235  13.363  1.00  0.00    -0.344 OA
ATOM     30  H2  UNL     1       2.854  16.681  12.594  1.00  0.00     0.219 HD
ENDBRANCH  11  29
TORSDOF 3
ENDMDL
MODEL 3
REMARK VINA RESULT: -6.716160056      0.931      1.248
REMARK  3 active torsions:
REMARK  status: ('A' for Active; 'I' for Inactive)
REMARK    1  A    between atoms: C5_10  and  C6_11 
REMARK    2  A    between atoms: C7_16  and  N5_17 
REMARK    3  A    between atoms: C8_22  and  O2_23 
ROOT
HETATM    1  C1  UNL     1       1.505   9.873  14.933  1.00  0.00     0.164 C 
HETATM    2  N1  UNL     1       1.916  11.254  14.865  1.00  0.00    -0.269 N 
HETATM    3  C2  UNL     1       1.328  12.097  14.020  1.00  0.00     0.281 A 
HETATM    4  O1  UNL     1       0.401  11.741  13.248  1.00  0.00    -0.265 OA
HETATM    5  C3  UNL     1       1.746  13.413  13.979  1.00  0.00     0.148 A 
HETATM    6  N2  UNL     1       1.348  14.446  13.253  1.00  0.00    -0.328 N 
ATOM      7  H2  UNL     1       0.611  14.445  12.547  1.00  0.00     0.168 HD
HETATM    8  C4  UNL     1       2.102  15.496  13.624  1.00  0.00     0.160 A 
HETATM    9  S1  UNL     1       2.344  17.156  13.301  1.00  0.00    -0.045 SA
HETATM   10  C5  UNL     1       3.589  17.437  14.402  1.00  0.00     0.105 A 
HETATM   11  C8  UNL     1       3.767  16.200  14.987  1.00  0.00     0.171 A 
HETATM   12  N7  UNL     1       2.992  15.213  14.574  1.00  0.00    -0.253 N 
HETATM   13  C9  UNL     1       2.781  13.868  14.822  1.00  0.00     0.154 A 
HETATM   14  N8  UNL     1       3.324  12.953  15.648  1.00  0.00    -0.287 N 
HETATM   15  C10 UNL     1       4.396  13.326  16.553  1.00  0.00     0.163 C 
HETATM   16  C11 UNL     1       2.898  11.645  15.678  1.00  0.00     0.332 A 
HETATM   17  O3  UNL     1       3.464  10.874  16.478  1.00  0.00    -0.246 OA
ENDROOT
BRANCH  10  18
HETATM   18  C6  UNL     1       4.283  18.707  14.643  1.00  0.00     0.157 A 
HETATM   19  N3  UNL     1       4.037  19.614  15.587  1.00  0.00    -0.270 N 
HETATM   20  N4  UNL     1       4.893  20.642  15.476  1.00  0.00    -0.131 N 
ATOM     21  H3  UNL     1       3.304  19.538  16.293  1.00  0.00     0.189 HD
HETATM   22  C7  UNL     1       5.698  20.372  14.431  1.00  0.00     0.692 A 
ATOM     23  H4  UNL     1       4.926  21.470  16.071  1.00  0.00     0.205 HD
HETATM   24  N6  UNL     1       5.317  19.192  13.932  1.00  0.00    -0.173 N 
ATOM     25  H6  UNL     1       5.746  18.728  13.131  1.00  0.00     0.186 HD
BRANCH  22  26
HETATM   26  N5  UNL     1       6.643  21.157  14.042  1.00  0.00    -0.233 N 
ATOM     27  H52 UNL     1       6.948  22.047  14.435  1.00  0.00     0.174 HD
ATOM     28  H51 UNL     1       7.239  20.964  13.237  1.00  0.00     0.174 HD
ENDBRANCH  22  26
ENDBRANCH  10  18
BRANCH  11  29
HETATM   29  O2  UNL     1       4.802  16.191  15.983  1.00  0.00    -0.344 OA
ATOM     30  H2  UNL     1       5.348  15.414  15.948  1.00  0.00     0.219 HD
ENDBRANCH  11  29
TORSDOF 3
ENDMDL
MODEL 4
REMARK VINA RESULT: -6.601909020      2.704      7.929
REMARK  3 active torsions:
REMARK  status: ('A' for Active; 'I' for Inactive)
REMARK    1  A    between atoms: C5_10  and  C6_11 
REMARK    2  A    between atoms: C7_16  and  N5_17 
REMARK    3  A    between atoms: C8_22  and  O2_23 
ROOT
HETATM    1  C1  UNL     1       5.146  18.761  15.044  1.00  0.00     0.164 C 
HETATM    2  N1  UNL     1       4.380  17.548  14.893  1.00  0.00    -0.269 N 
HETATM    3  C2  UNL     1       4.566  16.520  15.718  1.00  0.00     0.281 A 
HETATM    4  O1  UNL     1       5.404  16.551  16.655  1.00  0.00    -0.265 OA
HETATM    5  C3  UNL     1       3.816  15.372  15.546  1.00  0.00     0.148 A 
HETATM    6  N2  UNL     1       3.793  14.224  16.204  1.00  0.00    -0.328 N 
ATOM      7  H2  UNL     1       4.367  13.973  17.009  1.00  0.00     0.168 HD
HETATM    8  C4  UNL     1       2.867  13.453  15.607  1.00  0.00     0.160 A 
HETATM    9  S1  UNL     1       2.142  11.908  15.701  1.00  0.00    -0.045 SA
HETATM   10  C5  UNL     1       1.081  12.060  14.401  1.00  0.00     0.105 A 
HETATM   11  C8  UNL     1       1.341  13.334  13.938  1.00  0.00     0.171 A 
HETATM   12  N7  UNL     1       2.264  14.036  14.572  1.00  0.00    -0.253 N 
HETATM   13  C9  UNL     1       2.862  15.283  14.512  1.00  0.00     0.154 A 
HETATM   14  N8  UNL     1       2.734  16.365  13.721  1.00  0.00    -0.287 N 
HETATM   15  C10 UNL     1       1.778  16.368  12.630  1.00  0.00     0.163 C 
HETATM   16  C11 UNL     1       3.487  17.502  13.904  1.00  0.00     0.332 A 
HETATM   17  O3  UNL     1       3.296  18.451  13.119  1.00  0.00    -0.246 OA
ENDROOT
BRANCH  10  18
HETATM   18  C6  UNL     1       0.130  11.053  13.917  1.00  0.00     0.157 A 
HETATM   19  N3  UNL     1       0.307   9.737  13.810  1.00  0.00    -0.270 N 
HETATM   20  N4  UNL     1      -0.802   9.158  13.324  1.00  0.00    -0.131 N 
ATOM     21  H3  UNL     1       1.162   9.241  14.062  1.00  0.00     0.189 HD
HETATM   22  C7  UNL     1      -1.701  10.140  13.119  1.00  0.00     0.692 A 
ATOM     23  H4  UNL     1      -0.938   8.163  13.144  1.00  0.00     0.205 HD
HETATM   24  N6  UNL     1      -1.121  11.288  13.484  1.00  0.00    -0.173 N 
ATOM     25  H6  UNL     1      -1.563  12.207  13.439  1.00  0.00     0.186 HD
BRANCH  22  26
HETATM   26  N5  UNL     1      -2.885   9.934  12.654  1.00  0.00    -0.233 N 
ATOM     27  H52 UNL     1      -3.574   9.234  12.928  1.00  0.00     0.174 HD
ATOM     28  H51 UNL     1      -3.298  10.488  11.904  1.00  0.00     0.174 HD
ENDBRANCH  22  26
ENDBRANCH  10  18
BRANCH  11  29
HETATM   29  O2  UNL     1       0.537  13.698  12.805  1.00  0.00    -0.344 OA
ATOM     30  H2  UNL     1       1.044  14.060  12.088  1.00  0.00     0.219 HD
ENDBRANCH  11  29
TORSDOF 3
ENDMDL
MODEL 5
REMARK VINA RESULT: -6.402278230      2.814      7.462
REMARK  3 active torsions:
REMARK  status: ('A' for Active; 'I' for Inactive)
REMARK    1  A    between atoms: C5_10  and  C6_11 
REMARK    2  A    between atoms: C7_16  and  N5_17 
REMARK    3  A    between atoms: C8_22  and  O2_23 
ROOT
HETATM    1  C1  UNL     1       3.148  19.174  14.074  1.00  0.00     0.164 C 
HETATM    2  N1  UNL     1       3.157  17.755  14.330  1.00  0.00    -0.269 N 
HETATM    3  C2  UNL     1       2.221  16.965  13.811  1.00  0.00     0.281 A 
HETATM    4  O1  UNL     1       1.295  17.405  13.082  1.00  0.00    -0.265 OA
HETATM    5  C3  UNL     1       2.258  15.609  14.076  1.00  0.00     0.148 A 
HETATM    6  N2  UNL     1       1.474  14.612  13.699  1.00  0.00    -0.328 N 
ATOM      7  H2  UNL     1       0.647  14.680  13.105  1.00  0.00     0.168 HD
HETATM    8  C4  UNL     1       1.976  13.493  14.250  1.00  0.00     0.160 A 
HETATM    9  S1  UNL     1       1.704  11.809  14.355  1.00  0.00    -0.045 SA
HETATM   10  C5  UNL     1       3.012  11.415  15.343  1.00  0.00     0.105 A 
HETATM   11  C8  UNL     1       3.618  12.637  15.554  1.00  0.00     0.171 A 
HETATM   12  N7  UNL     1       3.070  13.695  14.982  1.00  0.00    -0.253 N 
HETATM   13  C9  UNL     1       3.274  15.060  14.885  1.00  0.00     0.154 A 
HETATM   14  N8  UNL     1       4.183  15.926  15.372  1.00  0.00    -0.287 N 
HETATM   15  C10 UNL     1       5.267  15.456  16.216  1.00  0.00     0.163 C 
HETATM   16  C11 UNL     1       4.134  17.274  15.100  1.00  0.00     0.332 A 
HETATM   17  O3  UNL     1       5.022  17.994  15.598  1.00  0.00    -0.246 OA
ENDROOT
BRANCH  10  18
HETATM   18  C6  UNL     1       3.375  10.081  15.833  1.00  0.00     0.157 A 
HETATM   19  N3  UNL     1       2.662   8.957  15.770  1.00  0.00    -0.270 N 
HETATM   20  N4  UNL     1       3.343   7.945  16.330  1.00  0.00    -0.131 N 
ATOM     21  H3  UNL     1       1.733   8.878  15.357  1.00  0.00     0.189 HD
HETATM   22  C7  UNL     1       4.517   8.448  16.757  1.00  0.00     0.692 A 
ATOM     23  H4  UNL     1       3.029   6.978  16.416  1.00  0.00     0.205 HD
HETATM   24  N6  UNL     1       4.524   9.749  16.449  1.00  0.00    -0.173 N 
ATOM     25  H6  UNL     1       5.288  10.394  16.651  1.00  0.00     0.186 HD
BRANCH  22  26
HETATM   26  N5  UNL     1       5.419   7.743  17.347  1.00  0.00    -0.233 N 
ATOM     27  H52 UNL     1       5.344   6.817  17.767  1.00  0.00     0.174 HD
ATOM     28  H51 UNL     1       6.383   8.052  17.470  1.00  0.00     0.174 HD
ENDBRANCH  22  26
ENDBRANCH  10  18
BRANCH  11  29
HETATM   29  O2  UNL     1       4.784  12.552  16.387  1.00  0.00    -0.344 OA
ATOM     30  H2  UNL     1       5.380  13.282  16.271  1.00  0.00     0.219 HD
ENDBRANCH  11  29
TORSDOF 3
ENDMDL
