MODEL 1
REMARK VINA RESULT: -5.983376802      0.000      0.000
REMARK  8 active torsions:
REMARK  status: ('A' for Active; 'I' for Inactive)
REMARK    1  A    between atoms: N1_2  and  C4_5 
REMARK    2  A    between atoms: C4_5  and  C5_6 
REMARK    3  A    between atoms: C5_6  and  N2_7 
REMARK    4  A    between atoms: N2_7  and  C6_10 
REMARK    5  A    between atoms: C6_10  and  C7_11 
REMARK    6  A    between atoms: C7_11  and  C8_12 
REMARK    7  A    between atoms: C8_12  and  N3_13 
REMARK    8  A    between atoms: N3_13  and  C9_15 
ROOT
HETATM    1  C8  UNL     1       6.524  29.625  15.170  1.00  0.00     0.140 C 
ENDROOT
BRANCH   1   2
HETATM    2  C7  UNL     1       7.270  28.821  16.243  1.00  0.00     0.048 C 
BRANCH   2   3
HETATM    3  C6  UNL     1       8.266  27.881  15.615  1.00  0.00     0.234 C 
BRANCH   3   4
HETATM    4  N2  UNL     1       7.694  26.825  14.845  1.00  0.00    -0.073 N 
ATOM      5  H22 UNL     1       8.421  26.296  14.362  1.00  0.00     0.277 HD
ATOM      6  H21 UNL     1       7.192  27.199  14.039  1.00  0.00     0.277 HD
BRANCH   4   7
HETATM    7  C5  UNL     1       6.848  25.945  15.611  1.00  0.00     0.260 C 
BRANCH   7   8
HETATM    8  C4  UNL     1       5.664  25.547  14.800  1.00  0.00     0.263 C 
BRANCH   8   9
HETATM    9  N1  UNL     1       4.431  25.535  15.566  1.00  0.00    -0.077 N 
HETATM   10  C1  UNL     1       4.539  26.347  16.765  1.00  0.00     0.271 C 
HETATM   11  C2  UNL     1       4.162  24.152  15.921  1.00  0.00     0.271 C 
HETATM   12  C3  UNL     1       3.286  26.006  14.823  1.00  0.00     0.271 C 
ENDBRANCH   8   9
ENDBRANCH   7   8
ENDBRANCH   4   7
ENDBRANCH   3   4
ENDBRANCH   2   3
ENDBRANCH   1   2
BRANCH   1  13
HETATM   13  N3  UNL     1       5.178  29.138  15.053  1.00  0.00    -0.223 N 
ATOM     14  H3  UNL     1       4.953  28.310  15.606  1.00  0.00     0.177 HD
BRANCH  13  15
HETATM   15  C9  UNL     1       4.235  29.609  14.348  1.00  0.00     0.709 A 
HETATM   16  N4  UNL     1       4.170  30.447  13.320  1.00  0.00    -0.115 N 
HETATM   17  N5  UNL     1       2.898  30.596  12.954  1.00  0.00    -0.213 N 
ATOM     18  H4  UNL     1       4.968  30.905  12.880  1.00  0.00     0.207 HD
HETATM   19  N6  UNL     1       2.154  29.864  13.735  1.00  0.00    -0.213 N 
ATOM     20  H5  UNL     1       2.562  31.183  12.190  1.00  0.00     0.210 HD
HETATM   21  N7  UNL     1       2.937  29.250  14.596  1.00  0.00    -0.115 N 
ATOM     22  H6  UNL     1       1.138  29.781  13.688  1.00  0.00     0.210 HD
ATOM     23  H7  UNL     1       2.629  28.611  15.328  1.00  0.00     0.207 HD
ENDBRANCH  13  15
ENDBRANCH   1  13
TORSDOF 8
ENDMDL
MODEL 2
REMARK VINA RESULT: -5.946544553      0.049      1.013
REMARK  8 active torsions:
REMARK  status: ('A' for Active; 'I' for Inactive)
REMARK    1  A    between atoms: N1_2  and  C4_5 
REMARK    2  A    between atoms: C4_5  and  C5_6 
REMARK    3  A    between atoms: C5_6  and  N2_7 
REMARK    4  A    between atoms: N2_7  and  C6_10 
REMARK    5  A    between atoms: C6_10  and  C7_11 
REMARK    6  A    between atoms: C7_11  and  C8_12 
REMARK    7  A    between atoms: C8_12  and  N3_13 
REMARK    8  A    between atoms: N3_13  and  C9_15 
ROOT
HETATM    1  C8  UNL     1       6.524  29.641  15.188  1.00  0.00     0.140 C 
ENDROOT
BRANCH   1   2
HETATM    2  C7  UNL     1       7.273  28.839  16.261  1.00  0.00     0.048 C 
BRANCH   2   3
HETATM    3  C6  UNL     1       8.282  27.913  15.632  1.00  0.00     0.234 C 
BRANCH   3   4
HETATM    4  N2  UNL     1       7.726  26.853  14.858  1.00  0.00    -0.073 N 
ATOM      5  H22 UNL     1       8.462  26.317  14.398  1.00  0.00     0.277 HD
ATOM      6  H21 UNL     1       7.245  27.221  14.036  1.00  0.00     0.277 HD
BRANCH   4   7
HETATM    7  C5  UNL     1       6.856  25.983  15.611  1.00  0.00     0.260 C 
BRANCH   7   8
HETATM    8  C4  UNL     1       5.695  25.577  14.771  1.00  0.00     0.263 C 
BRANCH   8   9
HETATM    9  N1  UNL     1       4.457  25.488  15.524  1.00  0.00    -0.077 N 
HETATM   10  C1  UNL     1       3.330  25.993  14.762  1.00  0.00     0.271 C 
HETATM   11  C2  UNL     1       4.635  26.273  16.734  1.00  0.00     0.271 C 
HETATM   12  C3  UNL     1       4.131  24.144  15.943  1.00  0.00     0.271 C 
ENDBRANCH   8   9
ENDBRANCH   7   8
ENDBRANCH   4   7
ENDBRANCH   3   4
ENDBRANCH   2   3
ENDBRANCH   1   2
BRANCH   1  13
HETATM   13  N3  UNL     1       5.179  29.152  15.073  1.00  0.00    -0.223 N 
ATOM     14  H3  UNL     1       4.954  28.329  15.633  1.00  0.00     0.177 HD
BRANCH  13  15
HETATM   15  C9  UNL     1       4.236  29.616  14.362  1.00  0.00     0.709 A 
HETATM   16  N4  UNL     1       4.173  30.442  13.324  1.00  0.00    -0.115 N 
HETATM   17  N5  UNL     1       2.902  30.587  12.955  1.00  0.00    -0.213 N 
ATOM     18  H4  UNL     1       4.972  30.894  12.880  1.00  0.00     0.207 HD
HETATM   19  N6  UNL     1       2.156  29.865  13.744  1.00  0.00    -0.213 N 
ATOM     20  H5  UNL     1       2.568  31.166  12.185  1.00  0.00     0.210 HD
HETATM   21  N7  UNL     1       2.939  29.261  14.612  1.00  0.00    -0.115 N 
ATOM     22  H6  UNL     1       1.141  29.782  13.696  1.00  0.00     0.210 HD
ATOM     23  H7  UNL     1       2.629  28.630  15.351  1.00  0.00     0.207 HD
ENDBRANCH  13  15
ENDBRANCH   1  13
TORSDOF 8
ENDMDL
MODEL 3
REMARK VINA RESULT: -5.757052611      1.556      5.148
REMARK  8 active torsions:
REMARK  status: ('A' for Active; 'I' for Inactive)
REMARK    1  A    between atoms: N1_2  and  C4_5 
REMARK    2  A    between atoms: C4_5  and  C5_6 
REMARK    3  A    between atoms: C5_6  and  N2_7 
REMARK    4  A    between atoms: N2_7  and  C6_10 
REMARK    5  A    between atoms: C6_10  and  C7_11 
REMARK    6  A    between atoms: C7_11  and  C8_12 
REMARK    7  A    between atoms: C8_12  and  N3_13 
REMARK    8  A    between atoms: N3_13  and  C9_15 
ROOT
HETATM    1  C8  UNL     1       3.043  26.939  14.107  1.00  0.00     0.140 C 
ENDROOT
BRANCH   1   2
HETATM    2  C7  UNL     1       3.015  28.344  14.723  1.00  0.00     0.048 C 
BRANCH   2   3
HETATM    3  C6  UNL     1       3.360  29.389  13.694  1.00  0.00     0.234 C 
BRANCH   3   4
HETATM    4  N2  UNL     1       4.704  29.862  13.744  1.00  0.00    -0.073 N 
ATOM      5  H22 UNL     1       4.753  30.841  13.463  1.00  0.00     0.277 HD
ATOM      6  H21 UNL     1       5.261  29.443  12.999  1.00  0.00     0.277 HD
BRANCH   4   7
HETATM    7  C5  UNL     1       5.338  29.667  15.025  1.00  0.00     0.260 C 
BRANCH   7   8
HETATM    8  C4  UNL     1       6.797  29.432  14.838  1.00  0.00     0.263 C 
BRANCH   8   9
HETATM    9  N1  UNL     1       7.350  28.507  15.811  1.00  0.00    -0.077 N 
HETATM   10  C1  UNL     1       6.412  28.239  16.887  1.00  0.00     0.271 C 
HETATM   11  C2  UNL     1       8.558  29.115  16.340  1.00  0.00     0.271 C 
HETATM   12  C3  UNL     1       7.736  27.236  15.244  1.00  0.00     0.271 C 
ENDBRANCH   8   9
ENDBRANCH   7   8
ENDBRANCH   4   7
ENDBRANCH   3   4
ENDBRANCH   2   3
ENDBRANCH   1   2
BRANCH   1  13
HETATM   13  N3  UNL     1       4.252  26.268  14.495  1.00  0.00    -0.223 N 
ATOM     14  H3  UNL     1       5.116  26.639  14.099  1.00  0.00     0.177 HD
BRANCH  13  15
HETATM   15  C9  UNL     1       4.379  25.270  15.269  1.00  0.00     0.709 A 
HETATM   16  N4  UNL     1       5.292  24.890  16.155  1.00  0.00    -0.115 N 
HETATM   17  N5  UNL     1       4.918  23.735  16.703  1.00  0.00    -0.213 N 
ATOM     18  H4  UNL     1       6.145  25.401  16.381  1.00  0.00     0.207 HD
HETATM   19  N6  UNL     1       3.780  23.376  16.177  1.00  0.00    -0.213 N 
ATOM     20  H5  UNL     1       5.435  23.218  17.414  1.00  0.00     0.210 HD
HETATM   21  N7  UNL     1       3.425  24.290  15.300  1.00  0.00    -0.115 N 
ATOM     22  H6  UNL     1       3.256  22.532  16.406  1.00  0.00     0.210 HD
ATOM     23  H7  UNL     1       2.576  24.271  14.735  1.00  0.00     0.207 HD
ENDBRANCH  13  15
ENDBRANCH   1  13
TORSDOF 8
ENDMDL
MODEL 4
REMARK VINA RESULT: -5.732051334      1.553      5.168
REMARK  8 active torsions:
REMARK  status: ('A' for Active; 'I' for Inactive)
REMARK    1  A    between atoms: N1_2  and  C4_5 
REMARK    2  A    between atoms: C4_5  and  C5_6 
REMARK    3  A    between atoms: C5_6  and  N2_7 
REMARK    4  A    between atoms: N2_7  and  C6_10 
REMARK    5  A    between atoms: C6_10  and  C7_11 
REMARK    6  A    between atoms: C7_11  and  C8_12 
REMARK    7  A    between atoms: C8_12  and  N3_13 
REMARK    8  A    between atoms: N3_13  and  C9_15 
ROOT
HETATM    1  C8  UNL     1       3.047  26.941  14.101  1.00  0.00     0.140 C 
ENDROOT
BRANCH   1   2
HETATM    2  C7  UNL     1       3.014  28.335  14.741  1.00  0.00     0.048 C 
BRANCH   2   3
HETATM    3  C6  UNL     1       3.352  29.399  13.730  1.00  0.00     0.234 C 
BRANCH   3   4
HETATM    4  N2  UNL     1       4.704  29.851  13.760  1.00  0.00    -0.073 N 
ATOM      5  H22 UNL     1       4.762  30.836  13.502  1.00  0.00     0.277 HD
ATOM      6  H21 UNL     1       5.239  29.442  12.993  1.00  0.00     0.277 HD
BRANCH   4   7
HETATM    7  C5  UNL     1       5.363  29.617  15.022  1.00  0.00     0.260 C 
BRANCH   7   8
HETATM    8  C4  UNL     1       6.820  29.402  14.801  1.00  0.00     0.263 C 
BRANCH   8   9
HETATM    9  N1  UNL     1       7.417  28.517  15.785  1.00  0.00    -0.077 N 
HETATM   10  C1  UNL     1       7.793  27.243  15.200  1.00  0.00     0.271 C 
HETATM   11  C2  UNL     1       6.431  28.316  16.832  1.00  0.00     0.271 C 
HETATM   12  C3  UNL     1       8.592  29.069  16.418  1.00  0.00     0.271 C 
ENDBRANCH   8   9
ENDBRANCH   7   8
ENDBRANCH   4   7
ENDBRANCH   3   4
ENDBRANCH   2   3
ENDBRANCH   1   2
BRANCH   1  13
HETATM   13  N3  UNL     1       4.263  26.271  14.470  1.00  0.00    -0.223 N 
ATOM     14  H3  UNL     1       5.118  26.632  14.047  1.00  0.00     0.177 HD
BRANCH  13  15
HETATM   15  C9  UNL     1       4.405  25.285  15.256  1.00  0.00     0.709 A 
HETATM   16  N4  UNL     1       5.320  24.932  16.151  1.00  0.00    -0.115 N 
HETATM   17  N5  UNL     1       4.966  23.777  16.711  1.00  0.00    -0.213 N 
ATOM     18  H4  UNL     1       6.162  25.463  16.375  1.00  0.00     0.207 HD
HETATM   19  N6  UNL     1       3.837  23.391  16.184  1.00  0.00    -0.213 N 
ATOM     20  H5  UNL     1       5.489  23.279  17.431  1.00  0.00     0.210 HD
HETATM   21  N7  UNL     1       3.469  24.287  15.294  1.00  0.00    -0.115 N 
ATOM     22  H6  UNL     1       3.328  22.540  16.421  1.00  0.00     0.210 HD
ATOM     23  H7  UNL     1       2.624  24.246  14.725  1.00  0.00     0.207 HD
ENDBRANCH  13  15
ENDBRANCH   1  13
TORSDOF 8
ENDMDL
MODEL 5
REMARK VINA RESULT: -5.688148915      1.650      4.283
REMARK  8 active torsions:
REMARK  status: ('A' for Active; 'I' for Inactive)
REMARK    1  A    between atoms: N1_2  and  C4_5 
REMARK    2  A    between atoms: C4_5  and  C5_6 
REMARK    3  A    between atoms: C5_6  and  N2_7 
REMARK    4  A    between atoms: N2_7  and  C6_10 
REMARK    5  A    between atoms: C6_10  and  C7_11 
REMARK    6  A    between atoms: C7_11  and  C8_12 
REMARK    7  A    between atoms: C8_12  and  N3_13 
REMARK    8  A    between atoms: N3_13  and  C9_15 
ROOT
HETATM    1  C8  UNL     1       7.882  26.679  15.554  1.00  0.00     0.140 C 
ENDROOT
BRANCH   1   2
HETATM    2  C7  UNL     1       8.110  28.197  15.550  1.00  0.00     0.048 C 
BRANCH   2   3
HETATM    3  C6  UNL     1       6.827  28.934  15.834  1.00  0.00     0.234 C 
BRANCH   3   4
HETATM    4  N2  UNL     1       6.426  29.856  14.822  1.00  0.00    -0.073 N 
ATOM      5  H22 UNL     1       7.037  29.785  14.007  1.00  0.00     0.277 HD
ATOM      6  H21 UNL     1       6.631  30.814  15.106  1.00  0.00     0.277 HD
BRANCH   4   7
HETATM    7  C5  UNL     1       5.044  29.723  14.434  1.00  0.00     0.260 C 
BRANCH   7   8
HETATM    8  C4  UNL     1       4.357  28.752  15.331  1.00  0.00     0.263 C 
BRANCH   8   9
HETATM    9  N1  UNL     1       3.045  28.364  14.846  1.00  0.00    -0.077 N 
HETATM   10  C1  UNL     1       2.334  29.489  14.268  1.00  0.00     0.271 C 
HETATM   11  C2  UNL     1       2.308  27.836  15.982  1.00  0.00     0.271 C 
HETATM   12  C3  UNL     1       3.085  27.318  13.851  1.00  0.00     0.271 C 
ENDBRANCH   8   9
ENDBRANCH   7   8
ENDBRANCH   4   7
ENDBRANCH   3   4
ENDBRANCH   2   3
ENDBRANCH   1   2
BRANCH   1  13
HETATM   13  N3  UNL     1       6.683  26.372  14.826  1.00  0.00    -0.223 N 
ATOM     14  H3  UNL     1       6.529  26.908  13.972  1.00  0.00     0.177 HD
BRANCH  13  15
HETATM   15  C9  UNL     1       5.792  25.515  15.113  1.00  0.00     0.709 A 
HETATM   16  N4  UNL     1       4.947  24.777  14.403  1.00  0.00    -0.115 N 
HETATM   17  N5  UNL     1       4.220  24.026  15.227  1.00  0.00    -0.213 N 
ATOM     18  H4  UNL     1       4.867  24.784  13.386  1.00  0.00     0.207 HD
HETATM   19  N6  UNL     1       4.591  24.276  16.452  1.00  0.00    -0.213 N 
ATOM     20  H5  UNL     1       3.494  23.366  14.948  1.00  0.00     0.210 HD
HETATM   21  N7  UNL     1       5.547  25.179  16.417  1.00  0.00    -0.115 N 
ATOM     22  H6  UNL     1       4.206  23.846  17.293  1.00  0.00     0.210 HD
ATOM     23  H7  UNL     1       6.028  25.566  17.229  1.00  0.00     0.207 HD
ENDBRANCH  13  15
ENDBRANCH   1  13
TORSDOF 8
ENDMDL
