MODEL 1
REMARK VINA RESULT: -7.143337859      0.000      0.000
REMARK  12 active torsions:
REMARK  status: ('A' for Active; 'I' for Inactive)
REMARK    1  A    between atoms: C2_2  and  O1_3 
REMARK    2  A    between atoms: C2_2  and  C3_5 
REMARK    3  A    between atoms: C3_5  and  N1_6 
REMARK    4  A    between atoms: C3_5  and  O2_10 
REMARK    5  A    between atoms: C3_5  and  C4_12 
REMARK    6  A    between atoms: C4_12  and  O3_13 
REMARK    7  A    between atoms: C4_12  and  N2_15 
REMARK    8  A    between atoms: N2_15  and  C5_17 
REMARK    9  A    between atoms: C6_18  and  C7_19 
REMARK   10  A    between atoms: C7_19  and  O4_20 
REMARK   11  A    between atoms: C8_22  and  C9_23 
REMARK   12  A    between atoms: C11_29  and  C13_31 
ROOT
HETATM    1  C5  UNL     1      -1.422 -34.726  -9.731  1.00  0.00     0.153 C 
HETATM    2  C6  UNL     1      -0.988 -35.060  -8.339  1.00  0.00     0.022 C 
HETATM    3  C8  UNL     1      -1.990 -35.525  -7.619  1.00  0.00     0.155 C 
HETATM    4  O7  UNL     1      -3.115 -35.519  -8.482  1.00  0.00    -0.310 OA
HETATM    5  C10 UNL     1      -2.596 -35.701  -9.788  1.00  0.00     0.307 C 
HETATM    6  O8  UNL     1      -3.554 -35.355 -10.678  1.00  0.00    -0.329 OA
HETATM    7  C11 UNL     1      -4.215 -34.194 -10.444  1.00  0.00     0.192 C 
HETATM    8  C12 UNL     1      -5.333 -34.359  -9.405  1.00  0.00     0.065 C 
HETATM    9  C14 UNL     1      -3.289 -33.073  -9.987  1.00  0.00     0.088 A 
HETATM   10  N3  UNL     1      -3.697 -31.798  -9.893  1.00  0.00    -0.311 N 
ATOM     11  H3  UNL     1      -4.625 -31.427 -10.097  1.00  0.00     0.175 HD
HETATM   12  S1  UNL     1      -2.359 -30.951  -9.368  1.00  0.00     0.067 SA
HETATM   13  N4  UNL     1      -1.293 -32.239  -9.275  1.00  0.00    -0.311 N 
ATOM     14  H4  UNL     1      -0.314 -32.212  -8.989  1.00  0.00     0.175 HD
HETATM   15  C15 UNL     1      -2.007 -33.326  -9.662  1.00  0.00     0.081 A 
ENDROOT
BRANCH   1  16
HETATM   16  N2  UNL     1      -0.453 -34.906 -10.671  1.00  0.00    -0.371 N 
ATOM     17  H2  UNL     1       0.428 -34.427 -10.485  1.00  0.00     0.157 HD
BRANCH  16  18
HETATM   18  C4  UNL     1      -0.489 -35.640 -11.835  1.00  0.00     0.281 C 
BRANCH  18  19
HETATM   19  C3  UNL     1       0.851 -36.041 -12.414  1.00  0.00     0.291 C 
BRANCH  19  20
HETATM   20  C2  UNL     1       1.821 -36.625 -11.442  1.00  0.00     0.181 C 
HETATM   21  C1  UNL     1       2.814 -37.531 -12.146  1.00  0.00     0.044 C 
BRANCH  20  22
HETATM   22  O1  UNL     1       1.288 -37.316 -10.401  1.00  0.00    -0.391 OA
ATOM     23  H1  UNL     1       0.579 -37.851 -10.737  1.00  0.00     0.210 HD
ENDBRANCH  20  22
ENDBRANCH  19  20
BRANCH  19  24
HETATM   24  N1  UNL     1       1.512 -34.914 -13.058  1.00  0.00    -0.040 N 
ATOM     25  H13 UNL     1       2.450 -34.742 -12.697  1.00  0.00     0.278 HD
ATOM     26  H12 UNL     1       1.775 -35.104 -14.025  1.00  0.00     0.278 HD
ATOM     27  H11 UNL     1       0.895 -34.107 -12.963  1.00  0.00     0.278 HD
ENDBRANCH  19  24
BRANCH  19  28
HETATM   28  O2  UNL     1       0.629 -36.973 -13.425  1.00  0.00    -0.360 OA
ATOM     29  H2  UNL     1       0.268 -36.518 -14.177  1.00  0.00     0.212 HD
ENDBRANCH  19  28
ENDBRANCH  18  19
BRANCH  18  30
HETATM   30  O3  UNL     1      -1.139 -35.012 -12.922  1.00  0.00    -0.372 OA
ATOM     31  H3  UNL     1      -1.888 -35.574 -13.083  1.00  0.00     0.212 HD
ENDBRANCH  18  30
ENDBRANCH  16  18
ENDBRANCH   1  16
BRANCH   2  32
HETATM   32  C7  UNL     1       0.388 -34.892  -7.783  1.00  0.00     0.204 C 
BRANCH  32  33
HETATM   33  O4  UNL     1       0.606 -33.634  -7.221  1.00  0.00    -0.396 OA
ATOM     34  H4  UNL     1       0.808 -33.667  -6.293  1.00  0.00     0.209 HD
ENDBRANCH  32  33
ENDBRANCH   2  32
BRANCH   3  35
HETATM   35  C9  UNL     1      -2.076 -35.984  -6.224  1.00  0.00     0.234 C 
HETATM   36  O5  UNL     1      -2.180 -37.243  -5.976  1.00  0.00    -0.642 OA
HETATM   37  O6  UNL     1      -2.058 -35.195  -5.105  1.00  0.00    -0.642 OA
ENDBRANCH   3  35
BRANCH   7  38
HETATM   38  C13 UNL     1      -4.891 -33.786 -11.702  1.00  0.00     0.215 C 
HETATM   39  O9  UNL     1      -5.968 -33.187 -11.693  1.00  0.00    -0.645 OA
HETATM   40  O10 UNL     1      -4.265 -34.101 -12.918  1.00  0.00    -0.645 OA
ENDBRANCH   7  38
TORSDOF 12
ENDMDL
MODEL 2
REMARK VINA RESULT: -6.983099160      2.118      2.389
REMARK  12 active torsions:
REMARK  status: ('A' for Active; 'I' for Inactive)
REMARK    1  A    between atoms: C2_2  and  O1_3 
REMARK    2  A    between atoms: C2_2  and  C3_5 
REMARK    3  A    between atoms: C3_5  and  N1_6 
REMARK    4  A    between atoms: C3_5  and  O2_10 
REMARK    5  A    between atoms: C3_5  and  C4_12 
REMARK    6  A    between atoms: C4_12  and  O3_13 
REMARK    7  A    between atoms: C4_12  and  N2_15 
REMARK    8  A    between atoms: N2_15  and  C5_17 
REMARK    9  A    between atoms: C6_18  and  C7_19 
REMARK   10  A    between atoms: C7_19  and  O4_20 
REMARK   11  A    between atoms: C8_22  and  C9_23 
REMARK   12  A    between atoms: C11_29  and  C13_31 
ROOT
HETATM    1  C5  UNL     1      -2.045 -33.745  -8.852  1.00  0.00     0.153 C 
HETATM    2  C6  UNL     1      -2.341 -34.316  -7.502  1.00  0.00     0.022 C 
HETATM    3  C8  UNL     1      -3.551 -33.986  -7.094  1.00  0.00     0.155 C 
HETATM    4  O7  UNL     1      -4.103 -33.196  -8.133  1.00  0.00    -0.310 OA
HETATM    5  C10 UNL     1      -3.494 -33.654  -9.327  1.00  0.00     0.307 C 
HETATM    6  O8  UNL     1      -3.699 -32.728 -10.292  1.00  0.00    -0.329 OA
HETATM    7  C11 UNL     1      -3.474 -31.434  -9.953  1.00  0.00     0.192 C 
HETATM    8  C12 UNL     1      -4.658 -30.814  -9.199  1.00  0.00     0.065 C 
HETATM    9  C14 UNL     1      -2.215 -31.258  -9.111  1.00  0.00     0.088 A 
HETATM   10  N3  UNL     1      -1.699 -30.049  -8.837  1.00  0.00    -0.311 N 
ATOM     11  H3  UNL     1      -2.056 -29.141  -9.132  1.00  0.00     0.175 HD
HETATM   12  S1  UNL     1      -0.347 -30.356  -7.908  1.00  0.00     0.067 SA
HETATM   13  N4  UNL     1      -0.459 -32.026  -7.882  1.00  0.00    -0.311 N 
ATOM     14  H4  UNL     1       0.171 -32.681  -7.418  1.00  0.00     0.175 HD
HETATM   15  C15 UNL     1      -1.565 -32.324  -8.610  1.00  0.00     0.081 A 
ENDROOT
BRANCH   1  16
HETATM   16  N2  UNL     1      -1.218 -34.517  -9.610  1.00  0.00    -0.371 N 
ATOM     17  H2  UNL     1      -0.530 -35.060  -9.088  1.00  0.00     0.157 HD
BRANCH  16  18
HETATM   18  C4  UNL     1      -1.174 -34.672 -10.977  1.00  0.00     0.281 C 
BRANCH  18  19
HETATM   19  C3  UNL     1      -0.036 -35.509 -11.520  1.00  0.00     0.291 C 
BRANCH  19  20
HETATM   20  C2  UNL     1       0.884 -36.082 -10.494  1.00  0.00     0.181 C 
HETATM   21  C1  UNL     1       2.174 -36.563 -11.130  1.00  0.00     0.044 C 
BRANCH  20  22
HETATM   22  O1  UNL     1       0.387 -37.096  -9.737  1.00  0.00    -0.391 OA
ATOM     23  H1  UNL     1       1.026 -37.799  -9.736  1.00  0.00     0.210 HD
ENDBRANCH  20  22
ENDBRANCH  19  20
BRANCH  19  24
HETATM   24  N1  UNL     1       0.782 -34.752 -12.457  1.00  0.00    -0.040 N 
ATOM     25  H13 UNL     1       0.237 -34.308 -13.195  1.00  0.00     0.278 HD
ATOM     26  H12 UNL     1       1.171 -33.901 -12.051  1.00  0.00     0.278 HD
ATOM     27  H11 UNL     1       1.496 -35.386 -12.815  1.00  0.00     0.278 HD
ENDBRANCH  19  24
BRANCH  19  28
HETATM   28  O2  UNL     1      -0.577 -36.559 -12.257  1.00  0.00    -0.360 OA
ATOM     29  H2  UNL     1      -0.394 -37.371 -11.799  1.00  0.00     0.212 HD
ENDBRANCH  19  28
ENDBRANCH  18  19
BRANCH  18  30
HETATM   30  O3  UNL     1      -1.076 -33.470 -11.715  1.00  0.00    -0.372 OA
ATOM     31  H3  UNL     1      -1.584 -32.855 -11.199  1.00  0.00     0.212 HD
ENDBRANCH  18  30
ENDBRANCH  16  18
ENDBRANCH   1  16
BRANCH   2  32
HETATM   32  C7  UNL     1      -1.414 -35.144  -6.675  1.00  0.00     0.204 C 
BRANCH  32  33
HETATM   33  O4  UNL     1      -0.082 -34.741  -6.767  1.00  0.00    -0.396 OA
ATOM     34  H4  UNL     1       0.432 -35.275  -7.361  1.00  0.00     0.209 HD
ENDBRANCH  32  33
ENDBRANCH   2  32
BRANCH   3  35
HETATM   35  C9  UNL     1      -4.298 -34.293  -5.863  1.00  0.00     0.234 C 
HETATM   36  O5  UNL     1      -4.709 -35.495  -5.655  1.00  0.00    -0.642 OA
HETATM   37  O6  UNL     1      -4.622 -33.413  -4.866  1.00  0.00    -0.642 OA
ENDBRANCH   3  35
BRANCH   7  38
HETATM   38  C13 UNL     1      -3.336 -30.647 -11.206  1.00  0.00     0.215 C 
HETATM   39  O9  UNL     1      -4.206 -29.854 -11.569  1.00  0.00    -0.645 OA
HETATM   40  O10 UNL     1      -2.176 -30.829 -11.974  1.00  0.00    -0.645 OA
ENDBRANCH   7  38
TORSDOF 12
ENDMDL
MODEL 3
REMARK VINA RESULT: -6.964386861      1.545      1.998
REMARK  12 active torsions:
REMARK  status: ('A' for Active; 'I' for Inactive)
REMARK    1  A    between atoms: C2_2  and  O1_3 
REMARK    2  A    between atoms: C2_2  and  C3_5 
REMARK    3  A    between atoms: C3_5  and  N1_6 
REMARK    4  A    between atoms: C3_5  and  O2_10 
REMARK    5  A    between atoms: C3_5  and  C4_12 
REMARK    6  A    between atoms: C4_12  and  O3_13 
REMARK    7  A    between atoms: C4_12  and  N2_15 
REMARK    8  A    between atoms: N2_15  and  C5_17 
REMARK    9  A    between atoms: C6_18  and  C7_19 
REMARK   10  A    between atoms: C7_19  and  O4_20 
REMARK   11  A    between atoms: C8_22  and  C9_23 
REMARK   12  A    between atoms: C11_29  and  C13_31 
ROOT
HETATM    1  C5  UNL     1      -2.086 -35.032  -8.986  1.00  0.00     0.153 C 
HETATM    2  C6  UNL     1      -2.506 -35.028  -7.550  1.00  0.00     0.022 C 
HETATM    3  C8  UNL     1      -3.818 -34.998  -7.432  1.00  0.00     0.155 C 
HETATM    4  O7  UNL     1      -4.321 -34.977  -8.757  1.00  0.00    -0.310 OA
HETATM    5  C10 UNL     1      -3.362 -35.663  -9.541  1.00  0.00     0.307 C 
HETATM    6  O8  UNL     1      -3.594 -35.377 -10.843  1.00  0.00    -0.329 OA
HETATM    7  C11 UNL     1      -3.814 -34.075 -11.152  1.00  0.00     0.192 C 
HETATM    8  C12 UNL     1      -5.259 -33.644 -10.868  1.00  0.00     0.065 C 
HETATM    9  C14 UNL     1      -2.871 -33.129 -10.417  1.00  0.00     0.088 A 
HETATM   10  N3  UNL     1      -2.781 -31.825 -10.722  1.00  0.00    -0.311 N 
ATOM     11  H3  UNL     1      -3.299 -31.318 -11.439  1.00  0.00     0.175 HD
HETATM   12  S1  UNL     1      -1.637 -31.213  -9.673  1.00  0.00     0.067 SA
HETATM   13  N4  UNL     1      -1.288 -32.632  -8.857  1.00  0.00    -0.311 N 
ATOM     14  H4  UNL     1      -0.622 -32.760  -8.094  1.00  0.00     0.175 HD
HETATM   15  C15 UNL     1      -2.081 -33.577  -9.424  1.00  0.00     0.081 A 
ENDROOT
BRANCH   1  16
HETATM   16  N2  UNL     1      -0.932 -35.715  -9.224  1.00  0.00    -0.371 N 
ATOM     17  H2  UNL     1      -0.897 -36.658  -8.838  1.00  0.00     0.157 HD
BRANCH  16  18
HETATM   18  C4  UNL     1       0.194 -35.319  -9.910  1.00  0.00     0.281 C 
BRANCH  18  19
HETATM   19  C3  UNL     1       0.233 -35.657 -11.385  1.00  0.00     0.291 C 
BRANCH  19  20
HETATM   20  C2  UNL     1       1.494 -36.296 -11.862  1.00  0.00     0.181 C 
HETATM   21  C1  UNL     1       2.328 -35.316 -12.665  1.00  0.00     0.044 C 
BRANCH  20  22
HETATM   22  O1  UNL     1       1.354 -37.429 -12.600  1.00  0.00    -0.391 OA
ATOM     23  H1  UNL     1       1.822 -38.127 -12.157  1.00  0.00     0.210 HD
ENDBRANCH  20  22
ENDBRANCH  19  20
BRANCH  19  24
HETATM   24  N1  UNL     1       0.009 -34.478 -12.209  1.00  0.00    -0.040 N 
ATOM     25  H13 UNL     1      -0.811 -34.560 -12.809  1.00  0.00     0.278 HD
ATOM     26  H12 UNL     1      -0.302 -33.669 -11.671  1.00  0.00     0.278 HD
ATOM     27  H11 UNL     1       0.869 -34.306 -12.729  1.00  0.00     0.278 HD
ENDBRANCH  19  24
BRANCH  19  28
HETATM   28  O2  UNL     1      -0.827 -36.517 -11.664  1.00  0.00    -0.360 OA
ATOM     29  H2  UNL     1      -1.417 -36.516 -10.920  1.00  0.00     0.212 HD
ENDBRANCH  19  28
ENDBRANCH  18  19
BRANCH  18  30
HETATM   30  O3  UNL     1       1.411 -35.846  -9.422  1.00  0.00    -0.372 OA
ATOM     31  H3  UNL     1       2.038 -35.609 -10.096  1.00  0.00     0.212 HD
ENDBRANCH  18  30
ENDBRANCH  16  18
ENDBRANCH   1  16
BRANCH   2  32
HETATM   32  C7  UNL     1      -1.593 -35.041  -6.368  1.00  0.00     0.204 C 
BRANCH  32  33
HETATM   33  O4  UNL     1      -0.296 -34.625  -6.667  1.00  0.00    -0.396 OA
ATOM     34  H4  UNL     1       0.156 -34.243  -5.924  1.00  0.00     0.209 HD
ENDBRANCH  32  33
ENDBRANCH   2  32
BRANCH   3  35
HETATM   35  C9  UNL     1      -4.705 -34.982  -6.257  1.00  0.00     0.234 C 
HETATM   36  O5  UNL     1      -5.693 -34.158  -6.220  1.00  0.00    -0.642 OA
HETATM   37  O6  UNL     1      -4.600 -35.777  -5.147  1.00  0.00    -0.642 OA
ENDBRANCH   3  35
BRANCH   7  38
HETATM   38  C13 UNL     1      -3.625 -33.910 -12.617  1.00  0.00     0.215 C 
HETATM   39  O9  UNL     1      -4.102 -32.952 -13.227  1.00  0.00    -0.645 OA
HETATM   40  O10 UNL     1      -2.878 -34.884 -13.297  1.00  0.00    -0.645 OA
ENDBRANCH   7  38
TORSDOF 12
ENDMDL
MODEL 4
REMARK VINA RESULT: -6.944292547      1.661      1.984
REMARK  12 active torsions:
REMARK  status: ('A' for Active; 'I' for Inactive)
REMARK    1  A    between atoms: C2_2  and  O1_3 
REMARK    2  A    between atoms: C2_2  and  C3_5 
REMARK    3  A    between atoms: C3_5  and  N1_6 
REMARK    4  A    between atoms: C3_5  and  O2_10 
REMARK    5  A    between atoms: C3_5  and  C4_12 
REMARK    6  A    between atoms: C4_12  and  O3_13 
REMARK    7  A    between atoms: C4_12  and  N2_15 
REMARK    8  A    between atoms: N2_15  and  C5_17 
REMARK    9  A    between atoms: C6_18  and  C7_19 
REMARK   10  A    between atoms: C7_19  and  O4_20 
REMARK   11  A    between atoms: C8_22  and  C9_23 
REMARK   12  A    between atoms: C11_29  and  C13_31 
ROOT
HETATM    1  C5  UNL     1      -2.015 -35.206 -10.680  1.00  0.00     0.153 C 
HETATM    2  C6  UNL     1      -1.157 -35.571  -9.510  1.00  0.00     0.022 C 
HETATM    3  C8  UNL     1      -1.874 -35.712  -8.412  1.00  0.00     0.155 C 
HETATM    4  O7  UNL     1      -3.213 -35.450  -8.794  1.00  0.00    -0.310 OA
HETATM    5  C10 UNL     1      -3.305 -35.832 -10.155  1.00  0.00     0.307 C 
HETATM    6  O8  UNL     1      -4.430 -35.289 -10.674  1.00  0.00    -0.329 OA
HETATM    7  C11 UNL     1      -4.664 -33.983 -10.393  1.00  0.00     0.192 C 
HETATM    8  C12 UNL     1      -5.290 -33.788  -9.005  1.00  0.00     0.065 C 
HETATM    9  C14 UNL     1      -3.405 -33.129 -10.482  1.00  0.00     0.088 A 
HETATM   10  N3  UNL     1      -3.443 -31.788 -10.439  1.00  0.00    -0.311 N 
ATOM     11  H3  UNL     1      -4.265 -31.193 -10.343  1.00  0.00     0.175 HD
HETATM   12  S1  UNL     1      -1.851 -31.304 -10.575  1.00  0.00     0.067 SA
HETATM   13  N4  UNL     1      -1.157 -32.823 -10.686  1.00  0.00    -0.311 N 
ATOM     14  H4  UNL     1      -0.166 -33.044 -10.785  1.00  0.00     0.175 HD
HETATM   15  C15 UNL     1      -2.192 -33.698 -10.614  1.00  0.00     0.081 A 
ENDROOT
BRANCH   1  16
HETATM   16  N2  UNL     1      -1.561 -35.687 -11.870  1.00  0.00    -0.371 N 
ATOM     17  H2  UNL     1      -0.548 -35.774 -11.947  1.00  0.00     0.157 HD
BRANCH  16  18
HETATM   18  C4  UNL     1      -2.270 -36.072 -12.985  1.00  0.00     0.281 C 
BRANCH  18  19
HETATM   19  C3  UNL     1      -1.453 -36.566 -14.160  1.00  0.00     0.291 C 
BRANCH  19  20
HETATM   20  C2  UNL     1       0.016 -36.319 -14.068  1.00  0.00     0.181 C 
HETATM   21  C1  UNL     1       0.694 -36.581 -15.399  1.00  0.00     0.044 C 
BRANCH  20  22
HETATM   22  O1  UNL     1       0.685 -37.017 -13.112  1.00  0.00    -0.391 OA
ATOM     23  H1  UNL     1       1.503 -36.565 -12.939  1.00  0.00     0.210 HD
ENDBRANCH  20  22
ENDBRANCH  19  20
BRANCH  19  24
HETATM   24  N1  UNL     1      -1.910 -35.978 -15.412  1.00  0.00    -0.040 N 
ATOM     25  H13 UNL     1      -2.839 -35.563 -15.343  1.00  0.00     0.278 HD
ATOM     26  H12 UNL     1      -1.404 -35.129 -15.663  1.00  0.00     0.278 HD
ATOM     27  H11 UNL     1      -1.850 -36.705 -16.126  1.00  0.00     0.278 HD
ENDBRANCH  19  24
BRANCH  19  28
HETATM   28  O2  UNL     1      -1.659 -37.937 -14.292  1.00  0.00    -0.360 OA
ATOM     29  H2  UNL     1      -1.852 -38.124 -15.203  1.00  0.00     0.212 HD
ENDBRANCH  19  28
ENDBRANCH  18  19
BRANCH  18  30
HETATM   30  O3  UNL     1      -3.086 -35.067 -13.555  1.00  0.00    -0.372 OA
ATOM     31  H3  UNL     1      -3.574 -34.734 -12.812  1.00  0.00     0.212 HD
ENDBRANCH  18  30
ENDBRANCH  16  18
ENDBRANCH   1  16
BRANCH   2  32
HETATM   32  C7  UNL     1       0.325 -35.748  -9.528  1.00  0.00     0.204 C 
BRANCH  32  33
HETATM   33  O4  UNL     1       0.929 -35.229 -10.673  1.00  0.00    -0.396 OA
ATOM     34  H4  UNL     1       1.774 -35.619 -10.862  1.00  0.00     0.209 HD
ENDBRANCH  32  33
ENDBRANCH   2  32
BRANCH   3  35
HETATM   35  C9  UNL     1      -1.507 -36.058  -7.029  1.00  0.00     0.234 C 
HETATM   36  O5  UNL     1      -1.854 -37.201  -6.549  1.00  0.00    -0.642 OA
HETATM   37  O6  UNL     1      -0.807 -35.273  -6.152  1.00  0.00    -0.642 OA
ENDBRANCH   3  35
BRANCH   7  38
HETATM   38  C13 UNL     1      -5.668 -33.474 -11.363  1.00  0.00     0.215 C 
HETATM   39  O9  UNL     1      -6.585 -32.730 -11.013  1.00  0.00    -0.645 OA
HETATM   40  O10 UNL     1      -5.543 -33.866 -12.705  1.00  0.00    -0.645 OA
ENDBRANCH   7  38
TORSDOF 12
ENDMDL
MODEL 5
REMARK VINA RESULT: -6.867667112      2.182      2.956
REMARK  12 active torsions:
REMARK  status: ('A' for Active; 'I' for Inactive)
REMARK    1  A    between atoms: C2_2  and  O1_3 
REMARK    2  A    between atoms: C2_2  and  C3_5 
REMARK    3  A    between atoms: C3_5  and  N1_6 
REMARK    4  A    between atoms: C3_5  and  O2_10 
REMARK    5  A    between atoms: C3_5  and  C4_12 
REMARK    6  A    between atoms: C4_12  and  O3_13 
REMARK    7  A    between atoms: C4_12  and  N2_15 
REMARK    8  A    between atoms: N2_15  and  C5_17 
REMARK    9  A    between atoms: C6_18  and  C7_19 
REMARK   10  A    between atoms: C7_19  and  O4_20 
REMARK   11  A    between atoms: C8_22  and  C9_23 
REMARK   12  A    between atoms: C11_29  and  C13_31 
ROOT
HETATM    1  C5  UNL     1      -3.171 -34.967  -7.942  1.00  0.00     0.153 C 
HETATM    2  C6  UNL     1      -3.458 -34.835  -6.480  1.00  0.00     0.022 C 
HETATM    3  C8  UNL     1      -4.679 -34.387  -6.266  1.00  0.00     0.155 C 
HETATM    4  O7  UNL     1      -5.248 -34.202  -7.551  1.00  0.00    -0.310 OA
HETATM    5  C10 UNL     1      -4.619 -35.155  -8.389  1.00  0.00     0.307 C 
HETATM    6  O8  UNL     1      -4.845 -34.805  -9.676  1.00  0.00    -0.329 OA
HETATM    7  C11 UNL     1      -4.662 -33.500  -9.995  1.00  0.00     0.192 C 
HETATM    8  C12 UNL     1      -5.869 -32.630  -9.616  1.00  0.00     0.065 C 
HETATM    9  C14 UNL     1      -3.414 -32.907  -9.350  1.00  0.00     0.088 A 
HETATM   10  N3  UNL     1      -2.936 -31.699  -9.687  1.00  0.00    -0.311 N 
ATOM     11  H3  UNL     1      -3.318 -31.051 -10.375  1.00  0.00     0.175 HD
HETATM   12  S1  UNL     1      -1.581 -31.489  -8.737  1.00  0.00     0.067 SA
HETATM   13  N4  UNL     1      -1.642 -32.948  -7.919  1.00  0.00    -0.311 N 
ATOM     14  H4  UNL     1      -0.996 -33.285  -7.205  1.00  0.00     0.175 HD
HETATM   15  C15 UNL     1      -2.735 -33.588  -8.408  1.00  0.00     0.081 A 
ENDROOT
BRANCH   1  16
HETATM   16  N2  UNL     1      -2.316 -35.982  -8.249  1.00  0.00    -0.371 N 
ATOM     17  H2  UNL     1      -2.378 -36.801  -7.645  1.00  0.00     0.157 HD
BRANCH  16  18
HETATM   18  C4  UNL     1      -1.381 -36.063  -9.256  1.00  0.00     0.281 C 
BRANCH  18  19
HETATM   19  C3  UNL     1       0.067 -36.134  -8.820  1.00  0.00     0.291 C 
BRANCH  19  20
HETATM   20  C2  UNL     1       1.027 -36.605  -9.860  1.00  0.00     0.181 C 
HETATM   21  C1  UNL     1       1.701 -37.895  -9.433  1.00  0.00     0.044 C 
BRANCH  20  22
HETATM   22  O1  UNL     1       1.998 -35.727 -10.226  1.00  0.00    -0.391 OA
ATOM     23  H1  UNL     1       1.603 -35.074 -10.792  1.00  0.00     0.210 HD
ENDBRANCH  20  22
ENDBRANCH  19  20
BRANCH  19  24
HETATM   24  N1  UNL     1       0.232 -36.998  -7.659  1.00  0.00    -0.040 N 
ATOM     25  H13 UNL     1       0.884 -37.765  -7.821  1.00  0.00     0.278 HD
ATOM     26  H12 UNL     1       0.742 -36.550  -6.898  1.00  0.00     0.278 HD
ATOM     27  H11 UNL     1      -0.697 -37.316  -7.384  1.00  0.00     0.278 HD
ENDBRANCH  19  24
BRANCH  19  28
HETATM   28  O2  UNL     1       0.461 -34.865  -8.403  1.00  0.00    -0.360 OA
ATOM     29  H2  UNL     1       0.337 -34.261  -9.126  1.00  0.00     0.212 HD
ENDBRANCH  19  28
ENDBRANCH  18  19
BRANCH  18  30
HETATM   30  O3  UNL     1      -1.392 -34.989 -10.175  1.00  0.00    -0.372 OA
ATOM     31  H3  UNL     1      -1.966 -35.299 -10.866  1.00  0.00     0.212 HD
ENDBRANCH  18  30
ENDBRANCH  16  18
ENDBRANCH   1  16
BRANCH   2  32
HETATM   32  C7  UNL     1      -2.511 -35.143  -5.367  1.00  0.00     0.204 C 
BRANCH  32  33
HETATM   33  O4  UNL     1      -1.180 -35.214  -5.778  1.00  0.00    -0.396 OA
ATOM     34  H4  UNL     1      -0.574 -34.827  -5.157  1.00  0.00     0.209 HD
ENDBRANCH  32  33
ENDBRANCH   2  32
BRANCH   3  35
HETATM   35  C9  UNL     1      -5.423 -34.094  -5.031  1.00  0.00     0.234 C 
HETATM   36  O5  UNL     1      -5.942 -32.928  -4.865  1.00  0.00    -0.642 OA
HETATM   37  O6  UNL     1      -5.640 -34.954  -3.988  1.00  0.00    -0.642 OA
ENDBRANCH   3  35
BRANCH   7  38
HETATM   38  C13 UNL     1      -4.541 -33.398 -11.473  1.00  0.00     0.215 C 
HETATM   39  O9  UNL     1      -5.058 -32.474 -12.102  1.00  0.00    -0.645 OA
HETATM   40  O10 UNL     1      -3.812 -34.393 -12.143  1.00  0.00    -0.645 OA
ENDBRANCH   7  38
TORSDOF 12
ENDMDL
