MODEL 1
REMARK VINA RESULT: -8.273075958      0.000      0.000
REMARK  12 active torsions:
REMARK  status: ('A' for Active; 'I' for Inactive)
REMARK    1  A    between atoms: N1_1  and  C1_4 
REMARK    2  A    between atoms: C2_7  and  C3_8 
REMARK    3  A    between atoms: C3_8  and  O1_9 
REMARK    4  A    between atoms: O1_9  and  C4_10 
REMARK    5  A    between atoms: C4_10  and  C5_12 
REMARK    6  A    between atoms: N5_17  and  C6_18 
REMARK    7  A    between atoms: C7_19  and  O3_20 
REMARK    8  A    between atoms: C9_28  and  N8_29 
REMARK    9  A    between atoms: N8_29  and  O5_31 
REMARK   10  A    between atoms: C10_33  and  C11_34 
REMARK   11  A    between atoms: C11_34  and  O6_35 
REMARK   12  A    between atoms: C11_34  and  O7_37 
ROOT
HETATM    1  C5  UNL     1       0.056 -35.056  -9.181  1.00  0.00     0.154 A 
HETATM    2  N3  UNL     1       1.242 -35.128  -8.495  1.00  0.00    -0.278 N 
ATOM      3  H3  UNL     1       1.449 -34.650  -7.617  1.00  0.00     0.189 HD
HETATM    4  N4  UNL     1       2.068 -35.910  -9.149  1.00  0.00    -0.234 N 
ATOM      5  H4  UNL     1       3.019 -36.129  -8.849  1.00  0.00     0.209 HD
HETATM    6  N5  UNL     1       1.502 -36.373 -10.246  1.00  0.00    -0.231 N 
HETATM    7  C10 UNL     1       0.244 -35.848 -10.278  1.00  0.00     0.124 A 
ENDROOT
BRANCH   1   8
HETATM    8  C4  UNL     1      -1.062 -34.273  -8.741  1.00  0.00     0.313 C 
HETATM    9  O2  UNL     1      -1.827 -33.673  -9.507  1.00  0.00    -0.257 OA
BRANCH   8  10
HETATM   10  O1  UNL     1      -1.347 -34.147  -7.371  1.00  0.00    -0.313 OA
BRANCH  10  11
HETATM   11  C3  UNL     1      -1.667 -35.281  -6.600  1.00  0.00     0.220 C 
BRANCH  11  12
HETATM   12  C2  UNL     1      -3.095 -35.372  -6.407  1.00  0.00     0.133 C 
HETATM   13  N2  UNL     1      -3.529 -35.675  -5.030  1.00  0.00    -0.343 N 
HETATM   14  C1  UNL     1      -4.896 -35.003  -4.882  1.00  0.00     0.172 C 
ATOM     15  H2  UNL     1      -3.026 -36.218  -4.327  1.00  0.00     0.164 HD
HETATM   16  N9  UNL     1      -4.932 -34.664  -6.189  1.00  0.00    -0.344 N 
HETATM   17  C12 UNL     1      -3.745 -33.878  -6.440  1.00  0.00     0.167 C 
HETATM   18  C13 UNL     1      -5.312 -35.060  -7.465  1.00  0.00     0.207 C 
HETATM   19  C14 UNL     1      -3.931 -35.925  -7.499  1.00  0.00     0.176 C 
HETATM   20  O8  UNL     1      -3.790 -36.763  -8.280  1.00  0.00    -0.293 OA
BRANCH  14  21
HETATM   21  N1  UNL     1      -5.549 -34.962  -3.834  1.00  0.00    -0.371 N 
ATOM     22  H12 UNL     1      -5.574 -34.540  -2.906  1.00  0.00     0.159 HD
ATOM     23  H11 UNL     1      -6.435 -35.443  -3.684  1.00  0.00     0.159 HD
ENDBRANCH  14  21
ENDBRANCH  11  12
ENDBRANCH  10  11
ENDBRANCH   8  10
ENDBRANCH   1   8
BRANCH   7  24
HETATM   24  C11 UNL     1      -0.716 -36.146 -11.335  1.00  0.00     0.310 C 
BRANCH  24  25
HETATM   25  O6  UNL     1      -2.003 -36.388 -10.883  1.00  0.00    -0.366 OA
ATOM     26  H6  UNL     1      -2.544 -36.878 -11.491  1.00  0.00     0.213 HD
ENDBRANCH  24  25
BRANCH  24  27
HETATM   27  O7  UNL     1      -0.809 -35.005 -12.166  1.00  0.00    -0.366 OA
ATOM     28  H7  UNL     1      -1.065 -34.270 -11.621  1.00  0.00     0.213 HD
ENDBRANCH  24  27
ENDBRANCH   7  24
BRANCH   6  29
HETATM   29  C6  UNL     1       2.059 -37.242 -11.215  1.00  0.00     0.154 A 
HETATM   30  C7  UNL     1       2.217 -38.592 -10.975  1.00  0.00     0.177 A 
HETATM   31  N6  UNL     1       2.758 -39.400 -11.933  1.00  0.00    -0.287 N 
HETATM   32  C8  UNL     1       3.150 -38.917 -13.125  1.00  0.00     0.327 A 
ATOM     33  H6  UNL     1       2.867 -40.395 -11.739  1.00  0.00     0.172 HD
HETATM   34  O4  UNL     1       3.655 -39.666 -14.018  1.00  0.00    -0.247 OA
HETATM   35  N7  UNL     1       3.003 -37.606 -13.371  1.00  0.00    -0.291 N 
HETATM   36  C9  UNL     1       2.472 -36.781 -12.446  1.00  0.00     0.162 A 
ATOM     37  H7  UNL     1       3.297 -37.228 -14.272  1.00  0.00     0.172 HD
BRANCH  30  38
HETATM   38  O3  UNL     1       1.823 -39.108  -9.766  1.00  0.00    -0.344 OA
ATOM     39  H3  UNL     1       2.327 -39.814  -9.378  1.00  0.00     0.219 HD
ENDBRANCH  30  38
BRANCH  36  40
HETATM   40  N8  UNL     1       2.338 -35.510 -12.710  1.00  0.00    -0.251 N 
ATOM     41  H8  UNL     1       2.569 -34.834 -11.982  1.00  0.00     0.196 HD
BRANCH  40  42
HETATM   42  O5  UNL     1       1.905 -35.049 -13.910  1.00  0.00    -0.288 OA
ATOM     43  H5  UNL     1       1.165 -34.460 -14.000  1.00  0.00     0.244 HD
ENDBRANCH  40  42
ENDBRANCH  36  40
ENDBRANCH   6  29
TORSDOF 12
ENDMDL
MODEL 2
REMARK VINA RESULT: -8.021602844      2.338      3.147
REMARK  12 active torsions:
REMARK  status: ('A' for Active; 'I' for Inactive)
REMARK    1  A    between atoms: N1_1  and  C1_4 
REMARK    2  A    between atoms: C2_7  and  C3_8 
REMARK    3  A    between atoms: C3_8  and  O1_9 
REMARK    4  A    between atoms: O1_9  and  C4_10 
REMARK    5  A    between atoms: C4_10  and  C5_12 
REMARK    6  A    between atoms: N5_17  and  C6_18 
REMARK    7  A    between atoms: C7_19  and  O3_20 
REMARK    8  A    between atoms: C9_28  and  N8_29 
REMARK    9  A    between atoms: N8_29  and  O5_31 
REMARK   10  A    between atoms: C10_33  and  C11_34 
REMARK   11  A    between atoms: C11_34  and  O6_35 
REMARK   12  A    between atoms: C11_34  and  O7_37 
ROOT
HETATM    1  C5  UNL     1      -0.468 -34.684  -9.515  1.00  0.00     0.154 A 
HETATM    2  N3  UNL     1      -1.292 -33.816 -10.185  1.00  0.00    -0.278 N 
ATOM      3  H3  UNL     1      -1.851 -33.079  -9.754  1.00  0.00     0.189 HD
HETATM    4  N4  UNL     1      -1.248 -34.086 -11.467  1.00  0.00    -0.234 N 
ATOM      5  H4  UNL     1      -1.772 -33.584 -12.184  1.00  0.00     0.209 HD
HETATM    6  N5  UNL     1      -0.433 -35.095 -11.703  1.00  0.00    -0.231 N 
HETATM    7  C10 UNL     1       0.063 -35.479 -10.492  1.00  0.00     0.124 A 
ENDROOT
BRANCH   1   8
HETATM    8  C4  UNL     1      -0.293 -34.666  -8.092  1.00  0.00     0.313 C 
HETATM    9  O2  UNL     1       0.471 -33.893  -7.501  1.00  0.00    -0.257 OA
BRANCH   8  10
HETATM   10  O1  UNL     1      -1.009 -35.560  -7.277  1.00  0.00    -0.313 OA
BRANCH  10  11
HETATM   11  C3  UNL     1      -2.345 -35.888  -7.575  1.00  0.00     0.220 C 
BRANCH  11  12
HETATM   12  C2  UNL     1      -3.249 -35.047  -6.827  1.00  0.00     0.133 C 
HETATM   13  N2  UNL     1      -3.610 -33.771  -7.476  1.00  0.00    -0.343 N 
HETATM   14  C1  UNL     1      -5.021 -33.452  -6.975  1.00  0.00     0.172 C 
ATOM     15  H2  UNL     1      -3.042 -33.221  -8.120  1.00  0.00     0.164 HD
HETATM   16  N9  UNL     1      -5.005 -34.484  -6.105  1.00  0.00    -0.344 N 
HETATM   17  C12 UNL     1      -4.752 -35.674  -6.888  1.00  0.00     0.167 C 
HETATM   18  C13 UNL     1      -4.686 -34.892  -4.816  1.00  0.00     0.207 C 
HETATM   19  C14 UNL     1      -3.152 -35.029  -5.348  1.00  0.00     0.176 C 
HETATM   20  O8  UNL     1      -2.280 -35.090  -4.594  1.00  0.00    -0.293 OA
BRANCH  14  21
HETATM   21  N1  UNL     1      -5.703 -32.497  -7.361  1.00  0.00    -0.371 N 
ATOM     22  H12 UNL     1      -6.172 -32.109  -8.180  1.00  0.00     0.159 HD
ATOM     23  H11 UNL     1      -6.040 -31.744  -6.761  1.00  0.00     0.159 HD
ENDBRANCH  14  21
ENDBRANCH  11  12
ENDBRANCH  10  11
ENDBRANCH   8  10
ENDBRANCH   1   8
BRANCH   7  24
HETATM   24  C11 UNL     1       1.028 -36.560 -10.333  1.00  0.00     0.310 C 
BRANCH  24  25
HETATM   25  O6  UNL     1       2.289 -36.144  -9.936  1.00  0.00    -0.366 OA
ATOM     26  H6  UNL     1       2.949 -36.827  -9.956  1.00  0.00     0.213 HD
ENDBRANCH  24  25
BRANCH  24  27
HETATM   27  O7  UNL     1       0.560 -37.407  -9.300  1.00  0.00    -0.366 OA
ATOM     28  H7  UNL     1       1.103 -38.187  -9.298  1.00  0.00     0.213 HD
ENDBRANCH  24  27
ENDBRANCH   7  24
BRANCH   6  29
HETATM   29  C6  UNL     1      -0.113 -35.686 -12.950  1.00  0.00     0.154 A 
HETATM   30  C7  UNL     1      -1.010 -36.488 -13.627  1.00  0.00     0.177 A 
HETATM   31  N6  UNL     1      -0.667 -37.040 -14.826  1.00  0.00    -0.287 N 
HETATM   32  C8  UNL     1       0.537 -36.827 -15.383  1.00  0.00     0.327 A 
ATOM     33  H6  UNL     1      -1.343 -37.629 -15.312  1.00  0.00     0.172 HD
HETATM   34  O4  UNL     1       0.859 -37.340 -16.500  1.00  0.00    -0.247 OA
HETATM   35  N7  UNL     1       1.420 -36.050 -14.737  1.00  0.00    -0.291 N 
HETATM   36  C9  UNL     1       1.113 -35.488 -13.549  1.00  0.00     0.162 A 
ATOM     37  H7  UNL     1       2.337 -35.881 -15.149  1.00  0.00     0.172 HD
BRANCH  30  38
HETATM   38  O3  UNL     1      -2.247 -36.719 -13.077  1.00  0.00    -0.344 OA
ATOM     39  H3  UNL     1      -3.017 -36.370 -13.509  1.00  0.00     0.219 HD
ENDBRANCH  30  38
BRANCH  36  40
HETATM   40  N8  UNL     1       1.987 -34.736 -12.941  1.00  0.00    -0.251 N 
ATOM     41  H8  UNL     1       1.727 -33.780 -12.702  1.00  0.00     0.196 HD
BRANCH  40  42
HETATM   42  O5  UNL     1       3.229 -35.172 -12.611  1.00  0.00    -0.288 OA
ATOM     43  H5  UNL     1       3.876 -34.616 -12.193  1.00  0.00     0.244 HD
ENDBRANCH  40  42
ENDBRANCH  36  40
ENDBRANCH   6  29
TORSDOF 12
ENDMDL
MODEL 3
REMARK VINA RESULT: -7.803246945      2.295      7.913
REMARK  12 active torsions:
REMARK  status: ('A' for Active; 'I' for Inactive)
REMARK    1  A    between atoms: N1_1  and  C1_4 
REMARK    2  A    between atoms: C2_7  and  C3_8 
REMARK    3  A    between atoms: C3_8  and  O1_9 
REMARK    4  A    between atoms: O1_9  and  C4_10 
REMARK    5  A    between atoms: C4_10  and  C5_12 
REMARK    6  A    between atoms: N5_17  and  C6_18 
REMARK    7  A    between atoms: C7_19  and  O3_20 
REMARK    8  A    between atoms: C9_28  and  N8_29 
REMARK    9  A    between atoms: N8_29  and  O5_31 
REMARK   10  A    between atoms: C10_33  and  C11_34 
REMARK   11  A    between atoms: C11_34  and  O6_35 
REMARK   12  A    between atoms: C11_34  and  O7_37 
ROOT
HETATM    1  C5  UNL     1      -2.176 -33.415 -10.323  1.00  0.00     0.154 A 
HETATM    2  N3  UNL     1      -3.307 -34.083 -10.719  1.00  0.00    -0.278 N 
ATOM      3  H3  UNL     1      -3.603 -34.224 -11.685  1.00  0.00     0.189 HD
HETATM    4  N4  UNL     1      -3.946 -34.511  -9.657  1.00  0.00    -0.234 N 
ATOM      5  H4  UNL     1      -4.820 -35.038  -9.679  1.00  0.00     0.209 HD
HETATM    6  N5  UNL     1      -3.305 -34.167  -8.557  1.00  0.00    -0.231 N 
HETATM    7  C10 UNL     1      -2.196 -33.482  -8.958  1.00  0.00     0.124 A 
ENDROOT
BRANCH   1   8
HETATM    8  C4  UNL     1      -1.255 -32.810 -11.241  1.00  0.00     0.313 C 
HETATM    9  O2  UNL     1      -1.278 -31.612 -11.552  1.00  0.00    -0.257 OA
BRANCH   8  10
HETATM   10  O1  UNL     1      -0.251 -33.581 -11.851  1.00  0.00    -0.313 OA
BRANCH  10  11
HETATM   11  C3  UNL     1      -0.538 -34.866 -12.350  1.00  0.00     0.220 C 
BRANCH  11  12
HETATM   12  C2  UNL     1       0.460 -35.811 -11.911  1.00  0.00     0.133 C 
HETATM   13  N2  UNL     1       0.780 -36.885 -12.872  1.00  0.00    -0.343 N 
HETATM   14  C1  UNL     1       2.244 -37.243 -12.601  1.00  0.00     0.172 C 
ATOM     15  H2  UNL     1       0.159 -37.300 -13.567  1.00  0.00     0.164 HD
HETATM   16  N9  UNL     1       2.297 -36.438 -11.518  1.00  0.00    -0.344 N 
HETATM   17  C12 UNL     1       1.933 -35.115 -11.974  1.00  0.00     0.167 C 
HETATM   18  C13 UNL     1       2.109 -36.352 -10.145  1.00  0.00     0.207 C 
HETATM   19  C14 UNL     1       0.523 -36.171 -10.476  1.00  0.00     0.176 C 
HETATM   20  O8  UNL     1      -0.264 -36.326  -9.645  1.00  0.00    -0.293 OA
BRANCH  14  21
HETATM   21  N1  UNL     1       2.903 -38.050 -13.265  1.00  0.00    -0.371 N 
ATOM     22  H12 UNL     1       3.155 -39.036 -13.333  1.00  0.00     0.159 HD
ATOM     23  H11 UNL     1       3.424 -37.816 -14.110  1.00  0.00     0.159 HD
ENDBRANCH  14  21
ENDBRANCH  11  12
ENDBRANCH  10  11
ENDBRANCH   8  10
ENDBRANCH   1   8
BRANCH   7  24
HETATM   24  C11 UNL     1      -1.208 -32.951  -8.026  1.00  0.00     0.310 C 
BRANCH  24  25
HETATM   25  O6  UNL     1      -0.021 -33.664  -7.990  1.00  0.00    -0.366 OA
ATOM     26  H6  UNL     1       0.263 -33.905  -7.115  1.00  0.00     0.213 HD
ENDBRANCH  24  25
BRANCH  24  27
HETATM   27  O7  UNL     1      -0.862 -31.650  -8.461  1.00  0.00    -0.366 OA
ATOM     28  H7  UNL     1      -1.649 -31.118  -8.435  1.00  0.00     0.213 HD
ENDBRANCH  24  27
ENDBRANCH   7  24
BRANCH   6  29
HETATM   29  C6  UNL     1      -3.667 -34.439  -7.215  1.00  0.00     0.154 A 
HETATM   30  C7  UNL     1      -4.647 -33.717  -6.565  1.00  0.00     0.177 A 
HETATM   31  N6  UNL     1      -4.969 -34.007  -5.272  1.00  0.00    -0.287 N 
HETATM   32  C8  UNL     1      -4.353 -34.991  -4.594  1.00  0.00     0.327 A 
ATOM     33  H6  UNL     1      -5.696 -33.463  -4.807  1.00  0.00     0.172 HD
HETATM   34  O4  UNL     1      -4.650 -35.263  -3.390  1.00  0.00    -0.247 OA
HETATM   35  N7  UNL     1      -3.397 -35.701  -5.213  1.00  0.00    -0.291 N 
HETATM   36  C9  UNL     1      -3.055 -35.440  -6.492  1.00  0.00     0.162 A 
ATOM     37  H7  UNL     1      -2.922 -36.450  -4.710  1.00  0.00     0.172 HD
BRANCH  30  38
HETATM   38  O3  UNL     1      -5.290 -32.707  -7.238  1.00  0.00    -0.344 OA
ATOM     39  H3  UNL     1      -6.058 -32.307  -6.846  1.00  0.00     0.219 HD
ENDBRANCH  30  38
BRANCH  36  40
HETATM   40  N8  UNL     1      -2.124 -36.145  -7.072  1.00  0.00    -0.251 N 
ATOM     41  H8  UNL     1      -2.346 -36.624  -7.945  1.00  0.00     0.196 HD
BRANCH  40  42
HETATM   42  O5  UNL     1      -0.871 -36.269  -6.564  1.00  0.00    -0.288 OA
ATOM     43  H5  UNL     1      -0.247 -35.553  -6.553  1.00  0.00     0.244 HD
ENDBRANCH  40  42
ENDBRANCH  36  40
ENDBRANCH   6  29
TORSDOF 12
ENDMDL
MODEL 4
REMARK VINA RESULT: -7.800169026      2.238      7.921
REMARK  12 active torsions:
REMARK  status: ('A' for Active; 'I' for Inactive)
REMARK    1  A    between atoms: N1_1  and  C1_4 
REMARK    2  A    between atoms: C2_7  and  C3_8 
REMARK    3  A    between atoms: C3_8  and  O1_9 
REMARK    4  A    between atoms: O1_9  and  C4_10 
REMARK    5  A    between atoms: C4_10  and  C5_12 
REMARK    6  A    between atoms: N5_17  and  C6_18 
REMARK    7  A    between atoms: C7_19  and  O3_20 
REMARK    8  A    between atoms: C9_28  and  N8_29 
REMARK    9  A    between atoms: N8_29  and  O5_31 
REMARK   10  A    between atoms: C10_33  and  C11_34 
REMARK   11  A    between atoms: C11_34  and  O6_35 
REMARK   12  A    between atoms: C11_34  and  O7_37 
ROOT
HETATM    1  C5  UNL     1      -2.195 -33.656 -10.389  1.00  0.00     0.154 A 
HETATM    2  N3  UNL     1      -1.580 -32.631  -9.715  1.00  0.00    -0.278 N 
ATOM      3  H3  UNL     1      -0.960 -31.937 -10.133  1.00  0.00     0.189 HD
HETATM    4  N4  UNL     1      -1.916 -32.688  -8.449  1.00  0.00    -0.234 N 
ATOM      5  H4  UNL     1      -1.592 -32.038  -7.733  1.00  0.00     0.209 HD
HETATM    6  N5  UNL     1      -2.731 -33.702  -8.228  1.00  0.00    -0.231 N 
HETATM    7  C10 UNL     1      -2.915 -34.315  -9.432  1.00  0.00     0.124 A 
ENDROOT
BRANCH   1   8
HETATM    8  C4  UNL     1      -2.030 -33.886 -11.794  1.00  0.00     0.313 C 
HETATM    9  O2  UNL     1      -2.651 -33.272 -12.671  1.00  0.00    -0.257 OA
BRANCH   8  10
HETATM   10  O1  UNL     1      -1.123 -34.856 -12.254  1.00  0.00    -0.313 OA
BRANCH  10  11
HETATM   11  C3  UNL     1       0.265 -34.637 -12.167  1.00  0.00     0.220 C 
BRANCH  11  12
HETATM   12  C2  UNL     1       0.956 -35.879 -11.916  1.00  0.00     0.133 C 
HETATM   13  N2  UNL     1       1.132 -36.755 -13.091  1.00  0.00    -0.343 N 
HETATM   14  C1  UNL     1       2.428 -37.525 -12.827  1.00  0.00     0.172 C 
ATOM     15  H2  UNL     1       0.521 -36.830 -13.905  1.00  0.00     0.164 HD
HETATM   16  N9  UNL     1       2.535 -37.026 -11.577  1.00  0.00    -0.344 N 
HETATM   17  C12 UNL     1       2.546 -35.586 -11.712  1.00  0.00     0.167 C 
HETATM   18  C13 UNL     1       2.207 -37.206 -10.240  1.00  0.00     0.207 C 
HETATM   19  C14 UNL     1       0.758 -36.557 -10.613  1.00  0.00     0.176 C 
HETATM   20  O8  UNL     1      -0.138 -36.690  -9.898  1.00  0.00    -0.293 OA
BRANCH  14  21
HETATM   21  N1  UNL     1       2.959 -38.302 -13.628  1.00  0.00    -0.371 N 
ATOM     22  H12 UNL     1       3.862 -38.641 -13.958  1.00  0.00     0.159 HD
ATOM     23  H11 UNL     1       2.450 -38.938 -14.242  1.00  0.00     0.159 HD
ENDBRANCH  14  21
ENDBRANCH  11  12
ENDBRANCH  10  11
ENDBRANCH   8  10
ENDBRANCH   1   8
BRANCH   7  24
HETATM   24  C11 UNL     1      -3.779 -35.475  -9.611  1.00  0.00     0.310 C 
BRANCH  24  25
HETATM   25  O6  UNL     1      -4.981 -35.198 -10.243  1.00  0.00    -0.366 OA
ATOM     26  H6  UNL     1      -5.616 -35.903 -10.200  1.00  0.00     0.213 HD
ENDBRANCH  24  25
BRANCH  24  27
HETATM   27  O7  UNL     1      -3.104 -36.390 -10.453  1.00  0.00    -0.366 OA
ATOM     28  H7  UNL     1      -3.740 -36.743 -11.065  1.00  0.00     0.213 HD
ENDBRANCH  24  27
ENDBRANCH   7  24
BRANCH   6  29
HETATM   29  C6  UNL     1      -3.316 -34.100  -7.001  1.00  0.00     0.154 A 
HETATM   30  C7  UNL     1      -4.510 -33.569  -6.559  1.00  0.00     0.177 A 
HETATM   31  N6  UNL     1      -5.044 -33.976  -5.371  1.00  0.00    -0.287 N 
HETATM   32  C8  UNL     1      -4.435 -34.894  -4.601  1.00  0.00     0.327 A 
ATOM     33  H6  UNL     1      -5.928 -33.573  -5.060  1.00  0.00     0.172 HD
HETATM   34  O4  UNL     1      -4.929 -35.275  -3.495  1.00  0.00    -0.247 OA
HETATM   35  N7  UNL     1      -3.272 -35.419  -5.018  1.00  0.00    -0.291 N 
HETATM   36  C9  UNL     1      -2.718 -35.038  -6.187  1.00  0.00     0.162 A 
ATOM     37  H7  UNL     1      -2.800 -36.116  -4.442  1.00  0.00     0.172 HD
BRANCH  30  38
HETATM   38  O3  UNL     1      -5.151 -32.630  -7.329  1.00  0.00    -0.344 OA
ATOM     39  H3  UNL     1      -5.929 -32.881  -7.813  1.00  0.00     0.219 HD
ENDBRANCH  30  38
BRANCH  36  40
HETATM   40  N8  UNL     1      -1.587 -35.563  -6.572  1.00  0.00    -0.251 N 
ATOM     41  H8  UNL     1      -1.588 -36.519  -6.925  1.00  0.00     0.196 HD
BRANCH  40  42
HETATM   42  O5  UNL     1      -0.409 -34.890  -6.521  1.00  0.00    -0.288 OA
ATOM     43  H5  UNL     1       0.012 -34.531  -7.293  1.00  0.00     0.244 HD
ENDBRANCH  40  42
ENDBRANCH  36  40
ENDBRANCH   6  29
TORSDOF 12
ENDMDL
MODEL 5
REMARK VINA RESULT: -7.723740887      2.317      3.269
REMARK  12 active torsions:
REMARK  status: ('A' for Active; 'I' for Inactive)
REMARK    1  A    between atoms: N1_1  and  C1_4 
REMARK    2  A    between atoms: C2_7  and  C3_8 
REMARK    3  A    between atoms: C3_8  and  O1_9 
REMARK    4  A    between atoms: O1_9  and  C4_10 
REMARK    5  A    between atoms: C4_10  and  C5_12 
REMARK    6  A    between atoms: N5_17  and  C6_18 
REMARK    7  A    between atoms: C7_19  and  O3_20 
REMARK    8  A    between atoms: C9_28  and  N8_29 
REMARK    9  A    between atoms: N8_29  and  O5_31 
REMARK   10  A    between atoms: C10_33  and  C11_34 
REMARK   11  A    between atoms: C11_34  and  O6_35 
REMARK   12  A    between atoms: C11_34  and  O7_37 
ROOT
HETATM    1  C5  UNL     1      -0.481 -34.677  -9.446  1.00  0.00     0.154 A 
HETATM    2  N3  UNL     1      -1.221 -33.789 -10.185  1.00  0.00    -0.278 N 
ATOM      3  H3  UNL     1      -1.834 -33.068  -9.803  1.00  0.00     0.189 HD
HETATM    4  N4  UNL     1      -1.016 -34.017 -11.460  1.00  0.00    -0.234 N 
ATOM      5  H4  UNL     1      -1.450 -33.492 -12.220  1.00  0.00     0.209 HD
HETATM    6  N5  UNL     1      -0.171 -35.015 -11.625  1.00  0.00    -0.231 N 
HETATM    7  C10 UNL     1       0.173 -35.437 -10.374  1.00  0.00     0.124 A 
ENDROOT
BRANCH   1   8
HETATM    8  C4  UNL     1      -0.485 -34.706  -8.012  1.00  0.00     0.313 C 
HETATM    9  O2  UNL     1       0.113 -33.885  -7.305  1.00  0.00    -0.257 OA
BRANCH   8  10
HETATM   10  O1  UNL     1      -1.194 -35.704  -7.323  1.00  0.00    -0.313 OA
BRANCH  10  11
HETATM   11  C3  UNL     1      -2.558 -35.928  -7.592  1.00  0.00     0.220 C 
BRANCH  11  12
HETATM   12  C2  UNL     1      -3.379 -35.047  -6.796  1.00  0.00     0.133 C 
HETATM   13  N2  UNL     1      -3.738 -33.766  -7.436  1.00  0.00    -0.343 N 
HETATM   14  C1  UNL     1      -5.099 -33.390  -6.847  1.00  0.00     0.172 C 
ATOM     15  H2  UNL     1      -3.194 -33.244  -8.124  1.00  0.00     0.164 HD
HETATM   16  N9  UNL     1      -5.062 -34.414  -5.967  1.00  0.00    -0.344 N 
HETATM   17  C12 UNL     1      -4.904 -35.619  -6.749  1.00  0.00     0.167 C 
HETATM   18  C13 UNL     1      -4.672 -34.819  -4.696  1.00  0.00     0.207 C 
HETATM   19  C14 UNL     1      -3.182 -35.017  -5.328  1.00  0.00     0.176 C 
HETATM   20  O8  UNL     1      -2.265 -35.102  -4.632  1.00  0.00    -0.293 OA
BRANCH  14  21
HETATM   21  N1  UNL     1      -5.771 -32.416  -7.199  1.00  0.00    -0.371 N 
ATOM     22  H12 UNL     1      -6.097 -31.904  -8.020  1.00  0.00     0.159 HD
ATOM     23  H11 UNL     1      -6.288 -31.808  -6.564  1.00  0.00     0.159 HD
ENDBRANCH  14  21
ENDBRANCH  11  12
ENDBRANCH  10  11
ENDBRANCH   8  10
ENDBRANCH   1   8
BRANCH   7  24
HETATM   24  C11 UNL     1       1.118 -36.521 -10.132  1.00  0.00     0.310 C 
BRANCH  24  25
HETATM   25  O6  UNL     1       2.365 -36.102  -9.697  1.00  0.00    -0.366 OA
ATOM     26  H6  UNL     1       3.089 -36.422 -10.223  1.00  0.00     0.213 HD
ENDBRANCH  24  25
BRANCH  24  27
HETATM   27  O7  UNL     1       0.596 -37.321  -9.088  1.00  0.00    -0.366 OA
ATOM     28  H7  UNL     1       0.729 -38.231  -9.328  1.00  0.00     0.213 HD
ENDBRANCH  24  27
ENDBRANCH   7  24
BRANCH   6  29
HETATM   29  C6  UNL     1       0.305 -35.563 -12.841  1.00  0.00     0.154 A 
HETATM   30  C7  UNL     1       1.605 -35.372 -13.265  1.00  0.00     0.177 A 
HETATM   31  N6  UNL     1       2.029 -35.916 -14.443  1.00  0.00    -0.287 N 
HETATM   32  C8  UNL     1       1.209 -36.644 -15.220  1.00  0.00     0.327 A 
ATOM     33  H6  UNL     1       2.993 -35.765 -14.741  1.00  0.00     0.172 HD
HETATM   34  O4  UNL     1       1.600 -37.151 -16.317  1.00  0.00    -0.247 OA
HETATM   35  N7  UNL     1      -0.058 -36.838 -14.820  1.00  0.00    -0.291 N 
HETATM   36  C9  UNL     1      -0.508 -36.315 -13.662  1.00  0.00     0.162 A 
ATOM     37  H7  UNL     1      -0.689 -37.389 -15.402  1.00  0.00     0.172 HD
BRANCH  30  38
HETATM   38  O3  UNL     1       2.461 -34.632 -12.487  1.00  0.00    -0.344 OA
ATOM     39  H3  UNL     1       2.349 -33.690 -12.445  1.00  0.00     0.219 HD
ENDBRANCH  30  38
BRANCH  36  40
HETATM   40  N8  UNL     1      -1.743 -36.517 -13.294  1.00  0.00    -0.251 N 
ATOM     41  H8  UNL     1      -2.177 -35.853 -12.654  1.00  0.00     0.196 HD
BRANCH  40  42
HETATM   42  O5  UNL     1      -2.475 -37.575 -13.727  1.00  0.00    -0.288 OA
ATOM     43  H5  UNL     1      -2.602 -38.361 -13.208  1.00  0.00     0.244 HD
ENDBRANCH  40  42
ENDBRANCH  36  40
ENDBRANCH   6  29
TORSDOF 12
ENDMDL
