MODEL 1
REMARK VINA RESULT: -8.617939716      0.000      0.000
REMARK  14 active torsions:
REMARK  status: ('A' for Active; 'I' for Inactive)
REMARK    1  A    between atoms: N1_1  and  C1_5 
REMARK    2  A    between atoms: C2_9  and  O1_10 
REMARK    3  A    between atoms: C3_13  and  N3_14 
REMARK    4  A    between atoms: N3_14  and  N4_15 
REMARK    5  A    between atoms: N3_14  and  C4_18 
REMARK    6  A    between atoms: C4_18  and  C5_19 
REMARK    7  A    between atoms: C5_19  and  C6_20 
REMARK    8  A    between atoms: C6_20  and  O3_21 
REMARK    9  A    between atoms: C8_25  and  N5_26 
REMARK       I    between atoms: N5_26  and  C9_28 
REMARK   10  A    between atoms: C9_28  and  C10_30 
REMARK   11  A    between atoms: C11_31  and  C12_32 
REMARK   12  A    between atoms: C13_34  and  O7_35 
REMARK   13  A    between atoms: C14_37  and  O8_38 
REMARK   14  A    between atoms: C15_40  and  O9_41 
ROOT
HETATM    1  C5  UNL     1      -2.246 -35.318  -9.666  1.00  0.00     0.201 C 
HETATM    2  O4  UNL     1      -3.353 -36.195  -9.694  1.00  0.00    -0.348 OA
HETATM    3  C7  UNL     1      -4.356 -35.551  -8.983  1.00  0.00     0.225 C 
HETATM    4  C8  UNL     1      -3.645 -34.646  -8.033  1.00  0.00     0.251 C 
HETATM    5  O10 UNL     1      -2.323 -34.783  -8.380  1.00  0.00    -0.325 OA
ENDROOT
BRANCH   1   6
HETATM    6  C4  UNL     1      -0.991 -36.073  -9.778  1.00  0.00     0.187 C 
BRANCH   6   7
HETATM    7  N3  UNL     1       0.232 -35.358  -9.853  1.00  0.00    -0.201 NA
BRANCH   7   8
HETATM    8  C3  UNL     1       1.080 -35.918 -10.880  1.00  0.00     0.256 C 
HETATM    9  O2  UNL     1       2.419 -35.581 -10.681  1.00  0.00    -0.306 OA
HETATM   10  C2  UNL     1       2.624 -35.273 -12.024  1.00  0.00     0.373 C 
HETATM   11  N2  UNL     1       3.035 -36.345 -12.874  1.00  0.00     0.037 N 
HETATM   12  C16 UNL     1       1.123 -35.235 -12.199  1.00  0.00     0.264 C 
HETATM   13  C1  UNL     1       1.861 -36.946 -13.422  1.00  0.00     0.528 C 
ATOM     14  H22 UNL     1       3.638 -37.018 -12.399  1.00  0.00     0.289 HD
ATOM     15  H21 UNL     1       3.699 -36.050 -13.590  1.00  0.00     0.289 HD
HETATM   16  O11 UNL     1       0.823 -36.037 -13.288  1.00  0.00    -0.322 OA
BRANCH  10  17
HETATM   17  O1  UNL     1       3.282 -34.074 -12.142  1.00  0.00    -0.341 OA
ATOM     18  H1  UNL     1       2.763 -33.278 -12.108  1.00  0.00     0.215 HD
ENDBRANCH  10  17
BRANCH  13  19
HETATM   19  N1  UNL     1       1.981 -37.336 -14.800  1.00  0.00    -0.027 N 
ATOM     20  H13 UNL     1       1.060 -37.524 -15.198  1.00  0.00     0.279 HD
ATOM     21  H12 UNL     1       2.258 -36.540 -15.372  1.00  0.00     0.279 HD
ATOM     22  H11 UNL     1       2.606 -38.126 -14.963  1.00  0.00     0.279 HD
ENDBRANCH  13  19
ENDBRANCH   7   8
BRANCH   7  23
HETATM   23  N4  UNL     1       0.998 -35.375  -8.688  1.00  0.00    -0.361 NA
ATOM     24  H42 UNL     1       1.581 -34.551  -8.542  1.00  0.00     0.171 HD
ATOM     25  H41 UNL     1       0.329 -35.476  -7.925  1.00  0.00     0.171 HD
ENDBRANCH   7  23
ENDBRANCH   6   7
ENDBRANCH   1   6
BRANCH   1  26
HETATM   26  C6  UNL     1      -2.528 -34.238 -10.634  1.00  0.00     0.234 C 
BRANCH  26  27
HETATM   27  O3  UNL     1      -1.606 -33.193 -10.599  1.00  0.00    -0.395 OA
ATOM     28  H3  UNL     1      -1.937 -32.375 -10.951  1.00  0.00     0.209 HD
ENDBRANCH  26  27
ENDBRANCH   1  26
BRANCH   4  29
HETATM   29  N5  UNL     1      -3.876 -35.003  -6.642  1.00  0.00    -0.329 N 
HETATM   30  C9  UNL     1      -4.937 -34.438  -5.898  1.00  0.00     0.243 C 
HETATM   31  O5  UNL     1      -5.691 -33.615  -6.453  1.00  0.00    -0.269 OA
ATOM     32  H5  UNL     1      -3.256 -35.678  -6.193  1.00  0.00     0.165 HD
BRANCH  30  33
HETATM   33  C10 UNL     1      -5.177 -34.787  -4.500  1.00  0.00     0.077 C 
HETATM   34  C11 UNL     1      -4.906 -33.926  -3.565  1.00  0.00     0.046 C 
BRANCH  34  35
HETATM   35  C12 UNL     1      -5.109 -34.174  -2.156  1.00  0.00     0.114 A 
HETATM   36  O6  UNL     1      -5.465 -35.411  -1.751  1.00  0.00    -0.283 OA
HETATM   37  C13 UNL     1      -5.604 -35.457  -0.467  1.00  0.00     0.221 A 
HETATM   38  C14 UNL     1      -5.347 -34.237   0.083  1.00  0.00     0.161 A 
HETATM   39  C15 UNL     1      -5.024 -33.402  -1.028  1.00  0.00     0.138 A 
BRANCH  37  40
HETATM   40  O7  UNL     1      -5.970 -36.624   0.221  1.00  0.00    -0.339 OA
ATOM     41  H7  UNL     1      -5.863 -36.727   1.159  1.00  0.00     0.220 HD
ENDBRANCH  37  40
BRANCH  38  42
HETATM   42  O8  UNL     1      -5.390 -33.886   1.411  1.00  0.00    -0.354 OA
ATOM     43  H8  UNL     1      -4.935 -33.170   1.838  1.00  0.00     0.218 HD
ENDBRANCH  38  42
BRANCH  39  44
HETATM   44  O9  UNL     1      -4.711 -32.110  -0.859  1.00  0.00    -0.356 OA
ATOM     45  H9  UNL     1      -5.250 -31.353  -0.661  1.00  0.00     0.218 HD
ENDBRANCH  39  44
ENDBRANCH  34  35
ENDBRANCH  30  33
ENDBRANCH   4  29
TORSDOF 14
ENDMDL
MODEL 2
REMARK VINA RESULT: -8.558324437      4.028      9.750
REMARK  14 active torsions:
REMARK  status: ('A' for Active; 'I' for Inactive)
REMARK    1  A    between atoms: N1_1  and  C1_5 
REMARK    2  A    between atoms: C2_9  and  O1_10 
REMARK    3  A    between atoms: C3_13  and  N3_14 
REMARK    4  A    between atoms: N3_14  and  N4_15 
REMARK    5  A    between atoms: N3_14  and  C4_18 
REMARK    6  A    between atoms: C4_18  and  C5_19 
REMARK    7  A    between atoms: C5_19  and  C6_20 
REMARK    8  A    between atoms: C6_20  and  O3_21 
REMARK    9  A    between atoms: C8_25  and  N5_26 
REMARK       I    between atoms: N5_26  and  C9_28 
REMARK   10  A    between atoms: C9_28  and  C10_30 
REMARK   11  A    between atoms: C11_31  and  C12_32 
REMARK   12  A    between atoms: C13_34  and  O7_35 
REMARK   13  A    between atoms: C14_37  and  O8_38 
REMARK   14  A    between atoms: C15_40  and  O9_41 
ROOT
HETATM    1  C5  UNL     1      -5.096 -33.088  -6.993  1.00  0.00     0.201 C 
HETATM    2  O4  UNL     1      -5.621 -34.143  -7.773  1.00  0.00    -0.348 OA
HETATM    3  C7  UNL     1      -4.835 -35.249  -7.480  1.00  0.00     0.225 C 
HETATM    4  C8  UNL     1      -3.516 -34.694  -7.058  1.00  0.00     0.251 C 
HETATM    5  O10 UNL     1      -3.724 -33.336  -7.043  1.00  0.00    -0.325 OA
ENDROOT
BRANCH   1   6
HETATM    6  C4  UNL     1      -5.356 -31.795  -7.638  1.00  0.00     0.187 C 
BRANCH   6   7
HETATM    7  N3  UNL     1      -5.419 -31.739  -9.054  1.00  0.00    -0.201 NA
BRANCH   7   8
HETATM    8  C3  UNL     1      -5.137 -30.399  -9.517  1.00  0.00     0.256 C 
HETATM    9  O2  UNL     1      -5.232 -29.468  -8.483  1.00  0.00    -0.306 OA
HETATM   10  C2  UNL     1      -5.943 -28.557  -9.261  1.00  0.00     0.373 C 
HETATM   11  N2  UNL     1      -5.174 -27.619 -10.016  1.00  0.00     0.037 N 
HETATM   12  C16 UNL     1      -6.210 -29.673 -10.244  1.00  0.00     0.264 C 
HETATM   13  C1  UNL     1      -4.930 -28.187 -11.303  1.00  0.00     0.528 C 
ATOM     14  H22 UNL     1      -4.317 -27.336  -9.540  1.00  0.00     0.289 HD
ATOM     15  H21 UNL     1      -5.612 -26.699 -10.067  1.00  0.00     0.289 HD
HETATM   16  O11 UNL     1      -5.857 -29.200 -11.498  1.00  0.00    -0.322 OA
BRANCH  10  17
HETATM   17  O1  UNL     1      -7.029 -28.084  -8.566  1.00  0.00    -0.341 OA
ATOM     18  H1  UNL     1      -7.799 -28.638  -8.517  1.00  0.00     0.215 HD
ENDBRANCH  10  17
BRANCH  13  19
HETATM   19  N1  UNL     1      -5.009 -27.251 -12.391  1.00  0.00    -0.027 N 
ATOM     20  H13 UNL     1      -5.972 -26.946 -12.529  1.00  0.00     0.279 HD
ATOM     21  H12 UNL     1      -4.581 -26.364 -12.128  1.00  0.00     0.279 HD
ATOM     22  H11 UNL     1      -4.614 -27.589 -13.269  1.00  0.00     0.279 HD
ENDBRANCH  13  19
ENDBRANCH   7   8
BRANCH   7  23
HETATM   23  N4  UNL     1      -6.657 -32.070  -9.604  1.00  0.00    -0.361 NA
ATOM     24  H42 UNL     1      -6.989 -31.438 -10.333  1.00  0.00     0.171 HD
ATOM     25  H41 UNL     1      -6.547 -33.014  -9.974  1.00  0.00     0.171 HD
ENDBRANCH   7  23
ENDBRANCH   6   7
ENDBRANCH   1   6
BRANCH   1  26
HETATM   26  C6  UNL     1      -5.555 -33.310  -5.606  1.00  0.00     0.234 C 
BRANCH  26  27
HETATM   27  O3  UNL     1      -6.508 -32.388  -5.173  1.00  0.00    -0.395 OA
ATOM     28  H3  UNL     1      -6.362 -32.070  -4.290  1.00  0.00     0.209 HD
ENDBRANCH  26  27
ENDBRANCH   1  26
BRANCH   4  29
HETATM   29  N5  UNL     1      -2.439 -35.063  -7.962  1.00  0.00    -0.329 N 
HETATM   30  C9  UNL     1      -1.116 -35.256  -7.500  1.00  0.00     0.243 C 
HETATM   31  O5  UNL     1      -0.874 -35.106  -6.286  1.00  0.00    -0.269 OA
ATOM     32  H5  UNL     1      -2.642 -35.185  -8.954  1.00  0.00     0.165 HD
BRANCH  30  33
HETATM   33  C10 UNL     1      -0.025 -35.625  -8.398  1.00  0.00     0.077 C 
HETATM   34  C11 UNL     1      -0.240 -35.698  -9.678  1.00  0.00     0.046 C 
BRANCH  34  35
HETATM   35  C12 UNL     1       0.772 -36.052 -10.646  1.00  0.00     0.114 A 
HETATM   36  O6  UNL     1       0.999 -35.230 -11.692  1.00  0.00    -0.283 OA
HETATM   37  C13 UNL     1       1.931 -35.696 -12.455  1.00  0.00     0.221 A 
HETATM   38  C14 UNL     1       2.399 -36.879 -11.967  1.00  0.00     0.161 A 
HETATM   39  C15 UNL     1       1.636 -37.106 -10.783  1.00  0.00     0.138 A 
BRANCH  37  40
HETATM   40  O7  UNL     1       2.367 -35.040 -13.617  1.00  0.00    -0.339 OA
ATOM     41  H7  UNL     1       1.929 -34.277 -13.976  1.00  0.00     0.220 HD
ENDBRANCH  37  40
BRANCH  38  42
HETATM   42  O8  UNL     1       3.384 -37.678 -12.495  1.00  0.00    -0.354 OA
ATOM     43  H8  UNL     1       3.363 -38.619 -12.626  1.00  0.00     0.218 HD
ENDBRANCH  38  42
BRANCH  39  44
HETATM   44  O9  UNL     1       1.830 -38.197 -10.030  1.00  0.00    -0.356 OA
ATOM     45  H9  UNL     1       1.729 -38.343  -9.096  1.00  0.00     0.218 HD
ENDBRANCH  39  44
ENDBRANCH  34  35
ENDBRANCH  30  33
ENDBRANCH   4  29
TORSDOF 14
ENDMDL
MODEL 3
REMARK VINA RESULT: -8.454491134      0.889      1.058
REMARK  14 active torsions:
REMARK  status: ('A' for Active; 'I' for Inactive)
REMARK    1  A    between atoms: N1_1  and  C1_5 
REMARK    2  A    between atoms: C2_9  and  O1_10 
REMARK    3  A    between atoms: C3_13  and  N3_14 
REMARK    4  A    between atoms: N3_14  and  N4_15 
REMARK    5  A    between atoms: N3_14  and  C4_18 
REMARK    6  A    between atoms: C4_18  and  C5_19 
REMARK    7  A    between atoms: C5_19  and  C6_20 
REMARK    8  A    between atoms: C6_20  and  O3_21 
REMARK    9  A    between atoms: C8_25  and  N5_26 
REMARK       I    between atoms: N5_26  and  C9_28 
REMARK   10  A    between atoms: C9_28  and  C10_30 
REMARK   11  A    between atoms: C11_31  and  C12_32 
REMARK   12  A    between atoms: C13_34  and  O7_35 
REMARK   13  A    between atoms: C14_37  and  O8_38 
REMARK   14  A    between atoms: C15_40  and  O9_41 
ROOT
HETATM    1  C5  UNL     1      -1.836 -35.386  -9.626  1.00  0.00     0.201 C 
HETATM    2  O4  UNL     1      -2.929 -36.280  -9.656  1.00  0.00    -0.348 OA
HETATM    3  C7  UNL     1      -3.946 -35.647  -8.955  1.00  0.00     0.225 C 
HETATM    4  C8  UNL     1      -3.256 -34.725  -8.007  1.00  0.00     0.251 C 
HETATM    5  O10 UNL     1      -1.930 -34.844  -8.344  1.00  0.00    -0.325 OA
ENDROOT
BRANCH   1   6
HETATM    6  C4  UNL     1      -0.569 -36.122  -9.725  1.00  0.00     0.187 C 
BRANCH   6   7
HETATM    7  N3  UNL     1       0.649 -35.403  -9.622  1.00  0.00    -0.201 NA
BRANCH   7   8
HETATM    8  C3  UNL     1       1.589 -35.858 -10.621  1.00  0.00     0.256 C 
HETATM    9  O2  UNL     1       1.866 -34.862 -11.557  1.00  0.00    -0.306 OA
HETATM   10  C2  UNL     1       1.764 -35.737 -12.636  1.00  0.00     0.373 C 
HETATM   11  N2  UNL     1       2.958 -36.416 -13.028  1.00  0.00     0.037 N 
HETATM   12  C16 UNL     1       1.078 -36.720 -11.717  1.00  0.00     0.264 C 
HETATM   13  C1  UNL     1       3.011 -37.654 -12.317  1.00  0.00     0.528 C 
ATOM     14  H22 UNL     1       3.796 -35.850 -12.898  1.00  0.00     0.289 HD
ATOM     15  H21 UNL     1       3.031 -36.537 -14.038  1.00  0.00     0.289 HD
HETATM   16  O11 UNL     1       1.730 -37.934 -11.865  1.00  0.00    -0.322 OA
BRANCH  10  17
HETATM   17  O1  UNL     1       0.988 -35.183 -13.625  1.00  0.00    -0.341 OA
ATOM     18  H1  UNL     1       1.427 -34.842 -14.395  1.00  0.00     0.215 HD
ENDBRANCH  10  17
BRANCH  13  19
HETATM   19  N1  UNL     1       3.498 -38.764 -13.091  1.00  0.00    -0.027 N 
ATOM     20  H13 UNL     1       2.889 -38.934 -13.891  1.00  0.00     0.279 HD
ATOM     21  H12 UNL     1       4.357 -38.507 -13.577  1.00  0.00     0.279 HD
ATOM     22  H11 UNL     1       3.635 -39.623 -12.558  1.00  0.00     0.279 HD
ENDBRANCH  13  19
ENDBRANCH   7   8
BRANCH   7  23
HETATM   23  N4  UNL     1       1.311 -35.535  -8.401  1.00  0.00    -0.361 NA
ATOM     24  H42 UNL     1       1.477 -34.660  -7.903  1.00  0.00     0.171 HD
ATOM     25  H41 UNL     1       0.727 -36.157  -7.842  1.00  0.00     0.171 HD
ENDBRANCH   7  23
ENDBRANCH   6   7
ENDBRANCH   1   6
BRANCH   1  26
HETATM   26  C6  UNL     1      -2.128 -34.316 -10.603  1.00  0.00     0.234 C 
BRANCH  26  27
HETATM   27  O3  UNL     1      -1.230 -34.264 -11.669  1.00  0.00    -0.395 OA
ATOM     28  H3  UNL     1      -1.305 -34.995 -12.271  1.00  0.00     0.209 HD
ENDBRANCH  26  27
ENDBRANCH   1  26
BRANCH   4  29
HETATM   29  N5  UNL     1      -3.490 -35.077  -6.615  1.00  0.00    -0.329 N 
HETATM   30  C9  UNL     1      -4.582 -34.546  -5.889  1.00  0.00     0.243 C 
HETATM   31  O5  UNL     1      -5.360 -33.759  -6.463  1.00  0.00    -0.269 OA
ATOM     32  H5  UNL     1      -2.850 -35.722  -6.151  1.00  0.00     0.165 HD
BRANCH  30  33
HETATM   33  C10 UNL     1      -4.826 -34.890  -4.491  1.00  0.00     0.077 C 
HETATM   34  C11 UNL     1      -4.859 -33.951  -3.593  1.00  0.00     0.046 C 
BRANCH  34  35
HETATM   35  C12 UNL     1      -5.095 -34.188  -2.187  1.00  0.00     0.114 A 
HETATM   36  O6  UNL     1      -5.471 -35.418  -1.781  1.00  0.00    -0.283 OA
HETATM   37  C13 UNL     1      -5.638 -35.454  -0.501  1.00  0.00     0.221 A 
HETATM   38  C14 UNL     1      -5.381 -34.233   0.047  1.00  0.00     0.161 A 
HETATM   39  C15 UNL     1      -5.026 -33.409  -1.063  1.00  0.00     0.138 A 
BRANCH  37  40
HETATM   40  O7  UNL     1      -6.030 -36.613   0.187  1.00  0.00    -0.339 OA
ATOM     41  H7  UNL     1      -5.417 -37.176   0.645  1.00  0.00     0.220 HD
ENDBRANCH  37  40
BRANCH  38  42
HETATM   42  O8  UNL     1      -5.448 -33.872   1.370  1.00  0.00    -0.354 OA
ATOM     43  H8  UNL     1      -5.411 -32.997   1.738  1.00  0.00     0.218 HD
ENDBRANCH  38  42
BRANCH  39  44
HETATM   44  O9  UNL     1      -4.704 -32.119  -0.896  1.00  0.00    -0.356 OA
ATOM     45  H9  UNL     1      -3.994 -31.705  -0.419  1.00  0.00     0.218 HD
ENDBRANCH  39  44
ENDBRANCH  34  35
ENDBRANCH  30  33
ENDBRANCH   4  29
TORSDOF 14
ENDMDL
MODEL 4
REMARK VINA RESULT: -8.261948849      6.577     10.962
REMARK  14 active torsions:
REMARK  status: ('A' for Active; 'I' for Inactive)
REMARK    1  A    between atoms: N1_1  and  C1_5 
REMARK    2  A    between atoms: C2_9  and  O1_10 
REMARK    3  A    between atoms: C3_13  and  N3_14 
REMARK    4  A    between atoms: N3_14  and  N4_15 
REMARK    5  A    between atoms: N3_14  and  C4_18 
REMARK    6  A    between atoms: C4_18  and  C5_19 
REMARK    7  A    between atoms: C5_19  and  C6_20 
REMARK    8  A    between atoms: C6_20  and  O3_21 
REMARK    9  A    between atoms: C8_25  and  N5_26 
REMARK       I    between atoms: N5_26  and  C9_28 
REMARK   10  A    between atoms: C9_28  and  C10_30 
REMARK   11  A    between atoms: C11_31  and  C12_32 
REMARK   12  A    between atoms: C13_34  and  O7_35 
REMARK   13  A    between atoms: C14_37  and  O8_38 
REMARK   14  A    between atoms: C15_40  and  O9_41 
ROOT
HETATM    1  C5  UNL     1      -4.912 -28.611 -10.904  1.00  0.00     0.201 C 
HETATM    2  O4  UNL     1      -5.321 -29.215 -12.115  1.00  0.00    -0.348 OA
HETATM    3  C7  UNL     1      -5.150 -30.579 -11.926  1.00  0.00     0.225 C 
HETATM    4  C8  UNL     1      -4.074 -30.703 -10.899  1.00  0.00     0.251 C 
HETATM    5  O10 UNL     1      -3.828 -29.403 -10.528  1.00  0.00    -0.325 OA
ENDROOT
BRANCH   1   6
HETATM    6  C4  UNL     1      -4.427 -27.248 -11.151  1.00  0.00     0.187 C 
BRANCH   6   7
HETATM    7  N3  UNL     1      -5.075 -26.459 -12.136  1.00  0.00    -0.201 NA
BRANCH   7   8
HETATM    8  C3  UNL     1      -4.125 -26.015 -13.130  1.00  0.00     0.256 C 
HETATM    9  O2  UNL     1      -4.705 -25.119 -14.029  1.00  0.00    -0.306 OA
HETATM   10  C2  UNL     1      -4.123 -25.732 -15.137  1.00  0.00     0.373 C 
HETATM   11  N2  UNL     1      -2.831 -25.264 -15.527  1.00  0.00     0.037 N 
HETATM   12  C16 UNL     1      -3.822 -26.927 -14.262  1.00  0.00     0.264 C 
HETATM   13  C1  UNL     1      -1.856 -26.061 -14.854  1.00  0.00     0.528 C 
ATOM     14  H22 UNL     1      -2.706 -24.265 -15.363  1.00  0.00     0.289 HD
ATOM     15  H21 UNL     1      -2.703 -25.253 -16.538  1.00  0.00     0.289 HD
HETATM   16  O11 UNL     1      -2.481 -27.226 -14.436  1.00  0.00    -0.322 OA
BRANCH  10  17
HETATM   17  O1  UNL     1      -5.061 -25.920 -16.123  1.00  0.00    -0.341 OA
ATOM     18  H1  UNL     1      -5.978 -25.877 -15.877  1.00  0.00     0.215 HD
ENDBRANCH  10  17
BRANCH  13  19
HETATM   19  N1  UNL     1      -0.707 -26.394 -15.652  1.00  0.00    -0.027 N 
ATOM     20  H13 UNL     1      -0.687 -27.396 -15.845  1.00  0.00     0.279 HD
ATOM     21  H12 UNL     1      -0.817 -26.036 -16.600  1.00  0.00     0.279 HD
ATOM     22  H11 UNL     1       0.183 -26.090 -15.258  1.00  0.00     0.279 HD
ENDBRANCH  13  19
ENDBRANCH   7   8
BRANCH   7  23
HETATM   23  N4  UNL     1      -5.683 -25.299 -11.657  1.00  0.00    -0.361 NA
ATOM     24  H42 UNL     1      -5.225 -24.428 -11.928  1.00  0.00     0.171 HD
ATOM     25  H41 UNL     1      -6.638 -25.325 -12.014  1.00  0.00     0.171 HD
ENDBRANCH   7  23
ENDBRANCH   6   7
ENDBRANCH   1   6
BRANCH   1  26
HETATM   26  C6  UNL     1      -6.001 -28.825  -9.928  1.00  0.00     0.234 C 
BRANCH  26  27
HETATM   27  O3  UNL     1      -6.581 -27.646  -9.463  1.00  0.00    -0.395 OA
ATOM     28  H3  UNL     1      -7.196 -27.775  -8.750  1.00  0.00     0.209 HD
ENDBRANCH  26  27
ENDBRANCH   1  26
BRANCH   4  29
HETATM   29  N5  UNL     1      -2.880 -31.350 -11.417  1.00  0.00    -0.329 N 
HETATM   30  C9  UNL     1      -2.513 -32.657 -11.020  1.00  0.00     0.243 C 
HETATM   31  O5  UNL     1      -3.238 -33.265 -10.206  1.00  0.00    -0.269 OA
ATOM     32  H5  UNL     1      -2.291 -30.849 -12.082  1.00  0.00     0.165 HD
BRANCH  30  33
HETATM   33  C10 UNL     1      -1.315 -33.318 -11.530  1.00  0.00     0.077 C 
HETATM   34  C11 UNL     1      -1.425 -34.427 -12.198  1.00  0.00     0.046 C 
BRANCH  34  35
HETATM   35  C12 UNL     1      -0.303 -35.155 -12.744  1.00  0.00     0.114 A 
HETATM   36  O6  UNL     1       0.946 -34.681 -12.550  1.00  0.00    -0.283 OA
HETATM   37  C13 UNL     1       1.825 -35.450 -13.102  1.00  0.00     0.221 A 
HETATM   38  C14 UNL     1       1.218 -36.506 -13.712  1.00  0.00     0.161 A 
HETATM   39  C15 UNL     1      -0.175 -36.307 -13.473  1.00  0.00     0.138 A 
BRANCH  37  40
HETATM   40  O7  UNL     1       3.204 -35.191 -13.054  1.00  0.00    -0.339 OA
ATOM     41  H7  UNL     1       3.596 -34.406 -13.418  1.00  0.00     0.220 HD
ENDBRANCH  37  40
BRANCH  38  42
HETATM   42  O8  UNL     1       1.811 -37.535 -14.402  1.00  0.00    -0.354 OA
ATOM     43  H8  UNL     1       1.842 -38.454 -14.165  1.00  0.00     0.218 HD
ENDBRANCH  38  42
BRANCH  39  44
HETATM   44  O9  UNL     1      -1.090 -37.170 -13.936  1.00  0.00    -0.356 OA
ATOM     45  H9  UNL     1      -1.044 -37.829 -14.620  1.00  0.00     0.218 HD
ENDBRANCH  39  44
ENDBRANCH  34  35
ENDBRANCH  30  33
ENDBRANCH   4  29
TORSDOF 14
ENDMDL
MODEL 5
REMARK VINA RESULT: -8.244280671      3.807      7.749
REMARK  14 active torsions:
REMARK  status: ('A' for Active; 'I' for Inactive)
REMARK    1  A    between atoms: N1_1  and  C1_5 
REMARK    2  A    between atoms: C2_9  and  O1_10 
REMARK    3  A    between atoms: C3_13  and  N3_14 
REMARK    4  A    between atoms: N3_14  and  N4_15 
REMARK    5  A    between atoms: N3_14  and  C4_18 
REMARK    6  A    between atoms: C4_18  and  C5_19 
REMARK    7  A    between atoms: C5_19  and  C6_20 
REMARK    8  A    between atoms: C6_20  and  O3_21 
REMARK    9  A    between atoms: C8_25  and  N5_26 
REMARK       I    between atoms: N5_26  and  C9_28 
REMARK   10  A    between atoms: C9_28  and  C10_30 
REMARK   11  A    between atoms: C11_31  and  C12_32 
REMARK   12  A    between atoms: C13_34  and  O7_35 
REMARK   13  A    between atoms: C14_37  and  O8_38 
REMARK   14  A    between atoms: C15_40  and  O9_41 
ROOT
HETATM    1  C5  UNL     1      -0.069 -36.072  -9.565  1.00  0.00     0.201 C 
HETATM    2  O4  UNL     1      -1.097 -36.631 -10.357  1.00  0.00    -0.348 OA
HETATM    3  C7  UNL     1      -1.304 -35.726 -11.389  1.00  0.00     0.225 C 
HETATM    4  C8  UNL     1      -0.879 -34.404 -10.845  1.00  0.00     0.251 C 
HETATM    5  O10 UNL     1      -0.368 -34.711  -9.607  1.00  0.00    -0.325 OA
ENDROOT
BRANCH   1   6
HETATM    6  C4  UNL     1      -0.187 -36.530  -8.175  1.00  0.00     0.187 C 
BRANCH   6   7
HETATM    7  N3  UNL     1      -0.047 -35.581  -7.129  1.00  0.00    -0.201 NA
BRANCH   7   8
HETATM    8  C3  UNL     1      -1.283 -34.861  -6.934  1.00  0.00     0.256 C 
HETATM    9  O2  UNL     1      -1.676 -34.867  -5.595  1.00  0.00    -0.306 OA
HETATM   10  C2  UNL     1      -3.005 -35.149  -5.903  1.00  0.00     0.373 C 
HETATM   11  N2  UNL     1      -3.862 -34.030  -6.133  1.00  0.00     0.037 N 
HETATM   12  C16 UNL     1      -2.553 -35.544  -7.290  1.00  0.00     0.264 C 
HETATM   13  C1  UNL     1      -3.834 -33.737  -7.531  1.00  0.00     0.528 C 
ATOM     14  H22 UNL     1      -3.625 -33.224  -5.556  1.00  0.00     0.289 HD
ATOM     15  H21 UNL     1      -4.808 -34.177  -5.780  1.00  0.00     0.289 HD
HETATM   16  O11 UNL     1      -3.359 -34.862  -8.187  1.00  0.00    -0.322 OA
BRANCH  10  17
HETATM   17  O1  UNL     1      -3.474 -36.162  -5.103  1.00  0.00    -0.341 OA
ATOM     18  H1  UNL     1      -3.005 -36.988  -5.114  1.00  0.00     0.215 HD
ENDBRANCH  10  17
BRANCH  13  19
HETATM   19  N1  UNL     1      -5.106 -33.361  -8.086  1.00  0.00    -0.027 N 
ATOM     20  H13 UNL     1      -5.609 -34.186  -8.413  1.00  0.00     0.279 HD
ATOM     21  H12 UNL     1      -5.739 -33.053  -7.347  1.00  0.00     0.279 HD
ATOM     22  H11 UNL     1      -5.054 -32.659  -8.824  1.00  0.00     0.279 HD
ENDBRANCH  13  19
ENDBRANCH   7   8
BRANCH   7  23
HETATM   23  N4  UNL     1       0.924 -34.603  -7.347  1.00  0.00    -0.361 NA
ATOM     24  H42 UNL     1       1.596 -34.486  -6.588  1.00  0.00     0.171 HD
ATOM     25  H41 UNL     1       1.401 -34.880  -8.205  1.00  0.00     0.171 HD
ENDBRANCH   7  23
ENDBRANCH   6   7
ENDBRANCH   1   6
BRANCH   1  26
HETATM   26  C6  UNL     1       1.199 -36.290 -10.292  1.00  0.00     0.234 C 
BRANCH  26  27
HETATM   27  O3  UNL     1       2.317 -35.757  -9.650  1.00  0.00    -0.395 OA
ATOM     28  H3  UNL     1       3.082 -35.684 -10.207  1.00  0.00     0.209 HD
ENDBRANCH  26  27
ENDBRANCH   1  26
BRANCH   4  29
HETATM   29  N5  UNL     1      -1.978 -33.457 -10.753  1.00  0.00    -0.329 N 
HETATM   30  C9  UNL     1      -1.860 -32.134 -11.240  1.00  0.00     0.243 C 
HETATM   31  O5  UNL     1      -0.785 -31.778 -11.760  1.00  0.00    -0.269 OA
ATOM     32  H5  UNL     1      -2.856 -33.754 -10.327  1.00  0.00     0.165 HD
BRANCH  30  33
HETATM   33  C10 UNL     1      -2.956 -31.173 -11.151  1.00  0.00     0.077 C 
HETATM   34  C11 UNL     1      -3.271 -30.659 -10.000  1.00  0.00     0.046 C 
BRANCH  34  35
HETATM   35  C12 UNL     1      -4.336 -29.701  -9.809  1.00  0.00     0.114 A 
HETATM   36  O6  UNL     1      -4.407 -28.625 -10.621  1.00  0.00    -0.283 OA
HETATM   37  C13 UNL     1      -5.414 -27.877 -10.313  1.00  0.00     0.221 A 
HETATM   38  C14 UNL     1      -6.096 -28.406  -9.258  1.00  0.00     0.161 A 
HETATM   39  C15 UNL     1      -5.385 -29.600  -8.934  1.00  0.00     0.138 A 
BRANCH  37  40
HETATM   40  O7  UNL     1      -5.722 -26.691 -10.997  1.00  0.00    -0.339 OA
ATOM     41  H7  UNL     1      -6.494 -26.170 -10.808  1.00  0.00     0.220 HD
ENDBRANCH  37  40
BRANCH  38  42
HETATM   42  O8  UNL     1      -7.217 -27.905  -8.643  1.00  0.00    -0.354 OA
ATOM     43  H8  UNL     1      -7.670 -28.254  -7.884  1.00  0.00     0.218 HD
ENDBRANCH  38  42
BRANCH  39  44
HETATM   44  O9  UNL     1      -5.780 -30.392  -7.928  1.00  0.00    -0.356 OA
ATOM     45  H9  UNL     1      -6.089 -30.190  -7.052  1.00  0.00     0.218 HD
ENDBRANCH  39  44
ENDBRANCH  34  35
ENDBRANCH  30  33
ENDBRANCH   4  29
TORSDOF 14
ENDMDL
