MODEL 1
REMARK VINA RESULT: -8.057543719      0.000      0.000
REMARK  4 active torsions:
REMARK  status: ('A' for Active; 'I' for Inactive)
REMARK    1  A    between atoms: C3_5  and  C4_6 
REMARK    2  A    between atoms: C7_11  and  C8_12 
REMARK    3  A    between atoms: C8_12  and  C9_13 
REMARK    4  A    between atoms: C17_22  and  C18_23 
ROOT
HETATM    1  C1  UNL     1      18.207  65.510  12.916  1.00  0.00     0.065 C 
HETATM    2  C2  UNL     1      18.568  65.253  11.659  1.00  0.00     0.120 A 
HETATM    3  N1  UNL     1      17.779  65.723  10.576  1.00  0.00    -0.331 N 
ATOM      4  H1  UNL     1      16.936  66.272  10.751  1.00  0.00     0.168 HD
HETATM    5  C3  UNL     1      18.144  65.446   9.352  1.00  0.00     0.083 A 
HETATM    6  N2  UNL     1      19.299  64.692   9.067  1.00  0.00    -0.330 N 
ATOM      7  H2  UNL     1      19.547  64.498   8.096  1.00  0.00     0.168 HD
HETATM    8  C6  UNL     1      20.123  64.199  10.112  1.00  0.00     0.139 A 
HETATM    9  C7  UNL     1      21.284  63.458  10.146  1.00  0.00     0.017 A 
HETATM   10  C17 UNL     1      21.554  63.328  11.506  1.00  0.00     0.041 A 
HETATM   11  N3  UNL     1      20.593  63.969  12.179  1.00  0.00    -0.294 N 
ATOM     12  H3  UNL     1      20.545  64.036  13.196  1.00  0.00     0.187 HD
HETATM   13  N4  UNL     1      19.724  64.498  11.360  1.00  0.00    -0.224 N 
ENDROOT
BRANCH   9  14
HETATM   14  C8  UNL     1      22.081  62.899   9.073  1.00  0.00     0.085 C 
BRANCH  14  15
HETATM   15  C9  UNL     1      22.631  63.768   8.041  1.00  0.00    -0.026 A 
HETATM   16  C10 UNL     1      23.773  64.487   8.118  1.00  0.00    -0.053 A 
HETATM   17  C11 UNL     1      24.579  64.552   9.340  1.00  0.00     0.049 C 
HETATM   18  C12 UNL     1      24.273  65.239   7.044  1.00  0.00     0.014 A 
HETATM   19  C13 UNL     1      23.605  65.268   5.861  1.00  0.00    -0.060 A 
HETATM   20  C14 UNL     1      24.105  66.048   4.682  1.00  0.00     0.048 C 
HETATM   21  C15 UNL     1      22.442  64.546   5.753  1.00  0.00     0.031 A 
HETATM   22  C16 UNL     1      21.949  63.805   6.811  1.00  0.00     0.041 A 
HETATM   23 CL1  UNL     1      20.492  62.885   6.594  1.00  0.00    -0.084 Cl
ENDBRANCH  14  15
ENDBRANCH   9  14
BRANCH  10  24
HETATM   24  C18 UNL     1      22.606  62.535  12.156  1.00  0.00     0.038 C 
HETATM   25  C19 UNL     1      23.738  63.487  12.595  1.00  0.00     0.011 C 
HETATM   26  C20 UNL     1      24.955  62.547  12.667  1.00  0.00     0.001 C 
HETATM   27  C21 UNL     1      24.590  61.513  13.712  1.00  0.00     0.000 C 
HETATM   28  C22 UNL     1      23.298  61.821  14.411  1.00  0.00     0.001 C 
HETATM   29  C23 UNL     1      22.115  61.991  13.514  1.00  0.00     0.011 C 
ENDBRANCH  10  24
BRANCH   5  30
HETATM   30  C4  UNL     1      17.247  65.988   8.301  1.00  0.00     0.072 C 
HETATM   31  C5  UNL     1      16.141  66.769   8.960  1.00  0.00     0.013 C 
ENDBRANCH   5  30
TORSDOF 4
ENDMDL
MODEL 2
REMARK VINA RESULT: -7.654976991      2.362      6.136
REMARK  4 active torsions:
REMARK  status: ('A' for Active; 'I' for Inactive)
REMARK    1  A    between atoms: C3_5  and  C4_6 
REMARK    2  A    between atoms: C7_11  and  C8_12 
REMARK    3  A    between atoms: C8_12  and  C9_13 
REMARK    4  A    between atoms: C17_22  and  C18_23 
ROOT
HETATM    1  C1  UNL     1      25.603  62.541  13.595  1.00  0.00     0.065 C 
HETATM    2  C2  UNL     1      24.419  61.992  13.321  1.00  0.00     0.120 A 
HETATM    3  N1  UNL     1      23.815  61.094  14.239  1.00  0.00    -0.331 N 
ATOM      4  H1  UNL     1      24.276  60.869  15.121  1.00  0.00     0.168 HD
HETATM    5  C3  UNL     1      22.661  60.557  13.941  1.00  0.00     0.083 A 
HETATM    6  N2  UNL     1      21.991  60.839  12.735  1.00  0.00    -0.330 N 
ATOM      7  H2  UNL     1      21.092  60.397  12.542  1.00  0.00     0.168 HD
HETATM    8  C6  UNL     1      22.551  61.730  11.783  1.00  0.00     0.139 A 
HETATM    9  C7  UNL     1      22.143  62.194  10.551  1.00  0.00     0.017 A 
HETATM   10  C17 UNL     1      23.173  63.047  10.161  1.00  0.00     0.041 A 
HETATM   11  N3  UNL     1      24.092  63.053  11.132  1.00  0.00    -0.294 N 
ATOM     12  H3  UNL     1      24.955  63.596  11.109  1.00  0.00     0.187 HD
HETATM   13  N4  UNL     1      23.738  62.268  12.114  1.00  0.00    -0.224 N 
ENDROOT
BRANCH   9  14
HETATM   14  C8  UNL     1      20.955  61.901   9.777  1.00  0.00     0.085 C 
BRANCH  14  15
HETATM   15  C9  UNL     1      19.964  62.942   9.534  1.00  0.00    -0.026 A 
HETATM   16  C10 UNL     1      19.358  63.709  10.466  1.00  0.00    -0.053 A 
HETATM   17  C11 UNL     1      19.568  63.512  11.903  1.00  0.00     0.049 C 
HETATM   18  C12 UNL     1      18.471  64.746  10.141  1.00  0.00     0.014 A 
HETATM   19  C13 UNL     1      18.186  65.017   8.839  1.00  0.00    -0.060 A 
HETATM   20  C14 UNL     1      17.253  66.121   8.441  1.00  0.00     0.048 C 
HETATM   21  C15 UNL     1      18.788  64.254   7.870  1.00  0.00     0.031 A 
HETATM   22  C16 UNL     1      19.662  63.232   8.191  1.00  0.00     0.041 A 
HETATM   23 CL1  UNL     1      20.418  62.331   6.913  1.00  0.00    -0.084 Cl
ENDBRANCH  14  15
ENDBRANCH   9  14
BRANCH  10  24
HETATM   24  C18 UNL     1      23.347  63.740   8.878  1.00  0.00     0.038 C 
HETATM   25  C19 UNL     1      22.676  65.125   8.973  1.00  0.00     0.011 C 
HETATM   26  C20 UNL     1      22.385  65.458   7.497  1.00  0.00     0.001 C 
HETATM   27  C21 UNL     1      23.743  65.484   6.827  1.00  0.00     0.000 C 
HETATM   28  C22 UNL     1      24.877  65.345   7.801  1.00  0.00     0.001 C 
HETATM   29  C23 UNL     1      24.826  64.127   8.666  1.00  0.00     0.011 C 
ENDBRANCH  10  24
BRANCH   5  30
HETATM   30  C4  UNL     1      22.124  59.635  14.973  1.00  0.00     0.072 C 
HETATM   31  C5  UNL     1      22.324  60.253  16.331  1.00  0.00     0.013 C 
ENDBRANCH   5  30
TORSDOF 4
ENDMDL
MODEL 3
REMARK VINA RESULT: -7.609697867      2.880      5.758
REMARK  4 active torsions:
REMARK  status: ('A' for Active; 'I' for Inactive)
REMARK    1  A    between atoms: C3_5  and  C4_6 
REMARK    2  A    between atoms: C7_11  and  C8_12 
REMARK    3  A    between atoms: C8_12  and  C9_13 
REMARK    4  A    between atoms: C17_22  and  C18_23 
ROOT
HETATM    1  C1  UNL     1      26.388  64.527   8.106  1.00  0.00     0.065 C 
HETATM    2  C2  UNL     1      25.130  64.723   7.710  1.00  0.00     0.120 A 
HETATM    3  N1  UNL     1      24.860  65.278   6.431  1.00  0.00    -0.331 N 
ATOM      4  H1  UNL     1      25.625  65.521   5.801  1.00  0.00     0.168 HD
HETATM    5  C3  UNL     1      23.619  65.475   6.070  1.00  0.00     0.083 A 
HETATM    6  N2  UNL     1      22.534  65.155   6.909  1.00  0.00    -0.330 N 
ATOM      7  H2  UNL     1      21.581  65.326   6.588  1.00  0.00     0.168 HD
HETATM    8  C6  UNL     1      22.749  64.598   8.197  1.00  0.00     0.139 A 
HETATM    9  C7  UNL     1      21.914  64.188   9.213  1.00  0.00     0.017 A 
HETATM   10  C17 UNL     1      22.789  63.739  10.199  1.00  0.00     0.041 A 
HETATM   11  N3  UNL     1      24.036  63.892   9.743  1.00  0.00    -0.294 N 
ATOM     12  H3  UNL     1      24.878  63.640  10.262  1.00  0.00     0.187 HD
HETATM   13  N4  UNL     1      24.034  64.406   8.542  1.00  0.00    -0.224 N 
ENDROOT
BRANCH   9  14
HETATM   14  C8  UNL     1      20.470  64.203   9.314  1.00  0.00     0.085 C 
BRANCH  14  15
HETATM   15  C9  UNL     1      19.734  62.955   9.469  1.00  0.00    -0.026 A 
HETATM   16  C10 UNL     1      19.777  61.887   8.642  1.00  0.00    -0.053 A 
HETATM   17  C11 UNL     1      20.532  61.896   7.387  1.00  0.00     0.049 C 
HETATM   18  C12 UNL     1      19.095  60.690   8.907  1.00  0.00     0.014 A 
HETATM   19  C13 UNL     1      18.349  60.565  10.037  1.00  0.00    -0.060 A 
HETATM   20  C14 UNL     1      17.611  59.303  10.369  1.00  0.00     0.048 C 
HETATM   21  C15 UNL     1      18.287  61.633  10.896  1.00  0.00     0.031 A 
HETATM   22  C16 UNL     1      18.959  62.813  10.635  1.00  0.00     0.041 A 
HETATM   23 CL1  UNL     1      18.868  64.113  11.784  1.00  0.00    -0.084 Cl
ENDBRANCH  14  15
ENDBRANCH   9  14
BRANCH  10  24
HETATM   24  C18 UNL     1      22.476  63.294  11.564  1.00  0.00     0.038 C 
HETATM   25  C19 UNL     1      22.453  61.752  11.584  1.00  0.00     0.011 C 
HETATM   26  C20 UNL     1      21.556  61.447  12.798  1.00  0.00     0.001 C 
HETATM   27  C21 UNL     1      22.276  62.062  13.981  1.00  0.00     0.000 C 
HETATM   28  C22 UNL     1      23.633  62.596  13.625  1.00  0.00     0.001 C 
HETATM   29  C23 UNL     1      23.650  63.599  12.518  1.00  0.00     0.011 C 
ENDBRANCH  10  24
BRANCH   5  30
HETATM   30  C4  UNL     1      23.455  66.059   4.715  1.00  0.00     0.072 C 
HETATM   31  C5  UNL     1      24.815  66.255   4.101  1.00  0.00     0.013 C 
ENDBRANCH   5  30
TORSDOF 4
ENDMDL
MODEL 4
REMARK VINA RESULT: -7.540949728      2.804      6.585
REMARK  4 active torsions:
REMARK  status: ('A' for Active; 'I' for Inactive)
REMARK    1  A    between atoms: C3_5  and  C4_6 
REMARK    2  A    between atoms: C7_11  and  C8_12 
REMARK    3  A    between atoms: C8_12  and  C9_13 
REMARK    4  A    between atoms: C17_22  and  C18_23 
ROOT
HETATM    1  C1  UNL     1      25.661  62.214  13.407  1.00  0.00     0.065 C 
HETATM    2  C2  UNL     1      24.331  62.288  13.344  1.00  0.00     0.120 A 
HETATM    3  N1  UNL     1      23.537  61.874  14.445  1.00  0.00    -0.331 N 
ATOM      4  H1  UNL     1      23.977  61.527  15.298  1.00  0.00     0.168 HD
HETATM    5  C3  UNL     1      22.234  61.942  14.354  1.00  0.00     0.083 A 
HETATM    6  N2  UNL     1      21.587  62.413  13.196  1.00  0.00    -0.330 N 
ATOM      7  H2  UNL     1      20.568  62.449  13.168  1.00  0.00     0.168 HD
HETATM    8  C6  UNL     1      22.334  62.840  12.067  1.00  0.00     0.139 A 
HETATM    9  C7  UNL     1      21.994  63.341  10.830  1.00  0.00     0.017 A 
HETATM   10  C17 UNL     1      23.223  63.553  10.210  1.00  0.00     0.041 A 
HETATM   11  N3  UNL     1      24.184  63.191  11.066  1.00  0.00    -0.294 N 
ATOM     12  H3  UNL     1      25.184  63.244  10.871  1.00  0.00     0.187 HD
HETATM   13  N4  UNL     1      23.670  62.760  12.187  1.00  0.00    -0.224 N 
ENDROOT
BRANCH   9  14
HETATM   14  C8  UNL     1      20.698  63.599  10.237  1.00  0.00     0.085 C 
BRANCH  14  15
HETATM   15  C9  UNL     1      19.764  62.503  10.016  1.00  0.00    -0.026 A 
HETATM   16  C10 UNL     1      19.851  61.551   9.062  1.00  0.00    -0.053 A 
HETATM   17  C11 UNL     1      20.893  61.564   8.032  1.00  0.00     0.049 C 
HETATM   18  C12 UNL     1      18.947  60.482   8.967  1.00  0.00     0.014 A 
HETATM   19  C13 UNL     1      17.927  60.369   9.860  1.00  0.00    -0.060 A 
HETATM   20  C14 UNL     1      16.943  59.240   9.806  1.00  0.00     0.048 C 
HETATM   21  C15 UNL     1      17.813  61.322  10.841  1.00  0.00     0.031 A 
HETATM   22  C16 UNL     1      18.705  62.376  10.933  1.00  0.00     0.041 A 
HETATM   23 CL1  UNL     1      18.525  63.526  12.223  1.00  0.00    -0.084 Cl
ENDBRANCH  14  15
ENDBRANCH   9  14
BRANCH  10  24
HETATM   24  C18 UNL     1      23.488  63.967   8.825  1.00  0.00     0.038 C 
HETATM   25  C19 UNL     1      22.838  65.346   8.592  1.00  0.00     0.011 C 
HETATM   26  C20 UNL     1      22.643  65.369   7.065  1.00  0.00     0.001 C 
HETATM   27  C21 UNL     1      24.040  65.250   6.490  1.00  0.00     0.000 C 
HETATM   28  C22 UNL     1      25.110  65.307   7.542  1.00  0.00     0.001 C 
HETATM   29  C23 UNL     1      24.984  64.293   8.632  1.00  0.00     0.011 C 
ENDBRANCH  10  24
BRANCH   5  30
HETATM   30  C4  UNL     1      21.506  61.483  15.564  1.00  0.00     0.072 C 
HETATM   31  C5  UNL     1      22.506  61.156  16.640  1.00  0.00     0.013 C 
ENDBRANCH   5  30
TORSDOF 4
ENDMDL
MODEL 5
REMARK VINA RESULT: -7.533544276      1.899      5.120
REMARK  4 active torsions:
REMARK  status: ('A' for Active; 'I' for Inactive)
REMARK    1  A    between atoms: C3_5  and  C4_6 
REMARK    2  A    between atoms: C7_11  and  C8_12 
REMARK    3  A    between atoms: C8_12  and  C9_13 
REMARK    4  A    between atoms: C17_22  and  C18_23 
ROOT
HETATM    1  C1  UNL     1      25.659  64.889   8.049  1.00  0.00     0.065 C 
HETATM    2  C2  UNL     1      24.380  64.635   7.773  1.00  0.00     0.120 A 
HETATM    3  N1  UNL     1      23.845  64.954   6.497  1.00  0.00    -0.331 N 
ATOM      4  H1  UNL     1      24.437  65.370   5.778  1.00  0.00     0.168 HD
HETATM    5  C3  UNL     1      22.583  64.709   6.255  1.00  0.00     0.083 A 
HETATM    6  N2  UNL     1      21.732  64.138   7.220  1.00  0.00    -0.330 N 
ATOM      7  H2  UNL     1      20.753  63.964   6.988  1.00  0.00     0.168 HD
HETATM    8  C6  UNL     1      22.216  63.800   8.510  1.00  0.00     0.139 A 
HETATM    9  C7  UNL     1      21.643  63.240   9.631  1.00  0.00     0.017 A 
HETATM   10  C17 UNL     1      22.690  63.187  10.547  1.00  0.00     0.041 A 
HETATM   11  N3  UNL     1      23.780  63.688   9.956  1.00  0.00    -0.294 N 
ATOM     12  H3  UNL     1      24.695  63.768  10.400  1.00  0.00     0.187 HD
HETATM   13  N4  UNL     1      23.516  64.062   8.733  1.00  0.00    -0.224 N 
ENDROOT
BRANCH   9  14
HETATM   14  C8  UNL     1      20.286  62.800   9.879  1.00  0.00     0.085 C 
BRANCH  14  15
HETATM   15  C9  UNL     1      19.180  63.743   9.768  1.00  0.00    -0.026 A 
HETATM   16  C10 UNL     1      18.864  64.721  10.645  1.00  0.00    -0.053 A 
HETATM   17  C11 UNL     1      19.574  64.897  11.914  1.00  0.00     0.049 C 
HETATM   18  C12 UNL     1      17.826  65.638  10.422  1.00  0.00     0.014 A 
HETATM   19  C13 UNL     1      17.086  65.568   9.284  1.00  0.00    -0.060 A 
HETATM   20  C14 UNL     1      15.974  66.532   8.996  1.00  0.00     0.048 C 
HETATM   21  C15 UNL     1      17.384  64.585   8.374  1.00  0.00     0.031 A 
HETATM   22  C16 UNL     1      18.407  63.680   8.594  1.00  0.00     0.041 A 
HETATM   23 CL1  UNL     1      18.755  62.484   7.384  1.00  0.00    -0.084 Cl
ENDBRANCH  14  15
ENDBRANCH   9  14
BRANCH  10  24
HETATM   24  C18 UNL     1      22.647  62.793  11.962  1.00  0.00     0.038 C 
HETATM   25  C19 UNL     1      22.834  61.265  12.052  1.00  0.00     0.011 C 
HETATM   26  C20 UNL     1      22.177  60.926  13.402  1.00  0.00     0.001 C 
HETATM   27  C21 UNL     1      22.977  61.699  14.431  1.00  0.00     0.000 C 
HETATM   28  C22 UNL     1      24.181  62.376  13.845  1.00  0.00     0.001 C 
HETATM   29  C23 UNL     1      23.898  63.303  12.707  1.00  0.00     0.011 C 
ENDBRANCH  10  24
BRANCH   5  30
HETATM   30  C4  UNL     1      22.133  65.082   4.891  1.00  0.00     0.072 C 
HETATM   31  C5  UNL     1      23.311  65.609   4.115  1.00  0.00     0.013 C 
ENDBRANCH   5  30
TORSDOF 4
ENDMDL
