MODEL 1
REMARK VINA RESULT: -6.960986548      0.000      0.000
REMARK  5 active torsions:
REMARK  status: ('A' for Active; 'I' for Inactive)
REMARK    1  A    between atoms: C9_10  and  N1_11 
REMARK    2  A    between atoms: N1_11  and  O1_13 
REMARK    3  A    between atoms: O1_13  and  C10_14 
REMARK    4  A    between atoms: C10_14  and  C11_15 
REMARK    5  A    between atoms: C11_15  and  N2_16 
ROOT
HETATM    1  N1  UNL     1      22.307  60.819   9.242  1.00  0.00    -0.270 N 
ATOM      2  H1  UNL     1      23.307  60.746   9.054  1.00  0.00     0.194 HD
ENDROOT
BRANCH   1   3
HETATM    3  C9  UNL     1      21.914  60.792  10.450  1.00  0.00     0.046 C 
HETATM    4  C8  UNL     1      22.733  60.899  11.598  1.00  0.00     0.002 C 
HETATM    5  C7  UNL     1      24.101  61.130  11.897  1.00  0.00     0.029 C 
HETATM    6  C6  UNL     1      24.253  61.503  13.378  1.00  0.00     0.004 C 
HETATM    7  C5  UNL     1      22.996  61.664  14.108  1.00  0.00     0.000 C 
HETATM    8  C4  UNL     1      22.797  61.420  15.543  1.00  0.00     0.000 C 
HETATM    9  C3  UNL     1      21.448  60.711  15.805  1.00  0.00     0.003 C 
HETATM   10  C2  UNL     1      20.239  61.290  15.287  1.00  0.00     0.042 C 
HETATM   11  C1  UNL     1      19.765  61.399  13.931  1.00  0.00     0.208 C 
HETATM   12  F1  UNL     1      18.524  62.099  14.088  1.00  0.00    -0.244 F 
HETATM   13  C22 UNL     1      19.419  60.269  13.054  1.00  0.00     0.092 C 
HETATM   14  N3  UNL     1      20.241  59.877  11.994  1.00  0.00    -0.394 N 
HETATM   15  C21 UNL     1      20.422  60.628  10.807  1.00  0.00     0.177 C 
ATOM     16  H3  UNL     1      20.743  58.994  12.081  1.00  0.00     0.159 HD
ENDBRANCH   1   3
BRANCH   1  17
HETATM   17  O1  UNL     1      21.459  60.942   8.194  1.00  0.00    -0.279 OA
BRANCH  17  18
HETATM   18  C10 UNL     1      21.617  61.882   7.149  1.00  0.00     0.231 C 
BRANCH  18  19
HETATM   19  C11 UNL     1      20.679  63.044   7.301  1.00  0.00     0.301 C 
BRANCH  19  20
HETATM   20  N2  UNL     1      21.252  64.108   8.068  1.00  0.00     0.090 N 
HETATM   21  C12 UNL     1      20.631  64.366   9.327  1.00  0.00     0.272 C 
HETATM   22  C13 UNL     1      21.487  64.015  10.523  1.00  0.00     0.030 C 
HETATM   23  C14 UNL     1      22.369  65.160  10.937  1.00  0.00     0.002 C 
HETATM   24  C15 UNL     1      23.783  64.739  11.245  1.00  0.00     0.000 C 
HETATM   25  C16 UNL     1      24.479  64.096  10.080  1.00  0.00     0.000 C 
HETATM   26  C17 UNL     1      24.647  65.013   8.908  1.00  0.00     0.000 C 
HETATM   27  C18 UNL     1      23.866  64.553   7.695  1.00  0.00     0.002 C 
HETATM   28  C19 UNL     1      22.954  65.639   7.183  1.00  0.00     0.030 C 
HETATM   29  C20 UNL     1      21.489  65.242   7.237  1.00  0.00     0.272 C 
ENDBRANCH  19  20
ENDBRANCH  18  19
ENDBRANCH  17  18
ENDBRANCH   1  17
TORSDOF 5
ENDMDL
MODEL 2
REMARK VINA RESULT: -6.869737232      1.067      1.466
REMARK  5 active torsions:
REMARK  status: ('A' for Active; 'I' for Inactive)
REMARK    1  A    between atoms: C9_10  and  N1_11 
REMARK    2  A    between atoms: N1_11  and  O1_13 
REMARK    3  A    between atoms: O1_13  and  C10_14 
REMARK    4  A    between atoms: C10_14  and  C11_15 
REMARK    5  A    between atoms: C11_15  and  N2_16 
ROOT
HETATM    1  N1  UNL     1      22.616  61.151   9.277  1.00  0.00    -0.270 N 
ATOM      2  H1  UNL     1      23.561  61.513   9.149  1.00  0.00     0.194 HD
ENDROOT
BRANCH   1   3
HETATM    3  C9  UNL     1      22.152  61.069  10.457  1.00  0.00     0.046 C 
HETATM    4  C8  UNL     1      22.896  61.165  11.656  1.00  0.00     0.002 C 
HETATM    5  C7  UNL     1      24.235  61.431  12.045  1.00  0.00     0.029 C 
HETATM    6  C6  UNL     1      24.284  61.758  13.544  1.00  0.00     0.004 C 
HETATM    7  C5  UNL     1      22.980  61.851  14.200  1.00  0.00     0.000 C 
HETATM    8  C4  UNL     1      22.704  61.552  15.612  1.00  0.00     0.000 C 
HETATM    9  C3  UNL     1      21.368  60.790  15.768  1.00  0.00     0.003 C 
HETATM   10  C2  UNL     1      20.173  61.344  15.196  1.00  0.00     0.042 C 
HETATM   11  C1  UNL     1      19.777  61.484  13.818  1.00  0.00     0.208 C 
HETATM   12  F1  UNL     1      18.505  62.135  13.921  1.00  0.00    -0.244 F 
HETATM   13  C22 UNL     1      19.526  60.373  12.885  1.00  0.00     0.092 C 
HETATM   14  N3  UNL     1      20.423  60.046  11.866  1.00  0.00    -0.394 N 
HETATM   15  C21 UNL     1      20.648  60.842  10.716  1.00  0.00     0.177 C 
ATOM     16  H3  UNL     1      20.950  59.178  11.955  1.00  0.00     0.159 HD
ENDBRANCH   1   3
BRANCH   1  17
HETATM   17  O1  UNL     1      21.912  60.781   8.182  1.00  0.00    -0.279 OA
BRANCH  17  18
HETATM   18  C10 UNL     1      21.936  61.473   6.949  1.00  0.00     0.231 C 
BRANCH  18  19
HETATM   19  C11 UNL     1      21.003  62.651   6.956  1.00  0.00     0.301 C 
BRANCH  19  20
HETATM   20  N2  UNL     1      21.697  63.893   7.107  1.00  0.00     0.090 N 
HETATM   21  C12 UNL     1      21.728  64.426   8.430  1.00  0.00     0.272 C 
HETATM   22  C13 UNL     1      23.098  64.415   9.072  1.00  0.00     0.030 C 
HETATM   23  C14 UNL     1      23.876  65.662   8.755  1.00  0.00     0.002 C 
HETATM   24  C15 UNL     1      25.309  65.388   8.380  1.00  0.00     0.000 C 
HETATM   25  C16 UNL     1      25.450  64.508   7.171  1.00  0.00     0.000 C 
HETATM   26  C17 UNL     1      24.885  65.115   5.924  1.00  0.00     0.000 C 
HETATM   27  C18 UNL     1      23.701  64.340   5.387  1.00  0.00     0.002 C 
HETATM   28  C19 UNL     1      22.495  65.229   5.209  1.00  0.00     0.030 C 
HETATM   29  C20 UNL     1      21.322  64.797   6.071  1.00  0.00     0.272 C 
ENDBRANCH  19  20
ENDBRANCH  18  19
ENDBRANCH  17  18
ENDBRANCH   1  17
TORSDOF 5
ENDMDL
MODEL 3
REMARK VINA RESULT: -6.861137896      2.488      4.630
REMARK  5 active torsions:
REMARK  status: ('A' for Active; 'I' for Inactive)
REMARK    1  A    between atoms: C9_10  and  N1_11 
REMARK    2  A    between atoms: N1_11  and  O1_13 
REMARK    3  A    between atoms: O1_13  and  C10_14 
REMARK    4  A    between atoms: C10_14  and  C11_15 
REMARK    5  A    between atoms: C11_15  and  N2_16 
ROOT
HETATM    1  N1  UNL     1      22.577  62.841  13.374  1.00  0.00    -0.270 N 
ATOM      2  H1  UNL     1      22.802  62.406  14.268  1.00  0.00     0.194 HD
ENDROOT
BRANCH   1   3
HETATM    3  C9  UNL     1      21.570  62.413  12.728  1.00  0.00     0.046 C 
HETATM    4  C8  UNL     1      20.589  63.208  12.089  1.00  0.00     0.002 C 
HETATM    5  C7  UNL     1      20.348  64.584  11.838  1.00  0.00     0.029 C 
HETATM    6  C6  UNL     1      19.277  64.734  10.750  1.00  0.00     0.004 C 
HETATM    7  C5  UNL     1      18.842  63.481  10.134  1.00  0.00     0.000 C 
HETATM    8  C4  UNL     1      17.513  63.218   9.564  1.00  0.00     0.000 C 
HETATM    9  C3  UNL     1      17.026  61.796   9.924  1.00  0.00     0.003 C 
HETATM   10  C2  UNL     1      17.863  60.669   9.619  1.00  0.00     0.042 C 
HETATM   11  C1  UNL     1      19.107  60.246  10.209  1.00  0.00     0.208 C 
HETATM   12  F1  UNL     1      19.439  59.081   9.443  1.00  0.00    -0.244 F 
HETATM   13  C22 UNL     1      19.285  59.808  11.603  1.00  0.00     0.092 C 
HETATM   14  N3  UNL     1      19.913  60.612  12.557  1.00  0.00    -0.394 N 
HETATM   15  C21 UNL     1      21.299  60.904  12.566  1.00  0.00     0.177 C 
ATOM     16  H3  UNL     1      19.336  61.016  13.295  1.00  0.00     0.159 HD
ENDBRANCH   1   3
BRANCH   1  17
HETATM   17  O1  UNL     1      23.365  63.847  12.927  1.00  0.00    -0.279 OA
BRANCH  17  18
HETATM   18  C10 UNL     1      24.235  63.743  11.817  1.00  0.00     0.231 C 
BRANCH  18  19
HETATM   19  C11 UNL     1      23.893  64.741  10.749  1.00  0.00     0.301 C 
BRANCH  19  20
HETATM   20  N2  UNL     1      23.714  64.127   9.468  1.00  0.00     0.090 N 
HETATM   21  C12 UNL     1      23.368  62.743   9.491  1.00  0.00     0.272 C 
HETATM   22  C13 UNL     1      21.961  62.448   9.021  1.00  0.00     0.030 C 
HETATM   23  C14 UNL     1      21.896  62.246   7.533  1.00  0.00     0.002 C 
HETATM   24  C15 UNL     1      20.736  62.957   6.888  1.00  0.00     0.000 C 
HETATM   25  C16 UNL     1      20.763  64.445   7.091  1.00  0.00     0.000 C 
HETATM   26  C17 UNL     1      21.953  65.108   6.470  1.00  0.00     0.000 C 
HETATM   27  C18 UNL     1      22.870  65.735   7.499  1.00  0.00     0.002 C 
HETATM   28  C19 UNL     1      24.285  65.233   7.353  1.00  0.00     0.030 C 
HETATM   29  C20 UNL     1      24.773  64.499   8.590  1.00  0.00     0.272 C 
ENDBRANCH  19  20
ENDBRANCH  18  19
ENDBRANCH  17  18
ENDBRANCH   1  17
TORSDOF 5
ENDMDL
MODEL 4
REMARK VINA RESULT: -6.738951679      2.016      3.382
REMARK  5 active torsions:
REMARK  status: ('A' for Active; 'I' for Inactive)
REMARK    1  A    between atoms: C9_10  and  N1_11 
REMARK    2  A    between atoms: N1_11  and  O1_13 
REMARK    3  A    between atoms: O1_13  and  C10_14 
REMARK    4  A    between atoms: C10_14  and  C11_15 
REMARK    5  A    between atoms: C11_15  and  N2_16 
ROOT
HETATM    1  N1  UNL     1      19.716  64.798  11.327  1.00  0.00    -0.270 N 
ATOM      2  H1  UNL     1      19.671  65.674  11.847  1.00  0.00     0.194 HD
ENDROOT
BRANCH   1   3
HETATM    3  C9  UNL     1      20.353  63.823  11.834  1.00  0.00     0.046 C 
HETATM    4  C8  UNL     1      21.760  63.704  11.933  1.00  0.00     0.002 C 
HETATM    5  C7  UNL     1      22.905  64.493  11.650  1.00  0.00     0.029 C 
HETATM    6  C6  UNL     1      24.131  63.900  12.356  1.00  0.00     0.004 C 
HETATM    7  C5  UNL     1      23.850  62.770  13.241  1.00  0.00     0.000 C 
HETATM    8  C4  UNL     1      24.773  61.669  13.551  1.00  0.00     0.000 C 
HETATM    9  C3  UNL     1      24.029  60.314  13.587  1.00  0.00     0.003 C 
HETATM   10  C2  UNL     1      22.876  60.169  14.429  1.00  0.00     0.042 C 
HETATM   11  C1  UNL     1      21.556  60.736  14.310  1.00  0.00     0.208 C 
HETATM   12  F1  UNL     1      20.891  60.232  15.475  1.00  0.00    -0.244 F 
HETATM   13  C22 UNL     1      20.606  60.462  13.219  1.00  0.00     0.092 C 
HETATM   14  N3  UNL     1      20.339  61.400  12.219  1.00  0.00    -0.394 N 
HETATM   15  C21 UNL     1      19.619  62.602  12.425  1.00  0.00     0.177 C 
ATOM     16  H3  UNL     1      20.684  61.206  11.279  1.00  0.00     0.159 HD
ENDBRANCH   1   3
BRANCH   1  17
HETATM   17  O1  UNL     1      19.095  64.726  10.126  1.00  0.00    -0.279 OA
BRANCH  17  18
HETATM   18  C10 UNL     1      19.613  64.041   9.002  1.00  0.00     0.231 C 
BRANCH  18  19
HETATM   19  C11 UNL     1      20.310  64.976   8.056  1.00  0.00     0.301 C 
BRANCH  19  20
HETATM   20  N2  UNL     1      21.393  64.344   7.366  1.00  0.00     0.090 N 
HETATM   21  C12 UNL     1      21.351  64.429   5.942  1.00  0.00     0.272 C 
HETATM   22  C13 UNL     1      22.432  65.299   5.341  1.00  0.00     0.030 C 
HETATM   23  C14 UNL     1      23.690  64.524   5.069  1.00  0.00     0.002 C 
HETATM   24  C15 UNL     1      24.939  65.250   5.496  1.00  0.00     0.000 C 
HETATM   25  C16 UNL     1      24.971  65.566   6.964  1.00  0.00     0.000 C 
HETATM   26  C17 UNL     1      24.975  64.347   7.834  1.00  0.00     0.000 C 
HETATM   27  C18 UNL     1      23.724  64.235   8.680  1.00  0.00     0.002 C 
HETATM   28  C19 UNL     1      23.041  62.905   8.478  1.00  0.00     0.030 C 
HETATM   29  C20 UNL     1      21.639  63.051   7.914  1.00  0.00     0.272 C 
ENDBRANCH  19  20
ENDBRANCH  18  19
ENDBRANCH  17  18
ENDBRANCH   1  17
TORSDOF 5
ENDMDL
MODEL 5
REMARK VINA RESULT: -6.714623152      2.431      6.480
REMARK  5 active torsions:
REMARK  status: ('A' for Active; 'I' for Inactive)
REMARK    1  A    between atoms: C9_10  and  N1_11 
REMARK    2  A    between atoms: N1_11  and  O1_13 
REMARK    3  A    between atoms: O1_13  and  C10_14 
REMARK    4  A    between atoms: C10_14  and  C11_15 
REMARK    5  A    between atoms: C11_15  and  N2_16 
ROOT
HETATM    1  N1  UNL     1      19.135  63.960  10.464  1.00  0.00    -0.270 N 
ATOM      2  H1  UNL     1      18.814  64.667  11.125  1.00  0.00     0.194 HD
ENDROOT
BRANCH   1   3
HETATM    3  C9  UNL     1      20.130  64.232   9.721  1.00  0.00     0.046 C 
HETATM    4  C8  UNL     1      21.436  64.555  10.160  1.00  0.00     0.002 C 
HETATM    5  C7  UNL     1      22.146  64.632  11.386  1.00  0.00     0.029 C 
HETATM    6  C6  UNL     1      23.655  64.679  11.111  1.00  0.00     0.004 C 
HETATM    7  C5  UNL     1      24.033  64.510   9.709  1.00  0.00     0.000 C 
HETATM    8  C4  UNL     1      25.226  65.077   9.065  1.00  0.00     0.000 C 
HETATM    9  C3  UNL     1      24.897  65.602   7.649  1.00  0.00     0.003 C 
HETATM   10  C2  UNL     1      24.266  64.723   6.704  1.00  0.00     0.042 C 
HETATM   11  C1  UNL     1      22.925  64.196   6.673  1.00  0.00     0.208 C 
HETATM   12  F1  UNL     1      22.940  63.369   5.503  1.00  0.00    -0.244 F 
HETATM   13  C22 UNL     1      21.697  64.993   6.522  1.00  0.00     0.092 C 
HETATM   14  N3  UNL     1      20.832  65.228   7.592  1.00  0.00    -0.394 N 
HETATM   15  C21 UNL     1      20.009  64.239   8.184  1.00  0.00     0.177 C 
ATOM     16  H3  UNL     1      20.789  66.174   7.972  1.00  0.00     0.159 HD
ENDBRANCH   1   3
BRANCH   1  17
HETATM   17  O1  UNL     1      18.483  62.775  10.416  1.00  0.00    -0.279 OA
BRANCH  17  18
HETATM   18  C10 UNL     1      18.957  61.582  11.010  1.00  0.00     0.231 C 
BRANCH  18  19
HETATM   19  C11 UNL     1      19.521  61.830  12.379  1.00  0.00     0.301 C 
BRANCH  19  20
HETATM   20  N2  UNL     1      20.715  61.078  12.620  1.00  0.00     0.090 N 
HETATM   21  C12 UNL     1      21.404  60.625  11.456  1.00  0.00     0.272 C 
HETATM   22  C13 UNL     1      22.741  61.296  11.227  1.00  0.00     0.030 C 
HETATM   23  C14 UNL     1      23.857  60.581  11.936  1.00  0.00     0.002 C 
HETATM   24  C15 UNL     1      24.802  61.513  12.647  1.00  0.00     0.000 C 
HETATM   25  C16 UNL     1      24.131  62.353  13.696  1.00  0.00     0.000 C 
HETATM   26  C17 UNL     1      23.545  61.549  14.815  1.00  0.00     0.000 C 
HETATM   27  C18 UNL     1      22.036  61.657  14.877  1.00  0.00     0.002 C 
HETATM   28  C19 UNL     1      21.386  60.296  14.848  1.00  0.00     0.030 C 
HETATM   29  C20 UNL     1      20.488  60.106  13.638  1.00  0.00     0.272 C 
ENDBRANCH  19  20
ENDBRANCH  18  19
ENDBRANCH  17  18
ENDBRANCH   1  17
TORSDOF 5
ENDMDL
