MODEL 1
REMARK VINA RESULT: -11.822990209      0.000      0.000
REMARK  3 active torsions:
REMARK  status: ('A' for Active; 'I' for Inactive)
REMARK    1  A    between atoms: S1_2  and  N1_4 
REMARK    2  A    between atoms: S1_2  and  C14_21 
REMARK    3  A    between atoms: N1_4  and  C1_6 
ROOT
HETATM    1  N1  UNL     1       4.868 -11.094 -23.268  1.00  0.00    -0.280 N 
ATOM      2  H1  UNL     1       4.695 -11.774 -22.528  1.00  0.00     0.179 HD
ENDROOT
BRANCH   1   3
HETATM    3  S1  UNL     1       3.480 -10.380 -23.943  1.00  0.00     0.265 S 
HETATM    4  O1  UNL     1       3.739  -9.900 -25.349  1.00  0.00    -0.200 OA
HETATM    5  O2  UNL     1       3.150  -9.115 -23.127  1.00  0.00    -0.200 OA
BRANCH   3   6
HETATM    6  C14 UNL     1       2.061 -11.382 -23.891  1.00  0.00     0.107 A 
HETATM    7  C15 UNL     1       1.929 -12.460 -23.048  1.00  0.00     0.028 A 
HETATM    8  C16 UNL     1       0.771 -13.234 -23.028  1.00  0.00     0.003 A 
HETATM    9  C17 UNL     1      -0.280 -12.933 -23.865  1.00  0.00     0.014 A 
HETATM   10  C18 UNL     1      -0.166 -11.872 -24.704  1.00  0.00    -0.008 A 
HETATM   11  C19 UNL     1      -1.228 -11.580 -25.540  1.00  0.00     0.015 A 
HETATM   12  C22 UNL     1       0.991 -11.100 -24.722  1.00  0.00     0.066 A 
HETATM   13  C20 UNL     1      -1.068 -10.495 -26.373  1.00  0.00     0.018 A 
HETATM   14  C21 UNL     1       0.089  -9.742 -26.376  1.00  0.00     0.088 A 
HETATM   15  N3  UNL     1       1.092 -10.053 -25.557  1.00  0.00    -0.364 N 
ATOM     16  H3  UNL     1       1.944  -9.492 -25.564  1.00  0.00     0.165 HD
ENDBRANCH   3   6
ENDBRANCH   1   3
BRANCH   1  17
HETATM   17  C1  UNL     1       6.080 -10.901 -23.553  1.00  0.00     0.057 A 
HETATM   18  C2  UNL     1       6.670  -9.716 -23.108  1.00  0.00     0.048 A 
HETATM   19  C3  UNL     1       7.977  -9.439 -23.366  1.00  0.00     0.090 A 
HETATM   20  N2  UNL     1       8.700 -10.320 -24.055  1.00  0.00    -0.365 N 
HETATM   21  C4  UNL     1       8.206 -11.472 -24.512  1.00  0.00     0.045 A 
ATOM     22  H2  UNL     1       9.679 -10.103 -24.243  1.00  0.00     0.165 HD
HETATM   23  C5  UNL     1       9.007 -12.345 -25.221  1.00  0.00     0.031 A 
HETATM   24  C13 UNL     1       6.849 -11.781 -24.256  1.00  0.00     0.029 A 
HETATM   25  C6  UNL     1       8.483 -13.521 -25.682  1.00  0.00     0.014 A 
HETATM   26  C7  UNL     1       7.162 -13.846 -25.446  1.00  0.00    -0.025 A 
HETATM   27  C8  UNL     1       6.650 -15.038 -25.919  1.00  0.00     0.012 A 
HETATM   28  C12 UNL     1       6.316 -12.981 -24.727  1.00  0.00    -0.011 A 
HETATM   29  C9  UNL     1       5.341 -15.385 -25.700  1.00  0.00     0.001 A 
HETATM   30  C10 UNL     1       4.527 -14.528 -24.994  1.00  0.00     0.001 A 
HETATM   31  C11 UNL     1       5.016 -13.309 -24.500  1.00  0.00     0.013 A 
ENDBRANCH   1  17
TORSDOF 3
ENDMDL
MODEL 2
REMARK VINA RESULT: -11.373606703      0.900      1.076
REMARK  3 active torsions:
REMARK  status: ('A' for Active; 'I' for Inactive)
REMARK    1  A    between atoms: S1_2  and  N1_4 
REMARK    2  A    between atoms: S1_2  and  C14_21 
REMARK    3  A    between atoms: N1_4  and  C1_6 
ROOT
HETATM    1  N1  UNL     1       4.273 -10.487 -23.499  1.00  0.00    -0.280 N 
ATOM      2  H1  UNL     1       3.998 -11.250 -22.880  1.00  0.00     0.179 HD
ENDROOT
BRANCH   1   3
HETATM    3  S1  UNL     1       2.991  -9.633 -24.220  1.00  0.00     0.265 S 
HETATM    4  O1  UNL     1       3.444  -8.910 -25.463  1.00  0.00    -0.200 OA
HETATM    5  O2  UNL     1       2.541  -8.533 -23.240  1.00  0.00    -0.200 OA
BRANCH   3   6
HETATM    6  C14 UNL     1       1.586 -10.599 -24.554  1.00  0.00     0.107 A 
HETATM    7  C15 UNL     1       1.186 -11.650 -23.762  1.00  0.00     0.028 A 
HETATM    8  C16 UNL     1       0.047 -12.395 -24.058  1.00  0.00     0.003 A 
HETATM    9  C17 UNL     1      -0.714 -12.092 -25.164  1.00  0.00     0.014 A 
HETATM   10  C18 UNL     1      -0.334 -11.056 -25.956  1.00  0.00    -0.008 A 
HETATM   11  C19 UNL     1      -1.107 -10.761 -27.064  1.00  0.00     0.015 A 
HETATM   12  C22 UNL     1       0.804 -10.313 -25.660  1.00  0.00     0.066 A 
HETATM   13  C20 UNL     1      -0.683  -9.703 -27.838  1.00  0.00     0.018 A 
HETATM   14  C21 UNL     1       0.449  -8.978 -27.527  1.00  0.00     0.088 A 
HETATM   15  N3  UNL     1       1.170  -9.292 -26.451  1.00  0.00    -0.364 N 
ATOM     16  H3  UNL     1       2.005  -8.752 -26.227  1.00  0.00     0.165 HD
ENDBRANCH   3   6
ENDBRANCH   1   3
BRANCH   1  17
HETATM   17  C1  UNL     1       5.514 -10.310 -23.621  1.00  0.00     0.057 A 
HETATM   18  C2  UNL     1       6.032  -9.067 -23.250  1.00  0.00     0.048 A 
HETATM   19  C3  UNL     1       7.363  -8.802 -23.341  1.00  0.00     0.090 A 
HETATM   20  N2  UNL     1       8.181  -9.750 -23.795  1.00  0.00    -0.365 N 
HETATM   21  C4  UNL     1       7.761 -10.960 -24.168  1.00  0.00     0.045 A 
ATOM     22  H2  UNL     1       9.177  -9.541 -23.860  1.00  0.00     0.165 HD
HETATM   23  C5  UNL     1       8.658 -11.902 -24.630  1.00  0.00     0.031 A 
HETATM   24  C13 UNL     1       6.379 -11.258 -24.081  1.00  0.00     0.029 A 
HETATM   25  C6  UNL     1       8.208 -13.137 -25.009  1.00  0.00     0.014 A 
HETATM   26  C7  UNL     1       6.867 -13.452 -24.934  1.00  0.00    -0.025 A 
HETATM   27  C8  UNL     1       6.431 -14.705 -25.321  1.00  0.00     0.012 A 
HETATM   28  C12 UNL     1       5.923 -12.518 -24.467  1.00  0.00    -0.011 A 
HETATM   29  C9  UNL     1       5.103 -15.045 -25.257  1.00  0.00     0.001 A 
HETATM   30  C10 UNL     1       4.192 -14.119 -24.799  1.00  0.00     0.001 A 
HETATM   31  C11 UNL     1       4.602 -12.838 -24.398  1.00  0.00     0.013 A 
ENDBRANCH   1  17
TORSDOF 3
ENDMDL
MODEL 3
REMARK VINA RESULT: -11.032495682      1.660      2.910
REMARK  3 active torsions:
REMARK  status: ('A' for Active; 'I' for Inactive)
REMARK    1  A    between atoms: S1_2  and  N1_4 
REMARK    2  A    between atoms: S1_2  and  C14_21 
REMARK    3  A    between atoms: N1_4  and  C1_6 
ROOT
HETATM    1  N1  UNL     1       3.995  -9.231 -23.957  1.00  0.00    -0.280 N 
ATOM      2  H1  UNL     1       3.555 -10.125 -23.740  1.00  0.00     0.179 HD
ENDROOT
BRANCH   1   3
HETATM    3  S1  UNL     1       2.927  -7.973 -24.369  1.00  0.00     0.265 S 
HETATM    4  O1  UNL     1       3.651  -6.656 -24.489  1.00  0.00    -0.200 OA
HETATM    5  O2  UNL     1       1.930  -7.795 -23.208  1.00  0.00    -0.200 OA
BRANCH   3   6
HETATM    6  C14 UNL     1       1.975  -8.279 -25.791  1.00  0.00     0.107 A 
HETATM    7  C15 UNL     1       2.093  -7.547 -26.949  1.00  0.00     0.028 A 
HETATM    8  C16 UNL     1       1.319  -7.830 -28.072  1.00  0.00     0.003 A 
HETATM    9  C17 UNL     1       0.407  -8.860 -28.047  1.00  0.00     0.014 A 
HETATM   10  C18 UNL     1       0.278  -9.593 -26.911  1.00  0.00    -0.008 A 
HETATM   11  C19 UNL     1      -0.641 -10.626 -26.897  1.00  0.00     0.015 A 
HETATM   12  C22 UNL     1       1.052  -9.310 -25.790  1.00  0.00     0.066 A 
HETATM   13  C20 UNL     1      -0.737 -11.341 -25.724  1.00  0.00     0.018 A 
HETATM   14  C21 UNL     1       0.040 -11.044 -24.622  1.00  0.00     0.088 A 
HETATM   15  N3  UNL     1       0.916 -10.041 -24.672  1.00  0.00    -0.364 N 
ATOM     16  H3  UNL     1       1.487  -9.828 -23.855  1.00  0.00     0.165 HD
ENDBRANCH   3   6
ENDBRANCH   1   3
BRANCH   1  17
HETATM   17  C1  UNL     1       5.252  -9.213 -23.881  1.00  0.00     0.057 A 
HETATM   18  C2  UNL     1       5.870  -7.984 -23.641  1.00  0.00     0.048 A 
HETATM   19  C3  UNL     1       7.223  -7.883 -23.534  1.00  0.00     0.090 A 
HETATM   20  N2  UNL     1       7.964  -8.983 -23.663  1.00  0.00    -0.365 N 
HETATM   21  C4  UNL     1       7.446 -10.190 -23.892  1.00  0.00     0.045 A 
ATOM     22  H2  UNL     1       8.977  -8.897 -23.581  1.00  0.00     0.165 HD
HETATM   23  C5  UNL     1       8.267 -11.293 -24.015  1.00  0.00     0.031 A 
HETATM   24  C13 UNL     1       6.040 -10.318 -24.007  1.00  0.00     0.029 A 
HETATM   25  C6  UNL     1       7.718 -12.523 -24.250  1.00  0.00     0.014 A 
HETATM   26  C7  UNL     1       6.351 -12.675 -24.366  1.00  0.00    -0.025 A 
HETATM   27  C8  UNL     1       5.814 -13.925 -24.604  1.00  0.00     0.012 A 
HETATM   28  C12 UNL     1       5.482 -11.573 -24.246  1.00  0.00    -0.011 A 
HETATM   29  C9  UNL     1       4.458 -14.104 -24.725  1.00  0.00     0.001 A 
HETATM   30  C10 UNL     1       3.622 -13.016 -24.605  1.00  0.00     0.001 A 
HETATM   31  C11 UNL     1       4.136 -11.733 -24.364  1.00  0.00     0.013 A 
ENDBRANCH   1  17
TORSDOF 3
ENDMDL
MODEL 4
REMARK VINA RESULT: -10.982003789      1.665      2.080
REMARK  3 active torsions:
REMARK  status: ('A' for Active; 'I' for Inactive)
REMARK    1  A    between atoms: S1_2  and  N1_4 
REMARK    2  A    between atoms: S1_2  and  C14_21 
REMARK    3  A    between atoms: N1_4  and  C1_6 
ROOT
HETATM    1  N1  UNL     1       5.648 -10.992 -23.304  1.00  0.00    -0.280 N 
ATOM      2  H1  UNL     1       5.211 -11.814 -22.886  1.00  0.00     0.179 HD
ENDROOT
BRANCH   1   3
HETATM    3  S1  UNL     1       4.673  -9.601 -23.371  1.00  0.00     0.265 S 
HETATM    4  O1  UNL     1       5.331  -8.508 -24.175  1.00  0.00    -0.200 OA
HETATM    5  O2  UNL     1       4.540  -9.043 -21.941  1.00  0.00    -0.200 OA
BRANCH   3   6
HETATM    6  C14 UNL     1       3.056  -9.887 -23.940  1.00  0.00     0.107 A 
HETATM    7  C15 UNL     1       2.458 -11.125 -23.924  1.00  0.00     0.028 A 
HETATM    8  C16 UNL     1       1.155 -11.312 -24.379  1.00  0.00     0.003 A 
HETATM    9  C17 UNL     1       0.428 -10.248 -24.863  1.00  0.00     0.014 A 
HETATM   10  C18 UNL     1       1.003  -9.018 -24.885  1.00  0.00    -0.008 A 
HETATM   11  C19 UNL     1       0.263  -7.957 -25.373  1.00  0.00     0.015 A 
HETATM   12  C22 UNL     1       2.304  -8.833 -24.430  1.00  0.00     0.066 A 
HETATM   13  C20 UNL     1       0.887  -6.730 -25.377  1.00  0.00     0.018 A 
HETATM   14  C21 UNL     1       2.179  -6.566 -24.921  1.00  0.00     0.088 A 
HETATM   15  N3  UNL     1       2.863  -7.612 -24.458  1.00  0.00    -0.364 N 
ATOM     16  H3  UNL     1       3.817  -7.484 -24.122  1.00  0.00     0.165 HD
ENDBRANCH   3   6
ENDBRANCH   1   3
BRANCH   1  17
HETATM   17  C1  UNL     1       6.835 -11.151 -23.696  1.00  0.00     0.057 A 
HETATM   18  C2  UNL     1       7.771 -10.178 -23.340  1.00  0.00     0.048 A 
HETATM   19  C3  UNL     1       9.075 -10.283 -23.716  1.00  0.00     0.090 A 
HETATM   20  N2  UNL     1       9.456 -11.336 -24.437  1.00  0.00    -0.365 N 
HETATM   21  C4  UNL     1       8.620 -12.305 -24.814  1.00  0.00     0.045 A 
ATOM     22  H2  UNL     1      10.436 -11.405 -24.714  1.00  0.00     0.165 HD
HETATM   23  C5  UNL     1       9.076 -13.372 -25.561  1.00  0.00     0.031 A 
HETATM   24  C13 UNL     1       7.259 -12.216 -24.434  1.00  0.00     0.029 A 
HETATM   25  C6  UNL     1       8.204 -14.356 -25.939  1.00  0.00     0.014 A 
HETATM   26  C7  UNL     1       6.873 -14.293 -25.581  1.00  0.00    -0.025 A 
HETATM   27  C8  UNL     1       6.006 -15.295 -25.972  1.00  0.00     0.012 A 
HETATM   28  C12 UNL     1       6.372 -13.220 -24.820  1.00  0.00    -0.011 A 
HETATM   29  C9  UNL     1       4.677 -15.257 -25.631  1.00  0.00     0.001 A 
HETATM   30  C10 UNL     1       4.203 -14.200 -24.887  1.00  0.00     0.001 A 
HETATM   31  C11 UNL     1       5.057 -13.166 -24.474  1.00  0.00     0.013 A 
ENDBRANCH   1  17
TORSDOF 3
ENDMDL
MODEL 5
REMARK VINA RESULT: -10.949457709      0.988      2.110
REMARK  3 active torsions:
REMARK  status: ('A' for Active; 'I' for Inactive)
REMARK    1  A    between atoms: S1_2  and  N1_4 
REMARK    2  A    between atoms: S1_2  and  C14_21 
REMARK    3  A    between atoms: N1_4  and  C1_6 
ROOT
HETATM    1  N1  UNL     1       4.123 -10.586 -24.117  1.00  0.00    -0.280 N 
ATOM      2  H1  UNL     1       3.817 -11.531 -23.885  1.00  0.00     0.179 HD
ENDROOT
BRANCH   1   3
HETATM    3  S1  UNL     1       2.880  -9.490 -24.500  1.00  0.00     0.265 S 
HETATM    4  O1  UNL     1       3.331  -8.488 -25.534  1.00  0.00    -0.200 OA
HETATM    5  O2  UNL     1       2.563  -8.668 -23.236  1.00  0.00    -0.200 OA
BRANCH   3   6
HETATM    6  C14 UNL     1       1.389 -10.239 -24.986  1.00  0.00     0.107 A 
HETATM    7  C15 UNL     1       0.620  -9.783 -26.031  1.00  0.00     0.028 A 
HETATM    8  C16 UNL     1      -0.565 -10.417 -26.396  1.00  0.00     0.003 A 
HETATM    9  C17 UNL     1      -0.998 -11.528 -25.710  1.00  0.00     0.014 A 
HETATM   10  C18 UNL     1      -0.251 -11.993 -24.676  1.00  0.00    -0.008 A 
HETATM   11  C19 UNL     1      -0.697 -13.110 -23.995  1.00  0.00     0.015 A 
HETATM   12  C22 UNL     1       0.932 -11.358 -24.312  1.00  0.00     0.066 A 
HETATM   13  C20 UNL     1       0.093 -13.544 -22.954  1.00  0.00     0.018 A 
HETATM   14  C21 UNL     1       1.264 -12.901 -22.608  1.00  0.00     0.088 A 
HETATM   15  N3  UNL     1       1.663 -11.826 -23.287  1.00  0.00    -0.364 N 
ATOM     16  H3  UNL     1       2.529 -11.356 -23.027  1.00  0.00     0.165 HD
ENDBRANCH   3   6
ENDBRANCH   1   3
BRANCH   1  17
HETATM   17  C1  UNL     1       5.367 -10.395 -24.080  1.00  0.00     0.057 A 
HETATM   18  C2  UNL     1       5.817  -9.108 -23.775  1.00  0.00     0.048 A 
HETATM   19  C3  UNL     1       7.146  -8.824 -23.704  1.00  0.00     0.090 A 
HETATM   20  N2  UNL     1       8.027  -9.797 -23.931  1.00  0.00    -0.365 N 
HETATM   21  C4  UNL     1       7.674 -11.048 -24.226  1.00  0.00     0.045 A 
ATOM     22  H2  UNL     1       9.021  -9.573 -23.876  1.00  0.00     0.165 HD
HETATM   23  C5  UNL     1       8.635 -12.013 -24.451  1.00  0.00     0.031 A 
HETATM   24  C13 UNL     1       6.296 -11.367 -24.306  1.00  0.00     0.029 A 
HETATM   25  C6  UNL     1       8.254 -13.291 -24.753  1.00  0.00     0.014 A 
HETATM   26  C7  UNL     1       6.917 -13.628 -24.837  1.00  0.00    -0.025 A 
HETATM   27  C8  UNL     1       6.551 -14.923 -25.144  1.00  0.00     0.012 A 
HETATM   28  C12 UNL     1       5.909 -12.670 -24.614  1.00  0.00    -0.011 A 
HETATM   29  C9  UNL     1       5.230 -15.285 -25.233  1.00  0.00     0.001 A 
HETATM   30  C10 UNL     1       4.256 -14.336 -25.013  1.00  0.00     0.001 A 
HETATM   31  C11 UNL     1       4.595 -13.011 -24.700  1.00  0.00     0.013 A 
ENDBRANCH   1  17
TORSDOF 3
ENDMDL
