MODEL 1
REMARK VINA RESULT: -8.598975782      0.000      0.000
REMARK  5 active torsions:
REMARK  status: ('A' for Active; 'I' for Inactive)
REMARK    1  A    between atoms: O1_2  and  C2_3 
REMARK    2  A    between atoms: C2_3  and  C3_4 
REMARK    3  A    between atoms: C6_9  and  N2_10 
REMARK    4  A    between atoms: N3_17  and  C13_18 
REMARK    5  A    between atoms: C13_18  and  C14_19 
ROOT
HETATM    1  N2  UNL     1      16.235  66.138  42.056  1.00  0.00    -0.217 N 
HETATM    2  C7  UNL     1      15.268  66.523  43.046  1.00  0.00     0.143 C 
HETATM    3  C8  UNL     1      15.610  66.281  44.448  1.00  0.00     0.052 C 
HETATM    4  C9  UNL     1      17.053  66.144  44.845  1.00  0.00     0.043 C 
HETATM    5  C10 UNL     1      17.159  67.051  46.086  1.00  0.00     0.033 C 
HETATM    6  C11 UNL     1      17.930  66.346  47.130  1.00  0.00     0.022 C 
HETATM    7  C12 UNL     1      18.070  64.971  46.633  1.00  0.00     0.123 C 
HETATM    8  N3  UNL     1      17.488  64.935  45.326  1.00  0.00    -0.378 N 
HETATM    9  C17 UNL     1      17.967  66.715  43.737  1.00  0.00     0.005 C 
HETATM   10  C18 UNL     1      19.397  66.298  43.925  1.00  0.00     0.040 C 
HETATM   11  C19 UNL     1      20.289  67.283  44.545  1.00  0.00    -0.030 C 
HETATM   12  C20 UNL     1      20.091  68.554  44.329  1.00  0.00    -0.031 C 
HETATM   13  C21 UNL     1      19.000  69.016  43.487  1.00  0.00     0.028 C 
HETATM   14  C22 UNL     1      17.775  68.159  43.468  1.00  0.00     0.018 C 
HETATM   15  C23 UNL     1      17.601  66.018  42.404  1.00  0.00     0.153 C 
ENDROOT
BRANCH   8  16
HETATM   16  C13 UNL     1      17.421  63.672  44.805  1.00  0.00     0.117 C 
BRANCH  16  17
HETATM   17  C14 UNL     1      17.028  62.506  45.641  1.00  0.00     0.064 A 
HETATM   18  C15 UNL     1      15.759  61.975  45.774  1.00  0.00     0.119 A 
HETATM   19  N4  UNL     1      15.816  60.959  46.629  1.00  0.00    -0.360 N 
HETATM   20  C16 UNL     1      17.085  60.828  47.043  1.00  0.00     0.180 A 
ATOM     21  H4  UNL     1      15.029  60.378  46.921  1.00  0.00     0.166 HD
HETATM   22  N5  UNL     1      17.802  61.769  46.437  1.00  0.00    -0.350 N 
ATOM     23  H5  UNL     1      18.804  61.908  46.563  1.00  0.00     0.166 HD
ENDBRANCH  16  17
ENDBRANCH   8  16
BRANCH   1  24
HETATM   24  C6  UNL     1      15.805  65.870  40.692  1.00  0.00     0.680 A 
HETATM   25  N1  UNL     1      14.890  64.939  40.444  1.00  0.00    -0.202 N 
HETATM   26  C5  UNL     1      14.491  64.688  39.198  1.00  0.00     0.108 A 
ATOM     27  H1  UNL     1      14.487  64.411  41.217  1.00  0.00     0.183 HD
HETATM   28  C4  UNL     1      15.034  65.402  38.156  1.00  0.00     0.045 A 
HETATM   29  C3  UNL     1      15.989  66.377  38.393  1.00  0.00     0.051 A 
HETATM   30  N6  UNL     1      16.332  66.563  39.677  1.00  0.00    -0.193 N 
ATOM     31  H6  UNL     1      17.033  67.273  39.891  1.00  0.00     0.184 HD
BRANCH  29  32
HETATM   32  C2  UNL     1      16.589  67.161  37.284  1.00  0.00     0.224 C 
BRANCH  32  33
HETATM   33  O1  UNL     1      17.423  66.392  36.509  1.00  0.00    -0.390 OA
HETATM   34  C1  UNL     1      18.729  66.451  36.963  1.00  0.00     0.201 C 
ENDBRANCH  32  33
ENDBRANCH  29  32
ENDBRANCH   1  24
TORSDOF 5
ENDMDL
MODEL 2
REMARK VINA RESULT: -8.504666177      2.278      4.208
REMARK  5 active torsions:
REMARK  status: ('A' for Active; 'I' for Inactive)
REMARK    1  A    between atoms: O1_2  and  C2_3 
REMARK    2  A    between atoms: C2_3  and  C3_4 
REMARK    3  A    between atoms: C6_9  and  N2_10 
REMARK    4  A    between atoms: N3_17  and  C13_18 
REMARK    5  A    between atoms: C13_18  and  C14_19 
ROOT
HETATM    1  N2  UNL     1      16.691  66.424  41.689  1.00  0.00    -0.217 N 
HETATM    2  C7  UNL     1      17.790  67.288  42.020  1.00  0.00     0.143 C 
HETATM    3  C8  UNL     1      17.995  67.602  43.435  1.00  0.00     0.052 C 
HETATM    4  C9  UNL     1      17.444  66.679  44.486  1.00  0.00     0.043 C 
HETATM    5  C10 UNL     1      18.630  66.507  45.452  1.00  0.00     0.033 C 
HETATM    6  C11 UNL     1      18.138  66.621  46.840  1.00  0.00     0.022 C 
HETATM    7  C12 UNL     1      16.753  67.093  46.712  1.00  0.00     0.123 C 
HETATM    8  N3  UNL     1      16.454  67.146  45.313  1.00  0.00    -0.378 N 
HETATM    9  C17 UNL     1      17.109  65.304  43.864  1.00  0.00     0.005 C 
HETATM   10  C18 UNL     1      16.251  64.476  44.776  1.00  0.00     0.040 C 
HETATM   11  C19 UNL     1      16.938  63.449  45.567  1.00  0.00    -0.030 C 
HETATM   12  C20 UNL     1      17.984  62.849  45.069  1.00  0.00    -0.031 C 
HETATM   13  C21 UNL     1      18.486  63.179  43.745  1.00  0.00     0.028 C 
HETATM   14  C22 UNL     1      18.275  64.589  43.295  1.00  0.00     0.018 C 
HETATM   15  C23 UNL     1      16.166  65.536  42.658  1.00  0.00     0.153 C 
ENDROOT
BRANCH   8  16
HETATM   16  C13 UNL     1      15.238  67.712  45.047  1.00  0.00     0.117 C 
BRANCH  16  17
HETATM   17  C14 UNL     1      14.506  68.504  46.073  1.00  0.00     0.064 A 
HETATM   18  C15 UNL     1      14.604  69.866  46.289  1.00  0.00     0.119 A 
HETATM   19  N4  UNL     1      13.816  70.186  47.310  1.00  0.00    -0.360 N 
HETATM   20  C16 UNL     1      13.219  69.069  47.748  1.00  0.00     0.180 A 
ATOM     21  H4  UNL     1      13.687  71.123  47.694  1.00  0.00     0.166 HD
HETATM   22  N5  UNL     1      13.647  68.063  46.990  1.00  0.00    -0.350 N 
ATOM     23  H5  UNL     1      13.358  67.091  47.096  1.00  0.00     0.166 HD
ENDBRANCH  16  17
ENDBRANCH   8  16
BRANCH   1  24
HETATM   24  C6  UNL     1      16.117  66.465  40.353  1.00  0.00     0.680 A 
HETATM   25  N1  UNL     1      14.912  65.953  40.120  1.00  0.00    -0.202 N 
HETATM   26  C5  UNL     1      14.380  65.986  38.899  1.00  0.00     0.108 A 
ATOM     27  H1  UNL     1      14.388  65.530  40.886  1.00  0.00     0.183 HD
HETATM   28  C4  UNL     1      15.087  66.558  37.868  1.00  0.00     0.045 A 
HETATM   29  C3  UNL     1      16.344  67.098  38.089  1.00  0.00     0.051 A 
HETATM   30  N6  UNL     1      16.802  67.020  39.349  1.00  0.00    -0.193 N 
ATOM     31  H6  UNL     1      17.725  67.406  39.550  1.00  0.00     0.184 HD
BRANCH  29  32
HETATM   32  C2  UNL     1      17.125  67.720  36.991  1.00  0.00     0.224 C 
BRANCH  32  33
HETATM   33  O1  UNL     1      18.477  67.564  37.175  1.00  0.00    -0.390 OA
HETATM   34  C1  UNL     1      18.908  66.330  36.721  1.00  0.00     0.201 C 
ENDBRANCH  32  33
ENDBRANCH  29  32
ENDBRANCH   1  24
TORSDOF 5
ENDMDL
MODEL 3
REMARK VINA RESULT: -8.163052083      4.068      7.241
REMARK  5 active torsions:
REMARK  status: ('A' for Active; 'I' for Inactive)
REMARK    1  A    between atoms: O1_2  and  C2_3 
REMARK    2  A    between atoms: C2_3  and  C3_4 
REMARK    3  A    between atoms: C6_9  and  N2_10 
REMARK    4  A    between atoms: N3_17  and  C13_18 
REMARK    5  A    between atoms: C13_18  and  C14_19 
ROOT
HETATM    1  N2  UNL     1      18.755  68.767  45.889  1.00  0.00    -0.217 N 
HETATM    2  C7  UNL     1      18.618  67.561  46.657  1.00  0.00     0.143 C 
HETATM    3  C8  UNL     1      17.520  66.660  46.304  1.00  0.00     0.052 C 
HETATM    4  C9  UNL     1      16.924  66.725  44.926  1.00  0.00     0.043 C 
HETATM    5  C10 UNL     1      16.855  65.244  44.509  1.00  0.00     0.033 C 
HETATM    6  C11 UNL     1      15.541  64.982  43.887  1.00  0.00     0.022 C 
HETATM    7  C12 UNL     1      14.753  66.194  44.144  1.00  0.00     0.123 C 
HETATM    8  N3  UNL     1      15.619  67.129  44.795  1.00  0.00    -0.378 N 
HETATM    9  C17 UNL     1      17.882  67.465  43.965  1.00  0.00     0.005 C 
HETATM   10  C18 UNL     1      17.197  67.852  42.686  1.00  0.00     0.040 C 
HETATM   11  C19 UNL     1      17.431  66.981  41.530  1.00  0.00    -0.030 C 
HETATM   12  C20 UNL     1      18.582  66.381  41.400  1.00  0.00    -0.031 C 
HETATM   13  C21 UNL     1      19.640  66.556  42.381  1.00  0.00     0.028 C 
HETATM   14  C22 UNL     1      19.198  66.808  43.787  1.00  0.00     0.018 C 
HETATM   15  C23 UNL     1      18.215  68.844  44.584  1.00  0.00     0.153 C 
ENDROOT
BRANCH   8  16
HETATM   16  C13 UNL     1      14.968  68.253  45.225  1.00  0.00     0.117 C 
BRANCH  16  17
HETATM   17  C14 UNL     1      14.486  68.384  46.627  1.00  0.00     0.064 A 
HETATM   18  C15 UNL     1      15.249  68.697  47.736  1.00  0.00     0.119 A 
HETATM   19  N4  UNL     1      14.458  68.692  48.804  1.00  0.00    -0.360 N 
HETATM   20  C16 UNL     1      13.215  68.386  48.406  1.00  0.00     0.180 A 
ATOM     21  H4  UNL     1      14.748  68.887  49.763  1.00  0.00     0.166 HD
HETATM   22  N5  UNL     1      13.251  68.204  47.089  1.00  0.00    -0.350 N 
ATOM     23  H5  UNL     1      12.445  67.960  46.514  1.00  0.00     0.166 HD
ENDBRANCH  16  17
ENDBRANCH   8  16
BRANCH   1  24
HETATM   24  C6  UNL     1      19.450  69.911  46.458  1.00  0.00     0.680 A 
HETATM   25  N1  UNL     1      20.209  69.770  47.540  1.00  0.00    -0.202 N 
HETATM   26  C5  UNL     1      20.848  70.813  48.067  1.00  0.00     0.108 A 
ATOM     27  H1  UNL     1      20.304  68.850  47.971  1.00  0.00     0.183 HD
HETATM   28  C4  UNL     1      20.722  72.050  47.484  1.00  0.00     0.045 A 
HETATM   29  C3  UNL     1      19.935  72.220  46.355  1.00  0.00     0.051 A 
HETATM   30  N6  UNL     1      19.328  71.116  45.892  1.00  0.00    -0.193 N 
ATOM     31  H6  UNL     1      18.740  71.202  45.063  1.00  0.00     0.184 HD
BRANCH  29  32
HETATM   32  C2  UNL     1      19.783  73.547  45.708  1.00  0.00     0.224 C 
BRANCH  32  33
HETATM   33  O1  UNL     1      18.487  73.779  45.316  1.00  0.00    -0.390 OA
HETATM   34  C1  UNL     1      17.740  74.324  46.345  1.00  0.00     0.201 C 
ENDBRANCH  32  33
ENDBRANCH  29  32
ENDBRANCH   1  24
TORSDOF 5
ENDMDL
MODEL 4
REMARK VINA RESULT: -7.978882657      2.409      4.558
REMARK  5 active torsions:
REMARK  status: ('A' for Active; 'I' for Inactive)
REMARK    1  A    between atoms: O1_2  and  C2_3 
REMARK    2  A    between atoms: C2_3  and  C3_4 
REMARK    3  A    between atoms: C6_9  and  N2_10 
REMARK    4  A    between atoms: N3_17  and  C13_18 
REMARK    5  A    between atoms: C13_18  and  C14_19 
ROOT
HETATM    1  N2  UNL     1      17.712  66.836  41.804  1.00  0.00    -0.217 N 
HETATM    2  C7  UNL     1      18.814  67.474  42.468  1.00  0.00     0.143 C 
HETATM    3  C8  UNL     1      18.743  67.590  43.926  1.00  0.00     0.052 C 
HETATM    4  C9  UNL     1      17.861  66.652  44.701  1.00  0.00     0.043 C 
HETATM    5  C10 UNL     1      18.774  66.189  45.851  1.00  0.00     0.033 C 
HETATM    6  C11 UNL     1      18.009  66.221  47.114  1.00  0.00     0.022 C 
HETATM    7  C12 UNL     1      16.758  66.915  46.780  1.00  0.00     0.123 C 
HETATM    8  N3  UNL     1      16.782  67.172  45.372  1.00  0.00    -0.378 N 
HETATM    9  C17 UNL     1      17.496  65.426  43.834  1.00  0.00     0.005 C 
HETATM   10  C18 UNL     1      16.359  64.644  44.428  1.00  0.00     0.040 C 
HETATM   11  C19 UNL     1      16.718  63.440  45.184  1.00  0.00    -0.030 C 
HETATM   12  C20 UNL     1      17.762  62.744  44.825  1.00  0.00    -0.031 C 
HETATM   13  C21 UNL     1      18.580  63.139  43.690  1.00  0.00     0.028 C 
HETATM   14  C22 UNL     1      18.656  64.606  43.413  1.00  0.00     0.018 C 
HETATM   15  C23 UNL     1      16.878  65.938  42.510  1.00  0.00     0.153 C 
ENDROOT
BRANCH   8  16
HETATM   16  C13 UNL     1      15.737  67.947  44.951  1.00  0.00     0.117 C 
BRANCH  16  17
HETATM   17  C14 UNL     1      14.847  68.645  45.919  1.00  0.00     0.064 A 
HETATM   18  C15 UNL     1      15.081  69.865  46.525  1.00  0.00     0.119 A 
HETATM   19  N4  UNL     1      14.066  70.130  47.340  1.00  0.00    -0.360 N 
HETATM   20  C16 UNL     1      13.193  69.116  47.269  1.00  0.00     0.180 A 
ATOM     21  H4  UNL     1      13.968  70.964  47.921  1.00  0.00     0.166 HD
HETATM   22  N5  UNL     1      13.680  68.228  46.407  1.00  0.00    -0.350 N 
ATOM     23  H5  UNL     1      13.224  67.352  46.155  1.00  0.00     0.166 HD
ENDBRANCH  16  17
ENDBRANCH   8  16
BRANCH   1  24
HETATM   24  C6  UNL     1      17.455  67.117  40.400  1.00  0.00     0.680 A 
HETATM   25  N1  UNL     1      18.352  67.769  39.667  1.00  0.00    -0.202 N 
HETATM   26  C5  UNL     1      18.123  68.031  38.381  1.00  0.00     0.108 A 
ATOM     27  H1  UNL     1      19.226  68.072  40.094  1.00  0.00     0.183 HD
HETATM   28  C4  UNL     1      16.945  67.619  37.805  1.00  0.00     0.045 A 
HETATM   29  C3  UNL     1      15.996  66.938  38.551  1.00  0.00     0.051 A 
HETATM   30  N6  UNL     1      16.309  66.718  39.838  1.00  0.00    -0.193 N 
ATOM     31  H6  UNL     1      15.635  66.220  40.418  1.00  0.00     0.184 HD
BRANCH  29  32
HETATM   32  C2  UNL     1      14.717  66.485  37.950  1.00  0.00     0.224 C 
BRANCH  32  33
HETATM   33  O1  UNL     1      14.476  65.157  38.205  1.00  0.00    -0.390 OA
HETATM   34  C1  UNL     1      15.435  64.350  37.618  1.00  0.00     0.201 C 
ENDBRANCH  32  33
ENDBRANCH  29  32
ENDBRANCH   1  24
TORSDOF 5
ENDMDL
MODEL 5
REMARK VINA RESULT: -7.907121532      4.478      7.608
REMARK  5 active torsions:
REMARK  status: ('A' for Active; 'I' for Inactive)
REMARK    1  A    between atoms: O1_2  and  C2_3 
REMARK    2  A    between atoms: C2_3  and  C3_4 
REMARK    3  A    between atoms: C6_9  and  N2_10 
REMARK    4  A    between atoms: N3_17  and  C13_18 
REMARK    5  A    between atoms: C13_18  and  C14_19 
ROOT
HETATM    1  N2  UNL     1      18.121  69.226  46.226  1.00  0.00    -0.217 N 
HETATM    2  C7  UNL     1      17.953  68.094  47.095  1.00  0.00     0.143 C 
HETATM    3  C8  UNL     1      17.062  67.025  46.640  1.00  0.00     0.052 C 
HETATM    4  C9  UNL     1      16.777  66.873  45.172  1.00  0.00     0.043 C 
HETATM    5  C10 UNL     1      16.962  65.363  44.937  1.00  0.00     0.033 C 
HETATM    6  C11 UNL     1      15.852  64.868  44.097  1.00  0.00     0.022 C 
HETATM    7  C12 UNL     1      14.899  65.985  44.036  1.00  0.00     0.123 C 
HETATM    8  N3  UNL     1      15.496  67.086  44.728  1.00  0.00    -0.378 N 
HETATM    9  C17 UNL     1      17.835  67.636  44.343  1.00  0.00     0.005 C 
HETATM   10  C18 UNL     1      17.407  67.801  42.913  1.00  0.00     0.040 C 
HETATM   11  C19 UNL     1      17.981  66.859  41.946  1.00  0.00    -0.030 C 
HETATM   12  C20 UNL     1      19.190  66.407  42.130  1.00  0.00    -0.031 C 
HETATM   13  C21 UNL     1      19.984  66.817  43.277  1.00  0.00     0.028 C 
HETATM   14  C22 UNL     1      19.222  67.145  44.520  1.00  0.00     0.018 C 
HETATM   15  C23 UNL     1      17.873  69.102  44.839  1.00  0.00     0.153 C 
ENDROOT
BRANCH   8  16
HETATM   16  C13 UNL     1      14.649  68.150  44.873  1.00  0.00     0.117 C 
BRANCH  16  17
HETATM   17  C14 UNL     1      14.180  68.595  46.214  1.00  0.00     0.064 A 
HETATM   18  C15 UNL     1      14.420  69.820  46.808  1.00  0.00     0.119 A 
HETATM   19  N4  UNL     1      13.858  69.819  48.012  1.00  0.00    -0.360 N 
HETATM   20  C16 UNL     1      13.267  68.630  48.201  1.00  0.00     0.180 A 
ATOM     21  H4  UNL     1      13.874  70.591  48.679  1.00  0.00     0.166 HD
HETATM   22  N5  UNL     1      13.472  67.904  47.105  1.00  0.00    -0.350 N 
ATOM     23  H5  UNL     1      13.133  66.952  46.967  1.00  0.00     0.166 HD
ENDBRANCH  16  17
ENDBRANCH   8  16
BRANCH   1  24
HETATM   24  C6  UNL     1      18.547  70.502  46.778  1.00  0.00     0.680 A 
HETATM   25  N1  UNL     1      17.687  71.510  46.888  1.00  0.00    -0.202 N 
HETATM   26  C5  UNL     1      18.070  72.683  47.392  1.00  0.00     0.108 A 
ATOM     27  H1  UNL     1      16.722  71.385  46.583  1.00  0.00     0.183 HD
HETATM   28  C4  UNL     1      19.370  72.851  47.804  1.00  0.00     0.045 A 
HETATM   29  C3  UNL     1      20.282  71.813  47.699  1.00  0.00     0.051 A 
HETATM   30  N6  UNL     1      19.811  70.668  47.180  1.00  0.00    -0.193 N 
ATOM     31  H6  UNL     1      20.454  69.881  47.086  1.00  0.00     0.184 HD
BRANCH  29  32
HETATM   32  C2  UNL     1      21.691  71.971  48.137  1.00  0.00     0.224 C 
BRANCH  32  33
HETATM   33  O1  UNL     1      22.495  72.421  47.118  1.00  0.00    -0.390 OA
HETATM   34  C1  UNL     1      23.272  73.493  47.525  1.00  0.00     0.201 C 
ENDBRANCH  32  33
ENDBRANCH  29  32
ENDBRANCH   1  24
TORSDOF 5
ENDMDL
