MODEL 1
REMARK VINA RESULT: -9.628081618      0.000      0.000
REMARK  5 active torsions:
REMARK  status: ('A' for Active; 'I' for Inactive)
REMARK    1  A    between atoms: N2_6  and  C5_7 
REMARK    2  A    between atoms: C5_7  and  C6_8 
REMARK    3  A    between atoms: C6_8  and  N3_9 
REMARK       I    between atoms: N3_9  and  C7_11 
REMARK    4  A    between atoms: C7_11  and  C8_13 
REMARK    5  A    between atoms: C11_18  and  N5_19 
ROOT
HETATM    1  N1  UNL     1      15.475  64.653  37.881  1.00  0.00    -0.197 NA
HETATM    2  C1  UNL     1      15.752  65.679  38.348  1.00  0.00     0.065 C 
HETATM    3  C2  UNL     1      16.123  66.975  38.924  1.00  0.00     0.122 C 
HETATM    4  C3  UNL     1      17.274  67.599  38.203  1.00  0.00     0.051 C 
HETATM    5  C4  UNL     1      18.448  67.608  39.168  1.00  0.00     0.273 C 
HETATM    6  N2  UNL     1      18.070  66.792  40.256  1.00  0.00     0.091 N 
HETATM    7  C22 UNL     1      16.633  66.755  40.332  1.00  0.00     0.291 C 
ENDROOT
BRANCH   6   8
HETATM    8  C5  UNL     1      18.742  66.948  41.486  1.00  0.00     0.292 C 
BRANCH   8   9
HETATM    9  C6  UNL     1      18.032  66.449  42.688  1.00  0.00     0.153 C 
BRANCH   9  10
HETATM   10  N3  UNL     1      17.839  67.408  43.743  1.00  0.00    -0.354 N 
HETATM   11  C7  UNL     1      18.827  67.730  44.700  1.00  0.00     0.268 C 
HETATM   12  O1  UNL     1      19.935  67.174  44.669  1.00  0.00    -0.266 OA
ATOM     13  H3  UNL     1      16.938  67.883  43.804  1.00  0.00     0.162 HD
BRANCH  11  14
HETATM   14  C8  UNL     1      18.538  68.728  45.742  1.00  0.00     0.118 A 
HETATM   15  C9  UNL     1      17.328  68.668  46.397  1.00  0.00     0.053 A 
HETATM   16  C10 UNL     1      17.065  69.605  47.373  1.00  0.00     0.108 A 
HETATM   17  N4  UNL     1      17.997  70.539  47.650  1.00  0.00    -0.202 N 
HETATM   18  C11 UNL     1      19.181  70.606  47.017  1.00  0.00     0.680 A 
ATOM     19  H4  UNL     1      17.794  71.228  48.374  1.00  0.00     0.183 HD
HETATM   20  N6  UNL     1      19.425  69.685  46.065  1.00  0.00    -0.186 N 
ATOM     21  H6  UNL     1      20.317  69.715  45.571  1.00  0.00     0.184 HD
BRANCH  18  22
HETATM   22  N5  UNL     1      20.151  71.605  47.331  1.00  0.00    -0.218 N 
HETATM   23  C12 UNL     1      20.322  72.097  48.683  1.00  0.00     0.142 C 
HETATM   24  C13 UNL     1      21.827  72.359  48.828  1.00  0.00     0.030 C 
HETATM   25  C14 UNL     1      22.192  73.562  48.024  1.00  0.00    -0.037 C 
HETATM   26  C15 UNL     1      21.966  74.857  48.760  1.00  0.00     0.010 C 
HETATM   27  C19 UNL     1      23.649  73.473  47.631  1.00  0.00     0.010 C 
HETATM   28  C20 UNL     1      21.315  73.589  46.782  1.00  0.00     0.030 C 
HETATM   29  C16 UNL     1      23.104  75.101  49.733  1.00  0.00     0.001 C 
HETATM   30  C17 UNL     1      24.300  75.535  48.892  1.00  0.00     0.000 C 
HETATM   31  C18 UNL     1      24.301  74.834  47.551  1.00  0.00     0.001 C 
HETATM   32  C21 UNL     1      21.009  72.174  46.312  1.00  0.00     0.142 C 
ENDBRANCH  18  22
ENDBRANCH  11  14
ENDBRANCH   9  10
ENDBRANCH   8   9
ENDBRANCH   6   8
TORSDOF 5
ENDMDL
MODEL 2
REMARK VINA RESULT: -9.487147188      0.904      1.470
REMARK  5 active torsions:
REMARK  status: ('A' for Active; 'I' for Inactive)
REMARK    1  A    between atoms: N2_6  and  C5_7 
REMARK    2  A    between atoms: C5_7  and  C6_8 
REMARK    3  A    between atoms: C6_8  and  N3_9 
REMARK       I    between atoms: N3_9  and  C7_11 
REMARK    4  A    between atoms: C7_11  and  C8_13 
REMARK    5  A    between atoms: C11_18  and  N5_19 
ROOT
HETATM    1  N1  UNL     1      17.838  69.345  37.565  1.00  0.00    -0.197 NA
HETATM    2  C1  UNL     1      17.842  68.250  37.953  1.00  0.00     0.065 C 
HETATM    3  C2  UNL     1      17.822  66.869  38.441  1.00  0.00     0.122 C 
HETATM    4  C3  UNL     1      16.471  66.245  38.301  1.00  0.00     0.051 C 
HETATM    5  C4  UNL     1      15.938  66.023  39.706  1.00  0.00     0.273 C 
HETATM    6  N2  UNL     1      16.802  66.730  40.571  1.00  0.00     0.091 N 
HETATM    7  C22 UNL     1      18.084  66.874  39.932  1.00  0.00     0.291 C 
ENDROOT
BRANCH   6   8
HETATM    8  C5  UNL     1      16.838  66.371  41.935  1.00  0.00     0.292 C 
BRANCH   8   9
HETATM    9  C6  UNL     1      18.064  66.745  42.678  1.00  0.00     0.153 C 
BRANCH   9  10
HETATM   10  N3  UNL     1      17.883  67.689  43.750  1.00  0.00    -0.354 N 
HETATM   11  C7  UNL     1      18.851  67.936  44.748  1.00  0.00     0.268 C 
HETATM   12  O1  UNL     1      19.929  67.323  44.742  1.00  0.00    -0.266 OA
ATOM     13  H3  UNL     1      17.006  68.209  43.791  1.00  0.00     0.162 HD
BRANCH  11  14
HETATM   14  C8  UNL     1      18.577  68.923  45.804  1.00  0.00     0.118 A 
HETATM   15  C9  UNL     1      17.370  68.866  46.464  1.00  0.00     0.053 A 
HETATM   16  C10 UNL     1      17.122  69.793  47.454  1.00  0.00     0.108 A 
HETATM   17  N4  UNL     1      18.064  70.716  47.737  1.00  0.00    -0.202 N 
HETATM   18  C11 UNL     1      19.244  70.779  47.098  1.00  0.00     0.680 A 
ATOM     19  H4  UNL     1      17.871  71.398  48.471  1.00  0.00     0.183 HD
HETATM   20  N6  UNL     1      19.475  69.868  46.134  1.00  0.00    -0.186 N 
ATOM     21  H6  UNL     1      20.364  69.896  45.635  1.00  0.00     0.184 HD
BRANCH  18  22
HETATM   22  N5  UNL     1      20.226  71.766  47.420  1.00  0.00    -0.218 N 
HETATM   23  C12 UNL     1      20.359  72.292  48.762  1.00  0.00     0.142 C 
HETATM   24  C13 UNL     1      21.864  72.525  48.955  1.00  0.00     0.030 C 
HETATM   25  C14 UNL     1      22.285  73.696  48.131  1.00  0.00    -0.037 C 
HETATM   26  C15 UNL     1      22.063  75.017  48.822  1.00  0.00     0.010 C 
HETATM   27  C19 UNL     1      23.753  73.564  47.793  1.00  0.00     0.010 C 
HETATM   28  C20 UNL     1      21.453  73.707  46.857  1.00  0.00     0.030 C 
HETATM   29  C16 UNL     1      23.171  75.263  49.829  1.00  0.00     0.001 C 
HETATM   30  C17 UNL     1      24.406  75.646  49.019  1.00  0.00     0.000 C 
HETATM   31  C18 UNL     1      24.438  74.908  47.699  1.00  0.00     0.001 C 
HETATM   32  C21 UNL     1      21.132  72.286  46.417  1.00  0.00     0.142 C 
ENDBRANCH  18  22
ENDBRANCH  11  14
ENDBRANCH   9  10
ENDBRANCH   8   9
ENDBRANCH   6   8
TORSDOF 5
ENDMDL
MODEL 3
REMARK VINA RESULT: -9.468353547      2.352      3.556
REMARK  5 active torsions:
REMARK  status: ('A' for Active; 'I' for Inactive)
REMARK    1  A    between atoms: N2_6  and  C5_7 
REMARK    2  A    between atoms: C5_7  and  C6_8 
REMARK    3  A    between atoms: C6_8  and  N3_9 
REMARK       I    between atoms: N3_9  and  C7_11 
REMARK    4  A    between atoms: C7_11  and  C8_13 
REMARK    5  A    between atoms: C11_18  and  N5_19 
ROOT
HETATM    1  N1  UNL     1      15.903  67.551  35.879  1.00  0.00    -0.197 NA
HETATM    2  C1  UNL     1      16.098  66.938  36.845  1.00  0.00     0.065 C 
HETATM    3  C2  UNL     1      16.324  66.149  38.059  1.00  0.00     0.122 C 
HETATM    4  C3  UNL     1      15.553  64.868  38.045  1.00  0.00     0.051 C 
HETATM    5  C4  UNL     1      14.501  64.974  39.136  1.00  0.00     0.273 C 
HETATM    6  N2  UNL     1      14.492  66.325  39.546  1.00  0.00     0.091 N 
HETATM    7  C22 UNL     1      15.773  66.910  39.246  1.00  0.00     0.291 C 
ENDROOT
BRANCH   6   8
HETATM    8  C5  UNL     1      13.956  66.646  40.811  1.00  0.00     0.292 C 
BRANCH   8   9
HETATM    9  C6  UNL     1      14.106  65.616  41.866  1.00  0.00     0.153 C 
BRANCH   9  10
HETATM   10  N3  UNL     1      15.252  65.763  42.725  1.00  0.00    -0.354 N 
HETATM   11  C7  UNL     1      15.236  66.493  43.933  1.00  0.00     0.268 C 
HETATM   12  O1  UNL     1      14.199  67.059  44.311  1.00  0.00    -0.266 OA
ATOM     13  H3  UNL     1      16.125  65.314  42.445  1.00  0.00     0.162 HD
BRANCH  11  14
HETATM   14  C8  UNL     1      16.458  66.585  44.748  1.00  0.00     0.118 A 
HETATM   15  C9  UNL     1      17.072  65.419  45.150  1.00  0.00     0.053 A 
HETATM   16  C10 UNL     1      18.218  65.513  45.911  1.00  0.00     0.108 A 
HETATM   17  N4  UNL     1      18.692  66.734  46.232  1.00  0.00    -0.202 N 
HETATM   18  C11 UNL     1      18.099  67.877  45.845  1.00  0.00     0.680 A 
ATOM     19  H4  UNL     1      19.540  66.794  46.796  1.00  0.00     0.183 HD
HETATM   20  N6  UNL     1      16.981  67.772  45.102  1.00  0.00    -0.186 N 
ATOM     21  H6  UNL     1      16.513  68.625  44.795  1.00  0.00     0.184 HD
BRANCH  18  22
HETATM   22  N5  UNL     1      18.624  69.157  46.197  1.00  0.00    -0.218 N 
HETATM   23  C12 UNL     1      18.232  69.826  47.420  1.00  0.00     0.142 C 
HETATM   24  C13 UNL     1      19.494  70.559  47.899  1.00  0.00     0.030 C 
HETATM   25  C14 UNL     1      19.756  71.717  46.996  1.00  0.00    -0.037 C 
HETATM   26  C15 UNL     1      18.980  72.952  47.374  1.00  0.00     0.010 C 
HETATM   27  C19 UNL     1      21.233  72.043  47.023  1.00  0.00     0.010 C 
HETATM   28  C20 UNL     1      19.332  71.330  45.587  1.00  0.00     0.030 C 
HETATM   29  C16 UNL     1      19.655  73.646  48.542  1.00  0.00     0.001 C 
HETATM   30  C17 UNL     1      20.893  74.333  47.974  1.00  0.00     0.000 C 
HETATM   31  C18 UNL     1      21.493  73.521  46.847  1.00  0.00     0.001 C 
HETATM   32  C21 UNL     1      19.572  69.846  45.346  1.00  0.00     0.142 C 
ENDBRANCH  18  22
ENDBRANCH  11  14
ENDBRANCH   9  10
ENDBRANCH   8   9
ENDBRANCH   6   8
TORSDOF 5
ENDMDL
MODEL 4
REMARK VINA RESULT: -9.454506797      2.413      3.848
REMARK  5 active torsions:
REMARK  status: ('A' for Active; 'I' for Inactive)
REMARK    1  A    between atoms: N2_6  and  C5_7 
REMARK    2  A    between atoms: C5_7  and  C6_8 
REMARK    3  A    between atoms: C6_8  and  N3_9 
REMARK       I    between atoms: N3_9  and  C7_11 
REMARK    4  A    between atoms: C7_11  and  C8_13 
REMARK    5  A    between atoms: C11_18  and  N5_19 
ROOT
HETATM    1  N1  UNL     1      15.921  67.550  35.896  1.00  0.00    -0.197 NA
HETATM    2  C1  UNL     1      16.115  66.965  36.880  1.00  0.00     0.065 C 
HETATM    3  C2  UNL     1      16.342  66.211  38.115  1.00  0.00     0.122 C 
HETATM    4  C3  UNL     1      15.620  64.902  38.112  1.00  0.00     0.051 C 
HETATM    5  C4  UNL     1      14.539  64.990  39.177  1.00  0.00     0.273 C 
HETATM    6  N2  UNL     1      14.471  66.348  39.556  1.00  0.00     0.091 N 
HETATM    7  C22 UNL     1      15.735  66.975  39.272  1.00  0.00     0.291 C 
ENDROOT
BRANCH   6   8
HETATM    8  C5  UNL     1      13.893  66.676  40.801  1.00  0.00     0.292 C 
BRANCH   8   9
HETATM    9  C6  UNL     1      13.994  65.644  41.860  1.00  0.00     0.153 C 
BRANCH   9  10
HETATM   10  N3  UNL     1      15.147  65.737  42.717  1.00  0.00    -0.354 N 
HETATM   11  C7  UNL     1      15.175  66.486  43.914  1.00  0.00     0.268 C 
HETATM   12  O1  UNL     1      14.173  67.118  44.282  1.00  0.00    -0.266 OA
ATOM     13  H3  UNL     1      15.991  65.234  42.444  1.00  0.00     0.162 HD
BRANCH  11  14
HETATM   14  C8  UNL     1      16.400  66.519  44.727  1.00  0.00     0.118 A 
HETATM   15  C9  UNL     1      16.998  65.326  45.069  1.00  0.00     0.053 A 
HETATM   16  C10 UNL     1      18.147  65.365  45.829  1.00  0.00     0.108 A 
HETATM   17  N4  UNL     1      18.641  66.561  46.207  1.00  0.00    -0.202 N 
HETATM   18  C11 UNL     1      18.065  67.730  45.878  1.00  0.00     0.680 A 
ATOM     19  H4  UNL     1      19.492  66.580  46.769  1.00  0.00     0.183 HD
HETATM   20  N6  UNL     1      16.944  67.679  45.136  1.00  0.00    -0.186 N 
ATOM     21  H6  UNL     1      16.488  68.553  44.873  1.00  0.00     0.184 HD
BRANCH  18  22
HETATM   22  N5  UNL     1      18.611  68.984  46.290  1.00  0.00    -0.218 N 
HETATM   23  C12 UNL     1      19.651  69.644  45.529  1.00  0.00     0.142 C 
HETATM   24  C13 UNL     1      19.350  71.144  45.656  1.00  0.00     0.030 C 
HETATM   25  C14 UNL     1      19.669  71.589  47.044  1.00  0.00    -0.037 C 
HETATM   26  C15 UNL     1      21.122  71.935  47.237  1.00  0.00     0.010 C 
HETATM   27  C19 UNL     1      18.830  72.802  47.382  1.00  0.00     0.010 C 
HETATM   28  C20 UNL     1      19.345  70.448  47.997  1.00  0.00     0.030 C 
HETATM   29  C16 UNL     1      21.401  73.317  46.678  1.00  0.00     0.001 C 
HETATM   30  C17 UNL     1      20.807  74.309  47.673  1.00  0.00     0.000 C 
HETATM   31  C18 UNL     1      19.552  73.752  48.309  1.00  0.00     0.001 C 
HETATM   32  C21 UNL     1      18.150  69.652  47.490  1.00  0.00     0.142 C 
ENDBRANCH  18  22
ENDBRANCH  11  14
ENDBRANCH   9  10
ENDBRANCH   8   9
ENDBRANCH   6   8
TORSDOF 5
ENDMDL
MODEL 5
REMARK VINA RESULT: -9.409212292      5.184      8.065
REMARK  5 active torsions:
REMARK  status: ('A' for Active; 'I' for Inactive)
REMARK    1  A    between atoms: N2_6  and  C5_7 
REMARK    2  A    between atoms: C5_7  and  C6_8 
REMARK    3  A    between atoms: C6_8  and  N3_9 
REMARK       I    between atoms: N3_9  and  C7_11 
REMARK    4  A    between atoms: C7_11  and  C8_13 
REMARK    5  A    between atoms: C11_18  and  N5_19 
ROOT
HETATM    1  N1  UNL     1      12.418  64.892  52.817  1.00  0.00    -0.197 NA
HETATM    2  C1  UNL     1      11.460  65.460  52.488  1.00  0.00     0.065 C 
HETATM    3  C2  UNL     1      10.248  66.159  52.053  1.00  0.00     0.122 C 
HETATM    4  C3  UNL     1       9.425  65.326  51.124  1.00  0.00     0.051 C 
HETATM    5  C4  UNL     1       9.474  66.002  49.764  1.00  0.00     0.273 C 
HETATM    6  N2  UNL     1      10.482  66.986  49.850  1.00  0.00     0.091 N 
HETATM    7  C22 UNL     1      10.648  67.363  51.229  1.00  0.00     0.291 C 
ENDROOT
BRANCH   6   8
HETATM    8  C5  UNL     1      10.470  68.051  48.923  1.00  0.00     0.292 C 
BRANCH   8   9
HETATM    9  C6  UNL     1      11.481  69.113  49.135  1.00  0.00     0.153 C 
BRANCH   9  10
HETATM   10  N3  UNL     1      12.800  68.830  48.632  1.00  0.00    -0.354 N 
HETATM   11  C7  UNL     1      13.478  69.653  47.705  1.00  0.00     0.268 C 
HETATM   12  O1  UNL     1      12.942  70.683  47.271  1.00  0.00    -0.266 OA
ATOM     13  H3  UNL     1      13.272  67.989  48.964  1.00  0.00     0.162 HD
BRANCH  11  14
HETATM   14  C8  UNL     1      14.828  69.283  47.251  1.00  0.00     0.118 A 
HETATM   15  C9  UNL     1      14.998  68.085  46.594  1.00  0.00     0.053 A 
HETATM   16  C10 UNL     1      16.265  67.747  46.168  1.00  0.00     0.108 A 
HETATM   17  N4  UNL     1      17.285  68.596  46.410  1.00  0.00    -0.202 N 
HETATM   18  C11 UNL     1      17.128  69.768  47.050  1.00  0.00     0.680 A 
ATOM     19  H4  UNL     1      18.218  68.338  46.091  1.00  0.00     0.183 HD
HETATM   20  N6  UNL     1      15.886  70.087  47.460  1.00  0.00    -0.186 N 
ATOM     21  H6  UNL     1      15.741  70.970  47.948  1.00  0.00     0.184 HD
BRANCH  18  22
HETATM   22  N5  UNL     1      18.225  70.650  47.290  1.00  0.00    -0.218 N 
HETATM   23  C12 UNL     1      19.403  70.215  48.010  1.00  0.00     0.142 C 
HETATM   24  C13 UNL     1      20.576  70.944  47.340  1.00  0.00     0.030 C 
HETATM   25  C14 UNL     1      20.521  72.391  47.702  1.00  0.00    -0.037 C 
HETATM   26  C15 UNL     1      21.178  72.696  49.024  1.00  0.00     0.010 C 
HETATM   27  C19 UNL     1      21.203  73.200  46.621  1.00  0.00     0.010 C 
HETATM   28  C20 UNL     1      19.060  72.799  47.818  1.00  0.00     0.030 C 
HETATM   29  C16 UNL     1      22.684  72.746  48.851  1.00  0.00     0.001 C 
HETATM   30  C17 UNL     1      22.990  74.064  48.146  1.00  0.00     0.000 C 
HETATM   31  C18 UNL     1      21.887  74.428  47.176  1.00  0.00     0.001 C 
HETATM   32  C21 UNL     1      18.208  72.022  46.824  1.00  0.00     0.142 C 
ENDBRANCH  18  22
ENDBRANCH  11  14
ENDBRANCH   9  10
ENDBRANCH   8   9
ENDBRANCH   6   8
TORSDOF 5
ENDMDL
