MODEL 1
REMARK VINA RESULT: -7.901981112      0.000      0.000
REMARK  12 active torsions:
REMARK  status: ('A' for Active; 'I' for Inactive)
REMARK    1  A    between atoms: C4_4  and  O1_5 
REMARK    2  A    between atoms: C5_7  and  O2_8 
REMARK    3  A    between atoms: C6_10  and  O3_11 
REMARK    4  A    between atoms: O3_11  and  C7_12 
REMARK    5  A    between atoms: C8_13  and  C9_14 
REMARK    6  A    between atoms: C18_25  and  C19_26 
REMARK    7  A    between atoms: C19_26  and  O5_27 
REMARK    8  A    between atoms: O5_27  and  C20_28 
REMARK    9  A    between atoms: C20_28  and  C21_30 
REMARK   10  A    between atoms: C21_30  and  C22_31 
REMARK   11  A    between atoms: C22_31  and  C23_32 
REMARK   12  A    between atoms: C23_32  and  C24_33 
ROOT
HETATM    1  C7  UNL     1      -6.529   7.387  28.719  1.00  0.00     0.164 C 
HETATM    2  C8  UNL     1      -6.494   7.694  27.261  1.00  0.00     0.155 C 
HETATM    3  O4  UNL     1      -7.832   7.712  26.793  1.00  0.00    -0.374 OA
HETATM    4  C12 UNL     1      -8.399   6.730  27.527  1.00  0.00     0.169 C 
HETATM    5  C13 UNL     1      -9.860   6.578  27.426  1.00  0.00     0.203 C 
HETATM    6  F1  UNL     1     -10.217   6.389  26.083  1.00  0.00    -0.246 F 
HETATM    7  C14 UNL     1     -10.271   5.374  28.245  1.00  0.00     0.018 C 
HETATM    8  C15 UNL     1     -10.155   4.187  27.270  1.00  0.00     0.013 C 
HETATM    9  C16 UNL     1      -9.446   5.074  29.424  1.00  0.00     0.008 C 
HETATM   10  C17 UNL     1      -8.290   5.934  29.759  1.00  0.00     0.017 C 
HETATM   11  C18 UNL     1      -8.033   7.137  28.966  1.00  0.00     0.039 C 
ENDROOT
BRANCH   1  12
HETATM   12  O3  UNL     1      -5.736   6.332  29.132  1.00  0.00    -0.371 OA
BRANCH  12  13
HETATM   13  C6  UNL     1      -4.493   6.630  29.601  1.00  0.00     0.194 C 
HETATM   14  C5  UNL     1      -3.403   6.421  28.556  1.00  0.00     0.179 C 
HETATM   15  C4  UNL     1      -2.564   5.194  28.822  1.00  0.00     0.153 C 
HETATM   16  C3  UNL     1      -1.652   5.562  29.999  1.00  0.00     0.071 C 
HETATM   17  C2  UNL     1      -2.515   6.342  30.927  1.00  0.00    -0.048 C 
HETATM   18  C1  UNL     1      -2.103   7.257  31.764  1.00  0.00     0.017 C 
HETATM   19  C26 UNL     1      -3.997   5.976  30.834  1.00  0.00     0.133 A 
HETATM   20  C27 UNL     1      -4.375   4.785  31.450  1.00  0.00     0.215 A 
HETATM   21  O7  UNL     1      -4.594   6.070  32.061  1.00  0.00    -0.367 OA
BRANCH  14  22
HETATM   22  O2  UNL     1      -2.539   7.513  28.584  1.00  0.00    -0.390 OA
ATOM     23  H2  UNL     1      -1.868   7.348  27.933  1.00  0.00     0.210 HD
ENDBRANCH  14  22
BRANCH  15  24
HETATM   24  O1  UNL     1      -1.803   4.871  27.701  1.00  0.00    -0.393 OA
ATOM     25  H1  UNL     1      -2.352   4.841  26.925  1.00  0.00     0.210 HD
ENDBRANCH  15  24
ENDBRANCH  12  13
ENDBRANCH   1  12
BRANCH   2  26
HETATM   26  C9  UNL     1      -5.964   9.039  26.859  1.00  0.00     0.009 C 
HETATM   27  C10 UNL     1      -5.431   9.812  28.025  1.00  0.00     0.012 C 
HETATM   28  C11 UNL     1      -4.768   8.866  25.897  1.00  0.00     0.012 C 
ENDBRANCH   2  26
BRANCH  11  29
HETATM   29  C19 UNL     1      -8.596   8.425  29.397  1.00  0.00     0.193 C 
BRANCH  29  30
HETATM   30  O5  UNL     1      -9.365   8.606  30.493  1.00  0.00    -0.321 OA
BRANCH  30  31
HETATM   31  C20 UNL     1     -10.674   8.693  30.767  1.00  0.00     0.258 C 
HETATM   32  O6  UNL     1     -11.457   7.819  30.393  1.00  0.00    -0.265 OA
BRANCH  31  33
HETATM   33  C21 UNL     1     -11.169   9.867  31.537  1.00  0.00     0.111 C 
BRANCH  33  34
HETATM   34  C22 UNL     1     -11.776   9.452  32.853  1.00  0.00     0.010 C 
BRANCH  34  35
HETATM   35  C23 UNL     1     -11.072  10.293  33.925  1.00  0.00     0.000 C 
BRANCH  35  36
HETATM   36  C24 UNL     1     -11.676  10.047  35.287  1.00  0.00    -0.005 C 
HETATM   37  C25 UNL     1     -13.159  10.314  35.170  1.00  0.00     0.005 C 
ENDBRANCH  35  36
ENDBRANCH  34  35
ENDBRANCH  33  34
ENDBRANCH  31  33
ENDBRANCH  30  31
ENDBRANCH  29  30
ENDBRANCH  11  29
TORSDOF 12
ENDMDL
MODEL 2
REMARK VINA RESULT: -7.780698009      3.450      7.697
REMARK  12 active torsions:
REMARK  status: ('A' for Active; 'I' for Inactive)
REMARK    1  A    between atoms: C4_4  and  O1_5 
REMARK    2  A    between atoms: C5_7  and  O2_8 
REMARK    3  A    between atoms: C6_10  and  O3_11 
REMARK    4  A    between atoms: O3_11  and  C7_12 
REMARK    5  A    between atoms: C8_13  and  C9_14 
REMARK    6  A    between atoms: C18_25  and  C19_26 
REMARK    7  A    between atoms: C19_26  and  O5_27 
REMARK    8  A    between atoms: O5_27  and  C20_28 
REMARK    9  A    between atoms: C20_28  and  C21_30 
REMARK   10  A    between atoms: C21_30  and  C22_31 
REMARK   11  A    between atoms: C22_31  and  C23_32 
REMARK   12  A    between atoms: C23_32  and  C24_33 
ROOT
HETATM    1  C7  UNL     1      -6.537   5.071  29.988  1.00  0.00     0.164 C 
HETATM    2  C8  UNL     1      -6.918   6.403  30.538  1.00  0.00     0.155 C 
HETATM    3  O4  UNL     1      -6.500   6.445  31.892  1.00  0.00    -0.374 OA
HETATM    4  C12 UNL     1      -6.717   5.174  32.292  1.00  0.00     0.169 C 
HETATM    5  C13 UNL     1      -6.225   4.799  33.628  1.00  0.00     0.203 C 
HETATM    6  F1  UNL     1      -6.775   5.664  34.586  1.00  0.00    -0.246 F 
HETATM    7  C14 UNL     1      -6.651   3.376  33.912  1.00  0.00     0.018 C 
HETATM    8  C15 UNL     1      -8.049   3.511  34.545  1.00  0.00     0.013 C 
HETATM    9  C16 UNL     1      -6.767   2.485  32.747  1.00  0.00     0.008 C 
HETATM   10  C17 UNL     1      -6.464   2.993  31.392  1.00  0.00     0.017 C 
HETATM   11  C18 UNL     1      -5.959   4.357  31.230  1.00  0.00     0.039 C 
ENDROOT
BRANCH   1  12
HETATM   12  O3  UNL     1      -7.554   4.356  29.384  1.00  0.00    -0.371 OA
BRANCH  12  13
HETATM   13  C6  UNL     1      -8.652   5.050  28.976  1.00  0.00     0.194 C 
HETATM   14  C5  UNL     1      -9.957   4.399  29.417  1.00  0.00     0.179 C 
HETATM   15  C4  UNL     1     -10.691   3.728  28.279  1.00  0.00     0.153 C 
HETATM   16  C3  UNL     1     -11.298   4.866  27.449  1.00  0.00     0.071 C 
HETATM   17  C2  UNL     1     -10.249   5.920  27.413  1.00  0.00    -0.048 C 
HETATM   18  C1  UNL     1     -10.461   7.203  27.281  1.00  0.00     0.017 C 
HETATM   19  C26 UNL     1      -8.827   5.371  27.542  1.00  0.00     0.133 A 
HETATM   20  C27 UNL     1      -8.295   4.773  26.401  1.00  0.00     0.215 A 
HETATM   21  O7  UNL     1      -7.955   6.115  26.795  1.00  0.00    -0.367 OA
BRANCH  14  22
HETATM   22  O2  UNL     1     -10.806   5.385  29.916  1.00  0.00    -0.390 OA
ATOM     23  H2  UNL     1     -10.293   5.907  30.520  1.00  0.00     0.210 HD
ENDBRANCH  14  22
BRANCH  15  24
HETATM   24  O1  UNL     1     -11.694   2.895  28.769  1.00  0.00    -0.393 OA
ATOM     25  H1  UNL     1     -11.315   2.155  29.230  1.00  0.00     0.210 HD
ENDBRANCH  15  24
ENDBRANCH  12  13
ENDBRANCH   1  12
BRANCH   2  26
HETATM   26  C9  UNL     1      -6.260   7.607  29.930  1.00  0.00     0.009 C 
HETATM   27  C10 UNL     1      -5.533   7.279  28.663  1.00  0.00     0.012 C 
HETATM   28  C11 UNL     1      -7.330   8.648  29.535  1.00  0.00     0.012 C 
ENDBRANCH   2  26
BRANCH  11  29
HETATM   29  C19 UNL     1      -4.508   4.595  31.199  1.00  0.00     0.193 C 
BRANCH  29  30
HETATM   30  O5  UNL     1      -3.793   4.877  30.088  1.00  0.00    -0.321 OA
BRANCH  30  31
HETATM   31  C20 UNL     1      -2.503   5.053  29.773  1.00  0.00     0.258 C 
HETATM   32  O6  UNL     1      -1.612   4.528  30.442  1.00  0.00    -0.265 OA
BRANCH  31  33
HETATM   33  C21 UNL     1      -2.160   5.896  28.595  1.00  0.00     0.111 C 
BRANCH  33  34
HETATM   34  C22 UNL     1      -1.227   7.020  28.968  1.00  0.00     0.010 C 
BRANCH  34  35
HETATM   35  C23 UNL     1      -2.124   8.189  29.395  1.00  0.00     0.000 C 
BRANCH  35  36
HETATM   36  C24 UNL     1      -2.270   9.192  28.275  1.00  0.00    -0.005 C 
HETATM   37  C25 UNL     1      -0.900   9.378  27.664  1.00  0.00     0.005 C 
ENDBRANCH  35  36
ENDBRANCH  34  35
ENDBRANCH  33  34
ENDBRANCH  31  33
ENDBRANCH  30  31
ENDBRANCH  29  30
ENDBRANCH  11  29
TORSDOF 12
ENDMDL
MODEL 3
REMARK VINA RESULT: -7.726451922      2.472      4.179
REMARK  12 active torsions:
REMARK  status: ('A' for Active; 'I' for Inactive)
REMARK    1  A    between atoms: C4_4  and  O1_5 
REMARK    2  A    between atoms: C5_7  and  O2_8 
REMARK    3  A    between atoms: C6_10  and  O3_11 
REMARK    4  A    between atoms: O3_11  and  C7_12 
REMARK    5  A    between atoms: C8_13  and  C9_14 
REMARK    6  A    between atoms: C18_25  and  C19_26 
REMARK    7  A    between atoms: C19_26  and  O5_27 
REMARK    8  A    between atoms: O5_27  and  C20_28 
REMARK    9  A    between atoms: C20_28  and  C21_30 
REMARK   10  A    between atoms: C21_30  and  C22_31 
REMARK   11  A    between atoms: C22_31  and  C23_32 
REMARK   12  A    between atoms: C23_32  and  C24_33 
ROOT
HETATM    1  C7  UNL     1      -6.335   5.460  29.729  1.00  0.00     0.164 C 
HETATM    2  C8  UNL     1      -6.461   6.024  31.103  1.00  0.00     0.155 C 
HETATM    3  O4  UNL     1      -7.728   6.652  31.196  1.00  0.00    -0.374 OA
HETATM    4  C12 UNL     1      -7.876   7.170  29.958  1.00  0.00     0.169 C 
HETATM    5  C13 UNL     1      -9.184   7.760  29.631  1.00  0.00     0.203 C 
HETATM    6  F1  UNL     1      -9.492   8.759  30.568  1.00  0.00    -0.246 F 
HETATM    7  C14 UNL     1      -9.105   8.359  28.245  1.00  0.00     0.018 C 
HETATM    8  C15 UNL     1      -8.596   9.796  28.474  1.00  0.00     0.013 C 
HETATM    9  C16 UNL     1      -8.189   7.701  27.301  1.00  0.00     0.008 C 
HETATM   10  C17 UNL     1      -7.414   6.514  27.725  1.00  0.00     0.017 C 
HETATM   11  C18 UNL     1      -7.637   5.946  29.055  1.00  0.00     0.039 C 
ENDROOT
BRANCH   1  12
HETATM   12  O3  UNL     1      -5.201   5.826  29.029  1.00  0.00    -0.371 OA
BRANCH  12  13
HETATM   13  C6  UNL     1      -4.286   6.599  29.678  1.00  0.00     0.194 C 
HETATM   14  C5  UNL     1      -3.924   7.860  28.901  1.00  0.00     0.179 C 
HETATM   15  C4  UNL     1      -2.548   7.791  28.282  1.00  0.00     0.153 C 
HETATM   16  C3  UNL     1      -1.561   7.973  29.442  1.00  0.00     0.071 C 
HETATM   17  C2  UNL     1      -2.138   7.187  30.567  1.00  0.00    -0.048 C 
HETATM   18  C1  UNL     1      -1.957   7.430  31.838  1.00  0.00     0.017 C 
HETATM   19  C26 UNL     1      -2.999   6.009  30.109  1.00  0.00     0.133 A 
HETATM   20  C27 UNL     1      -2.311   4.888  29.650  1.00  0.00     0.215 A 
HETATM   21  O7  UNL     1      -2.873   4.957  30.974  1.00  0.00    -0.367 OA
BRANCH  14  22
HETATM   22  O2  UNL     1      -3.916   8.942  29.779  1.00  0.00    -0.390 OA
ATOM     23  H2  UNL     1      -4.767   9.358  29.708  1.00  0.00     0.210 HD
ENDBRANCH  14  22
BRANCH  15  24
HETATM   24  O1  UNL     1      -2.384   8.805  27.341  1.00  0.00    -0.393 OA
ATOM     25  H1  UNL     1      -3.179   8.917  26.832  1.00  0.00     0.210 HD
ENDBRANCH  15  24
ENDBRANCH  12  13
ENDBRANCH   1  12
BRANCH   2  26
HETATM   26  C9  UNL     1      -6.468   5.049  32.244  1.00  0.00     0.009 C 
HETATM   27  C10 UNL     1      -5.998   3.689  31.832  1.00  0.00     0.012 C 
HETATM   28  C11 UNL     1      -5.482   5.513  33.338  1.00  0.00     0.012 C 
ENDBRANCH   2  26
BRANCH  11  29
HETATM   29  C19 UNL     1      -8.615   4.861  29.227  1.00  0.00     0.193 C 
BRANCH  29  30
HETATM   30  O5  UNL     1      -9.487   4.449  28.281  1.00  0.00    -0.321 OA
BRANCH  30  31
HETATM   31  C20 UNL     1     -10.816   4.442  28.111  1.00  0.00     0.258 C 
HETATM   32  O6  UNL     1     -11.359   3.580  27.418  1.00  0.00    -0.265 OA
BRANCH  31  33
HETATM   33  C21 UNL     1     -11.631   5.495  28.775  1.00  0.00     0.111 C 
BRANCH  33  34
HETATM   34  C22 UNL     1     -12.229   6.450  27.773  1.00  0.00     0.010 C 
BRANCH  34  35
HETATM   35  C23 UNL     1     -12.778   7.628  28.589  1.00  0.00     0.000 C 
BRANCH  35  36
HETATM   36  C24 UNL     1     -12.893   7.264  30.050  1.00  0.00    -0.005 C 
HETATM   37  C25 UNL     1     -12.889   8.558  30.832  1.00  0.00     0.005 C 
ENDBRANCH  35  36
ENDBRANCH  34  35
ENDBRANCH  33  34
ENDBRANCH  31  33
ENDBRANCH  30  31
ENDBRANCH  29  30
ENDBRANCH  11  29
TORSDOF 12
ENDMDL
MODEL 4
REMARK VINA RESULT: -7.702839980      2.820      6.983
REMARK  12 active torsions:
REMARK  status: ('A' for Active; 'I' for Inactive)
REMARK    1  A    between atoms: C4_4  and  O1_5 
REMARK    2  A    between atoms: C5_7  and  O2_8 
REMARK    3  A    between atoms: C6_10  and  O3_11 
REMARK    4  A    between atoms: O3_11  and  C7_12 
REMARK    5  A    between atoms: C8_13  and  C9_14 
REMARK    6  A    between atoms: C18_25  and  C19_26 
REMARK    7  A    between atoms: C19_26  and  O5_27 
REMARK    8  A    between atoms: O5_27  and  C20_28 
REMARK    9  A    between atoms: C20_28  and  C21_30 
REMARK   10  A    between atoms: C21_30  and  C22_31 
REMARK   11  A    between atoms: C22_31  and  C23_32 
REMARK   12  A    between atoms: C23_32  and  C24_33 
ROOT
HETATM    1  C7  UNL     1      -9.241   6.828  29.750  1.00  0.00     0.164 C 
HETATM    2  C8  UNL     1     -10.031   6.720  28.491  1.00  0.00     0.155 C 
HETATM    3  O4  UNL     1      -9.124   6.458  27.434  1.00  0.00    -0.374 OA
HETATM    4  C12 UNL     1      -8.048   7.186  27.801  1.00  0.00     0.169 C 
HETATM    5  C13 UNL     1      -6.820   7.015  27.006  1.00  0.00     0.203 C 
HETATM    6  F1  UNL     1      -7.097   7.284  25.657  1.00  0.00    -0.246 F 
HETATM    7  C14 UNL     1      -5.779   7.983  27.522  1.00  0.00     0.018 C 
HETATM    8  C15 UNL     1      -6.026   9.277  26.725  1.00  0.00     0.013 C 
HETATM    9  C16 UNL     1      -5.847   8.313  28.954  1.00  0.00     0.008 C 
HETATM   10  C17 UNL     1      -6.890   7.702  29.807  1.00  0.00     0.017 C 
HETATM   11  C18 UNL     1      -7.789   6.698  29.238  1.00  0.00     0.039 C 
ENDROOT
BRANCH   1  12
HETATM   12  O3  UNL     1      -9.445   7.975  30.494  1.00  0.00    -0.371 OA
BRANCH  12  13
HETATM   13  C6  UNL     1     -10.437   8.815  30.090  1.00  0.00     0.194 C 
HETATM   14  C5  UNL     1      -9.904  10.101  29.471  1.00  0.00     0.179 C 
HETATM   15  C4  UNL     1     -10.068  11.299  30.376  1.00  0.00     0.153 C 
HETATM   16  C3  UNL     1     -11.560  11.652  30.331  1.00  0.00     0.071 C 
HETATM   17  C2  UNL     1     -12.267  10.343  30.349  1.00  0.00    -0.048 C 
HETATM   18  C1  UNL     1     -13.446  10.107  29.836  1.00  0.00     0.017 C 
HETATM   19  C26 UNL     1     -11.481   9.235  31.052  1.00  0.00     0.133 A 
HETATM   20  C27 UNL     1     -11.476   9.275  32.444  1.00  0.00     0.215 A 
HETATM   21  O7  UNL     1     -12.330   8.384  31.704  1.00  0.00    -0.367 OA
BRANCH  14  22
HETATM   22  O2  UNL     1     -10.624  10.373  28.310  1.00  0.00    -0.390 OA
ATOM     23  H2  UNL     1     -10.493   9.635  27.727  1.00  0.00     0.210 HD
ENDBRANCH  14  22
BRANCH  15  24
HETATM   24  O1  UNL     1      -9.302  12.367  29.916  1.00  0.00    -0.393 OA
ATOM     25  H1  UNL     1      -9.465  12.520  28.992  1.00  0.00     0.210 HD
ENDBRANCH  15  24
ENDBRANCH  12  13
ENDBRANCH   1  12
BRANCH   2  26
HETATM   26  C9  UNL     1     -11.015   5.592  28.397  1.00  0.00     0.009 C 
HETATM   27  C10 UNL     1     -12.320   6.023  27.802  1.00  0.00     0.012 C 
HETATM   28  C11 UNL     1     -10.472   4.497  27.453  1.00  0.00     0.012 C 
ENDBRANCH   2  26
BRANCH  11  29
HETATM   29  C19 UNL     1      -7.444   5.272  29.344  1.00  0.00     0.193 C 
BRANCH  29  30
HETATM   30  O5  UNL     1      -7.712   4.489  30.411  1.00  0.00    -0.321 OA
BRANCH  30  31
HETATM   31  C20 UNL     1      -7.066   4.081  31.512  1.00  0.00     0.258 C 
HETATM   32  O6  UNL     1      -7.111   2.903  31.870  1.00  0.00    -0.265 OA
BRANCH  31  33
HETATM   33  C21 UNL     1      -6.289   5.076  32.300  1.00  0.00     0.111 C 
BRANCH  33  34
HETATM   34  C22 UNL     1      -5.551   4.427  33.444  1.00  0.00     0.010 C 
BRANCH  34  35
HETATM   35  C23 UNL     1      -5.888   5.259  34.688  1.00  0.00     0.000 C 
BRANCH  35  36
HETATM   36  C24 UNL     1      -6.288   4.369  35.840  1.00  0.00    -0.005 C 
HETATM   37  C25 UNL     1      -7.646   3.795  35.507  1.00  0.00     0.005 C 
ENDBRANCH  35  36
ENDBRANCH  34  35
ENDBRANCH  33  34
ENDBRANCH  31  33
ENDBRANCH  30  31
ENDBRANCH  29  30
ENDBRANCH  11  29
TORSDOF 12
ENDMDL
MODEL 5
REMARK VINA RESULT: -7.700782731      2.384      7.054
REMARK  12 active torsions:
REMARK  status: ('A' for Active; 'I' for Inactive)
REMARK    1  A    between atoms: C4_4  and  O1_5 
REMARK    2  A    between atoms: C5_7  and  O2_8 
REMARK    3  A    between atoms: C6_10  and  O3_11 
REMARK    4  A    between atoms: O3_11  and  C7_12 
REMARK    5  A    between atoms: C8_13  and  C9_14 
REMARK    6  A    between atoms: C18_25  and  C19_26 
REMARK    7  A    between atoms: C19_26  and  O5_27 
REMARK    8  A    between atoms: O5_27  and  C20_28 
REMARK    9  A    between atoms: C20_28  and  C21_30 
REMARK   10  A    between atoms: C21_30  and  C22_31 
REMARK   11  A    between atoms: C22_31  and  C23_32 
REMARK   12  A    between atoms: C23_32  and  C24_33 
ROOT
HETATM    1  C7  UNL     1      -8.886   6.891  29.707  1.00  0.00     0.164 C 
HETATM    2  C8  UNL     1      -9.659   6.687  28.449  1.00  0.00     0.155 C 
HETATM    3  O4  UNL     1      -8.731   6.436  27.408  1.00  0.00    -0.374 OA
HETATM    4  C12 UNL     1      -7.702   7.241  27.750  1.00  0.00     0.169 C 
HETATM    5  C13 UNL     1      -6.461   7.110  26.969  1.00  0.00     0.203 C 
HETATM    6  F1  UNL     1      -6.743   7.308  25.609  1.00  0.00    -0.246 F 
HETATM    7  C14 UNL     1      -5.481   8.156  27.451  1.00  0.00     0.018 C 
HETATM    8  C15 UNL     1      -5.797   9.401  26.600  1.00  0.00     0.013 C 
HETATM    9  C16 UNL     1      -5.579   8.540  28.867  1.00  0.00     0.008 C 
HETATM   10  C17 UNL     1      -6.591   7.904  29.739  1.00  0.00     0.017 C 
HETATM   11  C18 UNL     1      -7.425   6.826  29.207  1.00  0.00     0.039 C 
ENDROOT
BRANCH   1  12
HETATM   12  O3  UNL     1      -9.162   8.053  30.403  1.00  0.00    -0.371 OA
BRANCH  12  13
HETATM   13  C6  UNL     1     -10.180   8.832  29.943  1.00  0.00     0.194 C 
HETATM   14  C5  UNL     1      -9.690  10.133  29.319  1.00  0.00     0.179 C 
HETATM   15  C4  UNL     1      -9.954  11.337  30.192  1.00  0.00     0.153 C 
HETATM   16  C3  UNL     1     -11.459  11.609  30.081  1.00  0.00     0.071 C 
HETATM   17  C2  UNL     1     -12.097  10.265  30.098  1.00  0.00    -0.048 C 
HETATM   18  C1  UNL     1     -13.239   9.956  29.544  1.00  0.00     0.017 C 
HETATM   19  C26 UNL     1     -11.283   9.213  30.854  1.00  0.00     0.133 A 
HETATM   20  C27 UNL     1     -11.336   9.279  32.244  1.00  0.00     0.215 A 
HETATM   21  O7  UNL     1     -12.111   8.330  31.489  1.00  0.00    -0.367 OA
BRANCH  14  22
HETATM   22  O2  UNL     1     -10.376  10.346  28.125  1.00  0.00    -0.390 OA
ATOM     23  H2  UNL     1      -9.821  10.016  27.428  1.00  0.00     0.210 HD
ENDBRANCH  14  22
BRANCH  15  24
HETATM   24  O1  UNL     1      -9.226  12.436  29.742  1.00  0.00    -0.393 OA
ATOM     25  H1  UNL     1      -8.294  12.273  29.823  1.00  0.00     0.210 HD
ENDBRANCH  15  24
ENDBRANCH  12  13
ENDBRANCH   1  12
BRANCH   2  26
HETATM   26  C9  UNL     1     -10.575   5.500  28.396  1.00  0.00     0.009 C 
HETATM   27  C10 UNL     1     -11.958   5.868  27.954  1.00  0.00     0.012 C 
HETATM   28  C11 UNL     1     -10.063   4.486  27.349  1.00  0.00     0.012 C 
ENDBRANCH   2  26
BRANCH  11  29
HETATM   29  C19 UNL     1      -6.999   5.428  29.372  1.00  0.00     0.193 C 
BRANCH  29  30
HETATM   30  O5  UNL     1      -6.777   4.822  30.558  1.00  0.00    -0.321 OA
BRANCH  30  31
HETATM   31  C20 UNL     1      -5.753   4.685  31.412  1.00  0.00     0.258 C 
HETATM   32  O6  UNL     1      -4.757   5.404  31.324  1.00  0.00    -0.265 OA
BRANCH  31  33
HETATM   33  C21 UNL     1      -5.837   3.645  32.473  1.00  0.00     0.111 C 
BRANCH  33  34
HETATM   34  C22 UNL     1      -6.786   2.537  32.092  1.00  0.00     0.010 C 
BRANCH  34  35
HETATM   35  C23 UNL     1      -7.534   2.162  33.378  1.00  0.00     0.000 C 
BRANCH  35  36
HETATM   36  C24 UNL     1      -7.704   3.366  34.273  1.00  0.00    -0.005 C 
HETATM   37  C25 UNL     1      -8.835   3.055  35.226  1.00  0.00     0.005 C 
ENDBRANCH  35  36
ENDBRANCH  34  35
ENDBRANCH  33  34
ENDBRANCH  31  33
ENDBRANCH  30  31
ENDBRANCH  29  30
ENDBRANCH  11  29
TORSDOF 12
ENDMDL
