MODEL 1
REMARK VINA RESULT: -7.823709931      0.000      0.000
REMARK  11 active torsions:
REMARK  status: ('A' for Active; 'I' for Inactive)
REMARK    1  A    between atoms: C2_2  and  O1_3 
REMARK    2  A    between atoms: O1_3  and  C3_4 
REMARK       I    between atoms: C3_4  and  N1_6 
REMARK    3  A    between atoms: N1_6  and  N2_7 
REMARK    4  A    between atoms: N1_6  and  C4_10 
REMARK    5  A    between atoms: C4_10  and  C5_11 
REMARK    6  A    between atoms: C5_11  and  C6_12 
REMARK    7  A    between atoms: C6_12  and  C7_13 
REMARK    8  A    between atoms: C7_13  and  C8_14 
REMARK    9  A    between atoms: C8_14  and  C9_15 
REMARK       I    between atoms: C9_15  and  N3_17 
REMARK   10  A    between atoms: N3_17  and  C10_19 
REMARK   11  A    between atoms: C13_24  and  N5_25 
ROOT
HETATM    1  C10 UNL     1      -5.805   7.152  28.174  1.00  0.00     0.153 A 
HETATM    2  N4  UNL     1      -6.268   6.091  28.836  1.00  0.00    -0.338 N 
ATOM      3  H4  UNL     1      -5.632   5.361  29.156  1.00  0.00     0.168 HD
HETATM    4  C11 UNL     1      -7.547   6.005  29.069  1.00  0.00     0.042 A 
HETATM    5  C12 UNL     1      -8.155   4.828  29.819  1.00  0.00     0.071 C 
HETATM    6  C13 UNL     1      -8.347   7.021  28.612  1.00  0.00     0.116 A 
HETATM    7  S2  UNL     1      -7.212   8.059  27.866  1.00  0.00    -0.033 SA
ENDROOT
BRANCH   1   8
HETATM    8  N3  UNL     1      -4.565   7.426  27.839  1.00  0.00    -0.307 N 
HETATM    9  C9  UNL     1      -3.590   7.595  28.854  1.00  0.00     0.223 C 
HETATM   10  O3  UNL     1      -3.741   8.542  29.658  1.00  0.00    -0.273 OA
ATOM     11  H3  UNL     1      -4.306   7.517  26.857  1.00  0.00     0.171 HD
BRANCH   9  12
HETATM   12  C8  UNL     1      -2.467   6.655  28.906  1.00  0.00     0.103 C 
BRANCH  12  13
HETATM   13  C7  UNL     1      -2.736   5.341  29.553  1.00  0.00     0.009 C 
BRANCH  13  14
HETATM   14  C6  UNL     1      -3.095   5.427  30.993  1.00  0.00     0.002 C 
BRANCH  14  15
HETATM   15  C5  UNL     1      -4.218   4.495  31.365  1.00  0.00     0.022 C 
BRANCH  15  16
HETATM   16  C4  UNL     1      -5.247   5.204  32.208  1.00  0.00     0.154 C 
BRANCH  16  17
HETATM   17  N1  UNL     1      -5.638   4.277  33.247  1.00  0.00    -0.243 N 
HETATM   18  C3  UNL     1      -5.759   4.746  34.573  1.00  0.00     0.381 C 
HETATM   19  O2  UNL     1      -5.541   5.945  34.878  1.00  0.00    -0.236 OA
BRANCH  18  20
HETATM   20  O1  UNL     1      -6.132   3.847  35.577  1.00  0.00    -0.303 OA
BRANCH  20  21
HETATM   21  C2  UNL     1      -7.413   4.041  36.198  1.00  0.00     0.176 C 
HETATM   22  C1  UNL     1      -8.472   3.291  35.431  1.00  0.00     0.034 C 
ENDBRANCH  20  21
ENDBRANCH  18  20
BRANCH  17  23
HETATM   23  N2  UNL     1      -5.884   2.950  32.917  1.00  0.00    -0.339 N 
ATOM     24  H22 UNL     1      -6.809   2.556  33.090  1.00  0.00     0.177 HD
ATOM     25  H21 UNL     1      -5.163   2.358  32.505  1.00  0.00     0.177 HD
ENDBRANCH  17  23
ENDBRANCH  16  17
ENDBRANCH  15  16
ENDBRANCH  14  15
ENDBRANCH  13  14
ENDBRANCH  12  13
ENDBRANCH   9  12
ENDBRANCH   1   8
BRANCH   6  26
HETATM   26  N5  UNL     1      -9.777   7.158  28.743  1.00  0.00    -0.238 N 
HETATM   27  S1  UNL     1     -10.914   6.655  27.627  1.00  0.00    -0.003 SA
HETATM   28  C14 UNL     1     -12.344   7.134  28.447  1.00  0.00     0.038 A 
HETATM   29  C15 UNL     1     -13.718   7.057  28.160  1.00  0.00     0.021 A 
HETATM   30  C20 UNL     1     -11.844   7.683  29.596  1.00  0.00     0.057 A 
HETATM   31  C16 UNL     1     -14.646   7.556  29.068  1.00  0.00     0.002 A 
HETATM   32  C17 UNL     1     -14.130   8.099  30.205  1.00  0.00     0.008 A 
HETATM   33  C18 UNL     1     -12.792   8.186  30.511  1.00  0.00    -0.045 A 
HETATM   34  C19 UNL     1     -12.392   8.813  31.800  1.00  0.00     0.049 C 
HETATM   35  C21 UNL     1     -10.492   7.684  29.729  1.00  0.00     0.271 A 
HETATM   36  O4  UNL     1      -9.860   8.165  30.754  1.00  0.00    -0.266 OA
ENDBRANCH   6  26
TORSDOF 11
ENDMDL
MODEL 2
REMARK VINA RESULT: -7.541968976      1.012      1.586
REMARK  11 active torsions:
REMARK  status: ('A' for Active; 'I' for Inactive)
REMARK    1  A    between atoms: C2_2  and  O1_3 
REMARK    2  A    between atoms: O1_3  and  C3_4 
REMARK       I    between atoms: C3_4  and  N1_6 
REMARK    3  A    between atoms: N1_6  and  N2_7 
REMARK    4  A    between atoms: N1_6  and  C4_10 
REMARK    5  A    between atoms: C4_10  and  C5_11 
REMARK    6  A    between atoms: C5_11  and  C6_12 
REMARK    7  A    between atoms: C6_12  and  C7_13 
REMARK    8  A    between atoms: C7_13  and  C8_14 
REMARK    9  A    between atoms: C8_14  and  C9_15 
REMARK       I    between atoms: C9_15  and  N3_17 
REMARK   10  A    between atoms: N3_17  and  C10_19 
REMARK   11  A    between atoms: C13_24  and  N5_25 
ROOT
HETATM    1  C10 UNL     1      -5.748   7.231  28.270  1.00  0.00     0.153 A 
HETATM    2  N4  UNL     1      -6.241   6.180  28.925  1.00  0.00    -0.338 N 
ATOM      3  H4  UNL     1      -5.643   5.391  29.166  1.00  0.00     0.168 HD
HETATM    4  C11 UNL     1      -7.503   6.181  29.254  1.00  0.00     0.042 A 
HETATM    5  C12 UNL     1      -8.144   5.021  30.003  1.00  0.00     0.071 C 
HETATM    6  C13 UNL     1      -8.253   7.273  28.900  1.00  0.00     0.116 A 
HETATM    7  S2  UNL     1      -7.098   8.255  28.107  1.00  0.00    -0.033 SA
ENDROOT
BRANCH   1   8
HETATM    8  N3  UNL     1      -4.518   7.425  27.850  1.00  0.00    -0.307 N 
HETATM    9  C9  UNL     1      -3.475   7.581  28.797  1.00  0.00     0.223 C 
HETATM   10  O3  UNL     1      -3.527   8.565  29.567  1.00  0.00    -0.273 OA
ATOM     11  H3  UNL     1      -4.316   7.464  26.852  1.00  0.00     0.171 HD
BRANCH   9  12
HETATM   12  C8  UNL     1      -2.401   6.585  28.821  1.00  0.00     0.103 C 
BRANCH  12  13
HETATM   13  C7  UNL     1      -2.708   5.299  29.505  1.00  0.00     0.009 C 
BRANCH  13  14
HETATM   14  C6  UNL     1      -3.044   5.434  30.947  1.00  0.00     0.002 C 
BRANCH  14  15
HETATM   15  C5  UNL     1      -4.154   4.509  31.371  1.00  0.00     0.022 C 
BRANCH  15  16
HETATM   16  C4  UNL     1      -5.148   5.231  32.245  1.00  0.00     0.154 C 
BRANCH  16  17
HETATM   17  N1  UNL     1      -5.558   4.291  33.266  1.00  0.00    -0.243 N 
HETATM   18  C3  UNL     1      -5.733   4.751  34.589  1.00  0.00     0.381 C 
HETATM   19  O2  UNL     1      -5.549   5.952  34.907  1.00  0.00    -0.236 OA
BRANCH  18  20
HETATM   20  O1  UNL     1      -6.124   3.840  35.576  1.00  0.00    -0.303 OA
BRANCH  20  21
HETATM   21  C2  UNL     1      -7.422   4.016  36.164  1.00  0.00     0.176 C 
HETATM   22  C1  UNL     1      -8.452   3.257  35.366  1.00  0.00     0.034 C 
ENDBRANCH  20  21
ENDBRANCH  18  20
BRANCH  17  23
HETATM   23  N2  UNL     1      -5.767   2.961  32.921  1.00  0.00    -0.339 N 
ATOM     24  H22 UNL     1      -6.237   2.343  33.583  1.00  0.00     0.177 HD
ATOM     25  H21 UNL     1      -5.464   2.587  32.022  1.00  0.00     0.177 HD
ENDBRANCH  17  23
ENDBRANCH  16  17
ENDBRANCH  15  16
ENDBRANCH  14  15
ENDBRANCH  13  14
ENDBRANCH  12  13
ENDBRANCH   9  12
ENDBRANCH   1   8
BRANCH   6  26
HETATM   26  N5  UNL     1      -9.654   7.512  29.146  1.00  0.00    -0.238 N 
HETATM   27  S1  UNL     1     -10.284   8.454  30.372  1.00  0.00    -0.003 SA
HETATM   28  C14 UNL     1     -11.958   8.270  30.035  1.00  0.00     0.038 A 
HETATM   29  C15 UNL     1     -13.141   8.756  30.619  1.00  0.00     0.021 A 
HETATM   30  C20 UNL     1     -11.940   7.452  28.939  1.00  0.00     0.057 A 
HETATM   31  C16 UNL     1     -14.376   8.405  30.083  1.00  0.00     0.002 A 
HETATM   32  C17 UNL     1     -14.337   7.590  28.993  1.00  0.00     0.008 A 
HETATM   33  C18 UNL     1     -13.197   7.101  28.402  1.00  0.00    -0.045 A 
HETATM   34  C19 UNL     1     -13.329   6.216  27.213  1.00  0.00     0.049 C 
HETATM   35  C21 UNL     1     -10.718   7.067  28.490  1.00  0.00     0.271 A 
HETATM   36  O4  UNL     1     -10.527   6.294  27.467  1.00  0.00    -0.266 OA
ENDBRANCH   6  26
TORSDOF 11
ENDMDL
MODEL 3
REMARK VINA RESULT: -7.395295596      1.409      1.853
REMARK  11 active torsions:
REMARK  status: ('A' for Active; 'I' for Inactive)
REMARK    1  A    between atoms: C2_2  and  O1_3 
REMARK    2  A    between atoms: O1_3  and  C3_4 
REMARK       I    between atoms: C3_4  and  N1_6 
REMARK    3  A    between atoms: N1_6  and  N2_7 
REMARK    4  A    between atoms: N1_6  and  C4_10 
REMARK    5  A    between atoms: C4_10  and  C5_11 
REMARK    6  A    between atoms: C5_11  and  C6_12 
REMARK    7  A    between atoms: C6_12  and  C7_13 
REMARK    8  A    between atoms: C7_13  and  C8_14 
REMARK    9  A    between atoms: C8_14  and  C9_15 
REMARK       I    between atoms: C9_15  and  N3_17 
REMARK   10  A    between atoms: N3_17  and  C10_19 
REMARK   11  A    between atoms: C13_24  and  N5_25 
ROOT
HETATM    1  C10 UNL     1      -5.615   7.400  28.308  1.00  0.00     0.153 A 
HETATM    2  N4  UNL     1      -6.145   8.492  27.756  1.00  0.00    -0.338 N 
ATOM      3  H4  UNL     1      -5.551   9.183  27.297  1.00  0.00     0.168 HD
HETATM    4  C11 UNL     1      -7.436   8.660  27.813  1.00  0.00     0.042 A 
HETATM    5  C12 UNL     1      -8.120   9.878  27.207  1.00  0.00     0.071 C 
HETATM    6  C13 UNL     1      -8.177   7.694  28.444  1.00  0.00     0.116 A 
HETATM    7  S2  UNL     1      -6.972   6.582  28.928  1.00  0.00    -0.033 SA
ENDROOT
BRANCH   1   8
HETATM    8  N3  UNL     1      -4.351   7.046  28.360  1.00  0.00    -0.307 N 
HETATM    9  C9  UNL     1      -3.346   8.045  28.376  1.00  0.00     0.223 C 
HETATM   10  O3  UNL     1      -3.250   8.792  27.376  1.00  0.00    -0.273 OA
ATOM     11  H3  UNL     1      -4.095   6.059  28.390  1.00  0.00     0.171 HD
BRANCH   9  12
HETATM   12  C8  UNL     1      -2.482   8.148  29.554  1.00  0.00     0.103 C 
BRANCH  12  13
HETATM   13  C7  UNL     1      -2.688   7.122  30.614  1.00  0.00     0.009 C 
BRANCH  13  14
HETATM   14  C6  UNL     1      -1.739   5.979  30.555  1.00  0.00     0.002 C 
BRANCH  14  15
HETATM   15  C5  UNL     1      -2.435   4.646  30.645  1.00  0.00     0.022 C 
BRANCH  15  16
HETATM   16  C4  UNL     1      -3.924   4.828  30.793  1.00  0.00     0.154 C 
BRANCH  16  17
HETATM   17  N1  UNL     1      -4.341   3.954  31.867  1.00  0.00    -0.243 N 
HETATM   18  C3  UNL     1      -5.475   4.302  32.633  1.00  0.00     0.381 C 
HETATM   19  O2  UNL     1      -6.136   5.347  32.408  1.00  0.00    -0.236 OA
BRANCH  18  20
HETATM   20  O1  UNL     1      -5.873   3.458  33.674  1.00  0.00    -0.303 OA
BRANCH  20  21
HETATM   21  C2  UNL     1      -6.864   3.955  34.588  1.00  0.00     0.176 C 
HETATM   22  C1  UNL     1      -6.214   4.321  35.898  1.00  0.00     0.034 C 
ENDBRANCH  20  21
ENDBRANCH  18  20
BRANCH  17  23
HETATM   23  N2  UNL     1      -3.618   2.795  32.120  1.00  0.00    -0.339 N 
ATOM     24  H22 UNL     1      -4.109   1.902  32.176  1.00  0.00     0.177 HD
ATOM     25  H21 UNL     1      -2.606   2.812  32.251  1.00  0.00     0.177 HD
ENDBRANCH  17  23
ENDBRANCH  16  17
ENDBRANCH  15  16
ENDBRANCH  14  15
ENDBRANCH  13  14
ENDBRANCH  12  13
ENDBRANCH   9  12
ENDBRANCH   1   8
BRANCH   6  26
HETATM   26  N5  UNL     1      -9.606   7.649  28.636  1.00  0.00    -0.238 N 
HETATM   27  S1  UNL     1     -10.719   7.028  27.556  1.00  0.00    -0.003 SA
HETATM   28  C14 UNL     1     -12.160   7.310  28.445  1.00  0.00     0.038 A 
HETATM   29  C15 UNL     1     -13.526   7.067  28.213  1.00  0.00     0.021 A 
HETATM   30  C20 UNL     1     -11.683   7.897  29.585  1.00  0.00     0.057 A 
HETATM   31  C16 UNL     1     -14.468   7.430  29.170  1.00  0.00     0.002 A 
HETATM   32  C17 UNL     1     -13.974   8.013  30.297  1.00  0.00     0.008 A 
HETATM   33  C18 UNL     1     -12.646   8.261  30.549  1.00  0.00    -0.045 A 
HETATM   34  C19 UNL     1     -12.270   8.910  31.835  1.00  0.00     0.049 C 
HETATM   35  C21 UNL     1     -10.337   8.064  29.662  1.00  0.00     0.271 A 
HETATM   36  O4  UNL     1      -9.726   8.602  30.671  1.00  0.00    -0.266 OA
ENDBRANCH   6  26
TORSDOF 11
ENDMDL
MODEL 4
REMARK VINA RESULT: -7.358578166      3.005      8.234
REMARK  11 active torsions:
REMARK  status: ('A' for Active; 'I' for Inactive)
REMARK    1  A    between atoms: C2_2  and  O1_3 
REMARK    2  A    between atoms: O1_3  and  C3_4 
REMARK       I    between atoms: C3_4  and  N1_6 
REMARK    3  A    between atoms: N1_6  and  N2_7 
REMARK    4  A    between atoms: N1_6  and  C4_10 
REMARK    5  A    between atoms: C4_10  and  C5_11 
REMARK    6  A    between atoms: C5_11  and  C6_12 
REMARK    7  A    between atoms: C6_12  and  C7_13 
REMARK    8  A    between atoms: C7_13  and  C8_14 
REMARK    9  A    between atoms: C8_14  and  C9_15 
REMARK       I    between atoms: C9_15  and  N3_17 
REMARK   10  A    between atoms: N3_17  and  C10_19 
REMARK   11  A    between atoms: C13_24  and  N5_25 
ROOT
HETATM    1  C10 UNL     1     -11.015   7.059  26.937  1.00  0.00     0.153 A 
HETATM    2  N4  UNL     1     -10.424   5.904  26.629  1.00  0.00    -0.338 N 
ATOM      3  H4  UNL     1     -10.899   5.218  26.042  1.00  0.00     0.168 HD
HETATM    4  C11 UNL     1      -9.229   5.667  27.091  1.00  0.00     0.042 A 
HETATM    5  C12 UNL     1      -8.485   4.374  26.785  1.00  0.00     0.071 C 
HETATM    6  C13 UNL     1      -8.646   6.630  27.875  1.00  0.00     0.116 A 
HETATM    7  S2  UNL     1      -9.855   7.839  27.909  1.00  0.00    -0.033 SA
ENDROOT
BRANCH   1   8
HETATM    8  N3  UNL     1     -12.204   7.486  26.579  1.00  0.00    -0.307 N 
HETATM    9  C9  UNL     1     -13.355   6.966  27.221  1.00  0.00     0.223 C 
HETATM   10  O3  UNL     1     -13.592   5.744  27.094  1.00  0.00    -0.273 OA
ATOM     11  H3  UNL     1     -12.298   8.188  25.844  1.00  0.00     0.171 HD
BRANCH   9  12
HETATM   12  C8  UNL     1     -14.198   7.883  27.993  1.00  0.00     0.103 C 
BRANCH  12  13
HETATM   13  C7  UNL     1     -14.170   7.717  29.472  1.00  0.00     0.009 C 
BRANCH  13  14
HETATM   14  C6  UNL     1     -14.256   8.990  30.235  1.00  0.00     0.002 C 
BRANCH  14  15
HETATM   15  C5  UNL     1     -12.905   9.612  30.476  1.00  0.00     0.022 C 
BRANCH  15  16
HETATM   16  C4  UNL     1     -13.027  10.842  31.338  1.00  0.00     0.154 C 
BRANCH  16  17
HETATM   17  N1  UNL     1     -12.485  10.493  32.633  1.00  0.00    -0.243 N 
HETATM   18  C3  UNL     1     -12.929  11.197  33.774  1.00  0.00     0.381 C 
HETATM   19  O2  UNL     1     -13.784  12.114  33.699  1.00  0.00    -0.236 OA
BRANCH  18  20
HETATM   20  O1  UNL     1     -12.401  10.862  35.024  1.00  0.00    -0.303 OA
BRANCH  20  21
HETATM   21  C2  UNL     1     -13.202  10.033  35.881  1.00  0.00     0.176 C 
HETATM   22  C1  UNL     1     -12.354   8.932  36.466  1.00  0.00     0.034 C 
ENDBRANCH  20  21
ENDBRANCH  18  20
BRANCH  17  23
HETATM   23  N2  UNL     1     -11.542   9.477  32.724  1.00  0.00    -0.339 N 
ATOM     24  H22 UNL     1     -11.825   8.515  32.536  1.00  0.00     0.177 HD
ATOM     25  H21 UNL     1     -10.572   9.667  32.975  1.00  0.00     0.177 HD
ENDBRANCH  17  23
ENDBRANCH  16  17
ENDBRANCH  15  16
ENDBRANCH  14  15
ENDBRANCH  13  14
ENDBRANCH  12  13
ENDBRANCH   9  12
ENDBRANCH   1   8
BRANCH   6  26
HETATM   26  N5  UNL     1      -7.346   6.608  28.498  1.00  0.00    -0.238 N 
HETATM   27  S1  UNL     1      -5.974   7.370  27.926  1.00  0.00    -0.003 SA
HETATM   28  C14 UNL     1      -4.865   6.909  29.153  1.00  0.00     0.038 A 
HETATM   29  C15 UNL     1      -3.501   7.154  29.392  1.00  0.00     0.021 A 
HETATM   30  C20 UNL     1      -5.651   6.155  29.981  1.00  0.00     0.057 A 
HETATM   31  C16 UNL     1      -2.885   6.615  30.517  1.00  0.00     0.002 A 
HETATM   32  C17 UNL     1      -3.684   5.867  31.328  1.00  0.00     0.008 A 
HETATM   33  C18 UNL     1      -5.019   5.614  31.119  1.00  0.00    -0.045 A 
HETATM   34  C19 UNL     1      -5.751   4.772  32.105  1.00  0.00     0.049 C 
HETATM   35  C21 UNL     1      -6.951   6.011  29.616  1.00  0.00     0.271 A 
HETATM   36  O4  UNL     1      -7.826   5.330  30.287  1.00  0.00    -0.266 OA
ENDBRANCH   6  26
TORSDOF 11
ENDMDL
MODEL 5
REMARK VINA RESULT: -7.341262923      1.308      1.679
REMARK  11 active torsions:
REMARK  status: ('A' for Active; 'I' for Inactive)
REMARK    1  A    between atoms: C2_2  and  O1_3 
REMARK    2  A    between atoms: O1_3  and  C3_4 
REMARK       I    between atoms: C3_4  and  N1_6 
REMARK    3  A    between atoms: N1_6  and  N2_7 
REMARK    4  A    between atoms: N1_6  and  C4_10 
REMARK    5  A    between atoms: C4_10  and  C5_11 
REMARK    6  A    between atoms: C5_11  and  C6_12 
REMARK    7  A    between atoms: C6_12  and  C7_13 
REMARK    8  A    between atoms: C7_13  and  C8_14 
REMARK    9  A    between atoms: C8_14  and  C9_15 
REMARK       I    between atoms: C9_15  and  N3_17 
REMARK   10  A    between atoms: N3_17  and  C10_19 
REMARK   11  A    between atoms: C13_24  and  N5_25 
ROOT
HETATM    1  C10 UNL     1      -5.072   7.430  27.380  1.00  0.00     0.153 A 
HETATM    2  N4  UNL     1      -5.951   7.810  26.452  1.00  0.00    -0.338 N 
ATOM      3  H4  UNL     1      -5.646   8.012  25.500  1.00  0.00     0.168 HD
HETATM    4  C11 UNL     1      -7.207   7.919  26.784  1.00  0.00     0.042 A 
HETATM    5  C12 UNL     1      -8.273   8.347  25.784  1.00  0.00     0.071 C 
HETATM    6  C13 UNL     1      -7.550   7.633  28.081  1.00  0.00     0.116 A 
HETATM    7  S2  UNL     1      -6.040   7.217  28.765  1.00  0.00    -0.033 SA
ENDROOT
BRANCH   1   8
HETATM    8  N3  UNL     1      -3.776   7.262  27.254  1.00  0.00    -0.307 N 
HETATM    9  C9  UNL     1      -2.915   7.663  28.307  1.00  0.00     0.223 C 
HETATM   10  O3  UNL     1      -2.880   8.878  28.601  1.00  0.00    -0.273 OA
ATOM     11  H3  UNL     1      -3.392   6.846  26.406  1.00  0.00     0.171 HD
BRANCH   9  12
HETATM   12  C8  UNL     1      -2.120   6.637  28.987  1.00  0.00     0.103 C 
BRANCH  12  13
HETATM   13  C7  UNL     1      -2.877   5.495  29.570  1.00  0.00     0.009 C 
BRANCH  13  14
HETATM   14  C6  UNL     1      -3.312   5.700  30.977  1.00  0.00     0.002 C 
BRANCH  14  15
HETATM   15  C5  UNL     1      -4.277   4.642  31.442  1.00  0.00     0.022 C 
BRANCH  15  16
HETATM   16  C4  UNL     1      -5.404   5.254  32.234  1.00  0.00     0.154 C 
BRANCH  16  17
HETATM   17  N1  UNL     1      -5.721   4.320  33.292  1.00  0.00    -0.243 N 
HETATM   18  C3  UNL     1      -5.770   4.784  34.624  1.00  0.00     0.381 C 
HETATM   19  O2  UNL     1      -5.551   5.985  34.920  1.00  0.00    -0.236 OA
BRANCH  18  20
HETATM   20  O1  UNL     1      -6.071   3.878  35.646  1.00  0.00    -0.303 OA
BRANCH  20  21
HETATM   21  C2  UNL     1      -7.332   4.029  36.315  1.00  0.00     0.176 C 
HETATM   22  C1  UNL     1      -8.408   3.300  35.552  1.00  0.00     0.034 C 
ENDBRANCH  20  21
ENDBRANCH  18  20
BRANCH  17  23
HETATM   23  N2  UNL     1      -5.968   2.990  32.973  1.00  0.00    -0.339 N 
ATOM     24  H22 UNL     1      -5.398   2.534  32.260  1.00  0.00     0.177 HD
ATOM     25  H21 UNL     1      -6.705   2.457  33.434  1.00  0.00     0.177 HD
ENDBRANCH  17  23
ENDBRANCH  16  17
ENDBRANCH  15  16
ENDBRANCH  14  15
ENDBRANCH  13  14
ENDBRANCH  12  13
ENDBRANCH   9  12
ENDBRANCH   1   8
BRANCH   6  26
HETATM   26  N5  UNL     1      -8.858   7.677  28.687  1.00  0.00    -0.238 N 
HETATM   27  S1  UNL     1     -10.041   6.507  28.546  1.00  0.00    -0.003 SA
HETATM   28  C14 UNL     1     -11.267   7.229  29.508  1.00  0.00     0.038 A 
HETATM   29  C15 UNL     1     -12.572   6.862  29.881  1.00  0.00     0.021 A 
HETATM   30  C20 UNL     1     -10.668   8.392  29.908  1.00  0.00     0.057 A 
HETATM   31  C16 UNL     1     -13.322   7.702  30.698  1.00  0.00     0.002 A 
HETATM   32  C17 UNL     1     -12.710   8.854  31.085  1.00  0.00     0.008 A 
HETATM   33  C18 UNL     1     -11.436   9.237  30.735  1.00  0.00    -0.045 A 
HETATM   34  C19 UNL     1     -10.913  10.535  31.243  1.00  0.00     0.049 C 
HETATM   35  C21 UNL     1      -9.402   8.605  29.464  1.00  0.00     0.271 A 
HETATM   36  O4  UNL     1      -8.696   9.654  29.750  1.00  0.00    -0.266 OA
ENDBRANCH   6  26
TORSDOF 11
ENDMDL
