MODEL 1
REMARK VINA RESULT: -7.275361477      0.000      0.000
REMARK  9 active torsions:
REMARK  status: ('A' for Active; 'I' for Inactive)
REMARK    1  A    between atoms: O1_2  and  C2_3 
REMARK    2  A    between atoms: C4_5  and  C5_6 
REMARK    3  A    between atoms: C5_6  and  C6_7 
REMARK    4  A    between atoms: C7_8  and  C8_9 
REMARK    5  A    between atoms: C11_15  and  O4_16 
REMARK    6  A    between atoms: O4_16  and  C12_17 
REMARK    7  A    between atoms: C12_17  and  C13_18 
REMARK    8  A    between atoms: C18_26  and  O7_27 
REMARK    9  A    between atoms: C20_29  and  O8_30 
ROOT
HETATM    1  C6  UNL     1      -5.298   5.758  31.050  1.00  0.00    -0.002 A 
HETATM    2  C7  UNL     1      -4.742   4.634  31.586  1.00  0.00     0.148 A 
HETATM    3  O3  UNL     1      -3.482   4.495  31.118  1.00  0.00    -0.304 OA
HETATM    4  C9  UNL     1      -3.196   5.475  30.309  1.00  0.00     0.089 A 
HETATM    5  C10 UNL     1      -2.032   5.768  29.587  1.00  0.00     0.076 A 
HETATM    6  C11 UNL     1      -1.937   6.874  28.778  1.00  0.00     0.089 A 
HETATM    7  C14 UNL     1      -3.060   7.715  28.698  1.00  0.00     0.045 A 
HETATM    8 BR1  UNL     1      -2.944   9.250  27.586  1.00  0.00    -0.048 Br
HETATM    9  C15 UNL     1      -4.193   7.412  29.413  1.00  0.00     0.036 A 
HETATM   10  C16 UNL     1      -4.294   6.302  30.225  1.00  0.00     0.009 A 
ENDROOT
BRANCH   1  11
HETATM   11  C5  UNL     1      -6.616   6.364  31.163  1.00  0.00     0.081 C 
BRANCH  11  12
HETATM   12  C4  UNL     1      -7.330   6.625  29.905  1.00  0.00    -0.048 A 
HETATM   13  C3  UNL     1      -7.762   5.612  29.040  1.00  0.00     0.047 A 
HETATM   14  C2  UNL     1      -8.398   5.888  27.839  1.00  0.00     0.104 A 
HETATM   15  C20 UNL     1      -8.601   7.204  27.505  1.00  0.00     0.135 A 
HETATM   16  C18 UNL     1      -8.203   8.250  28.308  1.00  0.00     0.104 A 
HETATM   17  C17 UNL     1      -7.573   7.913  29.493  1.00  0.00     0.047 A 
BRANCH  14  18
HETATM   18  O1  UNL     1      -8.830   4.891  26.977  1.00  0.00    -0.353 OA
HETATM   19  C1  UNL     1     -10.054   4.243  27.289  1.00  0.00     0.210 C 
ENDBRANCH  14  18
BRANCH  15  20
HETATM   20  O8  UNL     1      -9.233   7.501  26.312  1.00  0.00    -0.351 OA
HETATM   21  C21 UNL     1     -10.595   7.805  26.192  1.00  0.00     0.210 C 
ENDBRANCH  15  20
BRANCH  16  22
HETATM   22  O7  UNL     1      -8.423   9.567  27.939  1.00  0.00    -0.353 OA
HETATM   23  C19 UNL     1      -7.325  10.309  27.447  1.00  0.00     0.210 C 
ENDBRANCH  16  22
ENDBRANCH  11  12
ENDBRANCH   1  11
BRANCH   2  24
HETATM   24  C8  UNL     1      -5.319   3.685  32.518  1.00  0.00     0.289 C 
HETATM   25  N1  UNL     1      -5.609   4.099  33.836  1.00  0.00    -0.055 NA
HETATM   26  O2  UNL     1      -5.571   2.518  32.207  1.00  0.00    -0.269 OA
ENDBRANCH   2  24
BRANCH   6  27
HETATM   27  O4  UNL     1      -0.800   7.152  28.081  1.00  0.00    -0.339 OA
BRANCH  27  28
HETATM   28  C12 UNL     1       0.416   7.646  28.503  1.00  0.00     0.288 C 
BRANCH  28  29
HETATM   29  C13 UNL     1       1.099   8.579  27.597  1.00  0.00     0.198 C 
HETATM   30  O5  UNL     1       0.860   8.567  26.375  1.00  0.00    -0.646 OA
HETATM   31  O6  UNL     1       2.012   9.476  28.103  1.00  0.00    -0.646 OA
ENDBRANCH  28  29
ENDBRANCH  27  28
ENDBRANCH   6  27
TORSDOF 9
ENDMDL
MODEL 2
REMARK VINA RESULT: -7.191996369      0.305      2.275
REMARK  9 active torsions:
REMARK  status: ('A' for Active; 'I' for Inactive)
REMARK    1  A    between atoms: O1_2  and  C2_3 
REMARK    2  A    between atoms: C4_5  and  C5_6 
REMARK    3  A    between atoms: C5_6  and  C6_7 
REMARK    4  A    between atoms: C7_8  and  C8_9 
REMARK    5  A    between atoms: C11_15  and  O4_16 
REMARK    6  A    between atoms: O4_16  and  C12_17 
REMARK    7  A    between atoms: C12_17  and  C13_18 
REMARK    8  A    between atoms: C18_26  and  O7_27 
REMARK    9  A    between atoms: C20_29  and  O8_30 
ROOT
HETATM    1  C6  UNL     1      -5.311   5.745  31.058  1.00  0.00    -0.002 A 
HETATM    2  C7  UNL     1      -4.755   4.620  31.592  1.00  0.00     0.148 A 
HETATM    3  O3  UNL     1      -3.495   4.482  31.122  1.00  0.00    -0.304 OA
HETATM    4  C9  UNL     1      -3.210   5.462  30.314  1.00  0.00     0.089 A 
HETATM    5  C10 UNL     1      -2.047   5.756  29.591  1.00  0.00     0.076 A 
HETATM    6  C11 UNL     1      -1.951   6.862  28.784  1.00  0.00     0.089 A 
HETATM    7  C14 UNL     1      -3.075   7.704  28.706  1.00  0.00     0.045 A 
HETATM    8 BR1  UNL     1      -2.960   9.240  27.596  1.00  0.00    -0.048 Br
HETATM    9  C15 UNL     1      -4.207   7.400  29.421  1.00  0.00     0.036 A 
HETATM   10  C16 UNL     1      -4.307   6.289  30.232  1.00  0.00     0.009 A 
ENDROOT
BRANCH   1  11
HETATM   11  C5  UNL     1      -6.629   6.350  31.172  1.00  0.00     0.081 C 
BRANCH  11  12
HETATM   12  C4  UNL     1      -7.291   6.730  29.916  1.00  0.00    -0.048 A 
HETATM   13  C3  UNL     1      -7.586   8.055  29.571  1.00  0.00     0.047 A 
HETATM   14  C2  UNL     1      -8.247   8.382  28.396  1.00  0.00     0.104 A 
HETATM   15  C20 UNL     1      -8.616   7.360  27.558  1.00  0.00     0.135 A 
HETATM   16  C18 UNL     1      -8.358   6.035  27.835  1.00  0.00     0.104 A 
HETATM   17  C17 UNL     1      -7.696   5.770  29.021  1.00  0.00     0.047 A 
BRANCH  14  18
HETATM   18  O1  UNL     1      -8.542   9.692  28.046  1.00  0.00    -0.353 OA
HETATM   19  C1  UNL     1      -7.990  10.723  28.851  1.00  0.00     0.210 C 
ENDBRANCH  14  18
BRANCH  15  20
HETATM   20  O8  UNL     1      -9.276   7.665  26.383  1.00  0.00    -0.351 OA
HETATM   21  C21 UNL     1     -10.663   7.823  26.272  1.00  0.00     0.210 C 
ENDBRANCH  15  20
BRANCH  16  22
HETATM   22  O7  UNL     1      -8.746   5.028  26.966  1.00  0.00    -0.353 OA
HETATM   23  C19 UNL     1      -9.905   4.286  27.289  1.00  0.00     0.210 C 
ENDBRANCH  16  22
ENDBRANCH  11  12
ENDBRANCH   1  11
BRANCH   2  24
HETATM   24  C8  UNL     1      -5.331   3.670  32.523  1.00  0.00     0.289 C 
HETATM   25  N1  UNL     1      -5.619   4.083  33.842  1.00  0.00    -0.055 NA
HETATM   26  O2  UNL     1      -5.584   2.504  32.211  1.00  0.00    -0.269 OA
ENDBRANCH   2  24
BRANCH   6  27
HETATM   27  O4  UNL     1      -0.815   7.142  28.086  1.00  0.00    -0.339 OA
BRANCH  27  28
HETATM   28  C12 UNL     1       0.399   7.641  28.507  1.00  0.00     0.288 C 
BRANCH  28  29
HETATM   29  C13 UNL     1       1.068   8.591  27.608  1.00  0.00     0.198 C 
HETATM   30  O5  UNL     1       0.780   8.630  26.397  1.00  0.00    -0.646 OA
HETATM   31  O6  UNL     1       2.021   9.449  28.110  1.00  0.00    -0.646 OA
ENDBRANCH  28  29
ENDBRANCH  27  28
ENDBRANCH   6  27
TORSDOF 9
ENDMDL
MODEL 3
REMARK VINA RESULT: -7.098397128      3.815      8.293
REMARK  9 active torsions:
REMARK  status: ('A' for Active; 'I' for Inactive)
REMARK    1  A    between atoms: O1_2  and  C2_3 
REMARK    2  A    between atoms: C4_5  and  C5_6 
REMARK    3  A    between atoms: C5_6  and  C6_7 
REMARK    4  A    between atoms: C7_8  and  C8_9 
REMARK    5  A    between atoms: C11_15  and  O4_16 
REMARK    6  A    between atoms: O4_16  and  C12_17 
REMARK    7  A    between atoms: C12_17  and  C13_18 
REMARK    8  A    between atoms: C18_26  and  O7_27 
REMARK    9  A    between atoms: C20_29  and  O8_30 
ROOT
HETATM    1  C6  UNL     1      -8.943   6.911  28.221  1.00  0.00    -0.002 A 
HETATM    2  C7  UNL     1      -9.797   5.848  28.184  1.00  0.00     0.148 A 
HETATM    3  O3  UNL     1     -10.899   6.139  28.912  1.00  0.00    -0.304 OA
HETATM    4  C9  UNL     1     -10.799   7.336  29.414  1.00  0.00     0.089 A 
HETATM    5  C10 UNL     1     -11.671   8.076  30.223  1.00  0.00     0.076 A 
HETATM    6  C11 UNL     1     -11.369   9.346  30.649  1.00  0.00     0.089 A 
HETATM    7  C14 UNL     1     -10.140   9.889  30.238  1.00  0.00     0.045 A 
HETATM    8 BR1  UNL     1      -9.707  11.646  30.814  1.00  0.00    -0.048 Br
HETATM    9  C15 UNL     1      -9.297   9.150  29.445  1.00  0.00     0.036 A 
HETATM   10  C16 UNL     1      -9.595   7.873  29.017  1.00  0.00     0.009 A 
ENDROOT
BRANCH   1  11
HETATM   11  C5  UNL     1      -7.617   7.137  27.666  1.00  0.00     0.081 C 
BRANCH  11  12
HETATM   12  C4  UNL     1      -6.477   6.707  28.489  1.00  0.00    -0.048 A 
HETATM   13  C3  UNL     1      -6.607   5.878  29.612  1.00  0.00     0.047 A 
HETATM   14  C2  UNL     1      -5.520   5.520  30.394  1.00  0.00     0.104 A 
HETATM   15  C20 UNL     1      -4.285   6.004  30.042  1.00  0.00     0.135 A 
HETATM   16  C18 UNL     1      -4.085   6.822  28.952  1.00  0.00     0.104 A 
HETATM   17  C17 UNL     1      -5.206   7.146  28.209  1.00  0.00     0.047 A 
BRANCH  14  18
HETATM   18  O1  UNL     1      -5.640   4.700  31.507  1.00  0.00    -0.353 OA
HETATM   19  C1  UNL     1      -6.120   5.290  32.705  1.00  0.00     0.210 C 
ENDBRANCH  14  18
BRANCH  15  20
HETATM   20  O8  UNL     1      -3.188   5.659  30.809  1.00  0.00    -0.351 OA
HETATM   21  C21 UNL     1      -2.395   4.525  30.592  1.00  0.00     0.210 C 
ENDBRANCH  15  20
BRANCH  16  22
HETATM   22  O7  UNL     1      -2.823   7.293  28.626  1.00  0.00    -0.353 OA
HETATM   23  C19 UNL     1      -2.491   8.613  29.006  1.00  0.00     0.210 C 
ENDBRANCH  16  22
ENDBRANCH  11  12
ENDBRANCH   1  11
BRANCH   2  24
HETATM   24  C8  UNL     1      -9.647   4.579  27.501  1.00  0.00     0.289 C 
HETATM   25  N1  UNL     1     -10.758   3.715  27.396  1.00  0.00    -0.055 NA
HETATM   26  O2  UNL     1      -8.580   4.217  27.000  1.00  0.00    -0.269 OA
ENDBRANCH   2  24
BRANCH   6  27
HETATM   27  O4  UNL     1     -12.224  10.058  31.434  1.00  0.00    -0.339 OA
BRANCH  27  28
HETATM   28  C12 UNL     1     -12.568   9.903  32.760  1.00  0.00     0.288 C 
BRANCH  28  29
HETATM   29  C13 UNL     1     -12.201  11.000  33.667  1.00  0.00     0.198 C 
HETATM   30  O5  UNL     1     -13.005  11.918  33.912  1.00  0.00    -0.646 OA
HETATM   31  O6  UNL     1     -10.954  11.011  34.253  1.00  0.00    -0.646 OA
ENDBRANCH  28  29
ENDBRANCH  27  28
ENDBRANCH   6  27
TORSDOF 9
ENDMDL
MODEL 4
REMARK VINA RESULT: -7.086841698      2.128      3.655
REMARK  9 active torsions:
REMARK  status: ('A' for Active; 'I' for Inactive)
REMARK    1  A    between atoms: O1_2  and  C2_3 
REMARK    2  A    between atoms: C4_5  and  C5_6 
REMARK    3  A    between atoms: C5_6  and  C6_7 
REMARK    4  A    between atoms: C7_8  and  C8_9 
REMARK    5  A    between atoms: C11_15  and  O4_16 
REMARK    6  A    between atoms: O4_16  and  C12_17 
REMARK    7  A    between atoms: C12_17  and  C13_18 
REMARK    8  A    between atoms: C18_26  and  O7_27 
REMARK    9  A    between atoms: C20_29  and  O8_30 
ROOT
HETATM    1  C6  UNL     1      -2.735   7.718  29.532  1.00  0.00    -0.002 A 
HETATM    2  C7  UNL     1      -2.197   6.533  29.940  1.00  0.00     0.148 A 
HETATM    3  O3  UNL     1      -0.941   6.424  29.453  1.00  0.00    -0.304 OA
HETATM    4  C9  UNL     1      -0.640   7.481  28.754  1.00  0.00     0.089 A 
HETATM    5  C10 UNL     1       0.526   7.831  28.062  1.00  0.00     0.076 A 
HETATM    6  C11 UNL     1       0.639   9.016  27.377  1.00  0.00     0.089 A 
HETATM    7  C14 UNL     1      -0.470   9.880  27.395  1.00  0.00     0.045 A 
HETATM    8 BR1  UNL     1      -0.331  11.524  26.456  1.00  0.00    -0.048 Br
HETATM    9  C15 UNL     1      -1.606   9.520  28.078  1.00  0.00     0.036 A 
HETATM   10  C16 UNL     1      -1.724   8.330  28.765  1.00  0.00     0.009 A 
ENDROOT
BRANCH   1  11
HETATM   11  C5  UNL     1      -4.042   8.330  29.716  1.00  0.00     0.081 C 
BRANCH  11  12
HETATM   12  C4  UNL     1      -5.176   7.675  29.047  1.00  0.00    -0.048 A 
HETATM   13  C3  UNL     1      -5.433   7.793  27.675  1.00  0.00     0.047 A 
HETATM   14  C2  UNL     1      -6.533   7.197  27.077  1.00  0.00     0.104 A 
HETATM   15  C20 UNL     1      -7.385   6.472  27.872  1.00  0.00     0.135 A 
HETATM   16  C18 UNL     1      -7.193   6.315  29.227  1.00  0.00     0.104 A 
HETATM   17  C17 UNL     1      -6.079   6.932  29.768  1.00  0.00     0.047 A 
BRANCH  14  18
HETATM   18  O1  UNL     1      -6.795   7.309  25.719  1.00  0.00    -0.353 OA
HETATM   19  C1  UNL     1      -6.858   8.617  25.171  1.00  0.00     0.210 C 
ENDBRANCH  14  18
BRANCH  15  20
HETATM   20  O8  UNL     1      -8.488   5.870  27.295  1.00  0.00    -0.351 OA
HETATM   21  C21 UNL     1      -8.523   4.543  26.850  1.00  0.00     0.210 C 
ENDBRANCH  15  20
BRANCH  16  22
HETATM   22  O7  UNL     1      -8.075   5.576  29.999  1.00  0.00    -0.353 OA
HETATM   23  C19 UNL     1      -7.538   4.572  30.836  1.00  0.00     0.210 C 
ENDBRANCH  16  22
ENDBRANCH  11  12
ENDBRANCH   1  11
BRANCH   2  24
HETATM   24  C8  UNL     1      -2.787   5.498  30.766  1.00  0.00     0.289 C 
HETATM   25  N1  UNL     1      -2.367   4.160  30.603  1.00  0.00    -0.055 NA
HETATM   26  O2  UNL     1      -3.649   5.738  31.615  1.00  0.00    -0.269 OA
ENDBRANCH   2  24
BRANCH   6  27
HETATM   27  O4  UNL     1       1.778   9.349  26.710  1.00  0.00    -0.339 OA
BRANCH  27  28
HETATM   28  C12 UNL     1       3.082   9.446  27.147  1.00  0.00     0.288 C 
BRANCH  28  29
HETATM   29  C13 UNL     1       3.420  10.628  27.952  1.00  0.00     0.198 C 
HETATM   30  O5  UNL     1       3.286  11.774  27.485  1.00  0.00    -0.646 OA
HETATM   31  O6  UNL     1       3.890  10.466  29.237  1.00  0.00    -0.646 OA
ENDBRANCH  28  29
ENDBRANCH  27  28
ENDBRANCH   6  27
TORSDOF 9
ENDMDL
MODEL 5
REMARK VINA RESULT: -7.052200123      3.152      7.647
REMARK  9 active torsions:
REMARK  status: ('A' for Active; 'I' for Inactive)
REMARK    1  A    between atoms: O1_2  and  C2_3 
REMARK    2  A    between atoms: C4_5  and  C5_6 
REMARK    3  A    between atoms: C5_6  and  C6_7 
REMARK    4  A    between atoms: C7_8  and  C8_9 
REMARK    5  A    between atoms: C11_15  and  O4_16 
REMARK    6  A    between atoms: O4_16  and  C12_17 
REMARK    7  A    between atoms: C12_17  and  C13_18 
REMARK    8  A    between atoms: C18_26  and  O7_27 
REMARK    9  A    between atoms: C20_29  and  O8_30 
ROOT
HETATM    1  C6  UNL     1      -7.018   6.614  29.328  1.00  0.00    -0.002 A 
HETATM    2  C7  UNL     1      -7.586   5.753  28.435  1.00  0.00     0.148 A 
HETATM    3  O3  UNL     1      -7.752   4.548  29.025  1.00  0.00    -0.304 OA
HETATM    4  C9  UNL     1      -7.322   4.589  30.253  1.00  0.00     0.089 A 
HETATM    5  C10 UNL     1      -7.284   3.609  31.253  1.00  0.00     0.076 A 
HETATM    6  C11 UNL     1      -6.783   3.865  32.506  1.00  0.00     0.089 A 
HETATM    7  C14 UNL     1      -6.305   5.163  32.756  1.00  0.00     0.045 A 
HETATM    8 BR1  UNL     1      -5.610   5.536  34.484  1.00  0.00    -0.048 Br
HETATM    9  C15 UNL     1      -6.349   6.112  31.765  1.00  0.00     0.036 A 
HETATM   10  C16 UNL     1      -6.850   5.858  30.505  1.00  0.00     0.009 A 
ENDROOT
BRANCH   1  11
HETATM   11  C5  UNL     1      -6.582   7.999  29.231  1.00  0.00     0.081 C 
BRANCH  11  12
HETATM   12  C4  UNL     1      -5.206   8.224  28.764  1.00  0.00    -0.048 A 
HETATM   13  C3  UNL     1      -4.897   8.732  27.495  1.00  0.00     0.047 A 
HETATM   14  C2  UNL     1      -3.589   8.897  27.065  1.00  0.00     0.104 A 
HETATM   15  C20 UNL     1      -2.579   8.545  27.924  1.00  0.00     0.135 A 
HETATM   16  C18 UNL     1      -2.810   8.040  29.185  1.00  0.00     0.104 A 
HETATM   17  C17 UNL     1      -4.135   7.897  29.559  1.00  0.00     0.047 A 
BRANCH  14  18
HETATM   18  O1  UNL     1      -3.274   9.400  25.810  1.00  0.00    -0.353 OA
HETATM   19  C1  UNL     1      -3.566  10.767  25.563  1.00  0.00     0.210 C 
ENDBRANCH  14  18
BRANCH  15  20
HETATM   20  O8  UNL     1      -1.268   8.701  27.514  1.00  0.00    -0.351 OA
HETATM   21  C21 UNL     1      -0.546   9.897  27.611  1.00  0.00     0.210 C 
ENDBRANCH  15  20
BRANCH  16  22
HETATM   22  O7  UNL     1      -1.765   7.694  30.026  1.00  0.00    -0.353 OA
HETATM   23  C19 UNL     1      -2.075   6.980  31.206  1.00  0.00     0.210 C 
ENDBRANCH  16  22
ENDBRANCH  11  12
ENDBRANCH   1  11
BRANCH   2  24
HETATM   24  C8  UNL     1      -7.990   5.994  27.064  1.00  0.00     0.289 C 
HETATM   25  N1  UNL     1      -9.276   5.595  26.643  1.00  0.00    -0.055 NA
HETATM   26  O2  UNL     1      -7.252   6.540  26.241  1.00  0.00    -0.269 OA
ENDBRANCH   2  24
BRANCH   6  27
HETATM   27  O4  UNL     1      -6.751   2.906  33.473  1.00  0.00    -0.339 OA
BRANCH  27  28
HETATM   28  C12 UNL     1      -7.770   2.181  34.054  1.00  0.00     0.288 C 
BRANCH  28  29
HETATM   29  C13 UNL     1      -8.411   2.777  35.234  1.00  0.00     0.198 C 
HETATM   30  O5  UNL     1      -9.584   2.488  35.534  1.00  0.00    -0.646 OA
HETATM   31  O6  UNL     1      -7.707   3.665  36.017  1.00  0.00    -0.646 OA
ENDBRANCH  28  29
ENDBRANCH  27  28
ENDBRANCH   6  27
TORSDOF 9
ENDMDL
