MODEL 1
REMARK VINA RESULT: -4.789639446      0.000      0.000
REMARK  5 active torsions:
REMARK  status: ('A' for Active; 'I' for Inactive)
REMARK    1  A    between atoms: N1_2  and  C2_4 
REMARK    2  A    between atoms: C2_4  and  C3_5 
REMARK    3  A    between atoms: C3_5  and  N2_6 
REMARK    4  A    between atoms: N2_6  and  C4_9 
REMARK    5  A    between atoms: C8_16  and  N4_17 
ROOT
HETATM    1  C4  UNL     1      15.700   3.318   3.680  1.00  0.00     0.242 C 
HETATM    2  C5  UNL     1      16.647   3.968   2.738  1.00  0.00     0.267 C 
HETATM    3  N3  UNL     1      16.747   5.379   3.159  1.00  0.00    -0.073 N 
ATOM      4  H31 UNL     1      17.479   5.873   2.647  1.00  0.00     0.277 HD
ATOM      5  H32 UNL     1      17.130   5.464   4.100  1.00  0.00     0.277 HD
HETATM    6  C6  UNL     1      15.480   6.043   3.041  1.00  0.00     0.234 C 
HETATM    7  C7  UNL     1      14.385   5.145   2.547  1.00  0.00     0.062 C 
HETATM    8  C8  UNL     1      14.306   3.835   3.313  1.00  0.00     0.219 C 
ENDROOT
BRANCH   1   9
HETATM    9  N2  UNL     1      15.628   1.868   3.573  1.00  0.00    -0.063 N 
ATOM     10  H22 UNL     1      15.995   1.552   2.675  1.00  0.00     0.278 HD
ATOM     11  H21 UNL     1      14.661   1.559   3.478  1.00  0.00     0.278 HD
BRANCH   9  12
HETATM   12  C3  UNL     1      16.272   1.192   4.649  1.00  0.00     0.277 C 
BRANCH  12  13
HETATM   13  C2  UNL     1      17.598   0.667   4.264  1.00  0.00     0.082 C 
BRANCH  13  14
HETATM   14  N1  UNL     1      18.765   1.319   4.649  1.00  0.00    -0.405 N 
HETATM   15  C1  UNL     1      19.498   2.124   3.762  1.00  0.00     0.145 C 
ATOM     16  H1  UNL     1      19.099   1.208   5.606  1.00  0.00     0.158 HD
ENDBRANCH  13  14
ENDBRANCH  12  13
ENDBRANCH   9  12
ENDBRANCH   1   9
BRANCH   8  17
HETATM   17  N4  UNL     1      13.535   3.983   4.511  1.00  0.00    -0.073 N 
HETATM   18  C9  UNL     1      12.204   4.490   4.207  1.00  0.00     0.267 C 
ATOM     19  H42 UNL     1      13.495   3.114   5.044  1.00  0.00     0.277 HD
ATOM     20  H41 UNL     1      14.013   4.564   5.199  1.00  0.00     0.277 HD
ENDBRANCH   8  17
TORSDOF 5
ENDMDL
MODEL 2
REMARK VINA RESULT: -4.719898675      2.803      4.908
REMARK  5 active torsions:
REMARK  status: ('A' for Active; 'I' for Inactive)
REMARK    1  A    between atoms: N1_2  and  C2_4 
REMARK    2  A    between atoms: C2_4  and  C3_5 
REMARK    3  A    between atoms: C3_5  and  N2_6 
REMARK    4  A    between atoms: N2_6  and  C4_9 
REMARK    5  A    between atoms: C8_16  and  N4_17 
ROOT
HETATM    1  C4  UNL     1      18.401   3.105   2.786  1.00  0.00     0.242 C 
HETATM    2  C5  UNL     1      19.429   2.387   3.582  1.00  0.00     0.267 C 
HETATM    3  N3  UNL     1      19.019   0.970   3.608  1.00  0.00    -0.073 N 
ATOM      4  H31 UNL     1      19.738   0.378   4.024  1.00  0.00     0.277 HD
ATOM      5  H32 UNL     1      19.007   0.565   2.672  1.00  0.00     0.277 HD
HETATM    6  C6  UNL     1      17.755   0.810   4.269  1.00  0.00     0.234 C 
HETATM    7  C7  UNL     1      17.168   2.107   4.744  1.00  0.00     0.062 C 
HETATM    8  C8  UNL     1      17.148   3.175   3.664  1.00  0.00     0.219 C 
ENDROOT
BRANCH   1   9
HETATM    9  N2  UNL     1      18.733   4.482   2.455  1.00  0.00    -0.063 N 
ATOM     10  H22 UNL     1      18.526   5.103   3.237  1.00  0.00     0.278 HD
ATOM     11  H21 UNL     1      18.081   4.858   1.766  1.00  0.00     0.278 HD
BRANCH   9  12
HETATM   12  C3  UNL     1      20.079   4.648   2.020  1.00  0.00     0.277 C 
BRANCH  12  13
HETATM   13  C2  UNL     1      20.161   5.257   0.676  1.00  0.00     0.082 C 
BRANCH  13  14
HETATM   14  N1  UNL     1      20.156   6.638   0.515  1.00  0.00    -0.405 N 
HETATM   15  C1  UNL     1      20.559   7.253  -0.681  1.00  0.00     0.145 C 
ATOM     16  H1  UNL     1      19.849   7.224   1.292  1.00  0.00     0.158 HD
ENDBRANCH  13  14
ENDBRANCH  12  13
ENDBRANCH   9  12
ENDBRANCH   1   9
BRANCH   8  17
HETATM   17  N4  UNL     1      15.989   3.048   2.833  1.00  0.00    -0.073 N 
HETATM   18  C9  UNL     1      14.775   3.076   3.635  1.00  0.00     0.267 C 
ATOM     19  H42 UNL     1      15.973   3.753   2.096  1.00  0.00     0.277 HD
ATOM     20  H41 UNL     1      16.035   2.215   2.245  1.00  0.00     0.277 HD
ENDBRANCH   8  17
TORSDOF 5
ENDMDL
MODEL 3
REMARK VINA RESULT: -4.626849083      1.530      5.187
REMARK  5 active torsions:
REMARK  status: ('A' for Active; 'I' for Inactive)
REMARK    1  A    between atoms: N1_2  and  C2_4 
REMARK    2  A    between atoms: C2_4  and  C3_5 
REMARK    3  A    between atoms: C3_5  and  N2_6 
REMARK    4  A    between atoms: N2_6  and  C4_9 
REMARK    5  A    between atoms: C8_16  and  N4_17 
ROOT
HETATM    1  C4  UNL     1      16.352   3.473   3.459  1.00  0.00     0.242 C 
HETATM    2  C5  UNL     1      16.022   2.145   4.038  1.00  0.00     0.267 C 
HETATM    3  N3  UNL     1      16.910   1.967   5.202  1.00  0.00    -0.073 N 
ATOM      4  H31 UNL     1      16.663   1.136   5.741  1.00  0.00     0.277 HD
ATOM      5  H32 UNL     1      16.738   2.673   5.917  1.00  0.00     0.277 HD
HETATM    6  C6  UNL     1      18.288   1.946   4.802  1.00  0.00     0.234 C 
HETATM    7  C7  UNL     1      18.478   2.126   3.324  1.00  0.00     0.062 C 
HETATM    8  C8  UNL     1      17.712   3.317   2.773  1.00  0.00     0.219 C 
ENDROOT
BRANCH   1   9
HETATM    9  N2  UNL     1      15.436   3.937   2.428  1.00  0.00    -0.063 N 
ATOM     10  H22 UNL     1      14.748   3.218   2.204  1.00  0.00     0.278 HD
ATOM     11  H21 UNL     1      15.908   4.004   1.527  1.00  0.00     0.278 HD
BRANCH   9  12
HETATM   12  C3  UNL     1      14.795   5.166   2.756  1.00  0.00     0.277 C 
BRANCH  12  13
HETATM   13  C2  UNL     1      13.362   4.982   3.068  1.00  0.00     0.082 C 
BRANCH  13  14
HETATM   14  N1  UNL     1      12.961   4.278   4.198  1.00  0.00    -0.405 N 
HETATM   15  C1  UNL     1      11.773   4.579   4.884  1.00  0.00     0.145 C 
ATOM     16  H1  UNL     1      13.550   3.518   4.541  1.00  0.00     0.158 HD
ENDBRANCH  13  14
ENDBRANCH  12  13
ENDBRANCH   9  12
ENDBRANCH   1   9
BRANCH   8  17
HETATM   17  N4  UNL     1      18.456   4.530   2.935  1.00  0.00    -0.073 N 
HETATM   18  C9  UNL     1      19.654   4.513   2.107  1.00  0.00     0.267 C 
ATOM     19  H42 UNL     1      17.882   5.353   2.753  1.00  0.00     0.277 HD
ATOM     20  H41 UNL     1      18.676   4.710   3.915  1.00  0.00     0.277 HD
ENDBRANCH   8  17
TORSDOF 5
ENDMDL
MODEL 4
REMARK VINA RESULT: -4.555094602      2.713      4.650
REMARK  5 active torsions:
REMARK  status: ('A' for Active; 'I' for Inactive)
REMARK    1  A    between atoms: N1_2  and  C2_4 
REMARK    2  A    between atoms: C2_4  and  C3_5 
REMARK    3  A    between atoms: C3_5  and  N2_6 
REMARK    4  A    between atoms: N2_6  and  C4_9 
REMARK    5  A    between atoms: C8_16  and  N4_17 
ROOT
HETATM    1  C4  UNL     1      18.260   2.986   2.816  1.00  0.00     0.242 C 
HETATM    2  C5  UNL     1      19.335   2.261   3.540  1.00  0.00     0.267 C 
HETATM    3  N3  UNL     1      18.930   0.843   3.572  1.00  0.00    -0.073 N 
ATOM      4  H31 UNL     1      19.675   0.247   3.937  1.00  0.00     0.277 HD
ATOM      5  H32 UNL     1      18.863   0.450   2.634  1.00  0.00     0.277 HD
HETATM    6  C6  UNL     1      17.709   0.671   4.306  1.00  0.00     0.234 C 
HETATM    7  C7  UNL     1      17.149   1.960   4.832  1.00  0.00     0.062 C 
HETATM    8  C8  UNL     1      17.062   3.042   3.768  1.00  0.00     0.219 C 
ENDROOT
BRANCH   1   9
HETATM    9  N2  UNL     1      18.570   4.369   2.483  1.00  0.00    -0.063 N 
ATOM     10  H22 UNL     1      18.288   4.995   3.238  1.00  0.00     0.278 HD
ATOM     11  H21 UNL     1      17.956   4.710   1.744  1.00  0.00     0.278 HD
BRANCH   9  12
HETATM   12  C3  UNL     1      19.937   4.572   2.140  1.00  0.00     0.277 C 
BRANCH  12  13
HETATM   13  C2  UNL     1      20.089   5.377   0.909  1.00  0.00     0.082 C 
BRANCH  13  14
HETATM   14  N1  UNL     1      21.008   5.017  -0.071  1.00  0.00    -0.405 N 
HETATM   15  C1  UNL     1      22.306   4.583   0.244  1.00  0.00     0.145 C 
ATOM     16  H1  UNL     1      20.730   5.070  -1.051  1.00  0.00     0.158 HD
ENDBRANCH  13  14
ENDBRANCH  12  13
ENDBRANCH   9  12
ENDBRANCH   1   9
BRANCH   8  17
HETATM   17  N4  UNL     1      15.856   2.922   3.007  1.00  0.00    -0.073 N 
HETATM   18  C9  UNL     1      14.781   3.690   3.620  1.00  0.00     0.267 C 
ATOM     19  H42 UNL     1      15.998   3.183   2.031  1.00  0.00     0.277 HD
ATOM     20  H41 UNL     1      15.592   1.946   2.868  1.00  0.00     0.277 HD
ENDBRANCH   8  17
TORSDOF 5
ENDMDL
MODEL 5
REMARK VINA RESULT: -4.553090155      1.712      4.820
REMARK  5 active torsions:
REMARK  status: ('A' for Active; 'I' for Inactive)
REMARK    1  A    between atoms: N1_2  and  C2_4 
REMARK    2  A    between atoms: C2_4  and  C3_5 
REMARK    3  A    between atoms: C3_5  and  N2_6 
REMARK    4  A    between atoms: N2_6  and  C4_9 
REMARK    5  A    between atoms: C8_16  and  N4_17 
ROOT
HETATM    1  C4  UNL     1      18.184   3.275   2.472  1.00  0.00     0.242 C 
HETATM    2  C5  UNL     1      18.802   4.625   2.488  1.00  0.00     0.267 C 
HETATM    3  N3  UNL     1      20.257   4.417   2.364  1.00  0.00    -0.073 N 
ATOM      4  H31 UNL     1      20.753   5.300   2.234  1.00  0.00     0.277 HD
ATOM      5  H32 UNL     1      20.499   3.971   1.480  1.00  0.00     0.277 HD
HETATM    6  C6  UNL     1      20.770   3.683   3.485  1.00  0.00     0.234 C 
HETATM    7  C7  UNL     1      19.711   3.300   4.477  1.00  0.00     0.062 C 
HETATM    8  C8  UNL     1      18.508   2.638   3.827  1.00  0.00     0.219 C 
ENDROOT
BRANCH   1   9
HETATM    9  N2  UNL     1      16.733   3.265   2.364  1.00  0.00    -0.063 N 
ATOM     10  H22 UNL     1      16.395   2.340   2.096  1.00  0.00     0.278 HD
ATOM     11  H21 UNL     1      16.426   3.798   1.550  1.00  0.00     0.278 HD
BRANCH   9  12
HETATM   12  C3  UNL     1      16.078   3.721   3.544  1.00  0.00     0.277 C 
BRANCH  12  13
HETATM   13  C2  UNL     1      14.793   3.027   3.772  1.00  0.00     0.082 C 
BRANCH  13  14
HETATM   14  N1  UNL     1      13.660   3.731   4.166  1.00  0.00    -0.405 N 
HETATM   15  C1  UNL     1      13.217   4.876   3.484  1.00  0.00     0.145 C 
ATOM     16  H1  UNL     1      13.134   3.405   4.977  1.00  0.00     0.158 HD
ENDBRANCH  13  14
ENDBRANCH  12  13
ENDBRANCH   9  12
ENDBRANCH   1   9
BRANCH   8  17
HETATM   17  N4  UNL     1      18.728   1.235   3.642  1.00  0.00    -0.073 N 
HETATM   18  C9  UNL     1      17.693   0.459   4.309  1.00  0.00     0.267 C 
ATOM     19  H42 UNL     1      18.805   0.992   2.654  1.00  0.00     0.277 HD
ATOM     20  H41 UNL     1      19.662   0.956   3.941  1.00  0.00     0.277 HD
ENDBRANCH   8  17
TORSDOF 5
ENDMDL
