MODEL 1
REMARK VINA RESULT: -5.710986617      0.000      0.000
REMARK  4 active torsions:
REMARK  status: ('A' for Active; 'I' for Inactive)
REMARK    1  A    between atoms: C2_2  and  N1_3 
REMARK    2  A    between atoms: N3_10  and  C6_11 
REMARK    3  A    between atoms: C6_11  and  C7_12 
REMARK    4  A    between atoms: C7_12  and  C9_15 
ROOT
HETATM    1  N1  UNL     1     -10.395  16.702 -17.582  1.00  0.00    -0.145 N 
HETATM    2  C3  UNL     1     -11.433  16.226 -16.776  1.00  0.00     0.292 A 
HETATM    3  O1  UNL     1     -11.876  16.920 -15.792  1.00  0.00    -0.265 OA
HETATM    4  C4  UNL     1     -12.064  14.938 -16.997  1.00  0.00     0.148 A 
HETATM    5  N2  UNL     1     -13.095  14.312 -16.429  1.00  0.00    -0.345 N 
ATOM      6  H2  UNL     1     -13.618  14.647 -15.620  1.00  0.00     0.167 HD
HETATM    7  C5  UNL     1     -13.330  13.189 -17.080  1.00  0.00     0.185 A 
HETATM    8  N3  UNL     1     -12.424  13.051 -18.133  1.00  0.00    -0.324 N 
HETATM    9  C11 UNL     1     -11.625  14.124 -18.057  1.00  0.00     0.167 A 
HETATM   10  N4  UNL     1     -10.537  14.578 -18.891  1.00  0.00    -0.104 N 
HETATM   11  C12 UNL     1      -9.905  13.718 -19.795  1.00  0.00     0.198 C 
HETATM   12  S1  UNL     1     -10.070  12.123 -19.815  1.00  0.00    -0.040 SA
HETATM   13  N5  UNL     1      -8.719  14.199 -20.474  1.00  0.00    -0.340 N 
ATOM     14  H5  UNL     1      -8.085  13.535 -20.918  1.00  0.00     0.164 HD
HETATM   15  C13 UNL     1      -8.431  15.612 -20.525  1.00  0.00     0.115 C 
HETATM   16  C14 UNL     1      -8.804  16.289 -21.795  1.00  0.00     0.063 C 
HETATM   17  C15 UNL     1      -6.907  15.712 -20.369  1.00  0.00     0.063 C 
HETATM   18  N6  UNL     1      -9.014  16.287 -19.415  1.00  0.00    -0.199 N 
ATOM     19  H6  UNL     1      -8.641  17.214 -19.210  1.00  0.00     0.180 HD
HETATM   20  C16 UNL     1      -9.947  15.876 -18.644  1.00  0.00     0.695 A 
ENDROOT
BRANCH   8  21
HETATM   21  C6  UNL     1     -12.737  12.135 -19.177  1.00  0.00     0.160 C 
BRANCH  21  22
HETATM   22  C7  UNL     1     -13.252  10.741 -18.743  1.00  0.00     0.084 C 
HETATM   23  C8  UNL     1     -12.639  10.111 -17.583  1.00  0.00     0.037 C 
HETATM   24 CL1  UNL     1     -12.695   9.621 -20.107  1.00  0.00    -0.115 Cl
BRANCH  22  25
HETATM   25  C9  UNL     1     -14.725  10.561 -18.799  1.00  0.00     0.132 C 
HETATM   26  C10 UNL     1     -15.071   9.248 -19.560  1.00  0.00     0.052 C 
HETATM   27 CL2  UNL     1     -15.557  10.349 -17.256  1.00  0.00    -0.100 Cl
HETATM   28 CL3  UNL     1     -15.581  11.844 -19.684  1.00  0.00    -0.100 Cl
ENDBRANCH  22  25
ENDBRANCH  21  22
ENDBRANCH   8  21
BRANCH   1  29
HETATM   29  C2  UNL     1      -9.794  17.984 -17.355  1.00  0.00     0.146 C 
HETATM   30  C1  UNL     1     -10.514  19.108 -18.061  1.00  0.00     0.027 C 
ENDBRANCH   1  29
TORSDOF 4
ENDMDL
MODEL 2
REMARK VINA RESULT: -5.709062777      9.451     11.824
REMARK  4 active torsions:
REMARK  status: ('A' for Active; 'I' for Inactive)
REMARK    1  A    between atoms: C2_2  and  N1_3 
REMARK    2  A    between atoms: N3_10  and  C6_11 
REMARK    3  A    between atoms: C6_11  and  C7_12 
REMARK    4  A    between atoms: C7_12  and  C9_15 
ROOT
HETATM    1  N1  UNL     1     -22.431  19.914 -14.167  1.00  0.00    -0.145 N 
HETATM    2  C3  UNL     1     -21.802  19.904 -15.416  1.00  0.00     0.292 A 
HETATM    3  O1  UNL     1     -22.217  20.656 -16.369  1.00  0.00    -0.265 OA
HETATM    4  C4  UNL     1     -20.661  19.057 -15.708  1.00  0.00     0.148 A 
HETATM    5  N2  UNL     1     -19.863  18.926 -16.768  1.00  0.00    -0.345 N 
ATOM      6  H2  UNL     1     -19.980  19.407 -17.660  1.00  0.00     0.167 HD
HETATM    7  C5  UNL     1     -18.897  18.076 -16.478  1.00  0.00     0.185 A 
HETATM    8  N3  UNL     1     -19.045  17.614 -15.169  1.00  0.00    -0.324 N 
HETATM    9  C11 UNL     1     -20.157  18.205 -14.708  1.00  0.00     0.167 A 
HETATM   10  N4  UNL     1     -20.800  18.174 -13.416  1.00  0.00    -0.104 N 
HETATM   11  C12 UNL     1     -20.499  17.184 -12.476  1.00  0.00     0.198 C 
HETATM   12  S1  UNL     1     -19.681  15.840 -12.786  1.00  0.00    -0.040 SA
HETATM   13  N5  UNL     1     -21.303  17.124 -11.273  1.00  0.00    -0.340 N 
ATOM     14  H5  UNL     1     -21.302  16.277 -10.705  1.00  0.00     0.164 HD
HETATM   15  C13 UNL     1     -22.105  18.255 -10.873  1.00  0.00     0.115 C 
HETATM   16  C14 UNL     1     -21.509  19.111  -9.813  1.00  0.00     0.063 C 
HETATM   17  C15 UNL     1     -23.399  17.646 -10.316  1.00  0.00     0.063 C 
HETATM   18  N6  UNL     1     -22.462  19.044 -12.003  1.00  0.00    -0.199 N 
ATOM     19  H6  UNL     1     -23.242  19.688 -11.869  1.00  0.00     0.180 HD
HETATM   20  C16 UNL     1     -21.927  19.048 -13.164  1.00  0.00     0.695 A 
ENDROOT
BRANCH   8  21
HETATM   21  C6  UNL     1     -17.923  17.010 -14.536  1.00  0.00     0.160 C 
BRANCH  21  22
HETATM   22  C7  UNL     1     -17.177  15.919 -15.342  1.00  0.00     0.084 C 
HETATM   23  C8  UNL     1     -16.896  16.174 -16.747  1.00  0.00     0.037 C 
HETATM   24 CL1  UNL     1     -18.406  14.541 -15.458  1.00  0.00    -0.115 Cl
BRANCH  22  25
HETATM   25  C9  UNL     1     -16.057  15.254 -14.630  1.00  0.00     0.132 C 
HETATM   26  C10 UNL     1     -14.711  15.945 -14.994  1.00  0.00     0.052 C 
HETATM   27 CL2  UNL     1     -16.077  15.340 -12.866  1.00  0.00    -0.100 Cl
HETATM   28 CL3  UNL     1     -15.830  13.545 -15.068  1.00  0.00    -0.100 Cl
ENDBRANCH  22  25
ENDBRANCH  21  22
ENDBRANCH   8  21
BRANCH   1  29
HETATM   29  C2  UNL     1     -23.549  20.769 -13.894  1.00  0.00     0.146 C 
HETATM   30  C1  UNL     1     -23.167  22.018 -13.138  1.00  0.00     0.027 C 
ENDBRANCH   1  29
TORSDOF 4
ENDMDL
MODEL 3
REMARK VINA RESULT: -5.553920379      2.706      3.820
REMARK  4 active torsions:
REMARK  status: ('A' for Active; 'I' for Inactive)
REMARK    1  A    between atoms: C2_2  and  N1_3 
REMARK    2  A    between atoms: N3_10  and  C6_11 
REMARK    3  A    between atoms: C6_11  and  C7_12 
REMARK    4  A    between atoms: C7_12  and  C9_15 
ROOT
HETATM    1  N1  UNL     1      -8.293  16.283 -20.202  1.00  0.00    -0.145 N 
HETATM    2  C3  UNL     1      -8.819  17.080 -19.180  1.00  0.00     0.292 A 
HETATM    3  O1  UNL     1      -8.334  18.243 -18.935  1.00  0.00    -0.265 OA
HETATM    4  C4  UNL     1      -9.927  16.651 -18.347  1.00  0.00     0.148 A 
HETATM    5  N2  UNL     1     -10.636  17.244 -17.387  1.00  0.00    -0.345 N 
ATOM      6  H2  UNL     1     -10.451  18.170 -17.000  1.00  0.00     0.167 HD
HETATM    7  C5  UNL     1     -11.617  16.443 -17.017  1.00  0.00     0.185 A 
HETATM    8  N3  UNL     1     -11.571  15.262 -17.759  1.00  0.00    -0.324 N 
HETATM    9  C11 UNL     1     -10.504  15.386 -18.561  1.00  0.00     0.167 A 
HETATM   10  N4  UNL     1      -9.967  14.529 -19.591  1.00  0.00    -0.104 N 
HETATM   11  C12 UNL     1     -10.337  13.184 -19.685  1.00  0.00     0.198 C 
HETATM   12  S1  UNL     1     -11.118  12.363 -18.551  1.00  0.00    -0.040 SA
HETATM   13  N5  UNL     1      -9.632  12.352 -20.639  1.00  0.00    -0.340 N 
ATOM     14  H5  UNL     1      -9.673  11.337 -20.553  1.00  0.00     0.164 HD
HETATM   15  C13 UNL     1      -8.872  12.951 -21.709  1.00  0.00     0.115 C 
HETATM   16  C14 UNL     1      -9.557  12.987 -23.029  1.00  0.00     0.063 C 
HETATM   17  C15 UNL     1      -7.623  12.071 -21.851  1.00  0.00     0.063 C 
HETATM   18  N6  UNL     1      -8.430  14.255 -21.346  1.00  0.00    -0.199 N 
ATOM     19  H6  UNL     1      -7.668  14.640 -21.904  1.00  0.00     0.180 HD
HETATM   20  C16 UNL     1      -8.870  15.005 -20.408  1.00  0.00     0.695 A 
ENDROOT
BRANCH   8  21
HETATM   21  C6  UNL     1     -12.737  14.445 -17.800  1.00  0.00     0.160 C 
BRANCH  21  22
HETATM   22  C7  UNL     1     -13.438  14.172 -16.447  1.00  0.00     0.084 C 
HETATM   23  C8  UNL     1     -12.623  14.150 -15.242  1.00  0.00     0.037 C 
HETATM   24 CL1  UNL     1     -13.959  12.401 -16.571  1.00  0.00    -0.115 Cl
BRANCH  22  25
HETATM   25  C9  UNL     1     -14.746  14.850 -16.259  1.00  0.00     0.132 C 
HETATM   26  C10 UNL     1     -15.763  13.870 -15.607  1.00  0.00     0.052 C 
HETATM   27 CL2  UNL     1     -14.773  16.231 -15.159  1.00  0.00    -0.100 Cl
HETATM   28 CL3  UNL     1     -15.518  15.372 -17.774  1.00  0.00    -0.100 Cl
ENDBRANCH  22  25
ENDBRANCH  21  22
ENDBRANCH   8  21
BRANCH   1  29
HETATM   29  C2  UNL     1      -7.206  16.731 -21.022  1.00  0.00     0.146 C 
HETATM   30  C1  UNL     1      -7.646  17.167 -22.399  1.00  0.00     0.027 C 
ENDBRANCH   1  29
TORSDOF 4
ENDMDL
MODEL 4
REMARK VINA RESULT: -5.531466070      1.086      1.731
REMARK  4 active torsions:
REMARK  status: ('A' for Active; 'I' for Inactive)
REMARK    1  A    between atoms: C2_2  and  N1_3 
REMARK    2  A    between atoms: N3_10  and  C6_11 
REMARK    3  A    between atoms: C6_11  and  C7_12 
REMARK    4  A    between atoms: C7_12  and  C9_15 
ROOT
HETATM    1  N1  UNL     1     -10.566  16.597 -17.459  1.00  0.00    -0.145 N 
HETATM    2  C3  UNL     1     -11.596  16.309 -16.557  1.00  0.00     0.292 A 
HETATM    3  O1  UNL     1     -11.917  17.142 -15.636  1.00  0.00    -0.265 OA
HETATM    4  C4  UNL     1     -12.353  15.072 -16.606  1.00  0.00     0.148 A 
HETATM    5  N2  UNL     1     -13.402  14.611 -15.925  1.00  0.00    -0.345 N 
ATOM      6  H2  UNL     1     -13.846  15.078 -15.135  1.00  0.00     0.167 HD
HETATM    7  C5  UNL     1     -13.775  13.455 -16.438  1.00  0.00     0.185 A 
HETATM    8  N3  UNL     1     -12.946  13.120 -17.511  1.00  0.00    -0.324 N 
HETATM    9  C11 UNL     1     -12.050  14.114 -17.591  1.00  0.00     0.167 A 
HETATM   10  N4  UNL     1     -10.975  14.371 -18.520  1.00  0.00    -0.104 N 
HETATM   11  C12 UNL     1     -10.477  13.364 -19.353  1.00  0.00     0.198 C 
HETATM   12  S1  UNL     1     -10.787  11.799 -19.191  1.00  0.00    -0.040 SA
HETATM   13  N5  UNL     1      -9.293  13.656 -20.135  1.00  0.00    -0.340 N 
ATOM     14  H5  UNL     1      -8.748  12.891 -20.534  1.00  0.00     0.164 HD
HETATM   15  C13 UNL     1      -8.881  15.021 -20.354  1.00  0.00     0.115 C 
HETATM   16  C14 UNL     1      -9.264  15.595 -21.672  1.00  0.00     0.063 C 
HETATM   17  C15 UNL     1      -7.348  14.989 -20.282  1.00  0.00     0.063 C 
HETATM   18  N6  UNL     1      -9.336  15.861 -19.299  1.00  0.00    -0.199 N 
ATOM     19  H6  UNL     1      -8.869  16.765 -19.215  1.00  0.00     0.180 HD
HETATM   20  C16 UNL     1     -10.257  15.626 -18.444  1.00  0.00     0.695 A 
ENDROOT
BRANCH   8  21
HETATM   21  C6  UNL     1     -13.401  12.135 -18.432  1.00  0.00     0.160 C 
BRANCH  21  22
HETATM   22  C7  UNL     1     -14.904  12.174 -18.802  1.00  0.00     0.084 C 
HETATM   23  C8  UNL     1     -15.634  13.413 -18.582  1.00  0.00     0.037 C 
HETATM   24 CL1  UNL     1     -15.693  11.057 -17.555  1.00  0.00    -0.115 Cl
BRANCH  22  25
HETATM   25  C9  UNL     1     -15.265  11.496 -20.073  1.00  0.00     0.132 C 
HETATM   26  C10 UNL     1     -15.879  10.098 -19.773  1.00  0.00     0.052 C 
HETATM   27 CL2  UNL     1     -16.511  12.268 -21.056  1.00  0.00    -0.100 Cl
HETATM   28 CL3  UNL     1     -13.881  11.171 -21.142  1.00  0.00    -0.100 Cl
ENDBRANCH  22  25
ENDBRANCH  21  22
ENDBRANCH   8  21
BRANCH   1  29
HETATM   29  C2  UNL     1      -9.840  17.832 -17.402  1.00  0.00     0.146 C 
HETATM   30  C1  UNL     1     -10.572  18.979 -18.056  1.00  0.00     0.027 C 
ENDBRANCH   1  29
TORSDOF 4
ENDMDL
MODEL 5
REMARK VINA RESULT: -5.499083977      2.557      3.962
REMARK  4 active torsions:
REMARK  status: ('A' for Active; 'I' for Inactive)
REMARK    1  A    between atoms: C2_2  and  N1_3 
REMARK    2  A    between atoms: N3_10  and  C6_11 
REMARK    3  A    between atoms: C6_11  and  C7_12 
REMARK    4  A    between atoms: C7_12  and  C9_15 
ROOT
HETATM    1  N1  UNL     1      -9.314  15.522 -19.508  1.00  0.00    -0.145 N 
HETATM    2  C3  UNL     1      -9.793  16.383 -18.516  1.00  0.00     0.292 A 
HETATM    3  O1  UNL     1      -9.255  17.533 -18.324  1.00  0.00    -0.265 OA
HETATM    4  C4  UNL     1     -10.910  16.038 -17.657  1.00  0.00     0.148 A 
HETATM    5  N2  UNL     1     -11.583  16.701 -16.716  1.00  0.00    -0.345 N 
ATOM      6  H2  UNL     1     -11.353  17.633 -16.370  1.00  0.00     0.167 HD
HETATM    7  C5  UNL     1     -12.594  15.960 -16.305  1.00  0.00     0.185 A 
HETATM    8  N3  UNL     1     -12.607  14.748 -16.997  1.00  0.00    -0.324 N 
HETATM    9  C11 UNL     1     -11.545  14.793 -17.813  1.00  0.00     0.167 A 
HETATM   10  N4  UNL     1     -11.056  13.871 -18.811  1.00  0.00    -0.104 N 
HETATM   11  C12 UNL     1     -11.485  12.541 -18.846  1.00  0.00     0.198 C 
HETATM   12  S1  UNL     1     -12.289  11.802 -17.672  1.00  0.00    -0.040 SA
HETATM   13  N5  UNL     1     -10.827  11.640 -19.770  1.00  0.00    -0.340 N 
ATOM     14  H5  UNL     1     -10.912  10.632 -19.642  1.00  0.00     0.164 HD
HETATM   15  C13 UNL     1     -10.054  12.161 -20.871  1.00  0.00     0.115 C 
HETATM   16  C14 UNL     1     -10.750  12.172 -22.185  1.00  0.00     0.063 C 
HETATM   17  C15 UNL     1      -8.845  11.220 -20.987  1.00  0.00     0.063 C 
HETATM   18  N6  UNL     1      -9.551  13.457 -20.567  1.00  0.00    -0.199 N 
ATOM     19  H6  UNL     1      -8.779  13.785 -21.147  1.00  0.00     0.180 HD
HETATM   20  C16 UNL     1      -9.948  14.263 -19.657  1.00  0.00     0.695 A 
ENDROOT
BRANCH   8  21
HETATM   21  C6  UNL     1     -13.808  13.983 -16.994  1.00  0.00     0.160 C 
BRANCH  21  22
HETATM   22  C7  UNL     1     -14.736  14.156 -15.766  1.00  0.00     0.084 C 
HETATM   23  C8  UNL     1     -14.121  14.295 -14.455  1.00  0.00     0.037 C 
HETATM   24 CL1  UNL     1     -15.570  12.512 -15.610  1.00  0.00    -0.115 Cl
BRANCH  22  25
HETATM   25  C9  UNL     1     -15.899  15.057 -15.969  1.00  0.00     0.132 C 
HETATM   26  C10 UNL     1     -17.215  14.318 -15.590  1.00  0.00     0.052 C 
HETATM   27 CL2  UNL     1     -15.962  16.508 -14.965  1.00  0.00    -0.100 Cl
HETATM   28 CL3  UNL     1     -16.132  15.575 -17.654  1.00  0.00    -0.100 Cl
ENDBRANCH  22  25
ENDBRANCH  21  22
ENDBRANCH   8  21
BRANCH   1  29
HETATM   29  C2  UNL     1      -8.217  15.888 -20.356  1.00  0.00     0.146 C 
HETATM   30  C1  UNL     1      -8.652  16.626 -21.599  1.00  0.00     0.027 C 
ENDBRANCH   1  29
TORSDOF 4
ENDMDL
