MODEL 1
REMARK VINA RESULT: -7.624975686      0.000      0.000
REMARK  9 active torsions:
REMARK  status: ('A' for Active; 'I' for Inactive)
REMARK    1  A    between atoms: N1_2  and  C4_5 
REMARK    2  A    between atoms: C4_5  and  C5_6 
REMARK    3  A    between atoms: C5_6  and  N2_7 
REMARK       I    between atoms: N2_7  and  C6_9 
REMARK       I    between atoms: C6_9  and  N3_10 
REMARK       I    between atoms: C6_9  and  N5_13 
REMARK    4  A    between atoms: N5_13  and  C8_15 
REMARK    5  A    between atoms: C8_15  and  C9_16 
REMARK    6  A    between atoms: C9_16  and  C10_17 
REMARK    7  A    between atoms: C10_17  and  C11_18 
REMARK    8  A    between atoms: C11_18  and  N6_19 
REMARK       I    between atoms: N6_19  and  C12_21 
REMARK       I    between atoms: C12_21  and  N8_25 
REMARK    9  A    between atoms: N8_25  and  C13_27 
ROOT
HETATM    1  N2  UNL     1      16.664   5.635  21.187  1.00  0.00    -0.348 N 
ATOM      2  H2  UNL     1      17.657   5.838  21.074  1.00  0.00     0.163 HD
HETATM    3  C6  UNL     1      15.826   4.908  20.202  1.00  0.00     0.263 C 
HETATM    4  N3  UNL     1      15.249   4.401  19.509  1.00  0.00    -0.294 NA
HETATM    5  C7  UNL     1      14.359   3.769  18.774  1.00  0.00     0.271 C 
HETATM    6  N4  UNL     1      13.539   3.240  18.165  1.00  0.00    -0.156 NA
HETATM    7  N5  UNL     1      17.271   4.918  19.117  1.00  0.00    -0.350 N 
ATOM      8  H5  UNL     1      17.873   5.709  18.887  1.00  0.00     0.163 HD
ENDROOT
BRANCH   1   9
HETATM    9  C5  UNL     1      15.844   6.020  22.356  1.00  0.00     0.151 C 
BRANCH   9  10
HETATM   10  C4  UNL     1      16.675   6.944  23.189  1.00  0.00     0.255 C 
BRANCH  10  11
HETATM   11  N1  UNL     1      15.834   7.702  24.105  1.00  0.00    -0.077 N 
HETATM   12  C1  UNL     1      14.901   6.785  24.663  1.00  0.00     0.271 C 
HETATM   13  C2  UNL     1      16.681   8.206  25.192  1.00  0.00     0.271 C 
HETATM   14  C3  UNL     1      15.142   8.755  23.418  1.00  0.00     0.271 C 
ENDBRANCH  10  11
ENDBRANCH   9  10
ENDBRANCH   1   9
BRANCH   7  15
HETATM   15  C8  UNL     1      17.382   3.630  18.671  1.00  0.00     0.123 C 
BRANCH  15  16
HETATM   16  C9  UNL     1      18.814   3.453  18.151  1.00  0.00     0.021 C 
BRANCH  16  17
HETATM   17  C10 UNL     1      18.960   2.150  17.459  1.00  0.00     0.022 C 
BRANCH  17  18
HETATM   18  C11 UNL     1      20.188   1.394  17.794  1.00  0.00     0.138 C 
BRANCH  18  19
HETATM   19  N6  UNL     1      21.277   2.245  18.218  1.00  0.00    -0.227 N 
HETATM   20  C12 UNL     1      22.281   1.813  19.213  1.00  0.00     0.669 C 
HETATM   21  N7  UNL     1      22.555   0.612  19.009  1.00  0.00    -0.235 N 
HETATM   22  N8  UNL     1      22.619   2.783  20.139  1.00  0.00    -0.191 N 
ATOM     23  H72 UNL     1      22.305  -0.103  18.326  1.00  0.00     0.174 HD
ATOM     24  H71 UNL     1      23.248   0.315  19.696  1.00  0.00     0.174 HD
ATOM     25  H8  UNL     1      22.788   3.714  19.758  1.00  0.00     0.180 HD
ATOM     26  H6  UNL     1      21.355   3.179  17.816  1.00  0.00     0.177 HD
BRANCH  22  27
HETATM   27  C13 UNL     1      22.767   2.660  21.585  1.00  0.00     0.219 C 
HETATM   28  C14 UNL     1      23.695   1.499  21.808  1.00  0.00     0.090 C 
HETATM   29  C15 UNL     1      24.080   1.228  23.230  1.00  0.00     0.241 C 
HETATM   30  N9  UNL     1      23.914   2.420  24.036  1.00  0.00    -0.069 N 
HETATM   31  C16 UNL     1      24.784   2.267  25.193  1.00  0.00     0.272 C 
HETATM   32  C17 UNL     1      24.341   3.595  23.320  1.00  0.00     0.241 C 
HETATM   33  C19 UNL     1      22.575   2.449  24.506  1.00  0.00     0.265 C 
HETATM   34  C18 UNL     1      23.567   3.880  22.087  1.00  0.00     0.090 C 
HETATM   35  C20 UNL     1      21.575   3.114  23.630  1.00  0.00     0.268 C 
HETATM   36  N10 UNL     1      21.509   2.551  22.265  1.00  0.00    -0.038 N 
HETATM   37  C21 UNL     1      20.575   3.427  21.582  1.00  0.00     0.240 C 
HETATM   38  C25 UNL     1      20.930   1.259  22.373  1.00  0.00     0.240 C 
HETATM   39  C22 UNL     1      19.143   3.221  22.004  1.00  0.00     0.028 C 
HETATM   40  C23 UNL     1      18.608   1.874  21.597  1.00  0.00     0.003 C 
HETATM   41  C24 UNL     1      19.804   0.957  21.411  1.00  0.00     0.028 C 
ENDBRANCH  22  27
ENDBRANCH  18  19
ENDBRANCH  17  18
ENDBRANCH  16  17
ENDBRANCH  15  16
ENDBRANCH   7  15
TORSDOF 9
ENDMDL
MODEL 2
REMARK VINA RESULT: -7.465344226      1.962      3.882
REMARK  9 active torsions:
REMARK  status: ('A' for Active; 'I' for Inactive)
REMARK    1  A    between atoms: N1_2  and  C4_5 
REMARK    2  A    between atoms: C4_5  and  C5_6 
REMARK    3  A    between atoms: C5_6  and  N2_7 
REMARK       I    between atoms: N2_7  and  C6_9 
REMARK       I    between atoms: C6_9  and  N3_10 
REMARK       I    between atoms: C6_9  and  N5_13 
REMARK    4  A    between atoms: N5_13  and  C8_15 
REMARK    5  A    between atoms: C8_15  and  C9_16 
REMARK    6  A    between atoms: C9_16  and  C10_17 
REMARK    7  A    between atoms: C10_17  and  C11_18 
REMARK    8  A    between atoms: C11_18  and  N6_19 
REMARK       I    between atoms: N6_19  and  C12_21 
REMARK       I    between atoms: C12_21  and  N8_25 
REMARK    9  A    between atoms: N8_25  and  C13_27 
ROOT
HETATM    1  N2  UNL     1      16.610   7.733  22.835  1.00  0.00    -0.348 N 
ATOM      2  H2  UNL     1      17.048   7.996  21.952  1.00  0.00     0.163 HD
HETATM    3  C6  UNL     1      16.163   6.364  23.190  1.00  0.00     0.263 C 
HETATM    4  N3  UNL     1      15.853   5.407  23.429  1.00  0.00    -0.294 NA
HETATM    5  C7  UNL     1      15.413   4.270  23.926  1.00  0.00     0.271 C 
HETATM    6  N4  UNL     1      15.001   3.307  24.401  1.00  0.00    -0.156 NA
HETATM    7  N5  UNL     1      16.610   5.890  21.504  1.00  0.00    -0.350 N 
ATOM      8  H5  UNL     1      16.365   6.368  20.637  1.00  0.00     0.163 HD
ENDROOT
BRANCH   1   9
HETATM    9  C5  UNL     1      16.325   8.660  23.952  1.00  0.00     0.151 C 
BRANCH   9  10
HETATM   10  C4  UNL     1      14.843   8.659  24.156  1.00  0.00     0.255 C 
BRANCH  10  11
HETATM   11  N1  UNL     1      14.523   8.523  25.570  1.00  0.00    -0.077 N 
HETATM   12  C1  UNL     1      15.757   8.365  26.260  1.00  0.00     0.271 C 
HETATM   13  C2  UNL     1      13.907   9.775  26.021  1.00  0.00     0.271 C 
HETATM   14  C3  UNL     1      13.679   7.386  25.800  1.00  0.00     0.271 C 
ENDBRANCH  10  11
ENDBRANCH   9  10
ENDBRANCH   1   9
BRANCH   7  15
HETATM   15  C8  UNL     1      17.349   4.749  21.647  1.00  0.00     0.123 C 
BRANCH  15  16
HETATM   16  C9  UNL     1      17.150   3.919  20.373  1.00  0.00     0.021 C 
BRANCH  16  17
HETATM   17  C10 UNL     1      17.280   4.773  19.168  1.00  0.00     0.022 C 
BRANCH  17  18
HETATM   18  C11 UNL     1      18.155   4.230  18.103  1.00  0.00     0.138 C 
BRANCH  18  19
HETATM   19  N6  UNL     1      19.538   4.121  18.511  1.00  0.00    -0.227 N 
HETATM   20  C12 UNL     1      20.273   2.839  18.487  1.00  0.00     0.669 C 
HETATM   21  N7  UNL     1      19.937   2.205  17.466  1.00  0.00    -0.235 N 
HETATM   22  N8  UNL     1      21.078   2.624  19.590  1.00  0.00    -0.191 N 
ATOM     23  H72 UNL     1      19.343   2.363  16.652  1.00  0.00     0.174 HD
ATOM     24  H71 UNL     1      20.445   1.320  17.449  1.00  0.00     0.174 HD
ATOM     25  H8  UNL     1      21.644   3.421  19.882  1.00  0.00     0.180 HD
ATOM     26  H6  UNL     1      20.024   4.960  18.826  1.00  0.00     0.177 HD
BRANCH  22  27
HETATM   27  C13 UNL     1      21.230   1.417  20.394  1.00  0.00     0.219 C 
HETATM   28  C14 UNL     1      19.838   0.981  20.754  1.00  0.00     0.090 C 
HETATM   29  C15 UNL     1      19.725  -0.306  21.511  1.00  0.00     0.241 C 
HETATM   30  N9  UNL     1      20.900  -1.125  21.295  1.00  0.00    -0.069 N 
HETATM   31  C16 UNL     1      20.509  -2.500  21.569  1.00  0.00     0.272 C 
HETATM   32  C17 UNL     1      21.335  -1.059  19.923  1.00  0.00     0.241 C 
HETATM   33  C19 UNL     1      21.875  -0.757  22.259  1.00  0.00     0.265 C 
HETATM   34  C18 UNL     1      21.747   0.293  19.472  1.00  0.00     0.090 C 
HETATM   35  C20 UNL     1      22.794   0.352  21.888  1.00  0.00     0.268 C 
HETATM   36  N10 UNL     1      22.100   1.603  21.519  1.00  0.00    -0.038 N 
HETATM   37  C21 UNL     1      23.180   2.474  21.086  1.00  0.00     0.240 C 
HETATM   38  C25 UNL     1      21.534   2.134  22.708  1.00  0.00     0.240 C 
HETATM   39  C22 UNL     1      24.027   2.985  22.222  1.00  0.00     0.028 C 
HETATM   40  C23 UNL     1      23.272   3.914  23.135  1.00  0.00     0.003 C 
HETATM   41  C24 UNL     1      21.796   3.599  22.969  1.00  0.00     0.028 C 
ENDBRANCH  22  27
ENDBRANCH  18  19
ENDBRANCH  17  18
ENDBRANCH  16  17
ENDBRANCH  15  16
ENDBRANCH   7  15
TORSDOF 9
ENDMDL
MODEL 3
REMARK VINA RESULT: -7.451071122      0.936      1.356
REMARK  9 active torsions:
REMARK  status: ('A' for Active; 'I' for Inactive)
REMARK    1  A    between atoms: N1_2  and  C4_5 
REMARK    2  A    between atoms: C4_5  and  C5_6 
REMARK    3  A    between atoms: C5_6  and  N2_7 
REMARK       I    between atoms: N2_7  and  C6_9 
REMARK       I    between atoms: C6_9  and  N3_10 
REMARK       I    between atoms: C6_9  and  N5_13 
REMARK    4  A    between atoms: N5_13  and  C8_15 
REMARK    5  A    between atoms: C8_15  and  C9_16 
REMARK    6  A    between atoms: C9_16  and  C10_17 
REMARK    7  A    between atoms: C10_17  and  C11_18 
REMARK    8  A    between atoms: C11_18  and  N6_19 
REMARK       I    between atoms: N6_19  and  C12_21 
REMARK       I    between atoms: C12_21  and  N8_25 
REMARK    9  A    between atoms: N8_25  and  C13_27 
ROOT
HETATM    1  N2  UNL     1      16.510   5.994  21.435  1.00  0.00    -0.348 N 
ATOM      2  H2  UNL     1      17.484   6.278  21.324  1.00  0.00     0.163 HD
HETATM    3  C6  UNL     1      15.726   5.230  20.434  1.00  0.00     0.263 C 
HETATM    4  N3  UNL     1      15.186   4.698  19.731  1.00  0.00    -0.294 NA
HETATM    5  C7  UNL     1      14.343   4.018  18.983  1.00  0.00     0.271 C 
HETATM    6  N4  UNL     1      13.563   3.443  18.363  1.00  0.00    -0.156 NA
HETATM    7  N5  UNL     1      17.159   5.384  19.343  1.00  0.00    -0.350 N 
ATOM      8  H5  UNL     1      17.694   6.226  19.133  1.00  0.00     0.163 HD
ENDROOT
BRANCH   1   9
HETATM    9  C5  UNL     1      15.671   6.282  22.619  1.00  0.00     0.151 C 
BRANCH   9  10
HETATM   10  C4  UNL     1      16.502   7.097  23.558  1.00  0.00     0.255 C 
BRANCH  10  11
HETATM   11  N1  UNL     1      15.652   7.909  24.418  1.00  0.00    -0.077 N 
HETATM   12  C1  UNL     1      16.484   8.430  25.448  1.00  0.00     0.271 C 
HETATM   13  C2  UNL     1      15.148   9.038  23.627  1.00  0.00     0.271 C 
HETATM   14  C3  UNL     1      14.593   7.125  24.986  1.00  0.00     0.271 C 
ENDBRANCH  10  11
ENDBRANCH   9  10
ENDBRANCH   1   9
BRANCH   7  15
HETATM   15  C8  UNL     1      17.367   4.122  18.862  1.00  0.00     0.123 C 
BRANCH  15  16
HETATM   16  C9  UNL     1      18.814   4.063  18.358  1.00  0.00     0.021 C 
BRANCH  16  17
HETATM   17  C10 UNL     1      18.971   2.991  17.346  1.00  0.00     0.022 C 
BRANCH  17  18
HETATM   18  C11 UNL     1      20.040   2.007  17.632  1.00  0.00     0.138 C 
BRANCH  18  19
HETATM   19  N6  UNL     1      21.217   2.606  18.222  1.00  0.00    -0.227 N 
HETATM   20  C12 UNL     1      22.178   1.834  19.036  1.00  0.00     0.669 C 
HETATM   21  N7  UNL     1      22.322   0.706  18.521  1.00  0.00    -0.235 N 
HETATM   22  N8  UNL     1      22.624   2.491  20.168  1.00  0.00    -0.191 N 
ATOM     23  H72 UNL     1      21.992   0.221  17.686  1.00  0.00     0.174 HD
ATOM     24  H71 UNL     1      22.986   0.172  19.082  1.00  0.00     0.174 HD
ATOM     25  H8  UNL     1      22.887   3.467  20.033  1.00  0.00     0.180 HD
ATOM     26  H6  UNL     1      21.389   3.600  18.071  1.00  0.00     0.177 HD
BRANCH  22  27
HETATM   27  C13 UNL     1      22.771   1.983  21.527  1.00  0.00     0.219 C 
HETATM   28  C14 UNL     1      22.719   0.485  21.417  1.00  0.00     0.090 C 
HETATM   29  C15 UNL     1      22.943  -0.277  22.686  1.00  0.00     0.241 C 
HETATM   30  N9  UNL     1      23.669   0.533  23.642  1.00  0.00    -0.069 N 
HETATM   31  C16 UNL     1      24.313  -0.387  24.567  1.00  0.00     0.272 C 
HETATM   32  C17 UNL     1      24.705   1.297  22.994  1.00  0.00     0.241 C 
HETATM   33  C19 UNL     1      22.726   1.294  24.380  1.00  0.00     0.265 C 
HETATM   34  C18 UNL     1      24.214   2.273  21.990  1.00  0.00     0.090 C 
HETATM   35  C20 UNL     1      22.345   2.615  23.813  1.00  0.00     0.268 C 
HETATM   36  N10 UNL     1      21.814   2.543  22.436  1.00  0.00    -0.038 N 
HETATM   37  C21 UNL     1      21.637   3.937  22.068  1.00  0.00     0.240 C 
HETATM   38  C25 UNL     1      20.538   1.924  22.512  1.00  0.00     0.240 C 
HETATM   39  C22 UNL     1      20.465   4.591  22.752  1.00  0.00     0.028 C 
HETATM   40  C23 UNL     1      19.144   4.019  22.312  1.00  0.00     0.003 C 
HETATM   41  C24 UNL     1      19.419   2.624  21.776  1.00  0.00     0.028 C 
ENDBRANCH  22  27
ENDBRANCH  18  19
ENDBRANCH  17  18
ENDBRANCH  16  17
ENDBRANCH  15  16
ENDBRANCH   7  15
TORSDOF 9
ENDMDL
MODEL 4
REMARK VINA RESULT: -7.438878705      4.244      7.905
REMARK  9 active torsions:
REMARK  status: ('A' for Active; 'I' for Inactive)
REMARK    1  A    between atoms: N1_2  and  C4_5 
REMARK    2  A    between atoms: C4_5  and  C5_6 
REMARK    3  A    between atoms: C5_6  and  N2_7 
REMARK       I    between atoms: N2_7  and  C6_9 
REMARK       I    between atoms: C6_9  and  N3_10 
REMARK       I    between atoms: C6_9  and  N5_13 
REMARK    4  A    between atoms: N5_13  and  C8_15 
REMARK    5  A    between atoms: C8_15  and  C9_16 
REMARK    6  A    between atoms: C9_16  and  C10_17 
REMARK    7  A    between atoms: C10_17  and  C11_18 
REMARK    8  A    between atoms: C11_18  and  N6_19 
REMARK       I    between atoms: N6_19  and  C12_21 
REMARK       I    between atoms: C12_21  and  N8_25 
REMARK    9  A    between atoms: N8_25  and  C13_27 
ROOT
HETATM    1  N2  UNL     1      15.613   5.754  20.878  1.00  0.00    -0.348 N 
ATOM      2  H2  UNL     1      14.919   6.500  20.822  1.00  0.00     0.163 HD
HETATM    3  C6  UNL     1      16.464   5.470  22.060  1.00  0.00     0.263 C 
HETATM    4  N3  UNL     1      17.053   5.279  22.887  1.00  0.00    -0.294 NA
HETATM    5  C7  UNL     1      17.874   4.866  23.830  1.00  0.00     0.271 C 
HETATM    6  N4  UNL     1      18.620   4.475  24.614  1.00  0.00    -0.156 NA
HETATM    7  N5  UNL     1      15.750   6.954  22.805  1.00  0.00    -0.350 N 
ATOM      8  H5  UNL     1      15.645   7.875  22.380  1.00  0.00     0.163 HD
ENDROOT
BRANCH   1   9
HETATM    9  C5  UNL     1      15.920   4.795  19.795  1.00  0.00     0.151 C 
BRANCH   9  10
HETATM   10  C4  UNL     1      17.333   5.048  19.373  1.00  0.00     0.255 C 
BRANCH  10  11
HETATM   11  N1  UNL     1      18.042   3.791  19.184  1.00  0.00    -0.077 N 
HETATM   12  C1  UNL     1      18.712   3.878  17.932  1.00  0.00     0.271 C 
HETATM   13  C2  UNL     1      19.059   3.677  20.236  1.00  0.00     0.271 C 
HETATM   14  C3  UNL     1      17.133   2.681  19.182  1.00  0.00     0.271 C 
ENDBRANCH  10  11
ENDBRANCH   9  10
ENDBRANCH   1   9
BRANCH   7  15
HETATM   15  C8  UNL     1      15.381   6.569  24.063  1.00  0.00     0.123 C 
BRANCH  15  16
HETATM   16  C9  UNL     1      14.756   7.792  24.744  1.00  0.00     0.021 C 
BRANCH  16  17
HETATM   17  C10 UNL     1      15.111   7.827  26.184  1.00  0.00     0.022 C 
BRANCH  17  18
HETATM   18  C11 UNL     1      16.259   6.974  26.569  1.00  0.00     0.138 C 
BRANCH  18  19
HETATM   19  N6  UNL     1      17.293   7.702  27.271  1.00  0.00    -0.227 N 
HETATM   20  C12 UNL     1      18.722   7.597  26.910  1.00  0.00     0.669 C 
HETATM   21  N7  UNL     1      18.817   7.547  25.666  1.00  0.00    -0.235 N 
HETATM   22  N8  UNL     1      19.579   7.517  27.993  1.00  0.00    -0.191 N 
ATOM     23  H72 UNL     1      18.185   7.605  24.868  1.00  0.00     0.174 HD
ATOM     24  H71 UNL     1      19.804   7.475  25.417  1.00  0.00     0.174 HD
ATOM     25  H8  UNL     1      19.390   8.173  28.751  1.00  0.00     0.180 HD
ATOM     26  H6  UNL     1      17.026   8.310  28.044  1.00  0.00     0.177 HD
BRANCH  22  27
HETATM   27  C13 UNL     1      20.713   6.625  28.201  1.00  0.00     0.219 C 
HETATM   28  C14 UNL     1      20.245   5.580  29.174  1.00  0.00     0.090 C 
HETATM   29  C15 UNL     1      21.216   4.481  29.479  1.00  0.00     0.241 C 
HETATM   30  N9  UNL     1      22.186   4.351  28.411  1.00  0.00    -0.069 N 
HETATM   31  C16 UNL     1      22.710   2.996  28.485  1.00  0.00     0.272 C 
HETATM   32  C17 UNL     1      21.562   4.508  27.122  1.00  0.00     0.241 C 
HETATM   33  C19 UNL     1      23.258   5.241  28.680  1.00  0.00     0.265 C 
HETATM   34  C18 UNL     1      20.948   5.839  26.894  1.00  0.00     0.090 C 
HETATM   35  C20 UNL     1      23.123   6.625  28.153  1.00  0.00     0.268 C 
HETATM   36  N10 UNL     1      21.900   7.320  28.606  1.00  0.00    -0.038 N 
HETATM   37  C21 UNL     1      21.933   8.575  27.875  1.00  0.00     0.240 C 
HETATM   38  C25 UNL     1      22.063   7.593  29.990  1.00  0.00     0.240 C 
HETATM   39  C22 UNL     1      22.971   9.538  28.388  1.00  0.00     0.028 C 
HETATM   40  C23 UNL     1      22.664  10.035  29.776  1.00  0.00     0.003 C 
HETATM   41  C24 UNL     1      21.755   9.007  30.426  1.00  0.00     0.028 C 
ENDBRANCH  22  27
ENDBRANCH  18  19
ENDBRANCH  17  18
ENDBRANCH  16  17
ENDBRANCH  15  16
ENDBRANCH   7  15
TORSDOF 9
ENDMDL
MODEL 5
REMARK VINA RESULT: -7.425211227      4.353      8.234
REMARK  9 active torsions:
REMARK  status: ('A' for Active; 'I' for Inactive)
REMARK    1  A    between atoms: N1_2  and  C4_5 
REMARK    2  A    between atoms: C4_5  and  C5_6 
REMARK    3  A    between atoms: C5_6  and  N2_7 
REMARK       I    between atoms: N2_7  and  C6_9 
REMARK       I    between atoms: C6_9  and  N3_10 
REMARK       I    between atoms: C6_9  and  N5_13 
REMARK    4  A    between atoms: N5_13  and  C8_15 
REMARK    5  A    between atoms: C8_15  and  C9_16 
REMARK    6  A    between atoms: C9_16  and  C10_17 
REMARK    7  A    between atoms: C10_17  and  C11_18 
REMARK    8  A    between atoms: C11_18  and  N6_19 
REMARK       I    between atoms: N6_19  and  C12_21 
REMARK       I    between atoms: C12_21  and  N8_25 
REMARK    9  A    between atoms: N8_25  and  C13_27 
ROOT
HETATM    1  N2  UNL     1      15.479   6.395  23.933  1.00  0.00    -0.348 N 
ATOM      2  H2  UNL     1      15.158   5.592  24.476  1.00  0.00     0.163 HD
HETATM    3  C6  UNL     1      15.027   7.793  24.131  1.00  0.00     0.263 C 
HETATM    4  N3  UNL     1      14.706   8.766  24.276  1.00  0.00    -0.294 NA
HETATM    5  C7  UNL     1      14.443  10.055  24.311  1.00  0.00     0.271 C 
HETATM    6  N4  UNL     1      14.238  11.187  24.289  1.00  0.00    -0.156 NA
HETATM    7  N5  UNL     1      13.861   7.138  25.347  1.00  0.00    -0.350 N 
ATOM      8  H5  UNL     1      13.234   6.341  25.241  1.00  0.00     0.163 HD
ENDROOT
BRANCH   1   9
HETATM    9  C5  UNL     1      16.465   6.336  22.832  1.00  0.00     0.151 C 
BRANCH   9  10
HETATM   10  C4  UNL     1      15.846   5.536  21.730  1.00  0.00     0.255 C 
BRANCH  10  11
HETATM   11  N1  UNL     1      16.833   4.656  21.121  1.00  0.00    -0.077 N 
HETATM   12  C1  UNL     1      16.231   3.372  21.015  1.00  0.00     0.271 C 
HETATM   13  C2  UNL     1      17.104   5.144  19.764  1.00  0.00     0.271 C 
HETATM   14  C3  UNL     1      18.021   4.581  21.922  1.00  0.00     0.271 C 
ENDBRANCH  10  11
ENDBRANCH   9  10
ENDBRANCH   1   9
BRANCH   7  15
HETATM   15  C8  UNL     1      14.005   7.946  26.439  1.00  0.00     0.123 C 
BRANCH  15  16
HETATM   16  C9  UNL     1      13.681   7.098  27.675  1.00  0.00     0.021 C 
BRANCH  16  17
HETATM   17  C10 UNL     1      14.925   6.711  28.383  1.00  0.00     0.022 C 
BRANCH  17  18
HETATM   18  C11 UNL     1      16.124   6.577  27.523  1.00  0.00     0.138 C 
BRANCH  18  19
HETATM   19  N6  UNL     1      17.221   7.416  27.949  1.00  0.00    -0.227 N 
HETATM   20  C12 UNL     1      18.558   7.356  27.321  1.00  0.00     0.669 C 
HETATM   21  N7  UNL     1      18.414   7.202  26.091  1.00  0.00    -0.235 N 
HETATM   22  N8  UNL     1      19.610   7.415  28.216  1.00  0.00    -0.191 N 
ATOM     23  H72 UNL     1      17.637   7.157  25.431  1.00  0.00     0.174 HD
ATOM     24  H71 UNL     1      19.337   7.160  25.657  1.00  0.00     0.174 HD
ATOM     25  H8  UNL     1      19.527   8.124  28.944  1.00  0.00     0.180 HD
ATOM     26  H6  UNL     1      17.067   8.075  28.712  1.00  0.00     0.177 HD
BRANCH  22  27
HETATM   27  C13 UNL     1      20.822   6.605  28.262  1.00  0.00     0.219 C 
HETATM   28  C14 UNL     1      20.528   5.473  29.205  1.00  0.00     0.090 C 
HETATM   29  C15 UNL     1      21.602   4.439  29.349  1.00  0.00     0.241 C 
HETATM   30  N9  UNL     1      22.471   4.447  28.191  1.00  0.00    -0.069 N 
HETATM   31  C16 UNL     1      23.098   3.135  28.129  1.00  0.00     0.272 C 
HETATM   32  C17 UNL     1      21.717   4.628  26.976  1.00  0.00     0.241 C 
HETATM   33  C19 UNL     1      23.496   5.403  28.416  1.00  0.00     0.265 C 
HETATM   34  C18 UNL     1      20.987   5.917  26.891  1.00  0.00     0.090 C 
HETATM   35  C20 UNL     1      23.210   6.799  27.994  1.00  0.00     0.268 C 
HETATM   36  N10 UNL     1      21.988   7.368  28.601  1.00  0.00    -0.038 N 
HETATM   37  C21 UNL     1      21.858   8.661  27.952  1.00  0.00     0.240 C 
HETATM   38  C25 UNL     1      22.263   7.574  29.979  1.00  0.00     0.240 C 
HETATM   39  C22 UNL     1      22.867   9.673  28.429  1.00  0.00     0.028 C 
HETATM   40  C23 UNL     1      22.659  10.064  29.867  1.00  0.00     0.003 C 
HETATM   41  C24 UNL     1      21.895   8.931  30.531  1.00  0.00     0.028 C 
ENDBRANCH  22  27
ENDBRANCH  18  19
ENDBRANCH  17  18
ENDBRANCH  16  17
ENDBRANCH  15  16
ENDBRANCH   7  15
TORSDOF 9
ENDMDL
