MODEL 1
REMARK VINA RESULT: -11.010156329      0.000      0.000
REMARK  4 active torsions:
REMARK  status: ('A' for Active; 'I' for Inactive)
REMARK    1  A    between atoms: N1_13  and  C13_14 
REMARK    2  A    between atoms: C13_14  and  C14_15 
REMARK    3  A    between atoms: C14_15  and  N2_16 
REMARK    4  A    between atoms: N3_19  and  C17_20 
ROOT
HETATM    1  C13 UNL     1      14.711  20.243  14.266  1.00  0.00     0.149 C 
ENDROOT
BRANCH   1   2
HETATM    2  N1  UNL     1      13.677  19.528  14.916  1.00  0.00    -0.344 N 
HETATM    3  C4  UNL     1      12.633  20.256  15.575  1.00  0.00     0.046 A 
HETATM    4  C3  UNL     1      11.311  19.861  15.792  1.00  0.00     0.002 A 
HETATM    5  C5  UNL     1      13.099  21.452  16.039  1.00  0.00     0.031 A 
HETATM    6  C2  UNL     1      10.667  18.642  15.315  1.00  0.00     0.015 C 
HETATM    7  C12 UNL     1      10.438  20.667  16.490  1.00  0.00    -0.013 A 
HETATM    8  C1  UNL     1      11.256  17.496  14.934  1.00  0.00     0.014 C 
HETATM    9  C32 UNL     1      12.674  17.194  14.903  1.00  0.00    -0.009 A 
HETATM   10  C27 UNL     1      13.754  18.076  14.889  1.00  0.00     0.045 A 
HETATM   11  C31 UNL     1      12.980  15.858  14.879  1.00  0.00     0.014 A 
HETATM   12  C28 UNL     1      15.061  17.661  14.856  1.00  0.00     0.030 A 
HETATM   13  C29 UNL     1      15.365  16.321  14.832  1.00  0.00     0.002 A 
HETATM   14  C30 UNL     1      14.287  15.427  14.845  1.00  0.00     0.001 A 
HETATM   15  C7  UNL     1      10.953  21.889  16.953  1.00  0.00    -0.025 A 
HETATM   16  C11 UNL     1       9.141  20.306  16.738  1.00  0.00     0.013 A 
HETATM   17  C6  UNL     1      12.259  22.277  16.733  1.00  0.00     0.014 A 
HETATM   18  C8  UNL     1      10.108  22.737  17.675  1.00  0.00     0.012 A 
HETATM   19  C9  UNL     1       8.805  22.370  17.921  1.00  0.00     0.001 A 
HETATM   20  C10 UNL     1       8.311  21.168  17.463  1.00  0.00     0.001 A 
ENDBRANCH   1   2
BRANCH   1  21
HETATM   21  C14 UNL     1      14.323  20.713  12.841  1.00  0.00     0.137 C 
BRANCH  21  22
HETATM   22  N2  UNL     1      14.413  22.130  12.714  1.00  0.00    -0.408 N 
HETATM   23  C15 UNL     1      15.421  22.764  13.497  1.00  0.00     0.136 C 
HETATM   24  C16 UNL     1      15.525  24.243  13.270  1.00  0.00     0.142 C 
HETATM   25  N3  UNL     1      14.243  24.858  13.468  1.00  0.00    -0.376 N 
HETATM   26  C25 UNL     1      13.076  24.016  13.532  1.00  0.00     0.142 C 
HETATM   27  C26 UNL     1      13.177  22.822  12.616  1.00  0.00     0.136 C 
BRANCH  25  28
HETATM   28  C17 UNL     1      14.141  26.262  13.596  1.00  0.00     0.059 A 
HETATM   29  C18 UNL     1      13.704  26.992  12.503  1.00  0.00     0.032 A 
HETATM   30  C19 UNL     1      13.585  28.356  12.566  1.00  0.00     0.003 A 
HETATM   31  C20 UNL     1      13.901  29.007  13.720  1.00  0.00     0.014 A 
HETATM   32  C21 UNL     1      14.334  28.278  14.800  1.00  0.00    -0.004 A 
HETATM   33  C22 UNL     1      14.646  28.956  15.946  1.00  0.00     0.032 A 
HETATM   34  C24 UNL     1      14.462  26.907  14.761  1.00  0.00     0.085 A 
HETATM   35  C23 UNL     1      15.083  28.239  17.040  1.00  0.00     0.108 A 
HETATM   36  N4  UNL     1      15.185  26.906  16.935  1.00  0.00    -0.311 N 
HETATM   37  N5  UNL     1      14.886  26.244  15.831  1.00  0.00    -0.298 N 
ATOM     38  H4  UNL     1      15.509  26.378  17.745  1.00  0.00     0.186 HD
ATOM     39  H5  UNL     1      14.980  25.228  15.801  1.00  0.00     0.187 HD
ENDBRANCH  25  28
ENDBRANCH  21  22
ENDBRANCH   1  21
TORSDOF 4
ENDMDL
MODEL 2
REMARK VINA RESULT: -10.974234992      1.993      8.758
REMARK  4 active torsions:
REMARK  status: ('A' for Active; 'I' for Inactive)
REMARK    1  A    between atoms: N1_13  and  C13_14 
REMARK    2  A    between atoms: C13_14  and  C14_15 
REMARK    3  A    between atoms: C14_15  and  N2_16 
REMARK    4  A    between atoms: N3_19  and  C17_20 
ROOT
HETATM    1  C13 UNL     1      14.456  24.871  15.909  1.00  0.00     0.149 C 
ENDROOT
BRANCH   1   2
HETATM    2  N1  UNL     1      14.670  25.175  14.544  1.00  0.00    -0.344 N 
HETATM    3  C4  UNL     1      15.148  24.147  13.667  1.00  0.00     0.046 A 
HETATM    4  C3  UNL     1      14.934  24.017  12.293  1.00  0.00     0.002 A 
HETATM    5  C5  UNL     1      15.927  23.257  14.349  1.00  0.00     0.031 A 
HETATM    6  C2  UNL     1      14.092  24.859  11.450  1.00  0.00     0.015 C 
HETATM    7  C12 UNL     1      15.508  22.986  11.583  1.00  0.00    -0.013 A 
HETATM    8  C1  UNL     1      13.680  26.115  11.693  1.00  0.00     0.014 C 
HETATM    9  C32 UNL     1      13.972  26.937  12.851  1.00  0.00    -0.009 A 
HETATM   10  C27 UNL     1      14.403  26.540  14.117  1.00  0.00     0.045 A 
HETATM   11  C31 UNL     1      13.790  28.283  12.667  1.00  0.00     0.014 A 
HETATM   12  C28 UNL     1      14.643  27.422  15.139  1.00  0.00     0.030 A 
HETATM   13  C29 UNL     1      14.460  28.772  14.951  1.00  0.00     0.002 A 
HETATM   14  C30 UNL     1      14.026  29.180  13.683  1.00  0.00     0.001 A 
HETATM   15  C7  UNL     1      16.304  22.090  12.317  1.00  0.00    -0.025 A 
HETATM   16  C11 UNL     1      15.335  22.836  10.232  1.00  0.00     0.013 A 
HETATM   17  C6  UNL     1      16.510  22.221  13.675  1.00  0.00     0.014 A 
HETATM   18  C8  UNL     1      16.917  21.033  11.638  1.00  0.00     0.012 A 
HETATM   19  C9  UNL     1      16.738  20.886  10.282  1.00  0.00     0.001 A 
HETATM   20  C10 UNL     1      15.958  21.772   9.571  1.00  0.00     0.001 A 
ENDBRANCH   1   2
BRANCH   1  21
HETATM   21  C14 UNL     1      12.973  24.563  16.239  1.00  0.00     0.137 C 
BRANCH  21  22
HETATM   22  N2  UNL     1      12.714  23.161  16.227  1.00  0.00    -0.408 N 
HETATM   23  C15 UNL     1      13.710  22.337  16.826  1.00  0.00     0.136 C 
HETATM   24  C16 UNL     1      13.356  20.880  16.856  1.00  0.00     0.142 C 
HETATM   25  N3  UNL     1      13.031  20.431  15.532  1.00  0.00    -0.376 N 
HETATM   26  C25 UNL     1      12.795  21.415  14.507  1.00  0.00     0.142 C 
HETATM   27  C26 UNL     1      12.119  22.652  15.042  1.00  0.00     0.136 C 
BRANCH  25  28
HETATM   28  C17 UNL     1      12.945  19.048  15.251  1.00  0.00     0.059 A 
HETATM   29  C18 UNL     1      11.716  18.424  15.381  1.00  0.00     0.032 A 
HETATM   30  C19 UNL     1      11.571  17.086  15.125  1.00  0.00     0.003 A 
HETATM   31  C20 UNL     1      12.652  16.354  14.735  1.00  0.00     0.014 A 
HETATM   32  C21 UNL     1      13.868  16.977  14.608  1.00  0.00    -0.004 A 
HETATM   33  C22 UNL     1      14.937  16.220  14.216  1.00  0.00     0.032 A 
HETATM   34  C24 UNL     1      14.039  18.321  14.860  1.00  0.00     0.085 A 
HETATM   35  C23 UNL     1      16.167  16.830  14.084  1.00  0.00     0.108 A 
HETATM   36  N4  UNL     1      16.264  18.141  14.346  1.00  0.00    -0.311 N 
HETATM   37  N5  UNL     1      15.235  18.880  14.725  1.00  0.00    -0.298 N 
ATOM     38  H4  UNL     1      17.174  18.590  14.248  1.00  0.00     0.186 HD
ATOM     39  H5  UNL     1      15.361  19.875  14.913  1.00  0.00     0.187 HD
ENDBRANCH  25  28
ENDBRANCH  21  22
ENDBRANCH   1  21
TORSDOF 4
ENDMDL
MODEL 3
REMARK VINA RESULT: -10.858954937      1.812      8.783
REMARK  4 active torsions:
REMARK  status: ('A' for Active; 'I' for Inactive)
REMARK    1  A    between atoms: N1_13  and  C13_14 
REMARK    2  A    between atoms: C13_14  and  C14_15 
REMARK    3  A    between atoms: C14_15  and  N2_16 
REMARK    4  A    between atoms: N3_19  and  C17_20 
ROOT
HETATM    1  C13 UNL     1      15.226  25.398  15.905  1.00  0.00     0.149 C 
ENDROOT
BRANCH   1   2
HETATM    2  N1  UNL     1      15.173  25.518  14.496  1.00  0.00    -0.344 N 
HETATM    3  C4  UNL     1      15.638  24.430  13.686  1.00  0.00     0.046 A 
HETATM    4  C3  UNL     1      15.224  24.074  12.401  1.00  0.00     0.002 A 
HETATM    5  C5  UNL     1      16.630  23.744  14.325  1.00  0.00     0.031 A 
HETATM    6  C2  UNL     1      14.151  24.683  11.622  1.00  0.00     0.015 C 
HETATM    7  C12 UNL     1      15.810  23.020  11.736  1.00  0.00    -0.013 A 
HETATM    8  C1  UNL     1      13.618  25.907  11.772  1.00  0.00     0.014 C 
HETATM    9  C32 UNL     1      13.980  26.919  12.746  1.00  0.00    -0.009 A 
HETATM   10  C27 UNL     1      14.659  26.765  13.954  1.00  0.00     0.045 A 
HETATM   11  C31 UNL     1      13.590  28.194  12.427  1.00  0.00     0.014 A 
HETATM   12  C28 UNL     1      14.939  27.811  14.796  1.00  0.00     0.030 A 
HETATM   13  C29 UNL     1      14.548  29.089  14.473  1.00  0.00     0.002 A 
HETATM   14  C30 UNL     1      13.863  29.254  13.262  1.00  0.00     0.001 A 
HETATM   15  C7  UNL     1      16.828  22.337  12.424  1.00  0.00    -0.025 A 
HETATM   16  C11 UNL     1      15.443  22.652  10.469  1.00  0.00     0.013 A 
HETATM   17  C6  UNL     1      17.231  22.691  13.696  1.00  0.00     0.014 A 
HETATM   18  C8  UNL     1      17.460  21.265  11.787  1.00  0.00     0.012 A 
HETATM   19  C9  UNL     1      17.086  20.900  10.514  1.00  0.00     0.001 A 
HETATM   20  C10 UNL     1      16.089  21.578   9.847  1.00  0.00     0.001 A 
ENDBRANCH   1   2
BRANCH   1  21
HETATM   21  C14 UNL     1      13.898  24.890  16.523  1.00  0.00     0.137 C 
BRANCH  21  22
HETATM   22  N2  UNL     1      13.572  23.581  16.063  1.00  0.00    -0.408 N 
HETATM   23  C15 UNL     1      12.331  23.453  15.374  1.00  0.00     0.136 C 
HETATM   24  C16 UNL     1      12.070  22.075  14.843  1.00  0.00     0.142 C 
HETATM   25  N3  UNL     1      12.181  21.116  15.905  1.00  0.00    -0.376 N 
HETATM   26  C25 UNL     1      12.788  21.525  17.145  1.00  0.00     0.142 C 
HETATM   27  C26 UNL     1      13.907  22.515  16.939  1.00  0.00     0.136 C 
BRANCH  25  28
HETATM   28  C17 UNL     1      11.702  19.798  15.726  1.00  0.00     0.059 A 
HETATM   29  C18 UNL     1      10.336  19.578  15.793  1.00  0.00     0.032 A 
HETATM   30  C19 UNL     1       9.813  18.323  15.628  1.00  0.00     0.003 A 
HETATM   31  C20 UNL     1      10.646  17.271  15.394  1.00  0.00     0.014 A 
HETATM   32  C21 UNL     1      11.999  17.494  15.329  1.00  0.00    -0.004 A 
HETATM   33  C22 UNL     1      12.814  16.422  15.094  1.00  0.00     0.032 A 
HETATM   34  C24 UNL     1      12.549  18.747  15.491  1.00  0.00     0.085 A 
HETATM   35  C23 UNL     1      14.176  16.627  15.026  1.00  0.00     0.108 A 
HETATM   36  N4  UNL     1      14.645  17.873  15.194  1.00  0.00    -0.311 N 
HETATM   37  N5  UNL     1      13.865  18.915  15.421  1.00  0.00    -0.298 N 
ATOM     38  H4  UNL     1      15.653  18.023  15.143  1.00  0.00     0.186 HD
ATOM     39  H5  UNL     1      14.271  19.843  15.542  1.00  0.00     0.187 HD
ENDBRANCH  25  28
ENDBRANCH  21  22
ENDBRANCH   1  21
TORSDOF 4
ENDMDL
MODEL 4
REMARK VINA RESULT: -10.472443477      1.884      4.556
REMARK  4 active torsions:
REMARK  status: ('A' for Active; 'I' for Inactive)
REMARK    1  A    between atoms: N1_13  and  C13_14 
REMARK    2  A    between atoms: C13_14  and  C14_15 
REMARK    3  A    between atoms: C14_15  and  N2_16 
REMARK    4  A    between atoms: N3_19  and  C17_20 
ROOT
HETATM    1  C13 UNL     1      12.728  20.656  15.738  1.00  0.00     0.149 C 
ENDROOT
BRANCH   1   2
HETATM    2  N1  UNL     1      13.475  19.829  14.866  1.00  0.00    -0.344 N 
HETATM    3  C4  UNL     1      14.015  20.393  13.663  1.00  0.00     0.046 A 
HETATM    4  C3  UNL     1      15.157  19.997  12.963  1.00  0.00     0.002 A 
HETATM    5  C5  UNL     1      13.224  21.408  13.210  1.00  0.00     0.031 A 
HETATM    6  C2  UNL     1      16.116  18.968  13.352  1.00  0.00     0.015 C 
HETATM    7  C12 UNL     1      15.516  20.619  11.787  1.00  0.00    -0.013 A 
HETATM    8  C1  UNL     1      15.923  17.944  14.200  1.00  0.00     0.014 C 
HETATM    9  C32 UNL     1      14.718  17.615  14.936  1.00  0.00    -0.009 A 
HETATM   10  C27 UNL     1      13.632  18.434  15.244  1.00  0.00     0.045 A 
HETATM   11  C31 UNL     1      14.652  16.323  15.390  1.00  0.00     0.014 A 
HETATM   12  C28 UNL     1      12.543  18.000  15.956  1.00  0.00     0.030 A 
HETATM   13  C29 UNL     1      12.480  16.704  16.410  1.00  0.00     0.002 A 
HETATM   14  C30 UNL     1      13.567  15.873  16.107  1.00  0.00     0.001 A 
HETATM   15  C7  UNL     1      14.678  21.659  11.351  1.00  0.00    -0.025 A 
HETATM   16  C11 UNL     1      16.618  20.248  11.064  1.00  0.00     0.013 A 
HETATM   17  C6  UNL     1      13.552  22.049  12.048  1.00  0.00     0.014 A 
HETATM   18  C8  UNL     1      14.996  22.315  10.158  1.00  0.00     0.012 A 
HETATM   19  C9  UNL     1      16.104  21.938   9.436  1.00  0.00     0.001 A 
HETATM   20  C10 UNL     1      16.918  20.916   9.872  1.00  0.00     0.001 A 
ENDBRANCH   1   2
BRANCH   1  21
HETATM   21  C14 UNL     1      13.610  21.404  16.771  1.00  0.00     0.137 C 
BRANCH  21  22
HETATM   22  N2  UNL     1      13.616  22.810  16.534  1.00  0.00    -0.408 N 
HETATM   23  C15 UNL     1      12.418  23.356  15.990  1.00  0.00     0.136 C 
HETATM   24  C16 UNL     1      12.447  24.847  15.831  1.00  0.00     0.142 C 
HETATM   25  N3  UNL     1      13.596  25.232  15.061  1.00  0.00    -0.376 N 
HETATM   26  C25 UNL     1      14.638  24.262  14.844  1.00  0.00     0.142 C 
HETATM   27  C26 UNL     1      14.828  23.347  16.027  1.00  0.00     0.136 C 
BRANCH  25  28
HETATM   28  C17 UNL     1      13.692  26.540  14.534  1.00  0.00     0.059 A 
HETATM   29  C18 UNL     1      13.294  26.754  13.225  1.00  0.00     0.032 A 
HETATM   30  C19 UNL     1      13.366  27.999  12.658  1.00  0.00     0.003 A 
HETATM   31  C20 UNL     1      13.835  29.048  13.391  1.00  0.00     0.014 A 
HETATM   32  C21 UNL     1      14.228  28.830  14.688  1.00  0.00    -0.004 A 
HETATM   33  C22 UNL     1      14.697  29.898  15.403  1.00  0.00     0.032 A 
HETATM   34  C24 UNL     1      14.166  27.587  15.280  1.00  0.00     0.085 A 
HETATM   35  C23 UNL     1      15.097  29.697  16.707  1.00  0.00     0.108 A 
HETATM   36  N4  UNL     1      15.010  28.462  17.221  1.00  0.00    -0.311 N 
HETATM   37  N5  UNL     1      14.559  27.424  16.538  1.00  0.00    -0.298 N 
ATOM     38  H4  UNL     1      15.307  28.316  18.187  1.00  0.00     0.186 HD
ATOM     39  H5  UNL     1      14.513  26.503  16.975  1.00  0.00     0.187 HD
ENDBRANCH  25  28
ENDBRANCH  21  22
ENDBRANCH   1  21
TORSDOF 4
ENDMDL
MODEL 5
REMARK VINA RESULT: -10.379322567      1.982      8.836
REMARK  4 active torsions:
REMARK  status: ('A' for Active; 'I' for Inactive)
REMARK    1  A    between atoms: N1_13  and  C13_14 
REMARK    2  A    between atoms: C13_14  and  C14_15 
REMARK    3  A    between atoms: C14_15  and  N2_16 
REMARK    4  A    between atoms: N3_19  and  C17_20 
ROOT
HETATM    1  C13 UNL     1      14.666  25.047  15.843  1.00  0.00     0.149 C 
ENDROOT
BRANCH   1   2
HETATM    2  N1  UNL     1      14.804  25.315  14.460  1.00  0.00    -0.344 N 
HETATM    3  C4  UNL     1      15.261  24.272  13.590  1.00  0.00     0.046 A 
HETATM    4  C3  UNL     1      14.981  24.097  12.233  1.00  0.00     0.002 A 
HETATM    5  C5  UNL     1      16.093  23.419  14.256  1.00  0.00     0.031 A 
HETATM    6  C2  UNL     1      14.079  24.896  11.410  1.00  0.00     0.015 C 
HETATM    7  C12 UNL     1      15.542  23.058  11.524  1.00  0.00    -0.013 A 
HETATM    8  C1  UNL     1      13.653  26.150  11.638  1.00  0.00     0.014 C 
HETATM    9  C32 UNL     1      13.984  27.011  12.756  1.00  0.00    -0.009 A 
HETATM   10  C27 UNL     1      14.487  26.661  14.009  1.00  0.00     0.045 A 
HETATM   11  C31 UNL     1      13.763  28.347  12.543  1.00  0.00     0.014 A 
HETATM   12  C28 UNL     1      14.757  27.578  14.992  1.00  0.00     0.030 A 
HETATM   13  C29 UNL     1      14.535  28.917  14.775  1.00  0.00     0.002 A 
HETATM   14  C30 UNL     1      14.029  29.279  13.520  1.00  0.00     0.001 A 
HETATM   15  C7  UNL     1      16.393  22.201  12.242  1.00  0.00    -0.025 A 
HETATM   16  C11 UNL     1      15.305  22.865  10.188  1.00  0.00     0.013 A 
HETATM   17  C6  UNL     1      16.664  22.376  13.583  1.00  0.00     0.014 A 
HETATM   18  C8  UNL     1      16.995  21.137  11.562  1.00  0.00     0.012 A 
HETATM   19  C9  UNL     1      16.752  20.947  10.222  1.00  0.00     0.001 A 
HETATM   20  C10 UNL     1      15.918  21.795   9.527  1.00  0.00     0.001 A 
ENDBRANCH   1   2
BRANCH   1  21
HETATM   21  C14 UNL     1      13.195  24.816  16.274  1.00  0.00     0.137 C 
BRANCH  21  22
HETATM   22  N2  UNL     1      12.860  23.430  16.273  1.00  0.00    -0.408 N 
HETATM   23  C15 UNL     1      13.814  22.557  16.873  1.00  0.00     0.136 C 
HETATM   24  C16 UNL     1      13.381  21.122  16.915  1.00  0.00     0.142 C 
HETATM   25  N3  UNL     1      13.025  20.682  15.595  1.00  0.00    -0.376 N 
HETATM   26  C25 UNL     1      12.838  21.670  14.565  1.00  0.00     0.142 C 
HETATM   27  C26 UNL     1      12.233  22.946  15.095  1.00  0.00     0.136 C 
BRANCH  25  28
HETATM   28  C17 UNL     1      12.863  19.304  15.325  1.00  0.00     0.059 A 
HETATM   29  C18 UNL     1      13.980  18.567  14.966  1.00  0.00     0.032 A 
HETATM   30  C19 UNL     1      13.885  17.228  14.691  1.00  0.00     0.003 A 
HETATM   31  C20 UNL     1      12.675  16.608  14.771  1.00  0.00     0.014 A 
HETATM   32  C21 UNL     1      11.572  17.343  15.128  1.00  0.00    -0.004 A 
HETATM   33  C22 UNL     1      10.369  16.697  15.200  1.00  0.00     0.032 A 
HETATM   34  C24 UNL     1      11.642  18.690  15.408  1.00  0.00     0.085 A 
HETATM   35  C23 UNL     1       9.249  17.420  15.555  1.00  0.00     0.108 A 
HETATM   36  N4  UNL     1       9.387  18.728  15.815  1.00  0.00    -0.311 N 
HETATM   37  N5  UNL     1      10.546  19.360  15.748  1.00  0.00    -0.298 N 
ATOM     38  H4  UNL     1       8.558  19.262  16.078  1.00  0.00     0.186 HD
ATOM     39  H5  UNL     1      10.599  20.358  15.955  1.00  0.00     0.187 HD
ENDBRANCH  25  28
ENDBRANCH  21  22
ENDBRANCH   1  21
TORSDOF 4
ENDMDL
