MODEL 1
REMARK VINA RESULT: -11.194854997      0.000      0.000
REMARK  5 active torsions:
REMARK  status: ('A' for Active; 'I' for Inactive)
REMARK    1  A    between atoms: C5_5  and  C6_6 
REMARK    2  A    between atoms: C6_6  and  C7_7 
REMARK    3  A    between atoms: C8_10  and  C9_11 
REMARK    4  A    between atoms: C30_36  and  N3_37 
REMARK    5  A    between atoms: N3_37  and  O3_39 
ROOT
HETATM    1  C1  UNL     1      13.957  29.191  12.870  1.00  0.00     0.018 C 
HETATM    2  C2  UNL     1      14.293  28.480  13.792  1.00  0.00    -0.075 C 
HETATM    3  C3  UNL     1      14.668  27.621  14.881  1.00  0.00     0.046 A 
HETATM    4  C4  UNL     1      14.963  26.285  14.733  1.00  0.00     0.030 A 
HETATM    5  C5  UNL     1      15.312  25.454  15.783  1.00  0.00    -0.051 A 
HETATM    6  C28 UNL     1      15.373  25.979  17.045  1.00  0.00     0.010 A 
HETATM    7  C29 UNL     1      15.087  27.308  17.237  1.00  0.00     0.034 A 
HETATM    8  C30 UNL     1      14.740  28.121  16.183  1.00  0.00     0.079 A 
ENDROOT
BRANCH   8   9
HETATM    9  N3  UNL     1      14.456  29.491  16.390  1.00  0.00    -0.245 N 
HETATM   10  C31 UNL     1      15.358  30.252  16.878  1.00  0.00     0.156 C 
BRANCH   9  11
HETATM   11  O3  UNL     1      13.227  29.981  16.087  1.00  0.00    -0.284 OA
ATOM     12  H3  UNL     1      12.581  30.099  16.774  1.00  0.00     0.245 HD
ENDBRANCH   9  11
ENDBRANCH   8   9
BRANCH   5  13
HETATM   13  C6  UNL     1      15.647  24.039  15.533  1.00  0.00     0.096 C 
BRANCH  13  14
HETATM   14  C7  UNL     1      14.701  23.306  14.693  1.00  0.00     0.025 A 
HETATM   15  N1  UNL     1      13.632  22.698  15.298  1.00  0.00    -0.361 N 
HETATM   16  C8  UNL     1      12.731  21.972  14.614  1.00  0.00     0.029 A 
ATOM     17  H1  UNL     1      13.515  22.801  16.306  1.00  0.00     0.165 HD
HETATM   18  C21 UNL     1      12.823  21.790  13.259  1.00  0.00     0.038 A 
HETATM   19  C22 UNL     1      13.876  22.380  12.602  1.00  0.00    -0.022 A 
HETATM   20  C23 UNL     1      13.986  22.219  11.238  1.00  0.00     0.012 A 
HETATM   21  C27 UNL     1      14.799  23.132  13.343  1.00  0.00    -0.003 A 
HETATM   22  C24 UNL     1      15.024  22.805  10.546  1.00  0.00     0.001 A 
HETATM   23  C25 UNL     1      15.932  23.547  11.272  1.00  0.00     0.001 A 
HETATM   24  C26 UNL     1      15.824  23.709  12.637  1.00  0.00     0.014 A 
BRANCH  16  25
HETATM   25  C9  UNL     1      11.610  21.364  15.361  1.00  0.00     0.186 C 
HETATM   26  C10 UNL     1      12.005  20.074  15.995  1.00  0.00     0.179 C 
HETATM   27  O1  UNL     1      12.850  19.208  15.589  1.00  0.00    -0.291 OA
HETATM   28  C11 UNL     1      11.226  19.962  17.217  1.00  0.00     0.042 A 
HETATM   29  C12 UNL     1      10.900  18.919  18.060  1.00  0.00     0.031 A 
HETATM   30  C19 UNL     1      10.744  21.205  17.536  1.00  0.00     0.094 A 
HETATM   31  C13 UNL     1      10.121  19.139  19.175  1.00  0.00    -0.009 A 
HETATM   32  C14 UNL     1       9.772  18.134  20.045  1.00  0.00     0.014 A 
HETATM   33  C18 UNL     1       9.664  20.416  19.445  1.00  0.00     0.043 A 
HETATM   34  C15 UNL     1       8.997  18.348  21.160  1.00  0.00     0.001 A 
HETATM   35  C16 UNL     1       8.555  19.630  21.405  1.00  0.00     0.002 A 
HETATM   36  C17 UNL     1       8.877  20.685  20.559  1.00  0.00     0.030 A 
HETATM   37  N2  UNL     1       9.981  21.432  18.624  1.00  0.00    -0.352 N 
ATOM     38  H2  UNL     1       9.644  22.374  18.824  1.00  0.00     0.166 HD
HETATM   39  C20 UNL     1      11.196  22.181  16.526  1.00  0.00     0.194 C 
HETATM   40  O2  UNL     1      11.225  23.427  16.620  1.00  0.00    -0.289 OA
ENDBRANCH  16  25
ENDBRANCH  13  14
ENDBRANCH   5  13
TORSDOF 5
ENDMDL
MODEL 2
REMARK VINA RESULT: -10.726124908      2.671      6.072
REMARK  5 active torsions:
REMARK  status: ('A' for Active; 'I' for Inactive)
REMARK    1  A    between atoms: C5_5  and  C6_6 
REMARK    2  A    between atoms: C6_6  and  C7_7 
REMARK    3  A    between atoms: C8_10  and  C9_11 
REMARK    4  A    between atoms: C30_36  and  N3_37 
REMARK    5  A    between atoms: N3_37  and  O3_39 
ROOT
HETATM    1  C1  UNL     1      19.119  22.167  12.486  1.00  0.00     0.018 C 
HETATM    2  C2  UNL     1      17.995  22.451  12.133  1.00  0.00    -0.075 C 
HETATM    3  C3  UNL     1      16.654  22.789  11.741  1.00  0.00     0.046 A 
HETATM    4  C4  UNL     1      16.029  23.964  12.089  1.00  0.00     0.030 A 
HETATM    5  C5  UNL     1      14.734  24.285  11.723  1.00  0.00    -0.051 A 
HETATM    6  C28 UNL     1      14.024  23.391  10.970  1.00  0.00     0.010 A 
HETATM    7  C29 UNL     1      14.609  22.204  10.600  1.00  0.00     0.034 A 
HETATM    8  C30 UNL     1      15.897  21.900  10.973  1.00  0.00     0.079 A 
ENDROOT
BRANCH   8   9
HETATM    9  N3  UNL     1      16.495  20.681  10.579  1.00  0.00    -0.245 N 
HETATM   10  C31 UNL     1      16.320  19.637  11.295  1.00  0.00     0.156 C 
BRANCH   9  11
HETATM   11  O3  UNL     1      17.262  20.632   9.461  1.00  0.00    -0.284 OA
ATOM     12  H3  UNL     1      16.927  20.977   8.641  1.00  0.00     0.245 HD
ENDBRANCH   9  11
ENDBRANCH   8   9
BRANCH   5  13
HETATM   13  C6  UNL     1      14.150  25.583  12.110  1.00  0.00     0.096 C 
BRANCH  13  14
HETATM   14  C7  UNL     1      14.054  25.828  13.548  1.00  0.00     0.025 A 
HETATM   15  N1  UNL     1      13.791  24.763  14.371  1.00  0.00    -0.361 N 
HETATM   16  C8  UNL     1      13.649  24.896  15.701  1.00  0.00     0.029 A 
ATOM     17  H1  UNL     1      13.701  23.835  13.958  1.00  0.00     0.165 HD
HETATM   18  C21 UNL     1      13.756  26.111  16.325  1.00  0.00     0.038 A 
HETATM   19  C22 UNL     1      14.020  27.212  15.546  1.00  0.00    -0.022 A 
HETATM   20  C23 UNL     1      14.141  28.444  16.152  1.00  0.00     0.012 A 
HETATM   21  C27 UNL     1      14.165  27.042  14.162  1.00  0.00    -0.003 A 
HETATM   22  C24 UNL     1      14.416  29.567  15.402  1.00  0.00     0.001 A 
HETATM   23  C25 UNL     1      14.561  29.403  14.041  1.00  0.00     0.001 A 
HETATM   24  C26 UNL     1      14.440  28.171  13.433  1.00  0.00     0.014 A 
BRANCH  16  25
HETATM   25  C9  UNL     1      13.374  23.683  16.499  1.00  0.00     0.186 C 
HETATM   26  C10 UNL     1      11.996  23.167  16.261  1.00  0.00     0.179 C 
HETATM   27  O1  UNL     1      10.935  23.816  15.978  1.00  0.00    -0.291 OA
HETATM   28  C11 UNL     1      12.067  21.723  16.415  1.00  0.00     0.042 A 
HETATM   29  C12 UNL     1      11.132  20.728  16.624  1.00  0.00     0.031 A 
HETATM   30  C19 UNL     1      13.381  21.344  16.319  1.00  0.00     0.094 A 
HETATM   31  C13 UNL     1      11.524  19.412  16.727  1.00  0.00    -0.009 A 
HETATM   32  C14 UNL     1      10.633  18.387  16.933  1.00  0.00     0.014 A 
HETATM   33  C18 UNL     1      12.866  19.091  16.622  1.00  0.00     0.043 A 
HETATM   34  C15 UNL     1      11.018  17.072  17.035  1.00  0.00     0.001 A 
HETATM   35  C16 UNL     1      12.360  16.779  16.926  1.00  0.00     0.002 A 
HETATM   36  C17 UNL     1      13.307  17.775  16.718  1.00  0.00     0.030 A 
HETATM   37  N2  UNL     1      13.776  20.058  16.419  1.00  0.00    -0.352 N 
ATOM     38  H2  UNL     1      14.766  19.820  16.341  1.00  0.00     0.166 HD
HETATM   39  C20 UNL     1      14.221  22.536  16.097  1.00  0.00     0.194 C 
HETATM   40  O2  UNL     1      15.393  22.581  15.666  1.00  0.00    -0.289 OA
ENDBRANCH  16  25
ENDBRANCH  13  14
ENDBRANCH   5  13
TORSDOF 5
ENDMDL
MODEL 3
REMARK VINA RESULT: -10.529855499      2.103      2.898
REMARK  5 active torsions:
REMARK  status: ('A' for Active; 'I' for Inactive)
REMARK    1  A    between atoms: C5_5  and  C6_6 
REMARK    2  A    between atoms: C6_6  and  C7_7 
REMARK    3  A    between atoms: C8_10  and  C9_11 
REMARK    4  A    between atoms: C30_36  and  N3_37 
REMARK    5  A    between atoms: N3_37  and  O3_39 
ROOT
HETATM    1  C1  UNL     1      13.887  29.259  12.663  1.00  0.00     0.018 C 
HETATM    2  C2  UNL     1      14.512  28.442  13.304  1.00  0.00    -0.075 C 
HETATM    3  C3  UNL     1      15.240  27.454  14.051  1.00  0.00     0.046 A 
HETATM    4  C4  UNL     1      16.111  26.554  13.480  1.00  0.00     0.030 A 
HETATM    5  C5  UNL     1      16.803  25.593  14.196  1.00  0.00    -0.051 A 
HETATM    6  C28 UNL     1      16.620  25.525  15.550  1.00  0.00     0.010 A 
HETATM    7  C29 UNL     1      15.759  26.404  16.161  1.00  0.00     0.034 A 
HETATM    8  C30 UNL     1      15.078  27.352  15.435  1.00  0.00     0.079 A 
ENDROOT
BRANCH   8   9
HETATM    9  N3  UNL     1      14.201  28.260  16.073  1.00  0.00    -0.245 N 
HETATM   10  C31 UNL     1      14.665  29.351  16.549  1.00  0.00     0.156 C 
BRANCH   9  11
HETATM   11  O3  UNL     1      12.884  27.958  16.192  1.00  0.00    -0.284 OA
ATOM     12  H3  UNL     1      12.268  28.625  16.475  1.00  0.00     0.245 HD
ENDBRANCH   9  11
ENDBRANCH   8   9
BRANCH   5  13
HETATM   13  C6  UNL     1      17.745  24.688  13.511  1.00  0.00     0.096 C 
BRANCH  13  14
HETATM   14  C7  UNL     1      17.189  23.407  13.080  1.00  0.00     0.025 A 
HETATM   15  N1  UNL     1      15.897  23.109  13.432  1.00  0.00    -0.361 N 
HETATM   16  C8  UNL     1      15.312  21.942  13.113  1.00  0.00     0.029 A 
ATOM     17  H1  UNL     1      15.360  23.801  13.956  1.00  0.00     0.165 HD
HETATM   18  C21 UNL     1      15.972  20.967  12.411  1.00  0.00     0.038 A 
HETATM   19  C22 UNL     1      17.269  21.215  12.033  1.00  0.00    -0.022 A 
HETATM   20  C23 UNL     1      17.951  20.253  11.319  1.00  0.00     0.012 A 
HETATM   21  C27 UNL     1      17.852  22.442  12.379  1.00  0.00    -0.003 A 
HETATM   22  C24 UNL     1      19.250  20.473  10.914  1.00  0.00     0.001 A 
HETATM   23  C25 UNL     1      19.825  21.680  11.251  1.00  0.00     0.001 A 
HETATM   24  C26 UNL     1      19.144  22.644  11.966  1.00  0.00     0.014 A 
BRANCH  16  25
HETATM   25  C9  UNL     1      13.913  21.723  13.534  1.00  0.00     0.186 C 
HETATM   26  C10 UNL     1      13.794  20.576  14.479  1.00  0.00     0.179 C 
HETATM   27  O1  UNL     1      14.495  19.512  14.538  1.00  0.00    -0.291 OA
HETATM   28  C11 UNL     1      12.688  20.890  15.368  1.00  0.00     0.042 A 
HETATM   29  C12 UNL     1      11.896  20.148  16.221  1.00  0.00     0.031 A 
HETATM   30  C19 UNL     1      12.437  22.235  15.284  1.00  0.00     0.094 A 
HETATM   31  C13 UNL     1      10.899  20.753  16.953  1.00  0.00    -0.009 A 
HETATM   32  C14 UNL     1      10.087  20.058  17.817  1.00  0.00     0.014 A 
HETATM   33  C18 UNL     1      10.692  22.115  16.826  1.00  0.00     0.043 A 
HETATM   34  C15 UNL     1       9.091  20.657  18.551  1.00  0.00     0.001 A 
HETATM   35  C16 UNL     1       8.907  22.015  18.406  1.00  0.00     0.002 A 
HETATM   36  C17 UNL     1       9.699  22.769  17.547  1.00  0.00     0.030 A 
HETATM   37  N2  UNL     1      11.463  22.839  15.996  1.00  0.00    -0.352 N 
ATOM     38  H2  UNL     1      11.310  23.844  15.903  1.00  0.00     0.166 HD
HETATM   39  C20 UNL     1      13.378  22.852  14.331  1.00  0.00     0.194 C 
HETATM   40  O2  UNL     1      13.667  24.062  14.210  1.00  0.00    -0.289 OA
ENDBRANCH  16  25
ENDBRANCH  13  14
ENDBRANCH   5  13
TORSDOF 5
ENDMDL
MODEL 4
REMARK VINA RESULT: -10.457416135      2.189      3.256
REMARK  5 active torsions:
REMARK  status: ('A' for Active; 'I' for Inactive)
REMARK    1  A    between atoms: C5_5  and  C6_6 
REMARK    2  A    between atoms: C6_6  and  C7_7 
REMARK    3  A    between atoms: C8_10  and  C9_11 
REMARK    4  A    between atoms: C30_36  and  N3_37 
REMARK    5  A    between atoms: N3_37  and  O3_39 
ROOT
HETATM    1  C1  UNL     1      14.698  27.233  18.050  1.00  0.00     0.018 C 
HETATM    2  C2  UNL     1      15.039  27.020  16.906  1.00  0.00    -0.075 C 
HETATM    3  C3  UNL     1      15.469  26.776  15.557  1.00  0.00     0.046 A 
HETATM    4  C4  UNL     1      16.404  25.827  15.214  1.00  0.00     0.030 A 
HETATM    5  C5  UNL     1      16.828  25.599  13.916  1.00  0.00    -0.051 A 
HETATM    6  C28 UNL     1      16.292  26.353  12.908  1.00  0.00     0.010 A 
HETATM    7  C29 UNL     1      15.356  27.312  13.207  1.00  0.00     0.034 A 
HETATM    8  C30 UNL     1      14.946  27.527  14.502  1.00  0.00     0.079 A 
ENDROOT
BRANCH   8   9
HETATM    9  N3  UNL     1      13.974  28.510  14.799  1.00  0.00    -0.245 N 
HETATM   10  C31 UNL     1      14.351  29.683  15.137  1.00  0.00     0.156 C 
BRANCH   9  11
HETATM   11  O3  UNL     1      12.655  28.198  14.742  1.00  0.00    -0.284 OA
ATOM     12  H3  UNL     1      12.262  27.944  13.914  1.00  0.00     0.245 HD
ENDBRANCH   9  11
ENDBRANCH   8   9
BRANCH   5  13
HETATM   13  C6  UNL     1      17.811  24.537  13.629  1.00  0.00     0.096 C 
BRANCH  13  14
HETATM   14  C7  UNL     1      17.253  23.275  13.145  1.00  0.00     0.025 A 
HETATM   15  N1  UNL     1      15.963  22.962  13.488  1.00  0.00    -0.361 N 
HETATM   16  C8  UNL     1      15.377  21.810  13.121  1.00  0.00     0.029 A 
ATOM     17  H1  UNL     1      15.427  23.630  14.043  1.00  0.00     0.165 HD
HETATM   18  C21 UNL     1      16.034  20.866  12.376  1.00  0.00     0.038 A 
HETATM   19  C22 UNL     1      17.331  21.130  12.003  1.00  0.00    -0.022 A 
HETATM   20  C23 UNL     1      18.010  20.201  11.247  1.00  0.00     0.012 A 
HETATM   21  C27 UNL     1      17.914  22.342  12.401  1.00  0.00    -0.003 A 
HETATM   22  C24 UNL     1      19.308  20.438  10.847  1.00  0.00     0.001 A 
HETATM   23  C25 UNL     1      19.883  21.629  11.234  1.00  0.00     0.001 A 
HETATM   24  C26 UNL     1      19.205  22.561  11.992  1.00  0.00     0.014 A 
BRANCH  16  25
HETATM   25  C9  UNL     1      13.979  21.572  13.537  1.00  0.00     0.186 C 
HETATM   26  C10 UNL     1      13.873  20.428  14.485  1.00  0.00     0.179 C 
HETATM   27  O1  UNL     1      14.588  19.374  14.552  1.00  0.00    -0.291 OA
HETATM   28  C11 UNL     1      12.758  20.729  15.368  1.00  0.00     0.042 A 
HETATM   29  C12 UNL     1      11.973  19.979  16.221  1.00  0.00     0.031 A 
HETATM   30  C19 UNL     1      12.488  22.070  15.278  1.00  0.00     0.094 A 
HETATM   31  C13 UNL     1      10.964  20.573  16.947  1.00  0.00    -0.009 A 
HETATM   32  C14 UNL     1      10.158  19.870  17.809  1.00  0.00     0.014 A 
HETATM   33  C18 UNL     1      10.739  21.932  16.813  1.00  0.00     0.043 A 
HETATM   34  C15 UNL     1       9.151  20.458  18.537  1.00  0.00     0.001 A 
HETATM   35  C16 UNL     1       8.948  21.812  18.385  1.00  0.00     0.002 A 
HETATM   36  C17 UNL     1       9.733  22.574  17.527  1.00  0.00     0.030 A 
HETATM   37  N2  UNL     1      11.502  22.663  15.983  1.00  0.00    -0.352 N 
ATOM     38  H2  UNL     1      11.336  23.665  15.886  1.00  0.00     0.166 HD
HETATM   39  C20 UNL     1      13.424  22.697  14.326  1.00  0.00     0.194 C 
HETATM   40  O2  UNL     1      13.696  23.910  14.202  1.00  0.00    -0.289 OA
ENDBRANCH  16  25
ENDBRANCH  13  14
ENDBRANCH   5  13
TORSDOF 5
ENDMDL
MODEL 5
REMARK VINA RESULT: -10.229663078      3.726      9.965
REMARK  5 active torsions:
REMARK  status: ('A' for Active; 'I' for Inactive)
REMARK    1  A    between atoms: C5_5  and  C6_6 
REMARK    2  A    between atoms: C6_6  and  C7_7 
REMARK    3  A    between atoms: C8_10  and  C9_11 
REMARK    4  A    between atoms: C30_36  and  N3_37 
REMARK    5  A    between atoms: N3_37  and  O3_39 
ROOT
HETATM    1  C1  UNL     1      13.270  15.818  13.921  1.00  0.00     0.018 C 
HETATM    2  C2  UNL     1      13.166  16.056  15.105  1.00  0.00    -0.075 C 
HETATM    3  C3  UNL     1      13.069  16.349  16.508  1.00  0.00     0.046 A 
HETATM    4  C4  UNL     1      13.128  17.621  17.029  1.00  0.00     0.030 A 
HETATM    5  C5  UNL     1      13.047  17.904  18.381  1.00  0.00    -0.051 A 
HETATM    6  C28 UNL     1      12.899  16.867  19.261  1.00  0.00     0.010 A 
HETATM    7  C29 UNL     1      12.837  15.580  18.784  1.00  0.00     0.034 A 
HETATM    8  C30 UNL     1      12.919  15.316  17.437  1.00  0.00     0.079 A 
ENDROOT
BRANCH   8   9
HETATM    9  N3  UNL     1      12.844  13.989  16.954  1.00  0.00    -0.245 N 
HETATM   10  C31 UNL     1      11.704  13.419  16.861  1.00  0.00     0.156 C 
BRANCH   9  11
HETATM   11  O3  UNL     1      13.978  13.327  16.613  1.00  0.00    -0.284 OA
ATOM     12  H3  UNL     1      14.279  13.335  15.712  1.00  0.00     0.245 HD
ENDBRANCH   9  11
ENDBRANCH   8   9
BRANCH   5  13
HETATM   13  C6  UNL     1      13.084  19.301  18.854  1.00  0.00     0.096 C 
BRANCH  13  14
HETATM   14  C7  UNL     1      12.500  20.289  17.948  1.00  0.00     0.025 A 
HETATM   15  N1  UNL     1      13.220  20.661  16.842  1.00  0.00    -0.361 N 
HETATM   16  C8  UNL     1      12.782  21.588  15.973  1.00  0.00     0.029 A 
ATOM     17  H1  UNL     1      14.122  20.217  16.673  1.00  0.00     0.165 HD
HETATM   18  C21 UNL     1      11.580  22.226  16.136  1.00  0.00     0.038 A 
HETATM   19  C22 UNL     1      10.817  21.889  17.229  1.00  0.00    -0.022 A 
HETATM   20  C23 UNL     1       9.601  22.511  17.410  1.00  0.00     0.012 A 
HETATM   21  C27 UNL     1      11.301  20.918  18.117  1.00  0.00    -0.003 A 
HETATM   22  C24 UNL     1       8.806  22.190  18.489  1.00  0.00     0.001 A 
HETATM   23  C25 UNL     1       9.277  21.234  19.362  1.00  0.00     0.001 A 
HETATM   24  C26 UNL     1      10.494  20.610  19.184  1.00  0.00     0.014 A 
BRANCH  16  25
HETATM   25  C9  UNL     1      13.633  21.912  14.809  1.00  0.00     0.186 C 
HETATM   26  C10 UNL     1      14.833  22.700  15.205  1.00  0.00     0.179 C 
HETATM   27  O1  UNL     1      14.959  23.545  16.153  1.00  0.00    -0.291 OA
HETATM   28  C11 UNL     1      15.892  22.327  14.282  1.00  0.00     0.042 A 
HETATM   29  C12 UNL     1      17.100  22.890  13.921  1.00  0.00     0.031 A 
HETATM   30  C19 UNL     1      15.541  21.147  13.679  1.00  0.00     0.094 A 
HETATM   31  C13 UNL     1      17.907  22.275  12.990  1.00  0.00    -0.009 A 
HETATM   32  C14 UNL     1      19.118  22.795  12.600  1.00  0.00     0.014 A 
HETATM   33  C18 UNL     1      17.498  21.085  12.415  1.00  0.00     0.043 A 
HETATM   34  C15 UNL     1      19.928  22.185  11.673  1.00  0.00     0.001 A 
HETATM   35  C16 UNL     1      19.498  21.000  11.115  1.00  0.00     0.002 A 
HETATM   36  C17 UNL     1      18.282  20.428  11.472  1.00  0.00     0.030 A 
HETATM   37  N2  UNL     1      16.323  20.536  12.766  1.00  0.00    -0.352 N 
ATOM     38  H2  UNL     1      16.023  19.658  12.342  1.00  0.00     0.166 HD
HETATM   39  C20 UNL     1      14.230  20.705  14.191  1.00  0.00     0.194 C 
HETATM   40  O2  UNL     1      13.723  19.565  14.122  1.00  0.00    -0.289 OA
ENDBRANCH  16  25
ENDBRANCH  13  14
ENDBRANCH   5  13
TORSDOF 5
ENDMDL
