MODEL 1
REMARK VINA RESULT: -8.292771838      0.000      0.000
REMARK  11 active torsions:
REMARK  status: ('A' for Active; 'I' for Inactive)
REMARK    1  A    between atoms: C2_2  and  C3_3 
REMARK    2  A    between atoms: C3_3  and  C4_4 
REMARK    3  A    between atoms: C5_7  and  O1_8 
REMARK    4  A    between atoms: C7_11  and  C8_12 
REMARK    5  A    between atoms: C10_16  and  C11_17 
REMARK    6  A    between atoms: C13_20  and  C14_21 
REMARK    7  A    between atoms: C14_21  and  C15_22 
REMARK    8  A    between atoms: C15_22  and  N3_23 
REMARK    9  A    between atoms: C18_30  and  C19_31 
REMARK   10  A    between atoms: C19_31  and  O4_33 
REMARK   11  A    between atoms: O4_33  and  C20_34 
ROOT
HETATM    1  C8  UNL     1      23.460  48.377  43.913  1.00  0.00     0.084 A 
HETATM    2  N2  UNL     1      22.820  49.346  43.235  1.00  0.00    -0.362 N 
ATOM      3  H2  UNL     1      22.618  49.209  42.245  1.00  0.00     0.165 HD
HETATM    4  C9  UNL     1      22.442  50.482  43.824  1.00  0.00     0.097 A 
HETATM    5  C10 UNL     1      22.671  50.774  45.189  1.00  0.00    -0.019 A 
HETATM    6  C12 UNL     1      23.316  49.813  45.912  1.00  0.00     0.021 A 
HETATM    7  C13 UNL     1      23.527  49.887  47.203  1.00  0.00    -0.009 C 
HETATM    8  C17 UNL     1      23.693  48.632  45.231  1.00  0.00     0.208 A 
HETATM    9  O2  UNL     1      24.292  47.731  45.872  1.00  0.00    -0.285 OA
ENDROOT
BRANCH   1  10
HETATM   10  C7  UNL     1      23.819  47.273  43.289  1.00  0.00     0.050 C 
HETATM   11  C6  UNL     1      23.855  45.944  43.826  1.00  0.00     0.035 A 
HETATM   12  C5  UNL     1      24.897  45.307  44.452  1.00  0.00     0.151 A 
HETATM   13  C18 UNL     1      22.831  45.021  43.814  1.00  0.00     0.076 A 
HETATM   14  N1  UNL     1      24.537  44.051  44.810  1.00  0.00    -0.339 N 
HETATM   15  C4  UNL     1      23.243  43.858  44.417  1.00  0.00     0.028 A 
ATOM     16  H1  UNL     1      25.127  43.371  45.289  1.00  0.00     0.168 HD
BRANCH  12  17
HETATM   17  O1  UNL     1      26.177  45.811  44.720  1.00  0.00    -0.345 OA
ATOM     18  H1  UNL     1      26.703  46.224  44.045  1.00  0.00     0.219 HD
ENDBRANCH  12  17
BRANCH  15  19
HETATM   19  C3  UNL     1      22.482  42.607  44.630  1.00  0.00     0.058 C 
BRANCH  19  20
HETATM   20  C2  UNL     1      22.074  42.350  46.036  1.00  0.00     0.002 C 
HETATM   21  C1  UNL     1      20.650  42.887  46.193  1.00  0.00     0.005 C 
ENDBRANCH  19  20
ENDBRANCH  15  19
BRANCH  13  22
HETATM   22  C19 UNL     1      21.526  45.262  43.249  1.00  0.00     0.296 C 
HETATM   23  O3  UNL     1      21.292  45.484  42.037  1.00  0.00    -0.259 OA
BRANCH  22  24
HETATM   24  O4  UNL     1      20.410  45.254  44.095  1.00  0.00    -0.313 OA
BRANCH  24  25
HETATM   25  C20 UNL     1      20.057  46.310  44.934  1.00  0.00     0.124 C 
HETATM   26  C21 UNL     1      20.975  46.559  46.082  1.00  0.00     0.040 C 
HETATM   27  C22 UNL     1      19.975  47.555  44.050  1.00  0.00     0.040 C 
ENDBRANCH  24  25
ENDBRANCH  22  24
ENDBRANCH  13  22
ENDBRANCH   1  10
BRANCH   5  28
HETATM   28  C11 UNL     1      22.286  52.125  45.674  1.00  0.00     0.126 C 
HETATM   29 BR1  UNL     1      23.803  53.328  45.536  1.00  0.00    -0.091 Br
ENDBRANCH   5  28
BRANCH   7  30
HETATM   30  C14 UNL     1      23.213  50.853  48.222  1.00  0.00     0.048 C 
BRANCH  30  31
HETATM   31  C15 UNL     1      23.708  50.302  49.587  1.00  0.00     0.126 C 
BRANCH  31  32
HETATM   32  N3  UNL     1      22.799  49.323  50.090  1.00  0.00    -0.367 N 
HETATM   33  C16 UNL     1      22.622  48.969  51.299  1.00  0.00     0.196 C 
HETATM   34  N4  UNL     1      23.350  49.533  52.378  1.00  0.00    -0.067 NA
HETATM   35  N5  UNL     1      21.659  47.965  51.595  1.00  0.00    -0.067 NA
ATOM     36  H3  UNL     1      22.220  48.849  49.396  1.00  0.00     0.161 HD
ENDBRANCH  31  32
ENDBRANCH  30  31
ENDBRANCH   7  30
TORSDOF 11
ENDMDL
MODEL 2
REMARK VINA RESULT: -8.017147735      2.822      3.857
REMARK  11 active torsions:
REMARK  status: ('A' for Active; 'I' for Inactive)
REMARK    1  A    between atoms: C2_2  and  C3_3 
REMARK    2  A    between atoms: C3_3  and  C4_4 
REMARK    3  A    between atoms: C5_7  and  O1_8 
REMARK    4  A    between atoms: C7_11  and  C8_12 
REMARK    5  A    between atoms: C10_16  and  C11_17 
REMARK    6  A    between atoms: C13_20  and  C14_21 
REMARK    7  A    between atoms: C14_21  and  C15_22 
REMARK    8  A    between atoms: C15_22  and  N3_23 
REMARK    9  A    between atoms: C18_30  and  C19_31 
REMARK   10  A    between atoms: C19_31  and  O4_33 
REMARK   11  A    between atoms: O4_33  and  C20_34 
ROOT
HETATM    1  C8  UNL     1      23.357  48.281  45.034  1.00  0.00     0.084 A 
HETATM    2  N2  UNL     1      23.639  47.993  46.317  1.00  0.00    -0.362 N 
ATOM      3  H2  UNL     1      23.898  47.039  46.567  1.00  0.00     0.165 HD
HETATM    4  C9  UNL     1      23.588  48.923  47.273  1.00  0.00     0.097 A 
HETATM    5  C10 UNL     1      23.241  50.275  47.039  1.00  0.00    -0.019 A 
HETATM    6  C12 UNL     1      22.952  50.607  45.747  1.00  0.00     0.021 A 
HETATM    7  C13 UNL     1      22.698  51.829  45.346  1.00  0.00    -0.009 C 
HETATM    8  C17 UNL     1      23.021  49.577  44.780  1.00  0.00     0.208 A 
HETATM    9  O2  UNL     1      22.755  49.855  43.583  1.00  0.00    -0.285 OA
ENDROOT
BRANCH   1  10
HETATM   10  C7  UNL     1      23.415  47.330  44.125  1.00  0.00     0.050 C 
HETATM   11  C6  UNL     1      23.471  45.915  44.350  1.00  0.00     0.035 A 
HETATM   12  C5  UNL     1      24.581  45.121  44.497  1.00  0.00     0.151 A 
HETATM   13  C18 UNL     1      22.401  45.053  44.459  1.00  0.00     0.076 A 
HETATM   14  N1  UNL     1      24.216  43.830  44.688  1.00  0.00    -0.339 N 
HETATM   15  C4  UNL     1      22.852  43.772  44.668  1.00  0.00     0.028 A 
ATOM     16  H1  UNL     1      24.848  43.041  44.824  1.00  0.00     0.168 HD
BRANCH  12  17
HETATM   17  O1  UNL     1      25.927  45.509  44.468  1.00  0.00    -0.345 OA
ATOM     18  H1  UNL     1      26.408  45.580  43.651  1.00  0.00     0.219 HD
ENDBRANCH  12  17
BRANCH  15  19
HETATM   19  C3  UNL     1      22.064  42.532  44.844  1.00  0.00     0.058 C 
BRANCH  19  20
HETATM   20  C2  UNL     1      21.756  42.176  46.253  1.00  0.00     0.002 C 
HETATM   21  C1  UNL     1      20.504  42.962  46.649  1.00  0.00     0.005 C 
ENDBRANCH  19  20
ENDBRANCH  15  19
BRANCH  13  22
HETATM   22  C19 UNL     1      21.019  45.457  44.368  1.00  0.00     0.296 C 
HETATM   23  O3  UNL     1      20.430  46.206  45.182  1.00  0.00    -0.259 OA
BRANCH  22  24
HETATM   24  O4  UNL     1      20.247  44.989  43.297  1.00  0.00    -0.313 OA
BRANCH  24  25
HETATM   25  C20 UNL     1      18.853  44.969  43.288  1.00  0.00     0.124 C 
HETATM   26  C21 UNL     1      18.208  45.271  41.979  1.00  0.00     0.040 C 
HETATM   27  C22 UNL     1      18.439  43.577  43.766  1.00  0.00     0.040 C 
ENDBRANCH  24  25
ENDBRANCH  22  24
ENDBRANCH  13  22
ENDBRANCH   1  10
BRANCH   5  28
HETATM   28  C11 UNL     1      23.126  51.167  48.221  1.00  0.00     0.126 C 
HETATM   29 BR1  UNL     1      23.458  50.153  49.842  1.00  0.00    -0.091 Br
ENDBRANCH   5  28
BRANCH   7  30
HETATM   30  C14 UNL     1      22.637  53.111  45.995  1.00  0.00     0.048 C 
BRANCH  30  31
HETATM   31  C15 UNL     1      23.854  53.954  45.529  1.00  0.00     0.126 C 
BRANCH  31  32
HETATM   32  N3  UNL     1      25.011  53.632  46.303  1.00  0.00    -0.367 N 
HETATM   33  C16 UNL     1      26.134  54.230  46.315  1.00  0.00     0.196 C 
HETATM   34  N4  UNL     1      26.406  55.367  45.513  1.00  0.00    -0.067 NA
HETATM   35  N5  UNL     1      27.167  53.747  47.164  1.00  0.00    -0.067 NA
ATOM     36  H3  UNL     1      24.927  52.825  46.920  1.00  0.00     0.161 HD
ENDBRANCH  31  32
ENDBRANCH  30  31
ENDBRANCH   7  30
TORSDOF 11
ENDMDL
MODEL 3
REMARK VINA RESULT: -7.950428150      5.352      8.523
REMARK  11 active torsions:
REMARK  status: ('A' for Active; 'I' for Inactive)
REMARK    1  A    between atoms: C2_2  and  C3_3 
REMARK    2  A    between atoms: C3_3  and  C4_4 
REMARK    3  A    between atoms: C5_7  and  O1_8 
REMARK    4  A    between atoms: C7_11  and  C8_12 
REMARK    5  A    between atoms: C10_16  and  C11_17 
REMARK    6  A    between atoms: C13_20  and  C14_21 
REMARK    7  A    between atoms: C14_21  and  C15_22 
REMARK    8  A    between atoms: C15_22  and  N3_23 
REMARK    9  A    between atoms: C18_30  and  C19_31 
REMARK   10  A    between atoms: C19_31  and  O4_33 
REMARK   11  A    between atoms: O4_33  and  C20_34 
ROOT
HETATM    1  C8  UNL     1      18.630  44.793  43.841  1.00  0.00     0.084 A 
HETATM    2  N2  UNL     1      17.806  43.735  43.948  1.00  0.00    -0.362 N 
ATOM      3  H2  UNL     1      17.933  43.083  44.721  1.00  0.00     0.165 HD
HETATM    4  C9  UNL     1      16.827  43.517  43.068  1.00  0.00     0.097 A 
HETATM    5  C10 UNL     1      16.562  44.356  41.961  1.00  0.00    -0.019 A 
HETATM    6  C12 UNL     1      17.376  45.443  41.820  1.00  0.00     0.021 A 
HETATM    7  C13 UNL     1      17.212  46.365  40.903  1.00  0.00    -0.009 C 
HETATM    8  C17 UNL     1      18.397  45.620  42.783  1.00  0.00     0.208 A 
HETATM    9  O2  UNL     1      19.163  46.610  42.676  1.00  0.00    -0.285 OA
ENDROOT
BRANCH   1  10
HETATM   10  C7  UNL     1      19.586  44.966  44.730  1.00  0.00     0.050 C 
HETATM   11  C6  UNL     1      20.803  44.217  44.855  1.00  0.00     0.035 A 
HETATM   12  C5  UNL     1      21.033  43.087  45.599  1.00  0.00     0.151 A 
HETATM   13  C18 UNL     1      22.008  44.492  44.246  1.00  0.00     0.076 A 
HETATM   14  N1  UNL     1      22.318  42.682  45.458  1.00  0.00    -0.339 N 
HETATM   15  C4  UNL     1      22.942  43.553  44.611  1.00  0.00     0.028 A 
ATOM     16  H1  UNL     1      22.744  41.870  45.904  1.00  0.00     0.168 HD
BRANCH  12  17
HETATM   17  O1  UNL     1      20.127  42.393  46.412  1.00  0.00    -0.345 OA
ATOM     18  H1  UNL     1      19.331  42.011  46.060  1.00  0.00     0.219 HD
ENDBRANCH  12  17
BRANCH  15  19
HETATM   19  C3  UNL     1      24.360  43.451  44.201  1.00  0.00     0.058 C 
BRANCH  19  20
HETATM   20  C2  UNL     1      25.317  44.209  45.049  1.00  0.00     0.002 C 
HETATM   21  C1  UNL     1      25.645  45.504  44.304  1.00  0.00     0.005 C 
ENDBRANCH  19  20
ENDBRANCH  15  19
BRANCH  13  22
HETATM   22  C19 UNL     1      22.234  45.605  43.357  1.00  0.00     0.296 C 
HETATM   23  O3  UNL     1      22.137  45.564  42.107  1.00  0.00    -0.259 OA
BRANCH  22  24
HETATM   24  O4  UNL     1      22.594  46.845  43.902  1.00  0.00    -0.313 OA
BRANCH  24  25
HETATM   25  C20 UNL     1      22.274  48.074  43.327  1.00  0.00     0.124 C 
HETATM   26  C21 UNL     1      21.539  49.028  44.205  1.00  0.00     0.040 C 
HETATM   27  C22 UNL     1      23.595  48.694  42.871  1.00  0.00     0.040 C 
ENDBRANCH  24  25
ENDBRANCH  22  24
ENDBRANCH  13  22
ENDBRANCH   1  10
BRANCH   5  28
HETATM   28  C11 UNL     1      15.505  43.923  41.010  1.00  0.00     0.126 C 
HETATM   29 BR1  UNL     1      16.322  43.109  39.449  1.00  0.00    -0.091 Br
ENDBRANCH   5  28
BRANCH   7  30
HETATM   30  C14 UNL     1      16.261  46.578  39.845  1.00  0.00     0.048 C 
BRANCH  30  31
HETATM   31  C15 UNL     1      15.385  47.804  40.214  1.00  0.00     0.126 C 
BRANCH  31  32
HETATM   32  N3  UNL     1      14.340  47.980  39.256  1.00  0.00    -0.367 N 
HETATM   33  C16 UNL     1      13.217  47.385  39.207  1.00  0.00     0.196 C 
HETATM   34  N4  UNL     1      12.824  46.407  40.156  1.00  0.00    -0.067 NA
HETATM   35  N5  UNL     1      12.308  47.705  38.161  1.00  0.00    -0.067 NA
ATOM     36  H3  UNL     1      14.517  48.665  38.521  1.00  0.00     0.161 HD
ENDBRANCH  31  32
ENDBRANCH  30  31
ENDBRANCH   7  30
TORSDOF 11
ENDMDL
MODEL 4
REMARK VINA RESULT: -7.696388649      1.452      1.752
REMARK  11 active torsions:
REMARK  status: ('A' for Active; 'I' for Inactive)
REMARK    1  A    between atoms: C2_2  and  C3_3 
REMARK    2  A    between atoms: C3_3  and  C4_4 
REMARK    3  A    between atoms: C5_7  and  O1_8 
REMARK    4  A    between atoms: C7_11  and  C8_12 
REMARK    5  A    between atoms: C10_16  and  C11_17 
REMARK    6  A    between atoms: C13_20  and  C14_21 
REMARK    7  A    between atoms: C14_21  and  C15_22 
REMARK    8  A    between atoms: C15_22  and  N3_23 
REMARK    9  A    between atoms: C18_30  and  C19_31 
REMARK   10  A    between atoms: C19_31  and  O4_33 
REMARK   11  A    between atoms: O4_33  and  C20_34 
ROOT
HETATM    1  C8  UNL     1      22.756  48.553  43.889  1.00  0.00     0.084 A 
HETATM    2  N2  UNL     1      22.268  49.683  43.348  1.00  0.00    -0.362 N 
ATOM      3  H2  UNL     1      21.947  49.672  42.380  1.00  0.00     0.165 HD
HETATM    4  C9  UNL     1      22.191  50.818  44.044  1.00  0.00     0.097 A 
HETATM    5  C10 UNL     1      22.606  50.945  45.391  1.00  0.00    -0.019 A 
HETATM    6  C12 UNL     1      23.105  49.818  45.977  1.00  0.00     0.021 A 
HETATM    7  C13 UNL     1      23.451  49.742  47.238  1.00  0.00    -0.009 C 
HETATM    8  C17 UNL     1      23.163  48.646  45.187  1.00  0.00     0.208 A 
HETATM    9  O2  UNL     1      23.622  47.594  45.700  1.00  0.00    -0.285 OA
ENDROOT
BRANCH   1  10
HETATM   10  C7  UNL     1      22.817  47.456  43.163  1.00  0.00     0.050 C 
HETATM   11  C6  UNL     1      22.924  46.105  43.635  1.00  0.00     0.035 A 
HETATM   12  C5  UNL     1      24.061  45.379  43.883  1.00  0.00     0.151 A 
HETATM   13  C18 UNL     1      21.884  45.250  43.932  1.00  0.00     0.076 A 
HETATM   14  N1  UNL     1      23.742  44.134  44.314  1.00  0.00    -0.339 N 
HETATM   15  C4  UNL     1      22.381  44.040  44.351  1.00  0.00     0.028 A 
ATOM     16  H1  UNL     1      24.402  43.399  44.567  1.00  0.00     0.168 HD
BRANCH  12  17
HETATM   17  O1  UNL     1      25.393  45.790  43.739  1.00  0.00    -0.345 OA
ATOM     18  H1  UNL     1      26.004  45.319  43.183  1.00  0.00     0.219 HD
ENDBRANCH  12  17
BRANCH  15  19
HETATM   19  C3  UNL     1      21.637  42.831  44.772  1.00  0.00     0.058 C 
BRANCH  19  20
HETATM   20  C2  UNL     1      21.470  42.675  46.240  1.00  0.00     0.002 C 
HETATM   21  C1  UNL     1      20.216  43.458  46.634  1.00  0.00     0.005 C 
ENDBRANCH  19  20
ENDBRANCH  15  19
BRANCH  13  22
HETATM   22  C19 UNL     1      20.489  45.596  43.818  1.00  0.00     0.296 C 
HETATM   23  O3  UNL     1      19.880  46.400  44.562  1.00  0.00    -0.259 OA
BRANCH  22  24
HETATM   24  O4  UNL     1      19.725  45.001  42.805  1.00  0.00    -0.313 OA
BRANCH  24  25
HETATM   25  C20 UNL     1      18.332  45.009  42.770  1.00  0.00     0.124 C 
HETATM   26  C21 UNL     1      17.718  45.139  41.417  1.00  0.00     0.040 C 
HETATM   27  C22 UNL     1      17.876  43.707  43.428  1.00  0.00     0.040 C 
ENDBRANCH  24  25
ENDBRANCH  22  24
ENDBRANCH  13  22
ENDBRANCH   1  10
BRANCH   5  28
HETATM   28  C11 UNL     1      22.558  52.301  45.997  1.00  0.00     0.126 C 
HETATM   29 BR1  UNL     1      20.745  52.989  45.919  1.00  0.00    -0.091 Br
ENDBRANCH   5  28
BRANCH   7  30
HETATM   30  C14 UNL     1      23.443  50.662  48.344  1.00  0.00     0.048 C 
BRANCH  30  31
HETATM   31  C15 UNL     1      23.844  49.888  49.628  1.00  0.00     0.126 C 
BRANCH  31  32
HETATM   32  N3  UNL     1      22.787  49.020  50.039  1.00  0.00    -0.367 N 
HETATM   33  C16 UNL     1      22.420  48.741  51.224  1.00  0.00     0.196 C 
HETATM   34  N4  UNL     1      23.051  49.288  52.371  1.00  0.00    -0.067 NA
HETATM   35  N5  UNL     1      21.335  47.844  51.422  1.00  0.00    -0.067 NA
ATOM     36  H3  UNL     1      22.261  48.568  49.290  1.00  0.00     0.161 HD
ENDBRANCH  31  32
ENDBRANCH  30  31
ENDBRANCH   7  30
TORSDOF 11
ENDMDL
MODEL 5
REMARK VINA RESULT: -7.119337761      3.003      4.480
REMARK  11 active torsions:
REMARK  status: ('A' for Active; 'I' for Inactive)
REMARK    1  A    between atoms: C2_2  and  C3_3 
REMARK    2  A    between atoms: C3_3  and  C4_4 
REMARK    3  A    between atoms: C5_7  and  O1_8 
REMARK    4  A    between atoms: C7_11  and  C8_12 
REMARK    5  A    between atoms: C10_16  and  C11_17 
REMARK    6  A    between atoms: C13_20  and  C14_21 
REMARK    7  A    between atoms: C14_21  and  C15_22 
REMARK    8  A    between atoms: C15_22  and  N3_23 
REMARK    9  A    between atoms: C18_30  and  C19_31 
REMARK   10  A    between atoms: C19_31  and  O4_33 
REMARK   11  A    between atoms: O4_33  and  C20_34 
ROOT
HETATM    1  C8  UNL     1      23.527  47.255  45.627  1.00  0.00     0.084 A 
HETATM    2  N2  UNL     1      23.984  47.208  46.891  1.00  0.00    -0.362 N 
ATOM      3  H2  UNL     1      24.376  46.336  47.245  1.00  0.00     0.165 HD
HETATM    4  C9  UNL     1      23.939  48.273  47.694  1.00  0.00     0.097 A 
HETATM    5  C10 UNL     1      23.418  49.530  47.305  1.00  0.00    -0.019 A 
HETATM    6  C12 UNL     1      22.946  49.618  46.027  1.00  0.00     0.021 A 
HETATM    7  C13 UNL     1      22.512  50.728  45.484  1.00  0.00    -0.009 C 
HETATM    8  C17 UNL     1      23.020  48.454  45.226  1.00  0.00     0.208 A 
HETATM    9  O2  UNL     1      22.589  48.507  44.046  1.00  0.00    -0.285 OA
ENDROOT
BRANCH   1  10
HETATM   10  C7  UNL     1      23.587  46.177  44.872  1.00  0.00     0.050 C 
HETATM   11  C6  UNL     1      22.711  45.041  44.907  1.00  0.00     0.035 A 
HETATM   12  C5  UNL     1      22.836  43.893  45.647  1.00  0.00     0.151 A 
HETATM   13  C18 UNL     1      21.550  44.873  44.183  1.00  0.00     0.076 A 
HETATM   14  N1  UNL     1      21.803  43.054  45.395  1.00  0.00    -0.339 N 
HETATM   15  C4  UNL     1      20.988  43.655  44.479  1.00  0.00     0.028 A 
ATOM     16  H1  UNL     1      21.660  42.135  45.815  1.00  0.00     0.168 HD
BRANCH  12  17
HETATM   17  O1  UNL     1      23.852  43.560  46.553  1.00  0.00    -0.345 OA
ATOM     18  H1  UNL     1      24.633  43.094  46.279  1.00  0.00     0.219 HD
ENDBRANCH  12  17
BRANCH  15  19
HETATM   19  C3  UNL     1      19.745  43.056  43.945  1.00  0.00     0.058 C 
BRANCH  19  20
HETATM   20  C2  UNL     1      18.486  43.688  44.420  1.00  0.00     0.002 C 
HETATM   21  C1  UNL     1      17.649  44.004  43.179  1.00  0.00     0.005 C 
ENDBRANCH  19  20
ENDBRANCH  15  19
BRANCH  13  22
HETATM   22  C19 UNL     1      21.019  45.844  43.259  1.00  0.00     0.296 C 
HETATM   23  O3  UNL     1      20.081  46.639  43.505  1.00  0.00    -0.259 OA
BRANCH  22  24
HETATM   24  O4  UNL     1      21.573  45.931  41.975  1.00  0.00    -0.313 OA
BRANCH  24  25
HETATM   25  C20 UNL     1      22.930  45.776  41.697  1.00  0.00     0.124 C 
HETATM   26  C21 UNL     1      23.255  45.151  40.384  1.00  0.00     0.040 C 
HETATM   27  C22 UNL     1      23.551  47.171  41.781  1.00  0.00     0.040 C 
ENDBRANCH  24  25
ENDBRANCH  22  24
ENDBRANCH  13  22
ENDBRANCH   1  10
BRANCH   5  28
HETATM   28  C11 UNL     1      23.339  50.588  48.345  1.00  0.00     0.126 C 
HETATM   29 BR1  UNL     1      23.473  49.788  50.107  1.00  0.00    -0.091 Br
ENDBRANCH   5  28
BRANCH   7  30
HETATM   30  C14 UNL     1      22.382  52.088  45.934  1.00  0.00     0.048 C 
BRANCH  30  31
HETATM   31  C15 UNL     1      23.662  52.864  45.524  1.00  0.00     0.126 C 
BRANCH  31  32
HETATM   32  N3  UNL     1      23.357  54.238  45.278  1.00  0.00    -0.367 N 
HETATM   33  C16 UNL     1      24.143  55.236  45.337  1.00  0.00     0.196 C 
HETATM   34  N4  UNL     1      25.514  55.113  45.678  1.00  0.00    -0.067 NA
HETATM   35  N5  UNL     1      23.638  56.535  45.054  1.00  0.00    -0.067 NA
ATOM     36  H3  UNL     1      22.390  54.444  45.023  1.00  0.00     0.161 HD
ENDBRANCH  31  32
ENDBRANCH  30  31
ENDBRANCH   7  30
TORSDOF 11
ENDMDL
