MODEL 1
REMARK VINA RESULT: -7.970885048      0.000      0.000
REMARK  13 active torsions:
REMARK  status: ('A' for Active; 'I' for Inactive)
REMARK    1  A    between atoms: C2_2  and  C4_4 
REMARK    2  A    between atoms: C4_4  and  N1_5 
REMARK    3  A    between atoms: C4_4  and  C10_18 
REMARK       I    between atoms: N1_5  and  C5_7 
REMARK    4  A    between atoms: C5_7  and  C6_9 
REMARK    5  A    between atoms: C6_9  and  C9_13 
REMARK    6  A    between atoms: C7_10  and  C8_11 
REMARK       I    between atoms: C10_18  and  N4_20 
REMARK    7  A    between atoms: N4_20  and  C11_22 
REMARK    8  A    between atoms: C11_22  and  C12_23 
REMARK    9  A    between atoms: C11_22  and  C21_38 
REMARK       I    between atoms: C12_23  and  N5_25 
REMARK   10  A    between atoms: C15_28  and  C16_29 
REMARK   11  A    between atoms: C16_29  and  C17_30 
REMARK   12  A    between atoms: C17_30  and  C18_31 
REMARK   13  A    between atoms: C18_31  and  N6_32 
ROOT
HETATM    1  C10 UNL     1      19.960  46.098  43.278  1.00  0.00     0.241 C 
HETATM    2  O2  UNL     1      19.532  47.076  43.930  1.00  0.00    -0.271 OA
HETATM    3  N4  UNL     1      21.292  46.049  42.911  1.00  0.00    -0.346 N 
ATOM      4  H4  UNL     1      21.583  45.227  42.382  1.00  0.00     0.163 HD
ENDROOT
BRANCH   3   5
HETATM    5  C11 UNL     1      22.324  47.025  43.186  1.00  0.00     0.180 C 
BRANCH   5   6
HETATM    6  C12 UNL     1      22.651  46.848  44.628  1.00  0.00     0.243 C 
HETATM    7  O3  UNL     1      22.737  45.652  45.115  1.00  0.00    -0.271 OA
HETATM    8  N5  UNL     1      22.883  47.866  45.564  1.00  0.00    -0.350 N 
HETATM    9  C13 UNL     1      22.799  49.252  45.205  1.00  0.00     0.126 C 
HETATM   10  C20 UNL     1      23.209  47.549  46.930  1.00  0.00     0.126 C 
HETATM   11  C14 UNL     1      22.276  49.997  46.450  1.00  0.00     0.024 C 
HETATM   12  C15 UNL     1      23.456  50.024  47.398  1.00  0.00    -0.012 C 
HETATM   13  C19 UNL     1      23.863  48.632  47.708  1.00  0.00     0.024 C 
BRANCH  12  14
HETATM   14  C16 UNL     1      23.207  50.880  48.596  1.00  0.00     0.006 C 
BRANCH  14  15
HETATM   15  C17 UNL     1      23.227  50.014  49.834  1.00  0.00     0.027 C 
BRANCH  15  16
HETATM   16  C18 UNL     1      23.665  50.894  50.995  1.00  0.00     0.229 C 
BRANCH  16  17
HETATM   17  N6  UNL     1      23.627  50.066  52.188  1.00  0.00    -0.079 N 
ATOM     18  H63 UNL     1      23.055  49.229  52.078  1.00  0.00     0.274 HD
ATOM     19  H62 UNL     1      24.510  49.594  52.378  1.00  0.00     0.274 HD
ATOM     20  H61 UNL     1      23.318  50.665  52.953  1.00  0.00     0.274 HD
ENDBRANCH  16  17
ENDBRANCH  15  16
ENDBRANCH  14  15
ENDBRANCH  12  14
ENDBRANCH   5   6
BRANCH   5  21
HETATM   21  C21 UNL     1      23.554  46.863  42.387  1.00  0.00     0.009 C 
HETATM   22  C22 UNL     1      24.814  46.690  43.211  1.00  0.00     0.012 C 
HETATM   23  C23 UNL     1      23.542  45.673  41.442  1.00  0.00     0.012 C 
ENDBRANCH   5  21
ENDBRANCH   3   5
BRANCH   1  24
HETATM   24  C4  UNL     1      19.029  45.018  42.916  1.00  0.00     0.180 C 
BRANCH  24  25
HETATM   25  C2  UNL     1      18.910  43.954  43.967  1.00  0.00     0.009 C 
HETATM   26  C1  UNL     1      19.732  44.272  45.198  1.00  0.00     0.012 C 
HETATM   27  C3  UNL     1      17.478  43.754  44.414  1.00  0.00     0.012 C 
ENDBRANCH  24  25
BRANCH  24  28
HETATM   28  N1  UNL     1      17.672  45.520  42.647  1.00  0.00    -0.343 N 
HETATM   29  C5  UNL     1      17.148  45.491  41.343  1.00  0.00     0.255 C 
HETATM   30  O1  UNL     1      17.953  45.006  40.459  1.00  0.00    -0.268 OA
ATOM     31  H1  UNL     1      17.109  45.892  43.411  1.00  0.00     0.163 HD
BRANCH  29  32
HETATM   32  C6  UNL     1      15.850  45.932  40.928  1.00  0.00     0.069 C 
HETATM   33  C7  UNL     1      14.821  45.125  40.792  1.00  0.00     0.004 C 
BRANCH  33  34
HETATM   34  C8  UNL     1      14.701  43.700  40.998  1.00  0.00     0.113 C 
HETATM   35 BR1  UNL     1      15.579  42.719  39.543  1.00  0.00    -0.092 Br
ENDBRANCH  33  34
BRANCH  32  36
HETATM   36  C9  UNL     1      15.564  47.341  40.638  1.00  0.00     0.125 C 
HETATM   37  N2  UNL     1      16.408  48.147  40.198  1.00  0.00    -0.387 N 
ATOM     38  H22 UNL     1      17.356  47.814  40.027  1.00  0.00     0.157 HD
ATOM     39  H21 UNL     1      16.209  49.127  39.995  1.00  0.00     0.157 HD
HETATM   40  N3  UNL     1      14.224  47.810  40.879  1.00  0.00    -0.082 NA
ENDBRANCH  32  36
ENDBRANCH  29  32
ENDBRANCH  24  28
ENDBRANCH   1  24
TORSDOF 13
ENDMDL
MODEL 2
REMARK VINA RESULT: -7.794685033      1.480      1.842
REMARK  13 active torsions:
REMARK  status: ('A' for Active; 'I' for Inactive)
REMARK    1  A    between atoms: C2_2  and  C4_4 
REMARK    2  A    between atoms: C4_4  and  N1_5 
REMARK    3  A    between atoms: C4_4  and  C10_18 
REMARK       I    between atoms: N1_5  and  C5_7 
REMARK    4  A    between atoms: C5_7  and  C6_9 
REMARK    5  A    between atoms: C6_9  and  C9_13 
REMARK    6  A    between atoms: C7_10  and  C8_11 
REMARK       I    between atoms: C10_18  and  N4_20 
REMARK    7  A    between atoms: N4_20  and  C11_22 
REMARK    8  A    between atoms: C11_22  and  C12_23 
REMARK    9  A    between atoms: C11_22  and  C21_38 
REMARK       I    between atoms: C12_23  and  N5_25 
REMARK   10  A    between atoms: C15_28  and  C16_29 
REMARK   11  A    between atoms: C16_29  and  C17_30 
REMARK   12  A    between atoms: C17_30  and  C18_31 
REMARK   13  A    between atoms: C18_31  and  N6_32 
ROOT
HETATM    1  C10 UNL     1      20.017  46.051  43.377  1.00  0.00     0.241 C 
HETATM    2  O2  UNL     1      19.611  47.019  44.057  1.00  0.00    -0.271 OA
HETATM    3  N4  UNL     1      21.339  46.004  42.973  1.00  0.00    -0.346 N 
ATOM      4  H4  UNL     1      21.611  45.189  42.422  1.00  0.00     0.163 HD
ENDROOT
BRANCH   3   5
HETATM    5  C11 UNL     1      22.382  46.971  43.237  1.00  0.00     0.180 C 
BRANCH   5   6
HETATM    6  C12 UNL     1      22.701  46.813  44.682  1.00  0.00     0.243 C 
HETATM    7  O3  UNL     1      22.798  45.623  45.183  1.00  0.00    -0.271 OA
HETATM    8  N5  UNL     1      22.914  47.843  45.609  1.00  0.00    -0.350 N 
HETATM    9  C13 UNL     1      22.816  49.225  45.234  1.00  0.00     0.126 C 
HETATM   10  C20 UNL     1      23.234  47.546  46.980  1.00  0.00     0.126 C 
HETATM   11  C14 UNL     1      22.276  49.977  46.467  1.00  0.00     0.024 C 
HETATM   12  C15 UNL     1      23.448  50.028  47.423  1.00  0.00    -0.012 C 
HETATM   13  C19 UNL     1      23.869  48.644  47.751  1.00  0.00     0.024 C 
BRANCH  12  14
HETATM   14  C16 UNL     1      23.180  50.895  48.610  1.00  0.00     0.006 C 
BRANCH  14  15
HETATM   15  C17 UNL     1      23.197  50.041  49.856  1.00  0.00     0.027 C 
BRANCH  15  16
HETATM   16  C18 UNL     1      23.723  50.908  50.991  1.00  0.00     0.229 C 
BRANCH  16  17
HETATM   17  N6  UNL     1      23.512  50.164  52.221  1.00  0.00    -0.079 N 
ATOM     18  H63 UNL     1      22.553  49.836  52.332  1.00  0.00     0.274 HD
ATOM     19  H62 UNL     1      23.961  49.249  52.219  1.00  0.00     0.274 HD
ATOM     20  H61 UNL     1      23.823  50.764  52.985  1.00  0.00     0.274 HD
ENDBRANCH  16  17
ENDBRANCH  15  16
ENDBRANCH  14  15
ENDBRANCH  12  14
ENDBRANCH   5   6
BRANCH   5  21
HETATM   21  C21 UNL     1      23.613  46.779  42.445  1.00  0.00     0.009 C 
HETATM   22  C22 UNL     1      24.853  46.516  43.276  1.00  0.00     0.012 C 
HETATM   23  C23 UNL     1      23.557  45.627  41.456  1.00  0.00     0.012 C 
ENDBRANCH   5  21
ENDBRANCH   3   5
BRANCH   1  24
HETATM   24  C4  UNL     1      19.072  44.981  43.021  1.00  0.00     0.180 C 
BRANCH  24  25
HETATM   25  C2  UNL     1      18.920  43.939  44.090  1.00  0.00     0.009 C 
HETATM   26  C1  UNL     1      19.681  44.296  45.349  1.00  0.00     0.012 C 
HETATM   27  C3  UNL     1      17.473  43.727  44.477  1.00  0.00     0.012 C 
ENDBRANCH  24  25
BRANCH  24  28
HETATM   28  N1  UNL     1      17.728  45.502  42.726  1.00  0.00    -0.343 N 
HETATM   29  C5  UNL     1      17.188  45.384  41.433  1.00  0.00     0.255 C 
HETATM   30  O1  UNL     1      17.967  44.805  40.584  1.00  0.00    -0.268 OA
ATOM     31  H1  UNL     1      17.185  45.952  43.462  1.00  0.00     0.163 HD
BRANCH  29  32
HETATM   32  C6  UNL     1      15.899  45.830  40.996  1.00  0.00     0.069 C 
HETATM   33  C7  UNL     1      15.706  46.946  40.329  1.00  0.00     0.004 C 
BRANCH  33  34
HETATM   34  C8  UNL     1      16.640  47.954  39.882  1.00  0.00     0.113 C 
HETATM   35 BR1  UNL     1      15.783  49.719  39.847  1.00  0.00    -0.092 Br
ENDBRANCH  33  34
BRANCH  32  36
HETATM   36  C9  UNL     1      14.681  45.053  41.250  1.00  0.00     0.125 C 
HETATM   37  N2  UNL     1      14.673  43.914  41.758  1.00  0.00    -0.387 N 
ATOM     38  H22 UNL     1      15.564  43.489  42.014  1.00  0.00     0.157 HD
ATOM     39  H21 UNL     1      13.826  43.373  41.935  1.00  0.00     0.157 HD
HETATM   40  N3  UNL     1      13.423  45.653  40.889  1.00  0.00    -0.082 NA
ENDBRANCH  32  36
ENDBRANCH  29  32
ENDBRANCH  24  28
ENDBRANCH   1  24
TORSDOF 13
ENDMDL
MODEL 3
REMARK VINA RESULT: -7.745267454      2.091      2.728
REMARK  13 active torsions:
REMARK  status: ('A' for Active; 'I' for Inactive)
REMARK    1  A    between atoms: C2_2  and  C4_4 
REMARK    2  A    between atoms: C4_4  and  N1_5 
REMARK    3  A    between atoms: C4_4  and  C10_18 
REMARK       I    between atoms: N1_5  and  C5_7 
REMARK    4  A    between atoms: C5_7  and  C6_9 
REMARK    5  A    between atoms: C6_9  and  C9_13 
REMARK    6  A    between atoms: C7_10  and  C8_11 
REMARK       I    between atoms: C10_18  and  N4_20 
REMARK    7  A    between atoms: N4_20  and  C11_22 
REMARK    8  A    between atoms: C11_22  and  C12_23 
REMARK    9  A    between atoms: C11_22  and  C21_38 
REMARK       I    between atoms: C12_23  and  N5_25 
REMARK   10  A    between atoms: C15_28  and  C16_29 
REMARK   11  A    between atoms: C16_29  and  C17_30 
REMARK   12  A    between atoms: C17_30  and  C18_31 
REMARK   13  A    between atoms: C18_31  and  N6_32 
ROOT
HETATM    1  C10 UNL     1      20.997  45.492  43.060  1.00  0.00     0.241 C 
HETATM    2  O2  UNL     1      21.210  45.706  41.847  1.00  0.00    -0.271 OA
HETATM    3  N4  UNL     1      22.039  45.578  43.965  1.00  0.00    -0.346 N 
ATOM      4  H4  UNL     1      21.804  45.395  44.940  1.00  0.00     0.163 HD
ENDROOT
BRANCH   3   5
HETATM    5  C11 UNL     1      23.424  45.895  43.694  1.00  0.00     0.180 C 
BRANCH   5   6
HETATM    6  C12 UNL     1      23.506  47.379  43.778  1.00  0.00     0.243 C 
HETATM    7  O3  UNL     1      23.747  48.062  42.705  1.00  0.00    -0.271 OA
HETATM    8  N5  UNL     1      23.351  48.161  44.931  1.00  0.00    -0.350 N 
HETATM    9  C13 UNL     1      23.108  47.569  46.215  1.00  0.00     0.126 C 
HETATM   10  C20 UNL     1      23.438  49.597  44.865  1.00  0.00     0.126 C 
HETATM   11  C14 UNL     1      23.796  48.477  47.254  1.00  0.00     0.024 C 
HETATM   12  C15 UNL     1      22.907  49.699  47.337  1.00  0.00    -0.012 C 
HETATM   13  C19 UNL     1      22.831  50.336  46.000  1.00  0.00     0.024 C 
BRANCH  12  14
HETATM   14  C16 UNL     1      23.303  50.622  48.443  1.00  0.00     0.006 C 
BRANCH  14  15
HETATM   15  C17 UNL     1      23.468  49.823  49.715  1.00  0.00     0.027 C 
BRANCH  15  16
HETATM   16  C18 UNL     1      23.609  50.818  50.858  1.00  0.00     0.229 C 
BRANCH  16  17
HETATM   17  N6  UNL     1      23.527  50.054  52.092  1.00  0.00    -0.079 N 
ATOM     18  H63 UNL     1      23.240  49.086  51.947  1.00  0.00     0.274 HD
ATOM     19  H62 UNL     1      24.438  49.858  52.504  1.00  0.00     0.274 HD
ATOM     20  H61 UNL     1      22.905  50.569  52.716  1.00  0.00     0.274 HD
ENDBRANCH  16  17
ENDBRANCH  15  16
ENDBRANCH  14  15
ENDBRANCH  12  14
ENDBRANCH   5   6
BRANCH   5  21
HETATM   21  C21 UNL     1      24.389  45.302  44.642  1.00  0.00     0.009 C 
HETATM   22  C22 UNL     1      24.358  43.788  44.696  1.00  0.00     0.012 C 
HETATM   23  C23 UNL     1      25.841  45.653  44.368  1.00  0.00     0.012 C 
ENDBRANCH   5  21
ENDBRANCH   3   5
BRANCH   1  24
HETATM   24  C4  UNL     1      19.634  45.153  43.497  1.00  0.00     0.180 C 
BRANCH  24  25
HETATM   25  C2  UNL     1      19.264  45.754  44.822  1.00  0.00     0.009 C 
HETATM   26  C1  UNL     1      19.888  45.008  45.982  1.00  0.00     0.012 C 
HETATM   27  C3  UNL     1      19.690  47.202  44.928  1.00  0.00     0.012 C 
ENDBRANCH  24  25
BRANCH  24  28
HETATM   28  N1  UNL     1      18.616  45.580  42.525  1.00  0.00    -0.343 N 
HETATM   29  C5  UNL     1      17.615  44.686  42.103  1.00  0.00     0.255 C 
HETATM   30  O1  UNL     1      17.694  43.513  42.634  1.00  0.00    -0.268 OA
ATOM     31  H1  UNL     1      18.636  46.529  42.153  1.00  0.00     0.163 HD
BRANCH  29  32
HETATM   32  C6  UNL     1      16.557  44.956  41.176  1.00  0.00     0.069 C 
HETATM   33  C7  UNL     1      16.371  46.127  40.610  1.00  0.00     0.004 C 
BRANCH  33  34
HETATM   34  C8  UNL     1      17.103  47.367  40.739  1.00  0.00     0.113 C 
HETATM   35 BR1  UNL     1      16.070  48.856  39.985  1.00  0.00    -0.092 Br
ENDBRANCH  33  34
BRANCH  32  36
HETATM   36  C9  UNL     1      15.598  43.923  40.771  1.00  0.00     0.125 C 
HETATM   37  N2  UNL     1      14.611  43.580  41.453  1.00  0.00    -0.387 N 
ATOM     38  H22 UNL     1      14.456  44.041  42.349  1.00  0.00     0.157 HD
ATOM     39  H21 UNL     1      13.944  42.862  41.171  1.00  0.00     0.157 HD
HETATM   40  N3  UNL     1      15.818  43.273  39.505  1.00  0.00    -0.082 NA
ENDBRANCH  32  36
ENDBRANCH  29  32
ENDBRANCH  24  28
ENDBRANCH   1  24
TORSDOF 13
ENDMDL
MODEL 4
REMARK VINA RESULT: -7.616026319      2.362      2.957
REMARK  13 active torsions:
REMARK  status: ('A' for Active; 'I' for Inactive)
REMARK    1  A    between atoms: C2_2  and  C4_4 
REMARK    2  A    between atoms: C4_4  and  N1_5 
REMARK    3  A    between atoms: C4_4  and  C10_18 
REMARK       I    between atoms: N1_5  and  C5_7 
REMARK    4  A    between atoms: C5_7  and  C6_9 
REMARK    5  A    between atoms: C6_9  and  C9_13 
REMARK    6  A    between atoms: C7_10  and  C8_11 
REMARK       I    between atoms: C10_18  and  N4_20 
REMARK    7  A    between atoms: N4_20  and  C11_22 
REMARK    8  A    between atoms: C11_22  and  C12_23 
REMARK    9  A    between atoms: C11_22  and  C21_38 
REMARK       I    between atoms: C12_23  and  N5_25 
REMARK   10  A    between atoms: C15_28  and  C16_29 
REMARK   11  A    between atoms: C16_29  and  C17_30 
REMARK   12  A    between atoms: C17_30  and  C18_31 
REMARK   13  A    between atoms: C18_31  and  N6_32 
ROOT
HETATM    1  C10 UNL     1      20.204  45.658  43.192  1.00  0.00     0.241 C 
HETATM    2  O2  UNL     1      19.946  46.878  43.295  1.00  0.00    -0.271 OA
HETATM    3  N4  UNL     1      21.517  45.227  43.252  1.00  0.00    -0.346 N 
ATOM      4  H4  UNL     1      21.664  44.222  43.163  1.00  0.00     0.163 HD
ENDROOT
BRANCH   3   5
HETATM    5  C11 UNL     1      22.706  46.032  43.424  1.00  0.00     0.180 C 
BRANCH   5   6
HETATM    6  C12 UNL     1      22.544  46.685  44.752  1.00  0.00     0.243 C 
HETATM    7  O3  UNL     1      22.304  45.954  45.793  1.00  0.00    -0.271 OA
HETATM    8  N5  UNL     1      22.619  48.059  45.023  1.00  0.00    -0.350 N 
HETATM    9  C13 UNL     1      22.849  49.019  43.982  1.00  0.00     0.126 C 
HETATM   10  C20 UNL     1      22.460  48.555  46.365  1.00  0.00     0.126 C 
HETATM   11  C14 UNL     1      22.080  50.294  44.385  1.00  0.00     0.024 C 
HETATM   12  C15 UNL     1      22.901  50.894  45.506  1.00  0.00    -0.012 C 
HETATM   13  C19 UNL     1      22.989  49.918  46.619  1.00  0.00     0.024 C 
BRANCH  12  14
HETATM   14  C16 UNL     1      22.420  52.250  45.905  1.00  0.00     0.006 C 
BRANCH  14  15
HETATM   15  C17 UNL     1      20.909  52.261  45.891  1.00  0.00     0.027 C 
BRANCH  15  16
HETATM   16  C18 UNL     1      20.463  53.659  46.296  1.00  0.00     0.229 C 
BRANCH  16  17
HETATM   17  N6  UNL     1      21.499  54.576  45.850  1.00  0.00    -0.079 N 
ATOM     18  H63 UNL     1      21.133  55.478  45.547  1.00  0.00     0.274 HD
ATOM     19  H62 UNL     1      22.083  54.922  46.611  1.00  0.00     0.274 HD
ATOM     20  H61 UNL     1      22.028  54.092  45.124  1.00  0.00     0.274 HD
ENDBRANCH  16  17
ENDBRANCH  15  16
ENDBRANCH  14  15
ENDBRANCH  12  14
ENDBRANCH   5   6
BRANCH   5  21
HETATM   21  C21 UNL     1      23.971  45.271  43.410  1.00  0.00     0.009 C 
HETATM   22  C22 UNL     1      25.140  45.993  44.049  1.00  0.00     0.012 C 
HETATM   23  C23 UNL     1      23.909  43.928  44.119  1.00  0.00     0.012 C 
ENDBRANCH   5  21
ENDBRANCH   3   5
BRANCH   1  24
HETATM   24  C4  UNL     1      19.097  44.707  43.008  1.00  0.00     0.180 C 
BRANCH  24  25
HETATM   25  C2  UNL     1      18.869  43.818  44.196  1.00  0.00     0.009 C 
HETATM   26  C1  UNL     1      19.435  44.410  45.470  1.00  0.00     0.012 C 
HETATM   27  C3  UNL     1      17.399  43.549  44.432  1.00  0.00     0.012 C 
ENDBRANCH  24  25
BRANCH  24  28
HETATM   28  N1  UNL     1      17.823  45.385  42.721  1.00  0.00    -0.343 N 
HETATM   29  C5  UNL     1      17.184  45.203  41.481  1.00  0.00     0.255 C 
HETATM   30  O1  UNL     1      17.814  44.423  40.670  1.00  0.00    -0.268 OA
ATOM     31  H1  UNL     1      17.401  45.991  43.424  1.00  0.00     0.163 HD
BRANCH  29  32
HETATM   32  C6  UNL     1      15.945  45.784  41.060  1.00  0.00     0.069 C 
HETATM   33  C7  UNL     1      15.850  46.981  40.525  1.00  0.00     0.004 C 
BRANCH  33  34
HETATM   34  C8  UNL     1      16.864  47.968  40.230  1.00  0.00     0.113 C 
HETATM   35 BR1  UNL     1      16.036  49.690  39.783  1.00  0.00    -0.092 Br
ENDBRANCH  33  34
BRANCH  32  36
HETATM   36  C9  UNL     1      14.670  45.067  41.181  1.00  0.00     0.125 C 
HETATM   37  N2  UNL     1      14.574  43.867  41.506  1.00  0.00    -0.387 N 
ATOM     38  H22 UNL     1      15.427  43.345  41.701  1.00  0.00     0.157 HD
ATOM     39  H21 UNL     1      13.687  43.368  41.590  1.00  0.00     0.157 HD
HETATM   40  N3  UNL     1      13.465  45.805  40.906  1.00  0.00    -0.082 NA
ENDBRANCH  32  36
ENDBRANCH  29  32
ENDBRANCH  24  28
ENDBRANCH   1  24
TORSDOF 13
ENDMDL
MODEL 5
REMARK VINA RESULT: -7.604504273      3.750      8.728
REMARK  13 active torsions:
REMARK  status: ('A' for Active; 'I' for Inactive)
REMARK    1  A    between atoms: C2_2  and  C4_4 
REMARK    2  A    between atoms: C4_4  and  N1_5 
REMARK    3  A    between atoms: C4_4  and  C10_18 
REMARK       I    between atoms: N1_5  and  C5_7 
REMARK    4  A    between atoms: C5_7  and  C6_9 
REMARK    5  A    between atoms: C6_9  and  C9_13 
REMARK    6  A    between atoms: C7_10  and  C8_11 
REMARK       I    between atoms: C10_18  and  N4_20 
REMARK    7  A    between atoms: N4_20  and  C11_22 
REMARK    8  A    between atoms: C11_22  and  C12_23 
REMARK    9  A    between atoms: C11_22  and  C21_38 
REMARK       I    between atoms: C12_23  and  N5_25 
REMARK   10  A    between atoms: C15_28  and  C16_29 
REMARK   11  A    between atoms: C16_29  and  C17_30 
REMARK   12  A    between atoms: C17_30  and  C18_31 
REMARK   13  A    between atoms: C18_31  and  N6_32 
ROOT
HETATM    1  C10 UNL     1      21.957  47.250  45.493  1.00  0.00     0.241 C 
HETATM    2  O2  UNL     1      22.093  47.162  46.733  1.00  0.00    -0.271 OA
HETATM    3  N4  UNL     1      22.114  46.124  44.705  1.00  0.00    -0.346 N 
ATOM      4  H4  UNL     1      21.989  46.257  43.702  1.00  0.00     0.163 HD
ENDROOT
BRANCH   3   5
HETATM    5  C11 UNL     1      22.435  44.780  45.133  1.00  0.00     0.180 C 
BRANCH   5   6
HETATM    6  C12 UNL     1      21.127  44.076  45.217  1.00  0.00     0.243 C 
HETATM    7  O3  UNL     1      20.967  43.138  46.095  1.00  0.00    -0.271 OA
HETATM    8  N5  UNL     1      19.997  44.313  44.422  1.00  0.00    -0.350 N 
HETATM    9  C13 UNL     1      20.004  45.297  43.378  1.00  0.00     0.126 C 
HETATM   10  C20 UNL     1      18.783  43.566  44.624  1.00  0.00     0.126 C 
HETATM   11  C14 UNL     1      19.081  44.763  42.265  1.00  0.00     0.024 C 
HETATM   12  C15 UNL     1      17.682  44.946  42.812  1.00  0.00    -0.012 C 
HETATM   13  C19 UNL     1      17.547  44.174  44.071  1.00  0.00     0.024 C 
BRANCH  12  14
HETATM   14  C16 UNL     1      16.627  44.664  41.793  1.00  0.00     0.006 C 
BRANCH  14  15
HETATM   15  C17 UNL     1      16.229  45.959  41.125  1.00  0.00     0.027 C 
BRANCH  15  16
HETATM   16  C18 UNL     1      14.737  46.149  41.361  1.00  0.00     0.229 C 
BRANCH  16  17
HETATM   17  N6  UNL     1      14.211  44.861  41.779  1.00  0.00    -0.079 N 
ATOM     18  H63 UNL     1      14.916  44.125  41.797  1.00  0.00     0.274 HD
ATOM     19  H62 UNL     1      13.966  44.829  42.768  1.00  0.00     0.274 HD
ATOM     20  H61 UNL     1      13.425  44.650  41.163  1.00  0.00     0.274 HD
ENDBRANCH  16  17
ENDBRANCH  15  16
ENDBRANCH  14  15
ENDBRANCH  12  14
ENDBRANCH   5   6
BRANCH   5  21
HETATM   21  C21 UNL     1      23.326  44.039  44.218  1.00  0.00     0.009 C 
HETATM   22  C22 UNL     1      23.499  44.685  42.859  1.00  0.00     0.012 C 
HETATM   23  C23 UNL     1      24.741  43.839  44.737  1.00  0.00     0.012 C 
ENDBRANCH   5  21
ENDBRANCH   3   5
BRANCH   1  24
HETATM   24  C4  UNL     1      21.631  48.556  44.900  1.00  0.00     0.180 C 
BRANCH  24  25
HETATM   25  C2  UNL     1      20.222  48.646  44.392  1.00  0.00     0.009 C 
HETATM   26  C1  UNL     1      19.239  47.942  45.303  1.00  0.00     0.012 C 
HETATM   27  C3  UNL     1      19.761  50.080  44.245  1.00  0.00     0.012 C 
ENDBRANCH  24  25
BRANCH  24  28
HETATM   28  N1  UNL     1      21.823  49.662  45.852  1.00  0.00    -0.343 N 
HETATM   29  C5  UNL     1      23.042  50.362  45.892  1.00  0.00     0.255 C 
HETATM   30  O1  UNL     1      23.923  49.940  45.050  1.00  0.00    -0.268 OA
ATOM     31  H1  UNL     1      21.068  49.922  46.486  1.00  0.00     0.163 HD
BRANCH  29  32
HETATM   32  C6  UNL     1      23.374  51.460  46.750  1.00  0.00     0.069 C 
HETATM   33  C7  UNL     1      23.498  51.348  48.054  1.00  0.00     0.004 C 
BRANCH  33  34
HETATM   34  C8  UNL     1      23.352  50.203  48.924  1.00  0.00     0.113 C 
HETATM   35 BR1  UNL     1      23.713  50.704  50.786  1.00  0.00    -0.092 Br
ENDBRANCH  33  34
BRANCH  32  36
HETATM   36  C9  UNL     1      23.623  52.807  46.226  1.00  0.00     0.125 C 
HETATM   37  N2  UNL     1      22.769  53.491  45.626  1.00  0.00    -0.387 N 
ATOM     38  H22 UNL     1      21.839  53.095  45.487  1.00  0.00     0.157 HD
ATOM     39  H21 UNL     1      22.941  54.428  45.262  1.00  0.00     0.157 HD
HETATM   40  N3  UNL     1      24.935  53.365  46.424  1.00  0.00    -0.082 NA
ENDBRANCH  32  36
ENDBRANCH  29  32
ENDBRANCH  24  28
ENDBRANCH   1  24
TORSDOF 13
ENDMDL
