MODEL 1
REMARK VINA RESULT: -9.648547549      0.000      0.000
REMARK  11 active torsions:
REMARK  status: ('A' for Active; 'I' for Inactive)
REMARK    1  A    between atoms: C2_2  and  C4_4 
REMARK    2  A    between atoms: C4_4  and  C5_5 
REMARK    3  A    between atoms: C9_12  and  C10_13 
REMARK    4  A    between atoms: C10_13  and  C11_14 
REMARK    5  A    between atoms: C11_14  and  C12_15 
REMARK    6  A    between atoms: C12_15  and  N2_16 
REMARK    7  A    between atoms: C15_25  and  C16_26 
REMARK    8  A    between atoms: C16_26  and  C17_27 
REMARK    9  A    between atoms: C21_31  and  C22_32 
REMARK   10  A    between atoms: C22_32  and  C23_33 
REMARK   11  A    between atoms: C23_33  and  C24_34 
ROOT
HETATM    1  C5  UNL     1      24.111  45.255  44.887  1.00  0.00    -0.010 C 
HETATM    2  C6  UNL     1      23.394  44.132  45.525  1.00  0.00     0.062 C 
HETATM    3  C7  UNL     1      22.362  43.402  44.774  1.00  0.00     0.108 C 
HETATM    4  C8  UNL     1      21.141  43.267  45.621  1.00  0.00     0.218 C 
HETATM    5  O1  UNL     1      21.087  42.230  46.371  1.00  0.00    -0.274 OA
HETATM    6  N1  UNL     1      20.070  44.179  45.652  1.00  0.00    -0.348 N 
ATOM      7  H1  UNL     1      19.757  44.487  46.573  1.00  0.00     0.163 HD
HETATM    8  C9  UNL     1      19.374  44.720  44.520  1.00  0.00     0.176 C 
HETATM    9  C14 UNL     1      20.170  45.600  43.668  1.00  0.00     0.241 C 
HETATM   10  O2  UNL     1      20.026  45.460  42.400  1.00  0.00    -0.271 OA
HETATM   11  N5  UNL     1      21.071  46.579  44.070  1.00  0.00    -0.346 N 
ATOM     12  H5  UNL     1      21.712  46.920  43.353  1.00  0.00     0.163 HD
HETATM   13  C15 UNL     1      21.212  47.177  45.386  1.00  0.00     0.181 C 
HETATM   14  C26 UNL     1      22.585  47.063  45.926  1.00  0.00     0.244 C 
HETATM   15  O3  UNL     1      22.687  47.480  47.145  1.00  0.00    -0.271 OA
HETATM   16  N6  UNL     1      23.742  46.584  45.311  1.00  0.00    -0.333 N 
ATOM     17  H6  UNL     1      24.450  47.296  45.131  1.00  0.00     0.168 HD
ENDROOT
BRANCH  13  18
HETATM   18  C16 UNL     1      20.731  48.594  45.181  1.00  0.00     0.073 C 
BRANCH  18  19
HETATM   19  C17 UNL     1      21.673  49.657  45.466  1.00  0.00    -0.055 A 
HETATM   20  C18 UNL     1      22.127  50.503  44.485  1.00  0.00     0.007 A 
HETATM   21  C19 UNL     1      23.047  51.486  44.809  1.00  0.00     0.001 A 
HETATM   22  C20 UNL     1      23.534  51.656  46.079  1.00  0.00     0.007 A 
HETATM   23  C21 UNL     1      23.073  50.795  47.077  1.00  0.00    -0.058 A 
HETATM   24  C25 UNL     1      22.157  49.820  46.746  1.00  0.00     0.014 A 
BRANCH  23  25
HETATM   25  C22 UNL     1      23.557  50.922  48.475  1.00  0.00     0.039 C 
BRANCH  25  26
HETATM   26  C23 UNL     1      23.222  49.678  49.285  1.00  0.00     0.020 C 
BRANCH  26  27
HETATM   27  C24 UNL     1      23.596  49.868  50.730  1.00  0.00     0.115 C 
HETATM   28 CL1  UNL     1      22.475  48.970  51.792  1.00  0.00    -0.130 Cl
ENDBRANCH  26  27
ENDBRANCH  25  26
ENDBRANCH  23  25
ENDBRANCH  18  19
ENDBRANCH  13  18
BRANCH   8  29
HETATM   29  C10 UNL     1      18.733  43.631  43.675  1.00  0.00     0.036 C 
BRANCH  29  30
HETATM   30  C11 UNL     1      17.246  43.824  43.518  1.00  0.00     0.022 C 
BRANCH  30  31
HETATM   31  C12 UNL     1      16.881  44.727  42.377  1.00  0.00     0.122 C 
BRANCH  31  32
HETATM   32  N2  UNL     1      16.155  43.938  41.407  1.00  0.00    -0.367 N 
HETATM   33  C13 UNL     1      16.526  43.852  40.170  1.00  0.00     0.196 C 
HETATM   34  N3  UNL     1      17.690  44.569  39.785  1.00  0.00    -0.067 NA
HETATM   35  N4  UNL     1      15.813  43.075  39.219  1.00  0.00    -0.067 NA
ATOM     36  H2  UNL     1      15.323  43.431  41.708  1.00  0.00     0.161 HD
ENDBRANCH  31  32
ENDBRANCH  30  31
ENDBRANCH  29  30
ENDBRANCH   8  29
BRANCH   1  37
HETATM   37  C4  UNL     1      24.320  45.173  43.401  1.00  0.00     0.056 C 
BRANCH  37  38
HETATM   38  C2  UNL     1      23.390  46.067  42.620  1.00  0.00    -0.018 C 
HETATM   39  C1  UNL     1      24.010  47.472  42.619  1.00  0.00     0.010 C 
HETATM   40  C3  UNL     1      23.202  45.666  41.203  1.00  0.00     0.010 C 
ENDBRANCH  37  38
ENDBRANCH   1  37
TORSDOF 11
ENDMDL
MODEL 2
REMARK VINA RESULT: -9.566369156      0.866      1.014
REMARK  11 active torsions:
REMARK  status: ('A' for Active; 'I' for Inactive)
REMARK    1  A    between atoms: C2_2  and  C4_4 
REMARK    2  A    between atoms: C4_4  and  C5_5 
REMARK    3  A    between atoms: C9_12  and  C10_13 
REMARK    4  A    between atoms: C10_13  and  C11_14 
REMARK    5  A    between atoms: C11_14  and  C12_15 
REMARK    6  A    between atoms: C12_15  and  N2_16 
REMARK    7  A    between atoms: C15_25  and  C16_26 
REMARK    8  A    between atoms: C16_26  and  C17_27 
REMARK    9  A    between atoms: C21_31  and  C22_32 
REMARK   10  A    between atoms: C22_32  and  C23_33 
REMARK   11  A    between atoms: C23_33  and  C24_34 
ROOT
HETATM    1  C5  UNL     1      24.390  45.117  44.434  1.00  0.00    -0.010 C 
HETATM    2  C6  UNL     1      23.770  44.086  45.290  1.00  0.00     0.062 C 
HETATM    3  C7  UNL     1      22.595  43.345  44.808  1.00  0.00     0.108 C 
HETATM    4  C8  UNL     1      21.548  43.337  45.871  1.00  0.00     0.218 C 
HETATM    5  O1  UNL     1      21.601  42.371  46.710  1.00  0.00    -0.274 OA
HETATM    6  N1  UNL     1      20.529  44.298  46.012  1.00  0.00    -0.348 N 
ATOM      7  H1  UNL     1      20.400  44.696  46.942  1.00  0.00     0.163 HD
HETATM    8  C9  UNL     1      19.652  44.773  44.979  1.00  0.00     0.176 C 
HETATM    9  C14 UNL     1      20.304  45.541  43.921  1.00  0.00     0.241 C 
HETATM   10  O2  UNL     1      19.925  45.301  42.718  1.00  0.00    -0.271 OA
HETATM   11  N5  UNL     1      21.293  46.508  44.063  1.00  0.00    -0.346 N 
ATOM     12  H5  UNL     1      21.801  46.757  43.214  1.00  0.00     0.163 HD
HETATM   13  C15 UNL     1      21.693  47.207  45.272  1.00  0.00     0.181 C 
HETATM   14  C26 UNL     1      23.137  47.075  45.563  1.00  0.00     0.244 C 
HETATM   15  O3  UNL     1      23.475  47.587  46.700  1.00  0.00    -0.271 OA
HETATM   16  N6  UNL     1      24.146  46.493  44.795  1.00  0.00    -0.333 N 
ATOM     17  H6  UNL     1      24.830  47.154  44.426  1.00  0.00     0.168 HD
ENDROOT
BRANCH  13  18
HETATM   18  C16 UNL     1      21.225  48.622  45.028  1.00  0.00     0.073 C 
BRANCH  18  19
HETATM   19  C17 UNL     1      22.039  49.687  45.576  1.00  0.00    -0.055 A 
HETATM   20  C18 UNL     1      22.562  50.678  44.783  1.00  0.00     0.007 A 
HETATM   21  C19 UNL     1      23.355  51.659  45.356  1.00  0.00     0.001 A 
HETATM   22  C20 UNL     1      23.648  51.687  46.694  1.00  0.00     0.007 A 
HETATM   23  C21 UNL     1      23.117  50.679  47.501  1.00  0.00    -0.058 A 
HETATM   24  C25 UNL     1      22.327  49.708  46.923  1.00  0.00     0.014 A 
BRANCH  23  25
HETATM   25  C22 UNL     1      23.392  50.647  48.960  1.00  0.00     0.039 C 
BRANCH  25  26
HETATM   26  C23 UNL     1      23.313  49.228  49.502  1.00  0.00     0.020 C 
BRANCH  26  27
HETATM   27  C24 UNL     1      22.922  49.233  50.955  1.00  0.00     0.115 C 
HETATM   28 CL1  UNL     1      23.540  50.701  51.766  1.00  0.00    -0.130 Cl
ENDBRANCH  26  27
ENDBRANCH  25  26
ENDBRANCH  23  25
ENDBRANCH  18  19
ENDBRANCH  13  18
BRANCH   8  29
HETATM   29  C10 UNL     1      18.834  43.648  44.367  1.00  0.00     0.036 C 
BRANCH  29  30
HETATM   30  C11 UNL     1      17.402  44.047  44.119  1.00  0.00     0.022 C 
BRANCH  30  31
HETATM   31  C12 UNL     1      16.981  43.892  42.687  1.00  0.00     0.122 C 
BRANCH  31  32
HETATM   32  N2  UNL     1      16.546  45.187  42.214  1.00  0.00    -0.367 N 
HETATM   33  C13 UNL     1      16.797  45.604  41.015  1.00  0.00     0.196 C 
HETATM   34  N3  UNL     1      17.525  44.735  40.159  1.00  0.00    -0.067 NA
HETATM   35  N4  UNL     1      16.370  46.877  40.552  1.00  0.00    -0.067 NA
ATOM     36  H2  UNL     1      16.025  45.793  42.847  1.00  0.00     0.161 HD
ENDBRANCH  31  32
ENDBRANCH  30  31
ENDBRANCH  29  30
ENDBRANCH   8  29
BRANCH   1  37
HETATM   37  C4  UNL     1      24.319  44.902  42.949  1.00  0.00     0.056 C 
BRANCH  37  38
HETATM   38  C2  UNL     1      23.384  45.858  42.253  1.00  0.00    -0.018 C 
HETATM   39  C1  UNL     1      24.051  47.241  42.279  1.00  0.00     0.010 C 
HETATM   40  C3  UNL     1      23.114  45.525  40.832  1.00  0.00     0.010 C 
ENDBRANCH  37  38
ENDBRANCH   1  37
TORSDOF 11
ENDMDL
MODEL 3
REMARK VINA RESULT: -9.541779280      2.139      2.873
REMARK  11 active torsions:
REMARK  status: ('A' for Active; 'I' for Inactive)
REMARK    1  A    between atoms: C2_2  and  C4_4 
REMARK    2  A    between atoms: C4_4  and  C5_5 
REMARK    3  A    between atoms: C9_12  and  C10_13 
REMARK    4  A    between atoms: C10_13  and  C11_14 
REMARK    5  A    between atoms: C11_14  and  C12_15 
REMARK    6  A    between atoms: C12_15  and  N2_16 
REMARK    7  A    between atoms: C15_25  and  C16_26 
REMARK    8  A    between atoms: C16_26  and  C17_27 
REMARK    9  A    between atoms: C21_31  and  C22_32 
REMARK   10  A    between atoms: C22_32  and  C23_33 
REMARK   11  A    between atoms: C23_33  and  C24_34 
ROOT
HETATM    1  C5  UNL     1      21.137  44.088  45.720  1.00  0.00    -0.010 C 
HETATM    2  C6  UNL     1      19.803  43.454  45.740  1.00  0.00     0.062 C 
HETATM    3  C7  UNL     1      19.167  43.049  44.477  1.00  0.00     0.108 C 
HETATM    4  C8  UNL     1      17.758  43.540  44.457  1.00  0.00     0.218 C 
HETATM    5  O1  UNL     1      16.878  42.754  44.955  1.00  0.00    -0.274 OA
HETATM    6  N1  UNL     1      17.340  44.780  43.939  1.00  0.00    -0.348 N 
ATOM      7  H1  UNL     1      16.732  45.343  44.535  1.00  0.00     0.163 HD
HETATM    8  C9  UNL     1      17.681  45.333  42.659  1.00  0.00     0.176 C 
HETATM    9  C14 UNL     1      19.092  45.677  42.492  1.00  0.00     0.241 C 
HETATM   10  O2  UNL     1      19.628  45.378  41.364  1.00  0.00    -0.271 OA
HETATM   11  N5  UNL     1      19.926  46.296  43.415  1.00  0.00    -0.346 N 
ATOM     12  H5  UNL     1      20.927  46.234  43.225  1.00  0.00     0.163 HD
HETATM   13  C15 UNL     1      19.550  47.021  44.616  1.00  0.00     0.181 C 
HETATM   14  C26 UNL     1      20.202  46.493  45.835  1.00  0.00     0.244 C 
HETATM   15  O3  UNL     1      19.776  47.051  46.920  1.00  0.00    -0.271 OA
HETATM   16  N6  UNL     1      21.182  45.510  45.960  1.00  0.00    -0.333 N 
ATOM     17  H6  UNL     1      22.089  45.855  46.275  1.00  0.00     0.168 HD
ENDROOT
BRANCH  13  18
HETATM   18  C16 UNL     1      19.898  48.453  44.284  1.00  0.00     0.073 C 
BRANCH  18  19
HETATM   19  C17 UNL     1      21.278  48.852  44.460  1.00  0.00    -0.055 A 
HETATM   20  C18 UNL     1      22.251  48.516  43.552  1.00  0.00     0.007 A 
HETATM   21  C19 UNL     1      23.560  48.902  43.784  1.00  0.00     0.001 A 
HETATM   22  C20 UNL     1      23.938  49.613  44.893  1.00  0.00     0.007 A 
HETATM   23  C21 UNL     1      22.950  49.955  45.818  1.00  0.00    -0.058 A 
HETATM   24  C25 UNL     1      21.649  49.568  45.579  1.00  0.00     0.014 A 
BRANCH  23  25
HETATM   25  C22 UNL     1      23.287  50.726  47.042  1.00  0.00     0.039 C 
BRANCH  25  26
HETATM   26  C23 UNL     1      23.323  49.822  48.265  1.00  0.00     0.020 C 
BRANCH  26  27
HETATM   27  C24 UNL     1      23.347  50.638  49.529  1.00  0.00     0.115 C 
HETATM   28 CL1  UNL     1      23.333  49.574  50.965  1.00  0.00    -0.130 Cl
ENDBRANCH  26  27
ENDBRANCH  25  26
ENDBRANCH  23  25
ENDBRANCH  18  19
ENDBRANCH  13  18
BRANCH   8  29
HETATM   29  C10 UNL     1      17.234  44.436  41.517  1.00  0.00     0.036 C 
BRANCH  29  30
HETATM   30  C11 UNL     1      16.188  45.089  40.648  1.00  0.00     0.022 C 
BRANCH  30  31
HETATM   31  C12 UNL     1      14.863  45.251  41.333  1.00  0.00     0.122 C 
BRANCH  31  32
HETATM   32  N2  UNL     1      14.702  46.653  41.651  1.00  0.00    -0.367 N 
HETATM   33  C13 UNL     1      14.149  47.487  40.830  1.00  0.00     0.196 C 
HETATM   34  N3  UNL     1      13.696  46.976  39.585  1.00  0.00    -0.067 NA
HETATM   35  N4  UNL     1      13.991  48.863  41.142  1.00  0.00    -0.067 NA
ATOM     36  H2  UNL     1      15.035  46.996  42.551  1.00  0.00     0.161 HD
ENDBRANCH  31  32
ENDBRANCH  30  31
ENDBRANCH  29  30
ENDBRANCH   8  29
BRANCH   1  37
HETATM   37  C4  UNL     1      22.074  43.668  44.623  1.00  0.00     0.056 C 
BRANCH  37  38
HETATM   38  C2  UNL     1      23.099  44.720  44.283  1.00  0.00    -0.018 C 
HETATM   39  C1  UNL     1      24.458  44.201  44.775  1.00  0.00     0.010 C 
HETATM   40  C3  UNL     1      23.233  44.999  42.831  1.00  0.00     0.010 C 
ENDBRANCH  37  38
ENDBRANCH   1  37
TORSDOF 11
ENDMDL
MODEL 4
REMARK VINA RESULT: -9.321401178      3.402      8.433
REMARK  11 active torsions:
REMARK  status: ('A' for Active; 'I' for Inactive)
REMARK    1  A    between atoms: C2_2  and  C4_4 
REMARK    2  A    between atoms: C4_4  and  C5_5 
REMARK    3  A    between atoms: C9_12  and  C10_13 
REMARK    4  A    between atoms: C10_13  and  C11_14 
REMARK    5  A    between atoms: C11_14  and  C12_15 
REMARK    6  A    between atoms: C12_15  and  N2_16 
REMARK    7  A    between atoms: C15_25  and  C16_26 
REMARK    8  A    between atoms: C16_26  and  C17_27 
REMARK    9  A    between atoms: C21_31  and  C22_32 
REMARK   10  A    between atoms: C22_32  and  C23_33 
REMARK   11  A    between atoms: C23_33  and  C24_34 
ROOT
HETATM    1  C5  UNL     1      23.341  43.982  44.228  1.00  0.00    -0.010 C 
HETATM    2  C6  UNL     1      24.476  44.924  44.168  1.00  0.00     0.062 C 
HETATM    3  C7  UNL     1      24.755  45.808  45.310  1.00  0.00     0.108 C 
HETATM    4  C8  UNL     1      24.952  47.202  44.815  1.00  0.00     0.218 C 
HETATM    5  O1  UNL     1      26.149  47.523  44.493  1.00  0.00    -0.274 OA
HETATM    6  N1  UNL     1      23.935  48.166  44.681  1.00  0.00    -0.348 N 
ATOM      7  H1  UNL     1      23.888  48.661  43.791  1.00  0.00     0.163 HD
HETATM    8  C9  UNL     1      22.960  48.524  45.672  1.00  0.00     0.176 C 
HETATM    9  C14 UNL     1      21.996  47.474  45.997  1.00  0.00     0.241 C 
HETATM   10  O2  UNL     1      21.704  47.325  47.238  1.00  0.00    -0.271 OA
HETATM   11  N5  UNL     1      21.354  46.613  45.115  1.00  0.00    -0.346 N 
ATOM     12  H5  UNL     1      20.912  45.793  45.532  1.00  0.00     0.163 HD
HETATM   13  C15 UNL     1      21.233  46.737  43.673  1.00  0.00     0.181 C 
HETATM   14  C26 UNL     1      21.732  45.547  42.949  1.00  0.00     0.244 C 
HETATM   15  O3  UNL     1      21.743  45.701  41.666  1.00  0.00    -0.271 OA
HETATM   16  N6  UNL     1      22.173  44.324  43.453  1.00  0.00    -0.333 N 
ATOM     17  H6  UNL     1      21.565  43.534  43.237  1.00  0.00     0.168 HD
ENDROOT
BRANCH  13  18
HETATM   18  C16 UNL     1      19.766  47.030  43.469  1.00  0.00     0.073 C 
BRANCH  18  19
HETATM   19  C17 UNL     1      18.872  45.893  43.394  1.00  0.00    -0.055 A 
HETATM   20  C18 UNL     1      18.749  45.000  44.429  1.00  0.00     0.007 A 
HETATM   21  C19 UNL     1      17.898  43.915  44.293  1.00  0.00     0.001 A 
HETATM   22  C20 UNL     1      17.163  43.688  43.159  1.00  0.00     0.007 A 
HETATM   23  C21 UNL     1      17.287  44.595  42.105  1.00  0.00    -0.058 A 
HETATM   24  C25 UNL     1      18.136  45.672  42.249  1.00  0.00     0.014 A 
BRANCH  23  25
HETATM   25  C22 UNL     1      16.521  44.412  40.847  1.00  0.00     0.039 C 
BRANCH  25  26
HETATM   26  C23 UNL     1      15.022  44.461  41.105  1.00  0.00     0.020 C 
BRANCH  26  27
HETATM   27  C24 UNL     1      14.586  45.863  41.437  1.00  0.00     0.115 C 
HETATM   28 CL1  UNL     1      15.278  47.028  40.272  1.00  0.00    -0.130 Cl
ENDBRANCH  26  27
ENDBRANCH  25  26
ENDBRANCH  23  25
ENDBRANCH  18  19
ENDBRANCH  13  18
BRANCH   8  29
HETATM   29  C10 UNL     1      23.608  49.038  46.947  1.00  0.00     0.036 C 
BRANCH  29  30
HETATM   30  C11 UNL     1      23.190  50.449  47.276  1.00  0.00     0.022 C 
BRANCH  30  31
HETATM   31  C12 UNL     1      23.463  50.832  48.701  1.00  0.00     0.122 C 
BRANCH  31  32
HETATM   32  N2  UNL     1      22.959  49.770  49.544  1.00  0.00    -0.367 N 
HETATM   33  C13 UNL     1      23.024  49.825  50.835  1.00  0.00     0.196 C 
HETATM   34  N3  UNL     1      23.615  50.981  51.412  1.00  0.00    -0.067 NA
HETATM   35  N4  UNL     1      22.529  48.782  51.663  1.00  0.00    -0.067 NA
ATOM     36  H2  UNL     1      22.539  48.951  49.107  1.00  0.00     0.161 HD
ENDBRANCH  31  32
ENDBRANCH  30  31
ENDBRANCH  29  30
ENDBRANCH   8  29
BRANCH   1  37
HETATM   37  C4  UNL     1      22.982  43.433  45.580  1.00  0.00     0.056 C 
BRANCH  37  38
HETATM   38  C2  UNL     1      21.580  42.885  45.646  1.00  0.00    -0.018 C 
HETATM   39  C1  UNL     1      21.691  41.404  46.037  1.00  0.00     0.010 C 
HETATM   40  C3  UNL     1      20.711  43.543  46.655  1.00  0.00     0.010 C 
ENDBRANCH  37  38
ENDBRANCH   1  37
TORSDOF 11
ENDMDL
MODEL 5
REMARK VINA RESULT: -8.924985089      2.256      2.479
REMARK  11 active torsions:
REMARK  status: ('A' for Active; 'I' for Inactive)
REMARK    1  A    between atoms: C2_2  and  C4_4 
REMARK    2  A    between atoms: C4_4  and  C5_5 
REMARK    3  A    between atoms: C9_12  and  C10_13 
REMARK    4  A    between atoms: C10_13  and  C11_14 
REMARK    5  A    between atoms: C11_14  and  C12_15 
REMARK    6  A    between atoms: C12_15  and  N2_16 
REMARK    7  A    between atoms: C15_25  and  C16_26 
REMARK    8  A    between atoms: C16_26  and  C17_27 
REMARK    9  A    between atoms: C21_31  and  C22_32 
REMARK   10  A    between atoms: C22_32  and  C23_33 
REMARK   11  A    between atoms: C23_33  and  C24_34 
ROOT
HETATM    1  C5  UNL     1      23.503  44.993  45.202  1.00  0.00    -0.010 C 
HETATM    2  C6  UNL     1      22.631  44.023  45.894  1.00  0.00     0.062 C 
HETATM    3  C7  UNL     1      21.608  43.288  45.135  1.00  0.00     0.108 C 
HETATM    4  C8  UNL     1      20.308  43.363  45.865  1.00  0.00     0.218 C 
HETATM    5  O1  UNL     1      20.089  42.439  46.725  1.00  0.00    -0.274 OA
HETATM    6  N1  UNL     1      19.328  44.355  45.676  1.00  0.00    -0.348 N 
ATOM      7  H1  UNL     1      18.962  44.804  46.516  1.00  0.00     0.163 HD
HETATM    8  C9  UNL     1      18.790  44.799  44.421  1.00  0.00     0.176 C 
HETATM    9  C14 UNL     1      19.739  45.495  43.554  1.00  0.00     0.241 C 
HETATM   10  O2  UNL     1      19.698  45.204  42.305  1.00  0.00    -0.271 OA
HETATM   11  N5  UNL     1      20.687  46.442  43.926  1.00  0.00    -0.346 N 
ATOM     12  H5  UNL     1      21.419  46.634  43.241  1.00  0.00     0.163 HD
HETATM   13  C15 UNL     1      20.763  47.191  45.167  1.00  0.00     0.181 C 
HETATM   14  C26 UNL     1      22.064  47.038  45.854  1.00  0.00     0.244 C 
HETATM   15  O3  UNL     1      22.094  47.598  47.017  1.00  0.00    -0.271 OA
HETATM   16  N6  UNL     1      23.222  46.391  45.423  1.00  0.00    -0.333 N 
ATOM     17  H6  UNL     1      24.007  47.014  45.230  1.00  0.00     0.168 HD
ENDROOT
BRANCH  13  18
HETATM   18  C16 UNL     1      20.437  48.604  44.744  1.00  0.00     0.073 C 
BRANCH  18  19
HETATM   19  C17 UNL     1      21.539  49.539  44.666  1.00  0.00    -0.055 A 
HETATM   20  C18 UNL     1      22.670  49.265  43.938  1.00  0.00     0.007 A 
HETATM   21  C19 UNL     1      23.706  50.185  43.919  1.00  0.00     0.001 A 
HETATM   22  C20 UNL     1      23.655  51.371  44.603  1.00  0.00     0.007 A 
HETATM   23  C21 UNL     1      22.506  51.651  45.344  1.00  0.00    -0.058 A 
HETATM   24  C25 UNL     1      21.480  50.730  45.357  1.00  0.00     0.014 A 
BRANCH  23  25
HETATM   25  C22 UNL     1      22.382  52.917  46.109  1.00  0.00     0.039 C 
BRANCH  25  26
HETATM   26  C23 UNL     1      23.622  53.783  45.941  1.00  0.00     0.020 C 
BRANCH  26  27
HETATM   27  C24 UNL     1      23.278  55.078  45.256  1.00  0.00     0.115 C 
HETATM   28 CL1  UNL     1      24.664  56.205  45.311  1.00  0.00    -0.130 Cl
ENDBRANCH  26  27
ENDBRANCH  25  26
ENDBRANCH  23  25
ENDBRANCH  18  19
ENDBRANCH  13  18
BRANCH   8  29
HETATM   29  C10 UNL     1      18.131  43.666  43.653  1.00  0.00     0.036 C 
BRANCH  29  30
HETATM   30  C11 UNL     1      16.680  43.944  43.349  1.00  0.00     0.022 C 
BRANCH  30  31
HETATM   31  C12 UNL     1      16.481  44.793  42.128  1.00  0.00     0.122 C 
BRANCH  31  32
HETATM   32  N2  UNL     1      15.851  43.970  41.120  1.00  0.00    -0.367 N 
HETATM   33  C13 UNL     1      16.367  43.801  39.946  1.00  0.00     0.196 C 
HETATM   34  N3  UNL     1      17.594  44.461  39.669  1.00  0.00    -0.067 NA
HETATM   35  N4  UNL     1      15.747  42.993  38.956  1.00  0.00    -0.067 NA
ATOM     36  H2  UNL     1      14.970  43.506  41.342  1.00  0.00     0.161 HD
ENDBRANCH  31  32
ENDBRANCH  30  31
ENDBRANCH  29  30
ENDBRANCH   8  29
BRANCH   1  37
HETATM   37  C4  UNL     1      23.838  44.703  43.766  1.00  0.00     0.056 C 
BRANCH  37  38
HETATM   38  C2  UNL     1      23.614  45.883  42.854  1.00  0.00    -0.018 C 
HETATM   39  C1  UNL     1      24.908  46.709  42.858  1.00  0.00     0.010 C 
HETATM   40  C3  UNL     1      23.326  45.520  41.443  1.00  0.00     0.010 C 
ENDBRANCH  37  38
ENDBRANCH   1  37
TORSDOF 11
ENDMDL
