MODEL 1
REMARK VINA RESULT: -6.357485531      0.000      0.000
REMARK  12 active torsions:
REMARK  status: ('A' for Active; 'I' for Inactive)
REMARK       I    between atoms: C1_4  and  N3_6 
REMARK    1  A    between atoms: N3_6  and  C2_8 
REMARK    2  A    between atoms: C4_11  and  C5_12 
REMARK    3  A    between atoms: C5_12  and  C6_13 
REMARK    4  A    between atoms: C5_12  and  C13_20 
REMARK    5  A    between atoms: C6_13  and  C7_14 
REMARK       I    between atoms: C13_20  and  N4_22 
REMARK    6  A    between atoms: N4_22  and  C14_24 
REMARK    7  A    between atoms: C19_29  and  C20_30 
REMARK    8  A    between atoms: C20_30  and  C21_31 
REMARK    9  A    between atoms: C21_31  and  C22_32 
REMARK   10  A    between atoms: C22_32  and  C23_33 
REMARK   11  A    between atoms: C23_33  and  N5_34 
REMARK   12  A    between atoms: C24_38  and  N6_39 
REMARK       I    between atoms: C25_41  and  N8_43 
ROOT
HETATM    1  C5  UNL     1      23.581  49.546  46.685  1.00  0.00     0.011 C 
ENDROOT
BRANCH   1   2
HETATM    2  C4  UNL     1      23.649  50.430  45.566  1.00  0.00     0.129 C 
HETATM    3  S1  UNL     1      24.075  49.456  44.056  1.00  0.00    -0.151 SA
HETATM    4  C3  UNL     1      22.469  49.531  43.226  1.00  0.00     0.106 C 
HETATM    5  C2  UNL     1      21.667  50.458  44.079  1.00  0.00     0.141 C 
HETATM    6  C24 UNL     1      22.573  51.224  44.973  1.00  0.00     0.031 C 
BRANCH   5   7
HETATM    7  N3  UNL     1      20.511  49.866  44.651  1.00  0.00    -0.354 N 
HETATM    8  C1  UNL     1      20.214  48.509  44.770  1.00  0.00     0.182 C 
HETATM    9  N1  UNL     1      19.452  47.869  43.964  1.00  0.00    -0.374 N 
HETATM   10  N2  UNL     1      20.799  47.785  45.877  1.00  0.00    -0.064 NA
ATOM     11  H12 UNL     1      19.235  46.876  44.052  1.00  0.00     0.158 HD
ATOM     12  H11 UNL     1      19.039  48.379  43.184  1.00  0.00     0.158 HD
ATOM     13  H3  UNL     1      19.813  50.513  45.020  1.00  0.00     0.163 HD
ENDBRANCH   5   7
BRANCH   6  14
HETATM   14  N6  UNL     1      21.876  52.184  45.724  1.00  0.00    -0.334 N 
HETATM   15  C25 UNL     1      22.169  53.363  46.066  1.00  0.00     0.190 C 
HETATM   16  N7  UNL     1      21.195  54.072  46.852  1.00  0.00    -0.063 NA
HETATM   17  N8  UNL     1      23.345  54.087  45.764  1.00  0.00    -0.355 N 
HETATM   18  C26 UNL     1      23.387  55.188  44.789  1.00  0.00     0.125 C 
HETATM   19  C29 UNL     1      24.672  53.946  46.302  1.00  0.00     0.125 C 
HETATM   20  C27 UNL     1      24.296  56.150  45.528  1.00  0.00     0.021 C 
HETATM   21  C28 UNL     1      25.398  55.245  46.015  1.00  0.00     0.021 C 
ATOM     22  H6  UNL     1      20.963  51.870  46.056  1.00  0.00     0.168 HD
ENDBRANCH   6  14
ENDBRANCH   1   2
BRANCH   1  23
HETATM   23  C6  UNL     1      22.549  49.737  47.781  1.00  0.00     0.080 C 
BRANCH  23  24
HETATM   24  C7  UNL     1      23.138  50.043  49.107  1.00  0.00    -0.054 A 
HETATM   25  C8  UNL     1      22.777  49.131  50.113  1.00  0.00     0.007 A 
HETATM   26  C9  UNL     1      23.216  49.269  51.395  1.00  0.00     0.001 A 
HETATM   27  C10 UNL     1      24.031  50.331  51.707  1.00  0.00     0.000 A 
HETATM   28  C11 UNL     1      24.390  51.230  50.728  1.00  0.00     0.001 A 
HETATM   29  C12 UNL     1      23.940  51.079  49.433  1.00  0.00     0.007 A 
ENDBRANCH  23  24
ENDBRANCH   1  23
BRANCH   1  30
HETATM   30  C13 UNL     1      23.925  48.106  46.542  1.00  0.00     0.245 C 
HETATM   31  O1  UNL     1      24.607  47.577  47.465  1.00  0.00    -0.268 OA
HETATM   32  N4  UNL     1      23.568  47.259  45.473  1.00  0.00    -0.352 N 
ATOM     33  H4  UNL     1      23.021  47.655  44.709  1.00  0.00     0.163 HD
BRANCH  32  34
HETATM   34  C14 UNL     1      23.936  45.856  45.398  1.00  0.00     0.088 C 
HETATM   35  C15 UNL     1      25.037  45.753  44.384  1.00  0.00     0.025 C 
HETATM   36  C16 UNL     1      24.602  45.272  43.052  1.00  0.00     0.002 C 
HETATM   37  C17 UNL     1      23.207  45.645  42.686  1.00  0.00     0.001 C 
HETATM   38  C18 UNL     1      22.179  45.404  43.753  1.00  0.00     0.007 C 
HETATM   39  C19 UNL     1      22.731  45.056  45.105  1.00  0.00     0.008 C 
BRANCH  39  40
HETATM   40  C20 UNL     1      22.862  43.574  45.223  1.00  0.00     0.007 C 
BRANCH  40  41
HETATM   41  C21 UNL     1      21.572  42.872  45.553  1.00  0.00     0.002 C 
BRANCH  41  42
HETATM   42  C22 UNL     1      20.650  43.723  46.391  1.00  0.00     0.027 C 
BRANCH  42  43
HETATM   43  C23 UNL     1      19.365  44.061  45.702  1.00  0.00     0.229 C 
BRANCH  43  44
HETATM   44  N5  UNL     1      19.317  43.581  44.338  1.00  0.00    -0.079 N 
ATOM     45  H53 UNL     1      20.003  44.062  43.757  1.00  0.00     0.274 HD
ATOM     46  H52 UNL     1      19.681  42.631  44.272  1.00  0.00     0.274 HD
ATOM     47  H51 UNL     1      18.384  43.644  43.929  1.00  0.00     0.274 HD
ENDBRANCH  43  44
ENDBRANCH  42  43
ENDBRANCH  41  42
ENDBRANCH  40  41
ENDBRANCH  39  40
ENDBRANCH  32  34
ENDBRANCH   1  30
TORSDOF 12
ENDMDL
MODEL 2
REMARK VINA RESULT: -4.873000795      3.995      6.830
REMARK  12 active torsions:
REMARK  status: ('A' for Active; 'I' for Inactive)
REMARK       I    between atoms: C1_4  and  N3_6 
REMARK    1  A    between atoms: N3_6  and  C2_8 
REMARK    2  A    between atoms: C4_11  and  C5_12 
REMARK    3  A    between atoms: C5_12  and  C6_13 
REMARK    4  A    between atoms: C5_12  and  C13_20 
REMARK    5  A    between atoms: C6_13  and  C7_14 
REMARK       I    between atoms: C13_20  and  N4_22 
REMARK    6  A    between atoms: N4_22  and  C14_24 
REMARK    7  A    between atoms: C19_29  and  C20_30 
REMARK    8  A    between atoms: C20_30  and  C21_31 
REMARK    9  A    between atoms: C21_31  and  C22_32 
REMARK   10  A    between atoms: C22_32  and  C23_33 
REMARK   11  A    between atoms: C23_33  and  N5_34 
REMARK   12  A    between atoms: C24_38  and  N6_39 
REMARK       I    between atoms: C25_41  and  N8_43 
ROOT
HETATM    1  C5  UNL     1      20.377  46.443  44.670  1.00  0.00     0.011 C 
ENDROOT
BRANCH   1   2
HETATM    2  C4  UNL     1      21.248  45.913  45.670  1.00  0.00     0.129 C 
HETATM    3  S1  UNL     1      20.643  44.242  46.171  1.00  0.00    -0.151 SA
HETATM    4  C3  UNL     1      21.939  43.244  45.398  1.00  0.00     0.106 C 
HETATM    5  C2  UNL     1      22.915  44.254  44.890  1.00  0.00     0.141 C 
HETATM    6  C24 UNL     1      22.663  45.564  45.544  1.00  0.00     0.031 C 
BRANCH   5   7
HETATM    7  N3  UNL     1      23.093  44.234  43.483  1.00  0.00    -0.354 N 
HETATM    8  C1  UNL     1      23.143  45.321  42.611  1.00  0.00     0.182 C 
HETATM    9  N1  UNL     1      22.149  45.727  41.913  1.00  0.00    -0.374 N 
HETATM   10  N2  UNL     1      24.399  46.028  42.487  1.00  0.00    -0.064 NA
ATOM     11  H12 UNL     1      22.186  46.522  41.276  1.00  0.00     0.158 HD
ATOM     12  H11 UNL     1      21.264  45.228  42.001  1.00  0.00     0.158 HD
ATOM     13  H3  UNL     1      23.196  43.313  43.057  1.00  0.00     0.163 HD
ENDBRANCH   5   7
BRANCH   6  14
HETATM   14  N6  UNL     1      23.621  46.523  45.176  1.00  0.00    -0.334 N 
HETATM   15  C25 UNL     1      24.075  47.535  45.778  1.00  0.00     0.190 C 
HETATM   16  N7  UNL     1      25.071  48.309  45.087  1.00  0.00    -0.063 NA
HETATM   17  N8  UNL     1      23.729  48.007  47.065  1.00  0.00    -0.355 N 
HETATM   18  C26 UNL     1      24.611  47.881  48.235  1.00  0.00     0.125 C 
HETATM   19  C29 UNL     1      22.536  48.682  47.504  1.00  0.00     0.125 C 
HETATM   20  C27 UNL     1      24.382  49.236  48.876  1.00  0.00     0.021 C 
HETATM   21  C28 UNL     1      22.885  49.380  48.803  1.00  0.00     0.021 C 
ATOM     22  H6  UNL     1      24.025  46.374  44.251  1.00  0.00     0.168 HD
ENDBRANCH   6  14
ENDBRANCH   1   2
BRANCH   1  23
HETATM   23  C6  UNL     1      20.900  47.327  43.554  1.00  0.00     0.080 C 
BRANCH  23  24
HETATM   24  C7  UNL     1      21.170  48.722  43.975  1.00  0.00    -0.054 A 
HETATM   25  C8  UNL     1      22.437  49.195  43.593  1.00  0.00     0.007 A 
HETATM   26  C9  UNL     1      22.858  50.450  43.911  1.00  0.00     0.001 A 
HETATM   27  C10 UNL     1      22.018  51.272  44.626  1.00  0.00     0.000 A 
HETATM   28  C11 UNL     1      20.774  50.817  45.004  1.00  0.00     0.001 A 
HETATM   29  C12 UNL     1      20.360  49.544  44.675  1.00  0.00     0.007 A 
ENDBRANCH  23  24
ENDBRANCH   1  23
BRANCH   1  30
HETATM   30  C13 UNL     1      19.188  45.676  44.211  1.00  0.00     0.245 C 
HETATM   31  O1  UNL     1      18.651  44.887  45.039  1.00  0.00    -0.268 OA
HETATM   32  N4  UNL     1      18.591  45.735  42.936  1.00  0.00    -0.352 N 
ATOM     33  H4  UNL     1      19.001  46.359  42.241  1.00  0.00     0.163 HD
BRANCH  32  34
HETATM   34  C14 UNL     1      17.423  44.958  42.554  1.00  0.00     0.088 C 
HETATM   35  C15 UNL     1      17.898  43.917  41.583  1.00  0.00     0.025 C 
HETATM   36  C16 UNL     1      17.626  44.234  40.162  1.00  0.00     0.002 C 
HETATM   37  C17 UNL     1      17.627  45.688  39.842  1.00  0.00     0.001 C 
HETATM   38  C18 UNL     1      16.845  46.552  40.788  1.00  0.00     0.007 C 
HETATM   39  C19 UNL     1      16.383  45.871  42.043  1.00  0.00     0.008 C 
BRANCH  39  40
HETATM   40  C20 UNL     1      15.027  45.288  41.823  1.00  0.00     0.007 C 
BRANCH  40  41
HETATM   41  C21 UNL     1      14.320  45.830  40.609  1.00  0.00     0.002 C 
BRANCH  41  42
HETATM   42  C22 UNL     1      13.132  46.688  40.968  1.00  0.00     0.027 C 
BRANCH  42  43
HETATM   43  C23 UNL     1      13.061  47.961  40.184  1.00  0.00     0.229 C 
BRANCH  43  44
HETATM   44  N5  UNL     1      13.996  47.992  39.079  1.00  0.00    -0.079 N 
ATOM     45  H53 UNL     1      13.507  47.942  38.186  1.00  0.00     0.274 HD
ATOM     46  H52 UNL     1      14.420  48.914  38.985  1.00  0.00     0.274 HD
ATOM     47  H51 UNL     1      14.710  47.267  39.145  1.00  0.00     0.274 HD
ENDBRANCH  43  44
ENDBRANCH  42  43
ENDBRANCH  41  42
ENDBRANCH  40  41
ENDBRANCH  39  40
ENDBRANCH  32  34
ENDBRANCH   1  30
TORSDOF 12
ENDMDL
MODEL 3
REMARK VINA RESULT: -4.611991813      2.446      7.749
REMARK  12 active torsions:
REMARK  status: ('A' for Active; 'I' for Inactive)
REMARK       I    between atoms: C1_4  and  N3_6 
REMARK    1  A    between atoms: N3_6  and  C2_8 
REMARK    2  A    between atoms: C4_11  and  C5_12 
REMARK    3  A    between atoms: C5_12  and  C6_13 
REMARK    4  A    between atoms: C5_12  and  C13_20 
REMARK    5  A    between atoms: C6_13  and  C7_14 
REMARK       I    between atoms: C13_20  and  N4_22 
REMARK    6  A    between atoms: N4_22  and  C14_24 
REMARK    7  A    between atoms: C19_29  and  C20_30 
REMARK    8  A    between atoms: C20_30  and  C21_31 
REMARK    9  A    between atoms: C21_31  and  C22_32 
REMARK   10  A    between atoms: C22_32  and  C23_33 
REMARK   11  A    between atoms: C23_33  and  N5_34 
REMARK   12  A    between atoms: C24_38  and  N6_39 
REMARK       I    between atoms: C25_41  and  N8_43 
ROOT
HETATM    1  C5  UNL     1      24.293  47.160  44.511  1.00  0.00     0.011 C 
ENDROOT
BRANCH   1   2
HETATM    2  C4  UNL     1      23.359  46.705  43.531  1.00  0.00     0.129 C 
HETATM    3  S1  UNL     1      24.161  45.407  42.491  1.00  0.00    -0.151 SA
HETATM    4  C3  UNL     1      23.260  43.968  43.115  1.00  0.00     0.106 C 
HETATM    5  C2  UNL     1      22.229  44.555  44.022  1.00  0.00     0.141 C 
HETATM    6  C24 UNL     1      22.090  46.009  43.745  1.00  0.00     0.031 C 
BRANCH   5   7
HETATM    7  N3  UNL     1      22.341  44.142  45.374  1.00  0.00    -0.354 N 
HETATM    8  C1  UNL     1      21.599  43.164  46.034  1.00  0.00     0.182 C 
HETATM    9  N1  UNL     1      20.591  43.413  46.785  1.00  0.00    -0.374 N 
HETATM   10  N2  UNL     1      21.998  41.784  45.863  1.00  0.00    -0.064 NA
ATOM     11  H12 UNL     1      20.048  42.697  47.267  1.00  0.00     0.158 HD
ATOM     12  H11 UNL     1      20.309  44.386  46.905  1.00  0.00     0.158 HD
ATOM     13  H3  UNL     1      23.051  44.618  45.931  1.00  0.00     0.163 HD
ENDBRANCH   5   7
BRANCH   6  14
HETATM   14  N6  UNL     1      21.059  46.587  44.502  1.00  0.00    -0.334 N 
HETATM   15  C25 UNL     1      19.810  46.399  44.508  1.00  0.00     0.190 C 
HETATM   16  N7  UNL     1      19.041  47.184  45.435  1.00  0.00    -0.063 NA
HETATM   17  N8  UNL     1      19.065  45.498  43.715  1.00  0.00    -0.355 N 
HETATM   18  C26 UNL     1      18.471  44.260  44.241  1.00  0.00     0.125 C 
HETATM   19  C29 UNL     1      18.721  45.574  42.319  1.00  0.00     0.125 C 
HETATM   20  C27 UNL     1      17.138  44.287  43.519  1.00  0.00     0.021 C 
HETATM   21  C28 UNL     1      17.539  44.647  42.112  1.00  0.00     0.021 C 
ATOM     22  H6  UNL     1      21.376  47.290  45.170  1.00  0.00     0.168 HD
ENDBRANCH   6  14
ENDBRANCH   1   2
BRANCH   1  23
HETATM   23  C6  UNL     1      25.747  47.413  44.159  1.00  0.00     0.080 C 
BRANCH  23  24
HETATM   24  C7  UNL     1      26.657  46.314  44.561  1.00  0.00    -0.054 A 
HETATM   25  C8  UNL     1      28.008  46.693  44.631  1.00  0.00     0.007 A 
HETATM   26  C9  UNL     1      28.984  45.806  44.970  1.00  0.00     0.001 A 
HETATM   27  C10 UNL     1      28.632  44.506  45.248  1.00  0.00     0.000 A 
HETATM   28  C11 UNL     1      27.310  44.125  45.182  1.00  0.00     0.001 A 
HETATM   29  C12 UNL     1      26.332  45.034  44.838  1.00  0.00     0.007 A 
ENDBRANCH  23  24
ENDBRANCH   1  23
BRANCH   1  30
HETATM   30  C13 UNL     1      23.862  48.058  45.616  1.00  0.00     0.245 C 
HETATM   31  O1  UNL     1      24.273  47.786  46.779  1.00  0.00    -0.268 OA
HETATM   32  N4  UNL     1      23.034  49.192  45.502  1.00  0.00    -0.352 N 
ATOM     33  H4  UNL     1      22.681  49.439  44.577  1.00  0.00     0.163 HD
BRANCH  32  34
HETATM   34  C14 UNL     1      22.654  50.031  46.626  1.00  0.00     0.088 C 
HETATM   35  C15 UNL     1      21.540  50.915  46.147  1.00  0.00     0.025 C 
HETATM   36  C16 UNL     1      21.956  52.295  45.805  1.00  0.00     0.002 C 
HETATM   37  C17 UNL     1      23.348  52.411  45.292  1.00  0.00     0.001 C 
HETATM   38  C18 UNL     1      24.387  51.674  46.085  1.00  0.00     0.007 C 
HETATM   39  C19 UNL     1      23.849  50.736  47.128  1.00  0.00     0.008 C 
BRANCH  39  40
HETATM   40  C20 UNL     1      23.708  51.461  48.424  1.00  0.00     0.007 C 
BRANCH  40  41
HETATM   41  C21 UNL     1      23.267  50.585  49.567  1.00  0.00     0.002 C 
BRANCH  41  42
HETATM   42  C22 UNL     1      23.841  51.029  50.890  1.00  0.00     0.027 C 
BRANCH  42  43
HETATM   43  C23 UNL     1      23.703  50.002  51.971  1.00  0.00     0.229 C 
BRANCH  43  44
HETATM   44  N5  UNL     1      22.610  49.083  51.735  1.00  0.00    -0.079 N 
ATOM     45  H53 UNL     1      22.846  48.416  51.001  1.00  0.00     0.274 HD
ATOM     46  H52 UNL     1      22.499  48.438  52.517  1.00  0.00     0.274 HD
ATOM     47  H51 UNL     1      21.731  49.559  51.527  1.00  0.00     0.274 HD
ENDBRANCH  43  44
ENDBRANCH  42  43
ENDBRANCH  41  42
ENDBRANCH  40  41
ENDBRANCH  39  40
ENDBRANCH  32  34
ENDBRANCH   1  30
TORSDOF 12
ENDMDL
MODEL 4
REMARK VINA RESULT: -4.419619360      0.961      1.102
REMARK  12 active torsions:
REMARK  status: ('A' for Active; 'I' for Inactive)
REMARK       I    between atoms: C1_4  and  N3_6 
REMARK    1  A    between atoms: N3_6  and  C2_8 
REMARK    2  A    between atoms: C4_11  and  C5_12 
REMARK    3  A    between atoms: C5_12  and  C6_13 
REMARK    4  A    between atoms: C5_12  and  C13_20 
REMARK    5  A    between atoms: C6_13  and  C7_14 
REMARK       I    between atoms: C13_20  and  N4_22 
REMARK    6  A    between atoms: N4_22  and  C14_24 
REMARK    7  A    between atoms: C19_29  and  C20_30 
REMARK    8  A    between atoms: C20_30  and  C21_31 
REMARK    9  A    between atoms: C21_31  and  C22_32 
REMARK   10  A    between atoms: C22_32  and  C23_33 
REMARK   11  A    between atoms: C23_33  and  N5_34 
REMARK   12  A    between atoms: C24_38  and  N6_39 
REMARK       I    between atoms: C25_41  and  N8_43 
ROOT
HETATM    1  C5  UNL     1      23.266  49.666  46.987  1.00  0.00     0.011 C 
ENDROOT
BRANCH   1   2
HETATM    2  C4  UNL     1      23.640  50.503  45.892  1.00  0.00     0.129 C 
HETATM    3  S1  UNL     1      24.153  49.442  44.471  1.00  0.00    -0.151 SA
HETATM    4  C3  UNL     1      22.728  49.728  43.393  1.00  0.00     0.106 C 
HETATM    5  C2  UNL     1      21.945  50.781  44.107  1.00  0.00     0.141 C 
HETATM    6  C24 UNL     1      22.800  51.430  45.134  1.00  0.00     0.031 C 
BRANCH   5   7
HETATM    7  N3  UNL     1      20.639  50.377  44.486  1.00  0.00    -0.354 N 
HETATM    8  C1  UNL     1      20.128  49.081  44.548  1.00  0.00     0.182 C 
HETATM    9  N1  UNL     1      19.415  48.547  43.628  1.00  0.00    -0.374 N 
HETATM   10  N2  UNL     1      20.419  48.297  45.728  1.00  0.00    -0.064 NA
ATOM     11  H12 UNL     1      19.041  47.599  43.673  1.00  0.00     0.158 HD
ATOM     12  H11 UNL     1      19.210  49.100  42.795  1.00  0.00     0.158 HD
ATOM     13  H3  UNL     1      19.996  51.126  44.744  1.00  0.00     0.163 HD
ENDBRANCH   5   7
BRANCH   6  14
HETATM   14  N6  UNL     1      22.141  52.498  45.763  1.00  0.00    -0.334 N 
HETATM   15  C25 UNL     1      22.503  53.680  46.017  1.00  0.00     0.190 C 
HETATM   16  N7  UNL     1      21.548  54.522  46.688  1.00  0.00    -0.063 NA
HETATM   17  N8  UNL     1      23.741  54.293  45.715  1.00  0.00    -0.355 N 
HETATM   18  C26 UNL     1      23.907  55.297  44.653  1.00  0.00     0.125 C 
HETATM   19  C29 UNL     1      25.028  54.109  46.332  1.00  0.00     0.125 C 
HETATM   20  C27 UNL     1      24.849  56.257  45.353  1.00  0.00     0.021 C 
HETATM   21  C28 UNL     1      25.859  55.326  45.973  1.00  0.00     0.021 C 
ATOM     22  H6  UNL     1      21.194  52.278  46.072  1.00  0.00     0.168 HD
ENDBRANCH   6  14
ENDBRANCH   1   2
BRANCH   1  23
HETATM   23  C6  UNL     1      22.391  50.181  48.114  1.00  0.00     0.080 C 
BRANCH  23  24
HETATM   24  C7  UNL     1      23.089  50.268  49.418  1.00  0.00    -0.054 A 
HETATM   25  C8  UNL     1      22.685  49.291  50.344  1.00  0.00     0.007 A 
HETATM   26  C9  UNL     1      23.211  49.232  51.599  1.00  0.00     0.001 A 
HETATM   27  C10 UNL     1      24.163  50.156  51.963  1.00  0.00     0.000 A 
HETATM   28  C11 UNL     1      24.566  51.117  51.063  1.00  0.00     0.001 A 
HETATM   29  C12 UNL     1      24.025  51.165  49.795  1.00  0.00     0.007 A 
ENDBRANCH  23  24
ENDBRANCH   1  23
BRANCH   1  30
HETATM   30  C13 UNL     1      23.055  48.206  46.792  1.00  0.00     0.245 C 
HETATM   31  O1  UNL     1      22.498  47.570  47.731  1.00  0.00    -0.268 OA
HETATM   32  N4  UNL     1      23.416  47.449  45.660  1.00  0.00    -0.352 N 
ATOM     33  H4  UNL     1      23.872  47.930  44.885  1.00  0.00     0.163 HD
BRANCH  32  34
HETATM   34  C14 UNL     1      23.176  46.021  45.534  1.00  0.00     0.088 C 
HETATM   35  C15 UNL     1      24.423  45.425  44.948  1.00  0.00     0.025 C 
HETATM   36  C16 UNL     1      24.342  45.136  43.498  1.00  0.00     0.002 C 
HETATM   37  C17 UNL     1      23.458  46.059  42.733  1.00  0.00     0.001 C 
HETATM   38  C18 UNL     1      22.113  46.315  43.348  1.00  0.00     0.007 C 
HETATM   39  C19 UNL     1      21.945  45.806  44.750  1.00  0.00     0.008 C 
BRANCH  39  40
HETATM   40  C20 UNL     1      21.405  44.415  44.714  1.00  0.00     0.007 C 
BRANCH  40  41
HETATM   41  C21 UNL     1      19.903  44.342  44.782  1.00  0.00     0.002 C 
BRANCH  41  42
HETATM   42  C22 UNL     1      19.253  44.563  43.438  1.00  0.00     0.027 C 
BRANCH  42  43
HETATM   43  C23 UNL     1      17.768  44.375  43.460  1.00  0.00     0.229 C 
BRANCH  43  44
HETATM   44  N5  UNL     1      17.286  43.864  44.725  1.00  0.00    -0.079 N 
ATOM     45  H53 UNL     1      17.161  42.852  44.687  1.00  0.00     0.274 HD
ATOM     46  H52 UNL     1      18.012  43.913  45.440  1.00  0.00     0.274 HD
ATOM     47  H51 UNL     1      16.432  44.325  45.039  1.00  0.00     0.274 HD
ENDBRANCH  43  44
ENDBRANCH  42  43
ENDBRANCH  41  42
ENDBRANCH  40  41
ENDBRANCH  39  40
ENDBRANCH  32  34
ENDBRANCH   1  30
TORSDOF 12
ENDMDL
MODEL 5
REMARK VINA RESULT: -3.675796753      4.563      7.545
REMARK  12 active torsions:
REMARK  status: ('A' for Active; 'I' for Inactive)
REMARK       I    between atoms: C1_4  and  N3_6 
REMARK    1  A    between atoms: N3_6  and  C2_8 
REMARK    2  A    between atoms: C4_11  and  C5_12 
REMARK    3  A    between atoms: C5_12  and  C6_13 
REMARK    4  A    between atoms: C5_12  and  C13_20 
REMARK    5  A    between atoms: C6_13  and  C7_14 
REMARK       I    between atoms: C13_20  and  N4_22 
REMARK    6  A    between atoms: N4_22  and  C14_24 
REMARK    7  A    between atoms: C19_29  and  C20_30 
REMARK    8  A    between atoms: C20_30  and  C21_31 
REMARK    9  A    between atoms: C21_31  and  C22_32 
REMARK   10  A    between atoms: C22_32  and  C23_33 
REMARK   11  A    between atoms: C23_33  and  N5_34 
REMARK   12  A    between atoms: C24_38  and  N6_39 
REMARK       I    between atoms: C25_41  and  N8_43 
ROOT
HETATM    1  C5  UNL     1      20.191  46.025  43.524  1.00  0.00     0.011 C 
ENDROOT
BRANCH   1   2
HETATM    2  C4  UNL     1      20.271  46.413  44.896  1.00  0.00     0.129 C 
HETATM    3  S1  UNL     1      18.747  45.848  45.771  1.00  0.00    -0.151 SA
HETATM    4  C3  UNL     1      19.477  44.514  46.751  1.00  0.00     0.106 C 
HETATM    5  C2  UNL     1      20.943  44.638  46.490  1.00  0.00     0.141 C 
HETATM    6  C24 UNL     1      21.234  45.973  45.906  1.00  0.00     0.031 C 
BRANCH   5   7
HETATM    7  N3  UNL     1      21.522  43.500  45.873  1.00  0.00    -0.354 N 
HETATM    8  C1  UNL     1      22.864  43.121  45.863  1.00  0.00     0.182 C 
HETATM    9  N1  UNL     1      23.667  43.354  44.893  1.00  0.00    -0.374 N 
HETATM   10  N2  UNL     1      23.374  42.417  47.019  1.00  0.00    -0.064 NA
ATOM     11  H12 UNL     1      24.649  43.077  44.887  1.00  0.00     0.158 HD
ATOM     12  H11 UNL     1      23.307  43.851  44.078  1.00  0.00     0.158 HD
ATOM     13  H3  UNL     1      20.878  42.883  45.376  1.00  0.00     0.163 HD
ENDBRANCH   5   7
BRANCH   6  14
HETATM   14  N6  UNL     1      22.613  46.178  45.737  1.00  0.00    -0.334 N 
HETATM   15  C25 UNL     1      23.358  47.162  46.004  1.00  0.00     0.190 C 
HETATM   16  N7  UNL     1      24.755  47.023  45.692  1.00  0.00    -0.063 NA
HETATM   17  N8  UNL     1      22.989  48.397  46.586  1.00  0.00    -0.355 N 
HETATM   18  C26 UNL     1      23.317  48.766  47.972  1.00  0.00     0.125 C 
HETATM   19  C29 UNL     1      22.277  49.506  46.009  1.00  0.00     0.125 C 
HETATM   20  C27 UNL     1      23.688  50.222  47.768  1.00  0.00     0.021 C 
HETATM   21  C28 UNL     1      22.583  50.715  46.870  1.00  0.00     0.021 C 
ATOM     22  H6  UNL     1      23.104  45.386  45.322  1.00  0.00     0.168 HD
ENDBRANCH   6  14
ENDBRANCH   1   2
BRANCH   1  23
HETATM   23  C6  UNL     1      21.422  45.586  42.754  1.00  0.00     0.080 C 
BRANCH  23  24
HETATM   24  C7  UNL     1      22.505  46.597  42.734  1.00  0.00    -0.054 A 
HETATM   25  C8  UNL     1      23.794  46.046  42.637  1.00  0.00     0.007 A 
HETATM   26  C9  UNL     1      24.908  46.830  42.621  1.00  0.00     0.001 A 
HETATM   27  C10 UNL     1      24.761  48.195  42.703  1.00  0.00     0.000 A 
HETATM   28  C11 UNL     1      23.501  48.744  42.798  1.00  0.00     0.001 A 
HETATM   29  C12 UNL     1      22.382  47.939  42.812  1.00  0.00     0.007 A 
ENDBRANCH  23  24
ENDBRANCH   1  23
BRANCH   1  30
HETATM   30  C13 UNL     1      18.977  45.349  42.993  1.00  0.00     0.245 C 
HETATM   31  O1  UNL     1      18.970  44.086  42.990  1.00  0.00    -0.268 OA
HETATM   32  N4  UNL     1      17.821  45.975  42.485  1.00  0.00    -0.352 N 
ATOM     33  H4  UNL     1      17.794  46.994  42.469  1.00  0.00     0.163 HD
BRANCH  32  34
HETATM   34  C14 UNL     1      16.665  45.251  41.984  1.00  0.00     0.088 C 
HETATM   35  C15 UNL     1      17.186  44.217  41.029  1.00  0.00     0.025 C 
HETATM   36  C16 UNL     1      17.049  44.578  39.599  1.00  0.00     0.002 C 
HETATM   37  C17 UNL     1      17.127  46.039  39.320  1.00  0.00     0.001 C 
HETATM   38  C18 UNL     1      16.297  46.908  40.219  1.00  0.00     0.007 C 
HETATM   39  C19 UNL     1      15.705  46.213  41.411  1.00  0.00     0.008 C 
BRANCH  39  40
HETATM   40  C20 UNL     1      14.354  45.686  41.059  1.00  0.00     0.007 C 
BRANCH  40  41
HETATM   41  C21 UNL     1      13.286  46.745  40.988  1.00  0.00     0.002 C 
BRANCH  41  42
HETATM   42  C22 UNL     1      13.413  47.611  39.758  1.00  0.00     0.027 C 
BRANCH  42  43
HETATM   43  C23 UNL     1      12.119  47.798  39.028  1.00  0.00     0.229 C 
BRANCH  43  44
HETATM   44  N5  UNL     1      12.305  48.071  37.619  1.00  0.00    -0.079 N 
ATOM     45  H53 UNL     1      12.983  48.819  37.479  1.00  0.00     0.274 HD
ATOM     46  H52 UNL     1      12.803  47.308  37.162  1.00  0.00     0.274 HD
ATOM     47  H51 UNL     1      11.429  48.276  37.138  1.00  0.00     0.274 HD
ENDBRANCH  43  44
ENDBRANCH  42  43
ENDBRANCH  41  42
ENDBRANCH  40  41
ENDBRANCH  39  40
ENDBRANCH  32  34
ENDBRANCH   1  30
TORSDOF 12
ENDMDL
