MODEL 1
REMARK VINA RESULT: -5.354150583      0.000      0.000
REMARK  13 active torsions:
REMARK  status: ('A' for Active; 'I' for Inactive)
REMARK    1  A    between atoms: C2_2  and  C3_3 
REMARK    2  A    between atoms: C3_3  and  C4_4 
REMARK    3  A    between atoms: C4_4  and  C5_5 
REMARK    4  A    between atoms: C5_5  and  C6_6 
REMARK    5  A    between atoms: C6_6  and  N1_7 
REMARK    6  A    between atoms: C9_10  and  N2_11 
REMARK    7  A    between atoms: N2_11  and  C10_13 
REMARK    8  A    between atoms: C10_13  and  C11_14 
REMARK    9  A    between atoms: C11_14  and  N3_15 
REMARK   10  A    between atoms: N3_15  and  C12_17 
REMARK       I    between atoms: N5_21  and  C14_23 
REMARK       I    between atoms: C14_23  and  N7_27 
REMARK   11  A    between atoms: N9_34  and  C18_36 
REMARK   12  A    between atoms: C18_36  and  C19_37 
REMARK   13  A    between atoms: C19_37  and  N10_38 
ROOT
HETATM    1  C12 UNL     1      24.105  45.553  44.729  1.00  0.00     0.129 A 
HETATM    2  N4  UNL     1      25.455  45.636  44.762  1.00  0.00    -0.175 N 
ATOM      3  H4  UNL     1      25.997  44.775  44.683  1.00  0.00     0.186 HD
HETATM    4  C13 UNL     1      26.115  46.796  44.894  1.00  0.00     0.699 A 
HETATM    5  N5  UNL     1      27.417  46.881  44.943  1.00  0.00    -0.023 N 
ATOM      6  H5  UNL     1      27.879  47.784  45.043  1.00  0.00     0.203 HD
HETATM    7  C14 UNL     1      28.167  45.691  44.853  1.00  0.00     0.685 C 
HETATM    8  N6  UNL     1      28.242  44.964  45.916  1.00  0.00    -0.234 N 
ATOM      9  H61 UNL     1      28.785  44.103  45.851  1.00  0.00     0.174 HD
ATOM     10  H62 UNL     1      27.766  45.257  46.769  1.00  0.00     0.174 HD
HETATM   11  N7  UNL     1      28.821  45.290  43.678  1.00  0.00    -0.230 N 
ATOM     12  H7  UNL     1      29.306  44.392  43.687  1.00  0.00     0.177 HD
HETATM   13  C15 UNL     1      28.854  46.060  42.461  1.00  0.00     0.165 C 
HETATM   14  N8  UNL     1      25.366  47.928  44.996  1.00  0.00    -0.186 N 
ATOM     15  H8  UNL     1      25.845  48.823  45.098  1.00  0.00     0.184 HD
HETATM   16  C16 UNL     1      24.024  47.915  44.970  1.00  0.00     0.107 A 
HETATM   17  C17 UNL     1      23.248  49.078  45.088  1.00  0.00     0.131 A 
HETATM   18  N9  UNL     1      23.899  50.157  45.216  1.00  0.00    -0.373 N 
ATOM     19  H9  UNL     1      24.914  50.058  45.219  1.00  0.00     0.161 HD
HETATM   20  N11 UNL     1      21.902  48.995  45.064  1.00  0.00    -0.331 N 
ATOM     21  H11 UNL     1      21.364  49.858  45.151  1.00  0.00     0.168 HD
HETATM   22  C25 UNL     1      21.228  47.839  44.931  1.00  0.00     0.105 A 
HETATM   23 CL1  UNL     1      19.470  47.814  44.912  1.00  0.00    -0.064 Cl
HETATM   24  C26 UNL     1      21.968  46.688  44.816  1.00  0.00     0.060 A 
HETATM   25  C27 UNL     1      23.349  46.725  44.836  1.00  0.00     0.042 A 
ENDROOT
BRANCH   1  26
HETATM   26  N3  UNL     1      23.435  44.486  44.630  1.00  0.00    -0.374 N 
ATOM     27  H3  UNL     1      22.928  44.375  43.751  1.00  0.00     0.161 HD
BRANCH  26  28
HETATM   28  C11 UNL     1      23.276  43.412  45.555  1.00  0.00     0.141 C 
BRANCH  28  29
HETATM   29  C10 UNL     1      21.865  42.828  45.453  1.00  0.00     0.139 C 
BRANCH  29  30
HETATM   30  N2  UNL     1      20.883  43.856  45.661  1.00  0.00    -0.388 N 
ATOM     31  H2  UNL     1      20.972  44.450  46.485  1.00  0.00     0.159 HD
BRANCH  30  32
HETATM   32  C9  UNL     1      19.797  44.085  44.777  1.00  0.00     0.030 A 
HETATM   33  C8  UNL     1      20.026  44.692  43.544  1.00  0.00     0.046 A 
HETATM   34  C7  UNL     1      18.990  44.962  42.678  1.00  0.00     0.092 A 
HETATM   35  N1  UNL     1      17.735  44.647  43.008  1.00  0.00    -0.366 N 
HETATM   36  C29 UNL     1      17.497  44.055  44.205  1.00  0.00     0.092 A 
HETATM   37  C28 UNL     1      18.509  43.763  45.108  1.00  0.00     0.046 A 
BRANCH  35  38
HETATM   38  C6  UNL     1      16.634  44.939  42.094  1.00  0.00     0.128 C 
BRANCH  38  39
HETATM   39  C5  UNL     1      17.082  45.843  40.944  1.00  0.00     0.020 C 
BRANCH  39  40
HETATM   40  C4  UNL     1      15.916  46.611  40.372  1.00  0.00     0.002 C 
BRANCH  40  41
HETATM   41  C3  UNL     1      14.627  46.385  41.166  1.00  0.00    -0.000 C 
BRANCH  41  42
HETATM   42  C2  UNL     1      13.628  47.393  40.577  1.00  0.00    -0.005 C 
HETATM   43  C1  UNL     1      14.297  48.086  39.386  1.00  0.00     0.005 C 
ENDBRANCH  41  42
ENDBRANCH  40  41
ENDBRANCH  39  40
ENDBRANCH  38  39
ENDBRANCH  35  38
ENDBRANCH  30  32
ENDBRANCH  29  30
ENDBRANCH  28  29
ENDBRANCH  26  28
ENDBRANCH   1  26
BRANCH  18  44
HETATM   44  C18 UNL     1      23.416  51.488  45.356  1.00  0.00     0.151 C 
BRANCH  44  45
HETATM   45  C19 UNL     1      24.197  52.236  46.448  1.00  0.00     0.292 C 
BRANCH  45  46
HETATM   46  N10 UNL     1      24.768  53.439  45.863  1.00  0.00     0.090 N 
HETATM   47  C20 UNL     1      25.752  54.013  46.762  1.00  0.00     0.272 C 
HETATM   48  C21 UNL     1      26.478  55.118  46.045  1.00  0.00     0.030 C 
HETATM   49  C22 UNL     1      25.511  56.098  45.403  1.00  0.00     0.003 C 
HETATM   50  C23 UNL     1      24.092  55.810  45.847  1.00  0.00     0.030 C 
HETATM   51  C24 UNL     1      23.733  54.396  45.522  1.00  0.00     0.272 C 
ENDBRANCH  45  46
ENDBRANCH  44  45
ENDBRANCH  18  44
TORSDOF 13
ENDMDL
MODEL 2
REMARK VINA RESULT: -5.339647915      0.377      1.122
REMARK  13 active torsions:
REMARK  status: ('A' for Active; 'I' for Inactive)
REMARK    1  A    between atoms: C2_2  and  C3_3 
REMARK    2  A    between atoms: C3_3  and  C4_4 
REMARK    3  A    between atoms: C4_4  and  C5_5 
REMARK    4  A    between atoms: C5_5  and  C6_6 
REMARK    5  A    between atoms: C6_6  and  N1_7 
REMARK    6  A    between atoms: C9_10  and  N2_11 
REMARK    7  A    between atoms: N2_11  and  C10_13 
REMARK    8  A    between atoms: C10_13  and  C11_14 
REMARK    9  A    between atoms: C11_14  and  N3_15 
REMARK   10  A    between atoms: N3_15  and  C12_17 
REMARK       I    between atoms: N5_21  and  C14_23 
REMARK       I    between atoms: C14_23  and  N7_27 
REMARK   11  A    between atoms: N9_34  and  C18_36 
REMARK   12  A    between atoms: C18_36  and  C19_37 
REMARK   13  A    between atoms: C19_37  and  N10_38 
ROOT
HETATM    1  C12 UNL     1      24.311  45.405  44.669  1.00  0.00     0.129 A 
HETATM    2  N4  UNL     1      25.662  45.456  44.733  1.00  0.00    -0.175 N 
ATOM      3  H4  UNL     1      26.184  44.582  44.686  1.00  0.00     0.186 HD
HETATM    4  C13 UNL     1      26.345  46.604  44.854  1.00  0.00     0.699 A 
HETATM    5  N5  UNL     1      27.648  46.659  44.931  1.00  0.00    -0.023 N 
ATOM      6  H5  UNL     1      28.130  47.553  45.022  1.00  0.00     0.203 HD
HETATM    7  C14 UNL     1      28.371  45.450  44.887  1.00  0.00     0.685 C 
HETATM    8  N6  UNL     1      28.404  44.747  45.967  1.00  0.00    -0.234 N 
ATOM      9  H61 UNL     1      28.927  43.872  45.936  1.00  0.00     0.174 HD
ATOM     10  H62 UNL     1      27.916  45.070  46.802  1.00  0.00     0.174 HD
HETATM   11  N7  UNL     1      29.042  45.006  43.738  1.00  0.00    -0.230 N 
ATOM     12  H7  UNL     1      29.505  44.098  43.778  1.00  0.00     0.177 HD
HETATM   13  C15 UNL     1      29.123  45.747  42.504  1.00  0.00     0.165 C 
HETATM   14  N8  UNL     1      25.622  47.755  44.913  1.00  0.00    -0.186 N 
ATOM     15  H8  UNL     1      26.120  48.641  45.005  1.00  0.00     0.184 HD
HETATM   16  C16 UNL     1      24.281  47.773  44.854  1.00  0.00     0.107 A 
HETATM   17  C17 UNL     1      23.531  48.956  44.927  1.00  0.00     0.131 A 
HETATM   18  N9  UNL     1      24.204  50.023  45.046  1.00  0.00    -0.373 N 
ATOM     19  H9  UNL     1      25.216  49.899  45.075  1.00  0.00     0.161 HD
HETATM   20  N11 UNL     1      22.184  48.905  44.873  1.00  0.00    -0.331 N 
ATOM     21  H11 UNL     1      21.665  49.781  44.928  1.00  0.00     0.168 HD
HETATM   22  C25 UNL     1      21.486  47.762  44.751  1.00  0.00     0.105 A 
HETATM   23 CL1  UNL     1      19.729  47.778  44.690  1.00  0.00    -0.064 Cl
HETATM   24  C26 UNL     1      22.201  46.591  44.680  1.00  0.00     0.060 A 
HETATM   25  C27 UNL     1      23.581  46.596  44.731  1.00  0.00     0.042 A 
ENDROOT
BRANCH   1  26
HETATM   26  N3  UNL     1      23.618  44.352  44.578  1.00  0.00    -0.374 N 
ATOM     27  H3  UNL     1      23.198  44.189  43.663  1.00  0.00     0.161 HD
BRANCH  26  28
HETATM   28  C11 UNL     1      23.330  43.355  45.556  1.00  0.00     0.141 C 
BRANCH  28  29
HETATM   29  C10 UNL     1      21.919  42.797  45.348  1.00  0.00     0.139 C 
BRANCH  29  30
HETATM   30  N2  UNL     1      20.938  43.813  45.609  1.00  0.00    -0.388 N 
ATOM     31  H2  UNL     1      21.007  44.341  46.479  1.00  0.00     0.159 HD
BRANCH  30  32
HETATM   32  C9  UNL     1      19.878  44.119  44.716  1.00  0.00     0.030 A 
HETATM   33  C8  UNL     1      18.565  43.827  45.076  1.00  0.00     0.046 A 
HETATM   34  C7  UNL     1      17.516  44.077  44.220  1.00  0.00     0.092 A 
HETATM   35  N1  UNL     1      17.741  44.608  43.015  1.00  0.00    -0.366 N 
HETATM   36  C29 UNL     1      19.015  44.898  42.650  1.00  0.00     0.092 A 
HETATM   37  C28 UNL     1      20.102  44.664  43.481  1.00  0.00     0.046 A 
BRANCH  35  38
HETATM   38  C6  UNL     1      16.632  44.868  42.102  1.00  0.00     0.128 C 
BRANCH  38  39
HETATM   39  C5  UNL     1      17.079  45.686  40.891  1.00  0.00     0.020 C 
BRANCH  39  40
HETATM   40  C4  UNL     1      15.985  46.617  40.430  1.00  0.00     0.002 C 
BRANCH  40  41
HETATM   41  C3  UNL     1      14.687  46.420  41.217  1.00  0.00    -0.000 C 
BRANCH  41  42
HETATM   42  C2  UNL     1      13.746  47.515  40.692  1.00  0.00    -0.005 C 
HETATM   43  C1  UNL     1      14.374  48.120  39.432  1.00  0.00     0.005 C 
ENDBRANCH  41  42
ENDBRANCH  40  41
ENDBRANCH  39  40
ENDBRANCH  38  39
ENDBRANCH  35  38
ENDBRANCH  30  32
ENDBRANCH  29  30
ENDBRANCH  28  29
ENDBRANCH  26  28
ENDBRANCH   1  26
BRANCH  18  44
HETATM   44  C18 UNL     1      23.751  51.368  45.145  1.00  0.00     0.151 C 
BRANCH  44  45
HETATM   45  C19 UNL     1      23.930  51.897  46.575  1.00  0.00     0.292 C 
BRANCH  45  46
HETATM   46  N10 UNL     1      24.055  53.345  46.518  1.00  0.00     0.090 N 
HETATM   47  C20 UNL     1      23.513  53.844  45.267  1.00  0.00     0.272 C 
HETATM   48  C21 UNL     1      23.453  55.346  45.329  1.00  0.00     0.030 C 
HETATM   49  C22 UNL     1      24.782  55.940  45.763  1.00  0.00     0.003 C 
HETATM   50  C23 UNL     1      25.854  54.871  45.801  1.00  0.00     0.030 C 
HETATM   51  C24 UNL     1      25.433  53.759  46.705  1.00  0.00     0.272 C 
ENDBRANCH  45  46
ENDBRANCH  44  45
ENDBRANCH  18  44
TORSDOF 13
ENDMDL
MODEL 3
REMARK VINA RESULT: -5.292414842      1.673      2.512
REMARK  13 active torsions:
REMARK  status: ('A' for Active; 'I' for Inactive)
REMARK    1  A    between atoms: C2_2  and  C3_3 
REMARK    2  A    between atoms: C3_3  and  C4_4 
REMARK    3  A    between atoms: C4_4  and  C5_5 
REMARK    4  A    between atoms: C5_5  and  C6_6 
REMARK    5  A    between atoms: C6_6  and  N1_7 
REMARK    6  A    between atoms: C9_10  and  N2_11 
REMARK    7  A    between atoms: N2_11  and  C10_13 
REMARK    8  A    between atoms: C10_13  and  C11_14 
REMARK    9  A    between atoms: C11_14  and  N3_15 
REMARK   10  A    between atoms: N3_15  and  C12_17 
REMARK       I    between atoms: N5_21  and  C14_23 
REMARK       I    between atoms: C14_23  and  N7_27 
REMARK   11  A    between atoms: N9_34  and  C18_36 
REMARK   12  A    between atoms: C18_36  and  C19_37 
REMARK   13  A    between atoms: C19_37  and  N10_38 
ROOT
HETATM    1  C12 UNL     1      24.434  45.231  44.583  1.00  0.00     0.129 A 
HETATM    2  N4  UNL     1      25.782  45.276  44.685  1.00  0.00    -0.175 N 
ATOM      3  H4  UNL     1      26.302  44.400  44.642  1.00  0.00     0.186 HD
HETATM    4  C13 UNL     1      26.466  46.419  44.840  1.00  0.00     0.699 A 
HETATM    5  N5  UNL     1      27.766  46.468  44.954  1.00  0.00    -0.023 N 
ATOM      6  H5  UNL     1      28.249  47.359  45.069  1.00  0.00     0.203 HD
HETATM    7  C14 UNL     1      28.486  45.257  44.914  1.00  0.00     0.685 C 
HETATM    8  N6  UNL     1      28.486  44.539  45.986  1.00  0.00    -0.234 N 
ATOM      9  H61 UNL     1      29.007  43.663  45.957  1.00  0.00     0.174 HD
ATOM     10  H62 UNL     1      27.976  44.854  46.811  1.00  0.00     0.174 HD
HETATM   11  N7  UNL     1      29.187  44.824  43.778  1.00  0.00    -0.230 N 
ATOM     12  H7  UNL     1      29.646  43.914  43.819  1.00  0.00     0.177 HD
HETATM   13  C15 UNL     1      29.304  45.581  42.557  1.00  0.00     0.165 C 
HETATM   14  N8  UNL     1      25.746  47.572  44.893  1.00  0.00    -0.186 N 
ATOM     15  H8  UNL     1      26.244  48.455  45.010  1.00  0.00     0.184 HD
HETATM   16  C16 UNL     1      24.407  47.597  44.798  1.00  0.00     0.107 A 
HETATM   17  C17 UNL     1      23.660  48.782  44.866  1.00  0.00     0.131 A 
HETATM   18  N9  UNL     1      24.333  49.844  45.017  1.00  0.00    -0.373 N 
ATOM     19  H9  UNL     1      25.344  49.716  45.073  1.00  0.00     0.161 HD
HETATM   20  N11 UNL     1      22.314  48.736  44.774  1.00  0.00    -0.331 N 
ATOM     21  H11 UNL     1      21.798  49.614  44.825  1.00  0.00     0.168 HD
HETATM   22  C25 UNL     1      21.616  47.598  44.618  1.00  0.00     0.105 A 
HETATM   23 CL1  UNL     1      19.861  47.622  44.509  1.00  0.00    -0.064 Cl
HETATM   24  C26 UNL     1      22.328  46.425  44.551  1.00  0.00     0.060 A 
HETATM   25  C27 UNL     1      23.706  46.424  44.641  1.00  0.00     0.042 A 
ENDROOT
BRANCH   1  26
HETATM   26  N3  UNL     1      23.739  44.182  44.460  1.00  0.00    -0.374 N 
ATOM     27  H3  UNL     1      23.459  43.960  43.504  1.00  0.00     0.161 HD
BRANCH  26  28
HETATM   28  C11 UNL     1      23.286  43.259  45.448  1.00  0.00     0.141 C 
BRANCH  28  29
HETATM   29  C10 UNL     1      21.880  42.759  45.104  1.00  0.00     0.139 C 
BRANCH  29  30
HETATM   30  N2  UNL     1      20.902  43.759  45.432  1.00  0.00    -0.388 N 
ATOM     31  H2  UNL     1      20.983  44.242  46.326  1.00  0.00     0.159 HD
BRANCH  30  32
HETATM   32  C9  UNL     1      19.828  44.108  44.572  1.00  0.00     0.030 A 
HETATM   33  C8  UNL     1      18.519  43.819  44.949  1.00  0.00     0.046 A 
HETATM   34  C7  UNL     1      17.456  44.111  44.123  1.00  0.00     0.092 A 
HETATM   35  N1  UNL     1      17.663  44.681  42.934  1.00  0.00    -0.366 N 
HETATM   36  C29 UNL     1      18.933  44.970  42.553  1.00  0.00     0.092 A 
HETATM   37  C28 UNL     1      20.033  44.694  43.352  1.00  0.00     0.046 A 
BRANCH  35  38
HETATM   38  C6  UNL     1      16.539  44.986  42.053  1.00  0.00     0.128 C 
BRANCH  38  39
HETATM   39  C5  UNL     1      16.977  45.821  40.849  1.00  0.00     0.020 C 
BRANCH  39  40
HETATM   40  C4  UNL     1      15.863  46.724  40.381  1.00  0.00     0.002 C 
BRANCH  40  41
HETATM   41  C3  UNL     1      14.619  46.618  41.266  1.00  0.00    -0.000 C 
BRANCH  41  42
HETATM   42  C2  UNL     1      13.610  47.589  40.634  1.00  0.00    -0.005 C 
HETATM   43  C1  UNL     1      14.120  47.965  39.240  1.00  0.00     0.005 C 
ENDBRANCH  41  42
ENDBRANCH  40  41
ENDBRANCH  39  40
ENDBRANCH  38  39
ENDBRANCH  35  38
ENDBRANCH  30  32
ENDBRANCH  29  30
ENDBRANCH  28  29
ENDBRANCH  26  28
ENDBRANCH   1  26
BRANCH  18  44
HETATM   44  C18 UNL     1      23.883  51.189  45.121  1.00  0.00     0.151 C 
BRANCH  44  45
HETATM   45  C19 UNL     1      23.070  51.392  46.408  1.00  0.00     0.292 C 
BRANCH  45  46
HETATM   46  N10 UNL     1      23.704  50.636  47.476  1.00  0.00     0.090 N 
HETATM   47  C20 UNL     1      22.964  49.413  47.731  1.00  0.00     0.272 C 
HETATM   48  C21 UNL     1      23.758  48.553  48.676  1.00  0.00     0.030 C 
HETATM   49  C22 UNL     1      24.199  49.332  49.903  1.00  0.00     0.003 C 
HETATM   50  C23 UNL     1      23.535  50.692  49.935  1.00  0.00     0.030 C 
HETATM   51  C24 UNL     1      23.839  51.438  48.676  1.00  0.00     0.272 C 
ENDBRANCH  45  46
ENDBRANCH  44  45
ENDBRANCH  18  44
TORSDOF 13
ENDMDL
MODEL 4
REMARK VINA RESULT: -5.186043581      3.409     10.838
REMARK  13 active torsions:
REMARK  status: ('A' for Active; 'I' for Inactive)
REMARK    1  A    between atoms: C2_2  and  C3_3 
REMARK    2  A    between atoms: C3_3  and  C4_4 
REMARK    3  A    between atoms: C4_4  and  C5_5 
REMARK    4  A    between atoms: C5_5  and  C6_6 
REMARK    5  A    between atoms: C6_6  and  N1_7 
REMARK    6  A    between atoms: C9_10  and  N2_11 
REMARK    7  A    between atoms: N2_11  and  C10_13 
REMARK    8  A    between atoms: C10_13  and  C11_14 
REMARK    9  A    between atoms: C11_14  and  N3_15 
REMARK   10  A    between atoms: N3_15  and  C12_17 
REMARK       I    between atoms: N5_21  and  C14_23 
REMARK       I    between atoms: C14_23  and  N7_27 
REMARK   11  A    between atoms: N9_34  and  C18_36 
REMARK   12  A    between atoms: C18_36  and  C19_37 
REMARK   13  A    between atoms: C19_37  and  N10_38 
ROOT
HETATM    1  C12 UNL     1      23.330  50.486  46.912  1.00  0.00     0.129 A 
HETATM    2  N4  UNL     1      23.511  50.143  48.208  1.00  0.00    -0.175 N 
ATOM      3  H4  UNL     1      23.333  50.845  48.926  1.00  0.00     0.186 HD
HETATM    4  C13 UNL     1      23.914  48.923  48.593  1.00  0.00     0.699 A 
HETATM    5  N5  UNL     1      24.106  48.591  49.841  1.00  0.00    -0.023 N 
ATOM      6  H5  UNL     1      24.411  47.650  50.091  1.00  0.00     0.203 HD
HETATM    7  C14 UNL     1      23.879  49.565  50.833  1.00  0.00     0.685 C 
HETATM    8  N6  UNL     1      24.796  50.456  51.001  1.00  0.00    -0.234 N 
ATOM      9  H61 UNL     1      24.633  51.161  51.719  1.00  0.00     0.174 HD
ATOM     10  H62 UNL     1      25.637  50.438  50.424  1.00  0.00     0.174 HD
HETATM   11  N7  UNL     1      22.722  49.589  51.627  1.00  0.00    -0.230 N 
ATOM     12  H7  UNL     1      22.617  50.355  52.293  1.00  0.00     0.177 HD
HETATM   13  C15 UNL     1      21.672  48.604  51.566  1.00  0.00     0.165 C 
HETATM   14  N8  UNL     1      24.143  48.007  47.613  1.00  0.00    -0.186 N 
ATOM     15  H8  UNL     1      24.449  47.071  47.881  1.00  0.00     0.184 HD
HETATM   16  C16 UNL     1      23.982  48.283  46.309  1.00  0.00     0.107 A 
HETATM   17  C17 UNL     1      24.229  47.345  45.295  1.00  0.00     0.131 A 
HETATM   18  N9  UNL     1      24.611  46.204  45.689  1.00  0.00    -0.373 N 
ATOM     19  H9  UNL     1      24.697  46.097  46.700  1.00  0.00     0.161 HD
HETATM   20  N11 UNL     1      24.057  47.690  44.002  1.00  0.00    -0.331 N 
ATOM     21  H11 UNL     1      24.243  46.987  43.287  1.00  0.00     0.168 HD
HETATM   22  C25 UNL     1      23.653  48.908  43.603  1.00  0.00     0.105 A 
HETATM   23 CL1  UNL     1      23.455  49.280  41.896  1.00  0.00    -0.064 Cl
HETATM   24  C26 UNL     1      23.407  49.843  44.579  1.00  0.00     0.060 A 
HETATM   25  C27 UNL     1      23.570  49.534  45.916  1.00  0.00     0.042 A 
ENDROOT
BRANCH   1  26
HETATM   26  N3  UNL     1      22.975  51.626  46.494  1.00  0.00    -0.374 N 
ATOM     27  H3  UNL     1      23.742  52.245  46.229  1.00  0.00     0.161 HD
BRANCH  26  28
HETATM   28  C11 UNL     1      21.672  52.182  46.336  1.00  0.00     0.141 C 
BRANCH  28  29
HETATM   29  C10 UNL     1      21.731  53.709  46.427  1.00  0.00     0.139 C 
BRANCH  29  30
HETATM   30  N2  UNL     1      22.424  54.249  45.292  1.00  0.00    -0.388 N 
ATOM     31  H2  UNL     1      22.028  54.098  44.364  1.00  0.00     0.159 HD
BRANCH  30  32
HETATM   32  C9  UNL     1      23.634  54.984  45.396  1.00  0.00     0.030 A 
HETATM   33  C8  UNL     1      24.756  54.390  45.967  1.00  0.00     0.046 A 
HETATM   34  C7  UNL     1      25.935  55.085  46.117  1.00  0.00     0.092 A 
HETATM   35  N1  UNL     1      26.025  56.355  45.714  1.00  0.00    -0.366 N 
HETATM   36  C29 UNL     1      24.940  56.948  45.155  1.00  0.00     0.092 A 
HETATM   37  C28 UNL     1      23.733  56.285  44.984  1.00  0.00     0.046 A 
BRANCH  35  38
HETATM   38  C6  UNL     1      27.272  57.098  45.878  1.00  0.00     0.128 C 
BRANCH  38  39
HETATM   39  C5  UNL     1      28.490  56.178  45.788  1.00  0.00     0.020 C 
BRANCH  39  40
HETATM   40  C4  UNL     1      29.284  56.201  47.070  1.00  0.00     0.002 C 
BRANCH  40  41
HETATM   41  C3  UNL     1      30.069  54.905  47.290  1.00  0.00    -0.000 C 
BRANCH  41  42
HETATM   42  C2  UNL     1      29.015  53.891  47.758  1.00  0.00    -0.005 C 
HETATM   43  C1  UNL     1      29.226  53.638  49.254  1.00  0.00     0.005 C 
ENDBRANCH  41  42
ENDBRANCH  40  41
ENDBRANCH  39  40
ENDBRANCH  38  39
ENDBRANCH  35  38
ENDBRANCH  30  32
ENDBRANCH  29  30
ENDBRANCH  28  29
ENDBRANCH  26  28
ENDBRANCH   1  26
BRANCH  18  44
HETATM   44  C18 UNL     1      24.940  45.050  44.924  1.00  0.00     0.151 C 
BRANCH  44  45
HETATM   45  C19 UNL     1      23.746  44.613  44.062  1.00  0.00     0.292 C 
BRANCH  45  46
HETATM   46  N10 UNL     1      22.566  44.549  44.909  1.00  0.00     0.090 N 
HETATM   47  C20 UNL     1      22.304  43.176  45.300  1.00  0.00     0.272 C 
HETATM   48  C21 UNL     1      21.222  43.166  46.345  1.00  0.00     0.030 C 
HETATM   49  C22 UNL     1      20.014  43.974  45.904  1.00  0.00     0.003 C 
HETATM   50  C23 UNL     1      20.149  44.383  44.453  1.00  0.00     0.030 C 
HETATM   51  C24 UNL     1      21.418  45.145  44.253  1.00  0.00     0.272 C 
ENDBRANCH  45  46
ENDBRANCH  44  45
ENDBRANCH  18  44
TORSDOF 13
ENDMDL
MODEL 5
REMARK VINA RESULT: -4.542744601      1.549      2.471
REMARK  13 active torsions:
REMARK  status: ('A' for Active; 'I' for Inactive)
REMARK    1  A    between atoms: C2_2  and  C3_3 
REMARK    2  A    between atoms: C3_3  and  C4_4 
REMARK    3  A    between atoms: C4_4  and  C5_5 
REMARK    4  A    between atoms: C5_5  and  C6_6 
REMARK    5  A    between atoms: C6_6  and  N1_7 
REMARK    6  A    between atoms: C9_10  and  N2_11 
REMARK    7  A    between atoms: N2_11  and  C10_13 
REMARK    8  A    between atoms: C10_13  and  C11_14 
REMARK    9  A    between atoms: C11_14  and  N3_15 
REMARK   10  A    between atoms: N3_15  and  C12_17 
REMARK       I    between atoms: N5_21  and  C14_23 
REMARK       I    between atoms: C14_23  and  N7_27 
REMARK   11  A    between atoms: N9_34  and  C18_36 
REMARK   12  A    between atoms: C18_36  and  C19_37 
REMARK   13  A    between atoms: C19_37  and  N10_38 
ROOT
HETATM    1  C12 UNL     1      24.123  45.374  44.660  1.00  0.00     0.129 A 
HETATM    2  N4  UNL     1      25.473  45.442  44.717  1.00  0.00    -0.175 N 
ATOM      3  H4  UNL     1      26.010  44.590  44.557  1.00  0.00     0.186 HD
HETATM    4  C13 UNL     1      26.138  46.578  44.972  1.00  0.00     0.699 A 
HETATM    5  N5  UNL     1      27.440  46.648  45.043  1.00  0.00    -0.023 N 
ATOM      6  H5  UNL     1      27.907  47.533  45.239  1.00  0.00     0.203 HD
HETATM    7  C14 UNL     1      28.183  45.467  44.842  1.00  0.00     0.685 C 
HETATM    8  N6  UNL     1      28.242  44.637  45.827  1.00  0.00    -0.234 N 
ATOM      9  H61 UNL     1      28.779  43.783  45.682  1.00  0.00     0.174 HD
ATOM     10  H62 UNL     1      27.758  44.845  46.700  1.00  0.00     0.174 HD
HETATM   11  N7  UNL     1      28.849  45.181  43.640  1.00  0.00    -0.230 N 
ATOM     12  H7  UNL     1      29.328  44.284  43.564  1.00  0.00     0.177 HD
HETATM   13  C15 UNL     1      28.901  46.070  42.507  1.00  0.00     0.165 C 
HETATM   14  N8  UNL     1      25.396  47.700  45.179  1.00  0.00    -0.186 N 
ATOM     15  H8  UNL     1      25.879  48.577  45.375  1.00  0.00     0.184 HD
HETATM   16  C16 UNL     1      24.054  47.700  45.137  1.00  0.00     0.107 A 
HETATM   17  C17 UNL     1      23.284  48.851  45.363  1.00  0.00     0.131 A 
HETATM   18  N9  UNL     1      23.940  49.907  45.606  1.00  0.00    -0.373 N 
ATOM     19  H9  UNL     1      24.955  49.800  45.610  1.00  0.00     0.161 HD
HETATM   20  N11 UNL     1      21.938  48.781  45.316  1.00  0.00    -0.331 N 
ATOM     21  H11 UNL     1      21.405  49.635  45.484  1.00  0.00     0.168 HD
HETATM   22  C25 UNL     1      21.259  47.649  45.060  1.00  0.00     0.105 A 
HETATM   23 CL1  UNL     1      19.501  47.640  45.019  1.00  0.00    -0.064 Cl
HETATM   24  C26 UNL     1      21.992  46.510  44.838  1.00  0.00     0.060 A 
HETATM   25  C27 UNL     1      23.373  46.534  44.876  1.00  0.00     0.042 A 
ENDROOT
BRANCH   1  26
HETATM   26  N3  UNL     1      23.447  44.327  44.447  1.00  0.00    -0.374 N 
ATOM     27  H3  UNL     1      23.038  44.260  43.514  1.00  0.00     0.161 HD
BRANCH  26  28
HETATM   28  C11 UNL     1      23.165  43.224  45.306  1.00  0.00     0.141 C 
BRANCH  28  29
HETATM   29  C10 UNL     1      21.706  42.787  45.150  1.00  0.00     0.139 C 
BRANCH  29  30
HETATM   30  N2  UNL     1      20.829  43.911  45.322  1.00  0.00    -0.388 N 
ATOM     31  H2  UNL     1      21.018  44.562  46.084  1.00  0.00     0.159 HD
BRANCH  30  32
HETATM   32  C9  UNL     1      19.711  44.162  44.483  1.00  0.00     0.030 A 
HETATM   33  C8  UNL     1      19.887  44.850  43.285  1.00  0.00     0.046 A 
HETATM   34  C7  UNL     1      18.820  45.142  42.465  1.00  0.00     0.092 A 
HETATM   35  N1  UNL     1      17.584  44.767  42.808  1.00  0.00    -0.366 N 
HETATM   36  C29 UNL     1      17.398  44.095  43.971  1.00  0.00     0.092 A 
HETATM   37  C28 UNL     1      18.443  43.779  44.827  1.00  0.00     0.046 A 
BRANCH  35  38
HETATM   38  C6  UNL     1      16.450  45.081  41.944  1.00  0.00     0.128 C 
BRANCH  38  39
HETATM   39  C5  UNL     1      16.850  46.028  40.811  1.00  0.00     0.020 C 
BRANCH  39  40
HETATM   40  C4  UNL     1      15.634  46.639  40.160  1.00  0.00     0.002 C 
BRANCH  40  41
HETATM   41  C3  UNL     1      14.433  46.692  41.108  1.00  0.00    -0.000 C 
BRANCH  41  42
HETATM   42  C2  UNL     1      13.576  47.853  40.582  1.00  0.00    -0.005 C 
HETATM   43  C1  UNL     1      13.838  47.997  39.079  1.00  0.00     0.005 C 
ENDBRANCH  41  42
ENDBRANCH  40  41
ENDBRANCH  39  40
ENDBRANCH  38  39
ENDBRANCH  35  38
ENDBRANCH  30  32
ENDBRANCH  29  30
ENDBRANCH  28  29
ENDBRANCH  26  28
ENDBRANCH   1  26
BRANCH  18  44
HETATM   44  C18 UNL     1      23.465  51.221  45.875  1.00  0.00     0.151 C 
BRANCH  44  45
HETATM   45  C19 UNL     1      24.085  51.768  47.169  1.00  0.00     0.292 C 
BRANCH  45  46
HETATM   46  N10 UNL     1      23.512  51.047  48.294  1.00  0.00     0.090 N 
HETATM   47  C20 UNL     1      24.194  51.413  49.522  1.00  0.00     0.272 C 
HETATM   48  C21 UNL     1      23.443  50.828  50.688  1.00  0.00     0.030 C 
HETATM   49  C22 UNL     1      23.174  49.346  50.491  1.00  0.00     0.003 C 
HETATM   50  C23 UNL     1      23.923  48.826  49.282  1.00  0.00     0.030 C 
HETATM   51  C24 UNL     1      23.546  49.615  48.070  1.00  0.00     0.272 C 
ENDBRANCH  45  46
ENDBRANCH  44  45
ENDBRANCH  18  44
TORSDOF 13
ENDMDL
