MODEL 1
REMARK VINA RESULT: -6.902615966      0.000      0.000
REMARK  6 active torsions:
REMARK  status: ('A' for Active; 'I' for Inactive)
REMARK    1  A    between atoms: C3_3  and  O1_4 
REMARK    2  A    between atoms: C3_3  and  C4_6 
REMARK    3  A    between atoms: C4_6  and  O2_7 
REMARK    4  A    between atoms: C4_6  and  C5_9 
REMARK    5  A    between atoms: C5_9  and  O3_10 
REMARK    6  A    between atoms: C5_9  and  N1_12 
ROOT
HETATM    1  C1  UNL     1      32.924   2.005  15.166  1.00  0.00     0.100 C 
HETATM    2  C2  UNL     1      32.507   2.980  14.554  1.00  0.00    -0.153 C 
HETATM    3  C3  UNL     1      32.005   4.158  13.844  1.00  0.00     0.216 C 
ENDROOT
BRANCH   3   4
HETATM    4  O1  UNL     1      30.633   4.058  13.773  1.00  0.00    -0.382 OA
ATOM      5  H1  UNL     1      30.267   4.911  13.974  1.00  0.00     0.211 HD
ENDBRANCH   3   4
BRANCH   3   6
HETATM    6  C4  UNL     1      32.439   5.411  14.601  1.00  0.00     0.206 C 
BRANCH   6   7
HETATM    7  O2  UNL     1      31.547   5.738  15.593  1.00  0.00    -0.388 OA
ATOM      8  H2  UNL     1      31.385   6.674  15.625  1.00  0.00     0.210 HD
ENDBRANCH   6   7
BRANCH   6   9
HETATM    9  C5  UNL     1      32.744   6.540  13.653  1.00  0.00     0.267 C 
BRANCH   9  10
HETATM   10  O3  UNL     1      33.386   6.052  12.529  1.00  0.00    -0.373 OA
ATOM     11  H3  UNL     1      33.786   6.767  12.047  1.00  0.00     0.212 HD
ENDBRANCH   9  10
BRANCH   9  12
HETATM   12  N1  UNL     1      33.527   7.577  14.245  1.00  0.00    -0.197 N 
HETATM   13  C6  UNL     1      33.094   8.808  14.373  1.00  0.00     0.683 A 
HETATM   14  N2  UNL     1      33.879   9.740  14.939  1.00  0.00    -0.188 N 
HETATM   15  N5  UNL     1      31.873   9.183  13.949  1.00  0.00    -0.163 N 
HETATM   16  C7  UNL     1      33.494  11.019  15.098  1.00  0.00     0.200 A 
ATOM     17  H2  UNL     1      34.807   9.465  15.262  1.00  0.00     0.185 HD
HETATM   18  N3  UNL     1      32.267  11.353  14.662  1.00  0.00    -0.326 N 
HETATM   19  C8  UNL     1      31.443  10.446  14.085  1.00  0.00     0.207 A 
ATOM     20  H3  UNL     1      31.948  12.316  14.770  1.00  0.00     0.169 HD
HETATM   21  N4  UNL     1      30.165  10.890  13.656  1.00  0.00    -0.063 NA
ATOM     22  H5  UNL     1      31.261   8.492  13.516  1.00  0.00     0.187 HD
ATOM     23  H1  UNL     1      34.462   7.350  14.583  1.00  0.00     0.180 HD
ENDBRANCH   9  12
ENDBRANCH   6   9
ENDBRANCH   3   6
TORSDOF 6
ENDMDL
MODEL 2
REMARK VINA RESULT: -6.858538011      5.544      7.311
REMARK  6 active torsions:
REMARK  status: ('A' for Active; 'I' for Inactive)
REMARK    1  A    between atoms: C3_3  and  O1_4 
REMARK    2  A    between atoms: C3_3  and  C4_6 
REMARK    3  A    between atoms: C4_6  and  O2_7 
REMARK    4  A    between atoms: C4_6  and  C5_9 
REMARK    5  A    between atoms: C5_9  and  O3_10 
REMARK    6  A    between atoms: C5_9  and  N1_12 
ROOT
HETATM    1  C1  UNL     1      31.835   4.819  19.120  1.00  0.00     0.100 C 
HETATM    2  C2  UNL     1      30.991   4.108  19.649  1.00  0.00    -0.153 C 
HETATM    3  C3  UNL     1      29.981   3.243  20.263  1.00  0.00     0.216 C 
ENDROOT
BRANCH   3   4
HETATM    4  O1  UNL     1      28.740   3.700  19.877  1.00  0.00    -0.382 OA
ATOM      5  H1  UNL     1      28.101   3.033  20.099  1.00  0.00     0.211 HD
ENDBRANCH   3   4
BRANCH   3   6
HETATM    6  C4  UNL     1      30.218   1.807  19.803  1.00  0.00     0.206 C 
BRANCH   6   7
HETATM    7  O2  UNL     1      31.264   1.224  20.477  1.00  0.00    -0.388 OA
ATOM      8  H2  UNL     1      31.094   0.308  20.663  1.00  0.00     0.210 HD
ENDBRANCH   6   7
BRANCH   6   9
HETATM    9  C5  UNL     1      30.335   1.728  18.304  1.00  0.00     0.267 C 
BRANCH   9  10
HETATM   10  O3  UNL     1      29.372   0.872  17.799  1.00  0.00    -0.373 OA
ATOM     11  H3  UNL     1      29.595   0.621  16.910  1.00  0.00     0.212 HD
ENDBRANCH   9  10
BRANCH   9  12
HETATM   12  N1  UNL     1      31.628   1.317  17.860  1.00  0.00    -0.197 N 
HETATM   13  C6  UNL     1      32.165   1.745  16.743  1.00  0.00     0.683 A 
HETATM   14  N2  UNL     1      33.387   1.320  16.380  1.00  0.00    -0.188 N 
HETATM   15  N5  UNL     1      31.528   2.608  15.929  1.00  0.00    -0.163 N 
HETATM   16  C7  UNL     1      33.992   1.721  15.246  1.00  0.00     0.200 A 
ATOM     17  H2  UNL     1      33.877   0.665  16.989  1.00  0.00     0.185 HD
HETATM   18  N3  UNL     1      33.322   2.584  14.462  1.00  0.00    -0.326 N 
HETATM   19  C8  UNL     1      32.089   3.037  14.789  1.00  0.00     0.207 A 
ATOM     20  H3  UNL     1      33.755   2.906  13.596  1.00  0.00     0.169 HD
HETATM   21  N4  UNL     1      31.458   3.947  13.900  1.00  0.00    -0.063 NA
ATOM     22  H5  UNL     1      30.600   2.943  16.186  1.00  0.00     0.187 HD
ATOM     23  H1  UNL     1      32.157   0.662  18.436  1.00  0.00     0.180 HD
ENDBRANCH   9  12
ENDBRANCH   6   9
ENDBRANCH   3   6
TORSDOF 6
ENDMDL
MODEL 3
REMARK VINA RESULT: -6.827468416      5.326      7.426
REMARK  6 active torsions:
REMARK  status: ('A' for Active; 'I' for Inactive)
REMARK    1  A    between atoms: C3_3  and  O1_4 
REMARK    2  A    between atoms: C3_3  and  C4_6 
REMARK    3  A    between atoms: C4_6  and  O2_7 
REMARK    4  A    between atoms: C4_6  and  C5_9 
REMARK    5  A    between atoms: C5_9  and  O3_10 
REMARK    6  A    between atoms: C5_9  and  N1_12 
ROOT
HETATM    1  C1  UNL     1      29.936   4.235  22.302  1.00  0.00     0.100 C 
HETATM    2  C2  UNL     1      29.720   3.430  21.406  1.00  0.00    -0.153 C 
HETATM    3  C3  UNL     1      29.471   2.482  20.318  1.00  0.00     0.216 C 
ENDROOT
BRANCH   3   4
HETATM    4  O1  UNL     1      28.198   2.710  19.842  1.00  0.00    -0.382 OA
ATOM      5  H1  UNL     1      27.802   3.385  20.380  1.00  0.00     0.211 HD
ENDBRANCH   3   4
BRANCH   3   6
HETATM    6  C4  UNL     1      30.523   2.692  19.232  1.00  0.00     0.206 C 
BRANCH   6   7
HETATM    7  O2  UNL     1      30.478   3.966  18.720  1.00  0.00    -0.388 OA
ATOM      8  H2  UNL     1      30.203   3.969  17.811  1.00  0.00     0.210 HD
ENDBRANCH   6   7
BRANCH   6   9
HETATM    9  C5  UNL     1      30.450   1.609  18.189  1.00  0.00     0.267 C 
BRANCH   9  10
HETATM   10  O3  UNL     1      29.797   0.502  18.702  1.00  0.00    -0.373 OA
ATOM     11  H3  UNL     1      29.777   0.548  19.651  1.00  0.00     0.212 HD
ENDBRANCH   9  10
BRANCH   9  12
HETATM   12  N1  UNL     1      31.729   1.225  17.685  1.00  0.00    -0.197 N 
HETATM   13  C6  UNL     1      32.252   1.748  16.601  1.00  0.00     0.683 A 
HETATM   14  N2  UNL     1      33.461   1.344  16.178  1.00  0.00    -0.188 N 
HETATM   15  N5  UNL     1      31.612   2.690  15.883  1.00  0.00    -0.163 N 
HETATM   16  C7  UNL     1      34.051   1.841  15.075  1.00  0.00     0.200 A 
ATOM     17  H2  UNL     1      33.953   0.630  16.715  1.00  0.00     0.185 HD
HETATM   18  N3  UNL     1      33.379   2.780  14.386  1.00  0.00    -0.326 N 
HETATM   19  C8  UNL     1      32.158   3.216  14.777  1.00  0.00     0.207 A 
ATOM     20  H3  UNL     1      33.801   3.175  13.545  1.00  0.00     0.169 HD
HETATM   21  N4  UNL     1      31.524   4.211  13.987  1.00  0.00    -0.063 NA
ATOM     22  H5  UNL     1      30.693   3.010  16.187  1.00  0.00     0.187 HD
ATOM     23  H1  UNL     1      32.259   0.513  18.188  1.00  0.00     0.180 HD
ENDBRANCH   9  12
ENDBRANCH   6   9
ENDBRANCH   3   6
TORSDOF 6
ENDMDL
MODEL 4
REMARK VINA RESULT: -6.769036162      5.687      7.788
REMARK  6 active torsions:
REMARK  status: ('A' for Active; 'I' for Inactive)
REMARK    1  A    between atoms: C3_3  and  O1_4 
REMARK    2  A    between atoms: C3_3  and  C4_6 
REMARK    3  A    between atoms: C4_6  and  O2_7 
REMARK    4  A    between atoms: C4_6  and  C5_9 
REMARK    5  A    between atoms: C5_9  and  O3_10 
REMARK    6  A    between atoms: C5_9  and  N1_12 
ROOT
HETATM    1  C1  UNL     1      28.236  -1.623  20.886  1.00  0.00     0.100 C 
HETATM    2  C2  UNL     1      28.293  -0.520  20.359  1.00  0.00    -0.153 C 
HETATM    3  C3  UNL     1      28.381   0.806  19.744  1.00  0.00     0.216 C 
ENDROOT
BRANCH   3   4
HETATM    4  O1  UNL     1      27.616   1.672  20.493  1.00  0.00    -0.382 OA
ATOM      5  H1  UNL     1      27.863   2.559  20.257  1.00  0.00     0.211 HD
ENDBRANCH   3   4
BRANCH   3   6
HETATM    6  C4  UNL     1      29.845   1.237  19.709  1.00  0.00     0.206 C 
BRANCH   6   7
HETATM    7  O2  UNL     1      30.135   2.132  20.709  1.00  0.00    -0.388 OA
ATOM      8  H2  UNL     1      31.029   2.038  21.015  1.00  0.00     0.210 HD
ENDBRANCH   6   7
BRANCH   6   9
HETATM    9  C5  UNL     1      30.241   1.704  18.333  1.00  0.00     0.267 C 
BRANCH   9  10
HETATM   10  O3  UNL     1      29.339   1.232  17.396  1.00  0.00    -0.373 OA
ATOM     11  H3  UNL     1      28.610   1.836  17.314  1.00  0.00     0.212 HD
ENDBRANCH   9  10
BRANCH   9  12
HETATM   12  N1  UNL     1      31.566   1.318  17.967  1.00  0.00    -0.197 N 
HETATM   13  C6  UNL     1      32.140   1.719  16.857  1.00  0.00     0.683 A 
HETATM   14  N2  UNL     1      33.391   1.320  16.569  1.00  0.00    -0.188 N 
HETATM   15  N5  UNL     1      31.515   2.526  15.981  1.00  0.00    -0.163 N 
HETATM   16  C7  UNL     1      34.034   1.695  15.448  1.00  0.00     0.200 A 
ATOM     17  H2  UNL     1      33.872   0.707  17.227  1.00  0.00     0.185 HD
HETATM   18  N3  UNL     1      33.376   2.502  14.598  1.00  0.00    -0.326 N 
HETATM   19  C8  UNL     1      32.115   2.927  14.850  1.00  0.00     0.207 A 
ATOM     20  H3  UNL     1      33.839   2.803  13.740  1.00  0.00     0.169 HD
HETATM   21  N4  UNL     1      31.498   3.778  13.895  1.00  0.00    -0.063 NA
ATOM     22  H5  UNL     1      30.566   2.840  16.181  1.00  0.00     0.187 HD
ATOM     23  H1  UNL     1      32.087   0.705  18.593  1.00  0.00     0.180 HD
ENDBRANCH   9  12
ENDBRANCH   6   9
ENDBRANCH   3   6
TORSDOF 6
ENDMDL
MODEL 5
REMARK VINA RESULT: -6.740189902      5.657      7.451
REMARK  6 active torsions:
REMARK  status: ('A' for Active; 'I' for Inactive)
REMARK    1  A    between atoms: C3_3  and  O1_4 
REMARK    2  A    between atoms: C3_3  and  C4_6 
REMARK    3  A    between atoms: C4_6  and  O2_7 
REMARK    4  A    between atoms: C4_6  and  C5_9 
REMARK    5  A    between atoms: C5_9  and  O3_10 
REMARK    6  A    between atoms: C5_9  and  N1_12 
ROOT
HETATM    1  C1  UNL     1      32.951   5.098  13.309  1.00  0.00     0.100 C 
HETATM    2  C2  UNL     1      32.404   4.357  14.114  1.00  0.00    -0.153 C 
HETATM    3  C3  UNL     1      31.764   3.452  15.072  1.00  0.00     0.216 C 
ENDROOT
BRANCH   3   4
HETATM    4  O1  UNL     1      30.736   2.806  14.422  1.00  0.00    -0.382 OA
ATOM      5  H1  UNL     1      31.111   2.091  13.920  1.00  0.00     0.211 HD
ENDBRANCH   3   4
BRANCH   3   6
HETATM    6  C4  UNL     1      32.808   2.466  15.590  1.00  0.00     0.206 C 
BRANCH   6   7
HETATM    7  O2  UNL     1      32.962   1.397  14.743  1.00  0.00    -0.388 OA
ATOM      8  H2  UNL     1      33.536   0.736  15.112  1.00  0.00     0.210 HD
ENDBRANCH   6   7
BRANCH   6   9
HETATM    9  C5  UNL     1      32.529   2.082  17.019  1.00  0.00     0.267 C 
BRANCH   9  10
HETATM   10  O3  UNL     1      33.322   1.007  17.382  1.00  0.00    -0.373 OA
ATOM     11  H3  UNL     1      33.320   0.907  18.327  1.00  0.00     0.212 HD
ENDBRANCH   9  10
BRANCH   9  12
HETATM   12  N1  UNL     1      31.156   1.773  17.262  1.00  0.00    -0.197 N 
HETATM   13  C6  UNL     1      30.558   2.045  18.397  1.00  0.00     0.683 A 
HETATM   14  N2  UNL     1      29.262   1.729  18.564  1.00  0.00    -0.188 N 
HETATM   15  N5  UNL     1      31.201   2.637  19.420  1.00  0.00    -0.163 N 
HETATM   16  C7  UNL     1      28.592   1.981  19.703  1.00  0.00     0.200 A 
ATOM     17  H2  UNL     1      28.767   1.279  17.794  1.00  0.00     0.185 HD
HETATM   18  N3  UNL     1      29.271   2.574  20.700  1.00  0.00    -0.326 N 
HETATM   19  C8  UNL     1      30.577   2.909  20.575  1.00  0.00     0.207 A 
ATOM     20  H3  UNL     1      28.788   2.777  21.576  1.00  0.00     0.169 HD
HETATM   21  N4  UNL     1      31.211   3.533  21.681  1.00  0.00    -0.063 NA
ATOM     22  H5  UNL     1      32.185   2.885  19.314  1.00  0.00     0.187 HD
ATOM     23  H1  UNL     1      30.619   1.322  16.522  1.00  0.00     0.180 HD
ENDBRANCH   9  12
ENDBRANCH   6   9
ENDBRANCH   3   6
TORSDOF 6
ENDMDL
