MODEL 1
REMARK VINA RESULT: -6.847382206      0.000      0.000
REMARK  8 active torsions:
REMARK  status: ('A' for Active; 'I' for Inactive)
REMARK    1  A    between atoms: C5_5  and  C6_6 
REMARK    2  A    between atoms: C11_13  and  S1_14 
REMARK    3  A    between atoms: S1_14  and  N2_17 
REMARK    4  A    between atoms: N2_17  and  C12_19 
REMARK    5  A    between atoms: C12_19  and  C13_20 
REMARK    6  A    between atoms: C12_19  and  C18_25 
REMARK    7  A    between atoms: C13_20  and  C14_21 
REMARK    8  A    between atoms: C14_21  and  C15_22 
REMARK       I    between atoms: C18_25  and  N3_27 
ROOT
HETATM    1  S1  UNL     1      19.816  10.146   7.236  1.00  0.00     0.262 S 
HETATM    2  O1  UNL     1      19.946   8.605   7.300  1.00  0.00    -0.200 OA
HETATM    3  O2  UNL     1      19.992  10.457   5.742  1.00  0.00    -0.200 OA
ENDROOT
BRANCH   1   4
HETATM    4  C11 UNL     1      21.118  10.823   8.160  1.00  0.00     0.114 A 
HETATM    5  C6  UNL     1      20.995  11.061   9.545  1.00  0.00     0.022 A 
HETATM    6  C7  UNL     1      22.140  11.734   9.907  1.00  0.00     0.018 A 
HETATM    7  C8  UNL     1      22.381  12.220  11.285  1.00  0.00     0.069 C 
HETATM    8  N1  UNL     1      22.916  11.892   8.825  1.00  0.00    -0.361 N 
HETATM    9  C9  UNL     1      22.319  11.346   7.742  1.00  0.00     0.030 A 
ATOM     10  H1  UNL     1      23.825  12.356   8.820  1.00  0.00     0.165 HD
HETATM   11  C10 UNL     1      22.903  11.307   6.366  1.00  0.00     0.070 C 
BRANCH   5  12
HETATM   12  C5  UNL     1      19.925  10.620  10.412  1.00  0.00    -0.022 A 
HETATM   13  C4  UNL     1      18.909  11.409  10.890  1.00  0.00     0.013 A 
HETATM   14  C3  UNL     1      17.977  10.809  11.741  1.00  0.00     0.007 A 
HETATM   15  C2  UNL     1      18.070   9.479  12.087  1.00  0.00    -0.062 A 
HETATM   16  C1  UNL     1      17.061   8.847  13.006  1.00  0.00     0.048 C 
HETATM   17  C22 UNL     1      19.107   8.671  11.598  1.00  0.00     0.007 A 
HETATM   18  C21 UNL     1      20.009   9.258  10.773  1.00  0.00     0.013 A 
ENDBRANCH   5  12
ENDBRANCH   1   4
BRANCH   1  19
HETATM   19  N2  UNL     1      18.266  10.557   7.682  1.00  0.00    -0.301 N 
ATOM     20  H2  UNL     1      18.027  11.512   7.948  1.00  0.00     0.173 HD
BRANCH  19  21
HETATM   21  C12 UNL     1      17.279   9.517   7.677  1.00  0.00     0.185 C 
BRANCH  21  22
HETATM   22  C13 UNL     1      16.355   9.488   8.814  1.00  0.00     0.036 C 
BRANCH  22  23
HETATM   23  C14 UNL     1      16.123   8.097   9.380  1.00  0.00     0.006 C 
BRANCH  23  24
HETATM   24  C15 UNL     1      14.695   7.834   9.689  1.00  0.00    -0.023 C 
HETATM   25  C16 UNL     1      14.133   8.973  10.533  1.00  0.00     0.009 C 
HETATM   26  C17 UNL     1      13.782   7.413   8.597  1.00  0.00     0.009 C 
ENDBRANCH  23  24
ENDBRANCH  22  23
ENDBRANCH  21  22
BRANCH  21  27
HETATM   27  C18 UNL     1      16.642   9.537   6.346  1.00  0.00     0.242 C 
HETATM   28  O3  UNL     1      16.262  10.633   5.830  1.00  0.00    -0.271 OA
HETATM   29  N3  UNL     1      16.377   8.373   5.535  1.00  0.00    -0.359 N 
HETATM   30  C19 UNL     1      16.452   7.014   5.929  1.00  0.00     0.152 C 
HETATM   31  C20 UNL     1      16.011   8.634   4.143  1.00  0.00     0.152 C 
ENDBRANCH  21  27
ENDBRANCH  19  21
ENDBRANCH   1  19
TORSDOF 8
ENDMDL
MODEL 2
REMARK VINA RESULT: -6.688291088      1.896      5.830
REMARK  8 active torsions:
REMARK  status: ('A' for Active; 'I' for Inactive)
REMARK    1  A    between atoms: C5_5  and  C6_6 
REMARK    2  A    between atoms: C11_13  and  S1_14 
REMARK    3  A    between atoms: S1_14  and  N2_17 
REMARK    4  A    between atoms: N2_17  and  C12_19 
REMARK    5  A    between atoms: C12_19  and  C13_20 
REMARK    6  A    between atoms: C12_19  and  C18_25 
REMARK    7  A    between atoms: C13_20  and  C14_21 
REMARK    8  A    between atoms: C14_21  and  C15_22 
REMARK       I    between atoms: C18_25  and  N3_27 
ROOT
HETATM    1  S1  UNL     1      17.934  10.899   7.274  1.00  0.00     0.262 S 
HETATM    2  O1  UNL     1      16.764  11.578   8.025  1.00  0.00    -0.200 OA
HETATM    3  O2  UNL     1      19.044  11.961   7.310  1.00  0.00    -0.200 OA
ENDROOT
BRANCH   1   4
HETATM    4  C11 UNL     1      17.417  10.608   5.645  1.00  0.00     0.114 A 
HETATM    5  C6  UNL     1      16.491   9.590   5.335  1.00  0.00     0.022 A 
HETATM    6  C7  UNL     1      16.438   9.547   3.960  1.00  0.00     0.018 A 
HETATM    7  C8  UNL     1      15.610   8.566   3.222  1.00  0.00     0.069 C 
HETATM    8  N1  UNL     1      17.264  10.477   3.459  1.00  0.00    -0.361 N 
HETATM    9  C9  UNL     1      17.878  11.141   4.464  1.00  0.00     0.030 A 
ATOM     10  H1  UNL     1      17.409  10.656   2.465  1.00  0.00     0.165 HD
HETATM   11  C10 UNL     1      18.847  12.266   4.285  1.00  0.00     0.070 C 
BRANCH   5  12
HETATM   12  C5  UNL     1      15.708   8.813   6.269  1.00  0.00    -0.022 A 
HETATM   13  C4  UNL     1      16.046   7.577   6.759  1.00  0.00     0.013 A 
HETATM   14  C3  UNL     1      15.146   6.965   7.635  1.00  0.00     0.007 A 
HETATM   15  C2  UNL     1      13.966   7.576   7.997  1.00  0.00    -0.062 A 
HETATM   16  C1  UNL     1      13.006   6.906   8.940  1.00  0.00     0.048 C 
HETATM   17  C22 UNL     1      13.620   8.841   7.499  1.00  0.00     0.007 A 
HETATM   18  C21 UNL     1      14.496   9.429   6.647  1.00  0.00     0.013 A 
ENDBRANCH   5  12
ENDBRANCH   1   4
BRANCH   1  19
HETATM   19  N2  UNL     1      18.433   9.585   8.166  1.00  0.00    -0.301 N 
ATOM     20  H2  UNL     1      18.494   8.655   7.751  1.00  0.00     0.173 HD
BRANCH  19  21
HETATM   21  C12 UNL     1      18.773   9.809   9.541  1.00  0.00     0.185 C 
BRANCH  21  22
HETATM   22  C13 UNL     1      18.112   8.949  10.525  1.00  0.00     0.036 C 
BRANCH  22  23
HETATM   23  C14 UNL     1      16.606   8.853  10.344  1.00  0.00     0.006 C 
BRANCH  23  24
HETATM   24  C15 UNL     1      15.995   7.785  11.173  1.00  0.00    -0.023 C 
HETATM   25  C16 UNL     1      17.079   7.071  11.974  1.00  0.00     0.009 C 
HETATM   26  C17 UNL     1      14.785   8.091  11.977  1.00  0.00     0.009 C 
ENDBRANCH  23  24
ENDBRANCH  22  23
ENDBRANCH  21  22
BRANCH  21  27
HETATM   27  C18 UNL     1      20.245   9.843   9.619  1.00  0.00     0.242 C 
HETATM   28  O3  UNL     1      20.925   8.789   9.421  1.00  0.00    -0.271 OA
HETATM   29  N3  UNL     1      21.034  11.010   9.931  1.00  0.00    -0.359 N 
HETATM   30  C19 UNL     1      20.573  12.251  10.437  1.00  0.00     0.152 C 
HETATM   31  C20 UNL     1      22.470  10.899   9.673  1.00  0.00     0.152 C 
ENDBRANCH  21  27
ENDBRANCH  19  21
ENDBRANCH   1  19
TORSDOF 8
ENDMDL
MODEL 3
REMARK VINA RESULT: -6.419848322      2.522      5.400
REMARK  8 active torsions:
REMARK  status: ('A' for Active; 'I' for Inactive)
REMARK    1  A    between atoms: C5_5  and  C6_6 
REMARK    2  A    between atoms: C11_13  and  S1_14 
REMARK    3  A    between atoms: S1_14  and  N2_17 
REMARK    4  A    between atoms: N2_17  and  C12_19 
REMARK    5  A    between atoms: C12_19  and  C13_20 
REMARK    6  A    between atoms: C12_19  and  C18_25 
REMARK    7  A    between atoms: C13_20  and  C14_21 
REMARK    8  A    between atoms: C14_21  and  C15_22 
REMARK       I    between atoms: C18_25  and  N3_27 
ROOT
HETATM    1  S1  UNL     1      20.400   9.524   8.536  1.00  0.00     0.262 S 
HETATM    2  O1  UNL     1      20.893   8.667   9.726  1.00  0.00    -0.200 OA
HETATM    3  O2  UNL     1      20.839   8.712   7.307  1.00  0.00    -0.200 OA
ENDROOT
BRANCH   1   4
HETATM    4  C11 UNL     1      21.234  11.042   8.597  1.00  0.00     0.114 A 
HETATM    5  C6  UNL     1      21.212  11.941   7.510  1.00  0.00     0.022 A 
HETATM    6  C7  UNL     1      22.091  12.946   7.846  1.00  0.00     0.018 A 
HETATM    7  C8  UNL     1      22.400  14.075   6.938  1.00  0.00     0.069 C 
HETATM    8  N1  UNL     1      22.611  12.690   9.056  1.00  0.00    -0.361 N 
HETATM    9  C9  UNL     1      22.107  11.533   9.540  1.00  0.00     0.030 A 
ATOM     10  H1  UNL     1      23.287  13.281   9.539  1.00  0.00     0.165 HD
HETATM   11  C10 UNL     1      22.435  10.944  10.875  1.00  0.00     0.070 C 
BRANCH   5  12
HETATM   12  C5  UNL     1      20.381  11.860   6.330  1.00  0.00    -0.022 A 
HETATM   13  C4  UNL     1      20.769  11.354   5.115  1.00  0.00     0.013 A 
HETATM   14  C3  UNL     1      19.832  11.384   4.079  1.00  0.00     0.007 A 
HETATM   15  C2  UNL     1      18.568  11.896   4.267  1.00  0.00    -0.062 A 
HETATM   16  C1  UNL     1      17.569  11.923   3.142  1.00  0.00     0.048 C 
HETATM   17  C22 UNL     1      18.169  12.411   5.509  1.00  0.00     0.007 A 
HETATM   18  C21 UNL     1      19.082  12.381   6.511  1.00  0.00     0.013 A 
ENDBRANCH   5  12
ENDBRANCH   1   4
BRANCH   1  19
HETATM   19  N2  UNL     1      18.736   9.561   8.576  1.00  0.00    -0.301 N 
ATOM     20  H2  UNL     1      18.180   9.271   7.771  1.00  0.00     0.173 HD
BRANCH  19  21
HETATM   21  C12 UNL     1      18.114  10.018   9.784  1.00  0.00     0.185 C 
BRANCH  21  22
HETATM   22  C13 UNL     1      17.541  11.366   9.754  1.00  0.00     0.036 C 
BRANCH  22  23
HETATM   23  C14 UNL     1      18.372  12.403  10.492  1.00  0.00     0.006 C 
BRANCH  23  24
HETATM   24  C15 UNL     1      18.622  13.621   9.682  1.00  0.00    -0.023 C 
HETATM   25  C16 UNL     1      17.295  14.268   9.302  1.00  0.00     0.009 C 
HETATM   26  C17 UNL     1      19.638  14.601  10.139  1.00  0.00     0.009 C 
ENDBRANCH  23  24
ENDBRANCH  22  23
ENDBRANCH  21  22
BRANCH  21  27
HETATM   27  C18 UNL     1      17.194   8.951  10.223  1.00  0.00     0.242 C 
HETATM   28  O3  UNL     1      16.633   8.194   9.372  1.00  0.00    -0.271 OA
HETATM   29  N3  UNL     1      16.835   8.676  11.593  1.00  0.00    -0.359 N 
HETATM   30  C19 UNL     1      17.091   9.485  12.729  1.00  0.00     0.152 C 
HETATM   31  C20 UNL     1      16.149   7.407  11.832  1.00  0.00     0.152 C 
ENDBRANCH  21  27
ENDBRANCH  19  21
ENDBRANCH   1  19
TORSDOF 8
ENDMDL
MODEL 4
REMARK VINA RESULT: -6.404483925      2.091      5.573
REMARK  8 active torsions:
REMARK  status: ('A' for Active; 'I' for Inactive)
REMARK    1  A    between atoms: C5_5  and  C6_6 
REMARK    2  A    between atoms: C11_13  and  S1_14 
REMARK    3  A    between atoms: S1_14  and  N2_17 
REMARK    4  A    between atoms: N2_17  and  C12_19 
REMARK    5  A    between atoms: C12_19  and  C13_20 
REMARK    6  A    between atoms: C12_19  and  C18_25 
REMARK    7  A    between atoms: C13_20  and  C14_21 
REMARK    8  A    between atoms: C14_21  and  C15_22 
REMARK       I    between atoms: C18_25  and  N3_27 
ROOT
HETATM    1  S1  UNL     1      18.979   9.942   7.330  1.00  0.00     0.262 S 
HETATM    2  O1  UNL     1      20.033  11.046   7.587  1.00  0.00    -0.200 OA
HETATM    3  O2  UNL     1      19.822   8.661   7.229  1.00  0.00    -0.200 OA
ENDROOT
BRANCH   1   4
HETATM    4  C11 UNL     1      18.210  10.290   5.816  1.00  0.00     0.114 A 
HETATM    5  C6  UNL     1      16.995   9.676   5.446  1.00  0.00     0.022 A 
HETATM    6  C7  UNL     1      16.768  10.061   4.144  1.00  0.00     0.018 A 
HETATM    7  C8  UNL     1      15.607   9.584   3.359  1.00  0.00     0.069 C 
HETATM    8  N1  UNL     1      17.767  10.862   3.743  1.00  0.00    -0.361 N 
HETATM    9  C9  UNL     1      18.664  11.020   4.742  1.00  0.00     0.030 A 
ATOM     10  H1  UNL     1      17.839  11.288   2.819  1.00  0.00     0.165 HD
HETATM   11  C10 UNL     1      19.893  11.868   4.667  1.00  0.00     0.070 C 
BRANCH   5  12
HETATM   12  C5  UNL     1      16.134   8.875   6.288  1.00  0.00    -0.022 A 
HETATM   13  C4  UNL     1      16.300   7.540   6.558  1.00  0.00     0.013 A 
HETATM   14  C3  UNL     1      15.347   6.927   7.375  1.00  0.00     0.007 A 
HETATM   15  C2  UNL     1      14.282   7.632   7.892  1.00  0.00    -0.062 A 
HETATM   16  C1  UNL     1      13.262   6.959   8.768  1.00  0.00     0.048 C 
HETATM   17  C22 UNL     1      14.112   8.997   7.618  1.00  0.00     0.007 A 
HETATM   18  C21 UNL     1      15.039   9.587   6.823  1.00  0.00     0.013 A 
ENDBRANCH   5  12
ENDBRANCH   1   4
BRANCH   1  19
HETATM   19  N2  UNL     1      18.006   9.828   8.675  1.00  0.00    -0.301 N 
ATOM     20  H2  UNL     1      17.106   9.349   8.639  1.00  0.00     0.173 HD
BRANCH  19  21
HETATM   21  C12 UNL     1      18.480  10.430   9.887  1.00  0.00     0.185 C 
BRANCH  21  22
HETATM   22  C13 UNL     1      17.488  11.148  10.692  1.00  0.00     0.036 C 
BRANCH  22  23
HETATM   23  C14 UNL     1      16.094  11.152  10.087  1.00  0.00     0.006 C 
BRANCH  23  24
HETATM   24  C15 UNL     1      15.082  10.523  10.973  1.00  0.00    -0.023 C 
HETATM   25  C16 UNL     1      13.689  11.003  10.583  1.00  0.00     0.009 C 
HETATM   26  C17 UNL     1      15.145   9.062  11.224  1.00  0.00     0.009 C 
ENDBRANCH  23  24
ENDBRANCH  22  23
ENDBRANCH  21  22
BRANCH  21  27
HETATM   27  C18 UNL     1      19.248   9.396  10.607  1.00  0.00     0.242 C 
HETATM   28  O3  UNL     1      18.663   8.381  11.094  1.00  0.00    -0.271 OA
HETATM   29  N3  UNL     1      20.672   9.432  10.841  1.00  0.00    -0.359 N 
HETATM   30  C19 UNL     1      21.549  10.528  10.647  1.00  0.00     0.152 C 
HETATM   31  C20 UNL     1      21.274   8.185  11.312  1.00  0.00     0.152 C 
ENDBRANCH  21  27
ENDBRANCH  19  21
ENDBRANCH   1  19
TORSDOF 8
ENDMDL
MODEL 5
REMARK VINA RESULT: -6.396185618      1.763      5.865
REMARK  8 active torsions:
REMARK  status: ('A' for Active; 'I' for Inactive)
REMARK    1  A    between atoms: C5_5  and  C6_6 
REMARK    2  A    between atoms: C11_13  and  S1_14 
REMARK    3  A    between atoms: S1_14  and  N2_17 
REMARK    4  A    between atoms: N2_17  and  C12_19 
REMARK    5  A    between atoms: C12_19  and  C13_20 
REMARK    6  A    between atoms: C12_19  and  C18_25 
REMARK    7  A    between atoms: C13_20  and  C14_21 
REMARK    8  A    between atoms: C14_21  and  C15_22 
REMARK       I    between atoms: C18_25  and  N3_27 
ROOT
HETATM    1  S1  UNL     1      17.821  10.929   7.283  1.00  0.00     0.262 S 
HETATM    2  O1  UNL     1      16.575  11.330   8.108  1.00  0.00    -0.200 OA
HETATM    3  O2  UNL     1      18.713  12.177   7.354  1.00  0.00    -0.200 OA
ENDROOT
BRANCH   1   4
HETATM    4  C11 UNL     1      17.302  10.639   5.654  1.00  0.00     0.114 A 
HETATM    5  C6  UNL     1      16.402   9.600   5.339  1.00  0.00     0.022 A 
HETATM    6  C7  UNL     1      16.341   9.569   3.964  1.00  0.00     0.018 A 
HETATM    7  C8  UNL     1      15.535   8.572   3.222  1.00  0.00     0.069 C 
HETATM    8  N1  UNL     1      17.140  10.524   3.468  1.00  0.00    -0.361 N 
HETATM    9  C9  UNL     1      17.742  11.195   4.475  1.00  0.00     0.030 A 
ATOM     10  H1  UNL     1      17.275  10.716   2.475  1.00  0.00     0.165 HD
HETATM   11  C10 UNL     1      18.680  12.346   4.302  1.00  0.00     0.070 C 
BRANCH   5  12
HETATM   12  C5  UNL     1      15.644   8.794   6.270  1.00  0.00    -0.022 A 
HETATM   13  C4  UNL     1      16.048   7.594   6.799  1.00  0.00     0.013 A 
HETATM   14  C3  UNL     1      15.165   6.945   7.665  1.00  0.00     0.007 A 
HETATM   15  C2  UNL     1      13.938   7.485   7.980  1.00  0.00    -0.062 A 
HETATM   16  C1  UNL     1      12.996   6.774   8.913  1.00  0.00     0.048 C 
HETATM   17  C22 UNL     1      13.525   8.713   7.442  1.00  0.00     0.007 A 
HETATM   18  C21 UNL     1      14.384   9.338   6.601  1.00  0.00     0.013 A 
ENDBRANCH   5  12
ENDBRANCH   1   4
BRANCH   1  19
HETATM   19  N2  UNL     1      18.591   9.683   8.075  1.00  0.00    -0.301 N 
ATOM     20  H2  UNL     1      18.265   8.721   7.991  1.00  0.00     0.173 HD
BRANCH  19  21
HETATM   21  C12 UNL     1      19.730  10.016   8.880  1.00  0.00     0.185 C 
BRANCH  21  22
HETATM   22  C13 UNL     1      19.873   9.285  10.141  1.00  0.00     0.036 C 
BRANCH  22  23
HETATM   23  C14 UNL     1      18.723   9.502  11.111  1.00  0.00     0.006 C 
BRANCH  23  24
HETATM   24  C15 UNL     1      17.793   8.347  11.167  1.00  0.00    -0.023 C 
HETATM   25  C16 UNL     1      17.923   7.647  12.515  1.00  0.00     0.009 C 
HETATM   26  C17 UNL     1      16.384   8.527  10.738  1.00  0.00     0.009 C 
ENDBRANCH  23  24
ENDBRANCH  22  23
ENDBRANCH  21  22
BRANCH  21  27
HETATM   27  C18 UNL     1      20.907   9.980   7.992  1.00  0.00     0.242 C 
HETATM   28  O3  UNL     1      21.117   8.980   7.239  1.00  0.00    -0.271 OA
HETATM   29  N3  UNL     1      21.910  11.015   7.900  1.00  0.00    -0.359 N 
HETATM   30  C19 UNL     1      22.091  12.117   8.772  1.00  0.00     0.152 C 
HETATM   31  C20 UNL     1      22.824  10.919   6.763  1.00  0.00     0.152 C 
ENDBRANCH  21  27
ENDBRANCH  19  21
ENDBRANCH   1  19
TORSDOF 8
ENDMDL
