MODEL 1
REMARK VINA RESULT: -6.629668590      0.000      0.000
REMARK  8 active torsions:
REMARK  status: ('A' for Active; 'I' for Inactive)
REMARK    1  A    between atoms: C2_2  and  N1_3 
REMARK    2  A    between atoms: N1_3  and  C3_4 
REMARK       I    between atoms: N1_3  and  C5_6 
REMARK    3  A    between atoms: C5_6  and  C6_8 
REMARK    4  A    between atoms: C6_8  and  N2_9 
REMARK    5  A    between atoms: C6_8  and  C20_29 
REMARK       I    between atoms: N2_9  and  C7_11 
REMARK       I    between atoms: C7_11  and  N3_13 
REMARK    6  A    between atoms: N3_13  and  C8_15 
REMARK    7  A    between atoms: C10_17  and  N4_18 
REMARK       I    between atoms: N4_18  and  C11_19 
REMARK    8  A    between atoms: N4_18  and  C13_22 
ROOT
HETATM    1  N2  UNL     1      16.615   9.998   8.402  1.00  0.00    -0.329 N 
ATOM      2  H2  UNL     1      16.005  10.752   8.090  1.00  0.00     0.165 HD
HETATM    3  C7  UNL     1      18.037  10.221   8.374  1.00  0.00     0.321 C 
HETATM    4  O2  UNL     1      18.826   9.340   8.758  1.00  0.00    -0.247 OA
HETATM    5  N3  UNL     1      18.558  11.447   7.910  1.00  0.00    -0.308 N 
ATOM      6  H3  UNL     1      17.855  12.106   7.576  1.00  0.00     0.170 HD
ENDROOT
BRANCH   1   7
HETATM    7  C6  UNL     1      16.010   8.784   8.842  1.00  0.00     0.183 C 
BRANCH   7   8
HETATM    8  C5  UNL     1      15.413   8.886  10.200  1.00  0.00     0.243 C 
HETATM    9  N1  UNL     1      15.930   8.221  11.292  1.00  0.00    -0.351 N 
HETATM   10  O1  UNL     1      14.399   9.616  10.330  1.00  0.00    -0.271 OA
BRANCH   9  11
HETATM   11  C2  UNL     1      15.248   8.336  12.599  1.00  0.00     0.121 C 
HETATM   12  C1  UNL     1      14.645   6.990  12.889  1.00  0.00     0.026 C 
ENDBRANCH   9  11
BRANCH   9  13
HETATM   13  C3  UNL     1      17.118   7.420  11.298  1.00  0.00     0.121 C 
HETATM   14  C4  UNL     1      18.268   8.088  12.074  1.00  0.00     0.026 C 
ENDBRANCH   9  13
ENDBRANCH   7   8
BRANCH   7  15
HETATM   15  C20 UNL     1      15.136   8.120   7.858  1.00  0.00     0.022 A 
HETATM   16  C21 UNL     1      15.660   6.744   7.409  1.00  0.00     0.012 A 
HETATM   17  C22 UNL     1      15.263   7.856   6.456  1.00  0.00    -0.012 A 
HETATM   18  C23 UNL     1      16.259   8.327   5.488  1.00  0.00     0.010 C 
ENDBRANCH   7  15
ENDBRANCH   1   7
BRANCH   5  19
HETATM   19  C8  UNL     1      19.867  11.911   7.831  1.00  0.00     0.044 A 
HETATM   20  C9  UNL     1      20.520  12.536   8.861  1.00  0.00     0.059 A 
HETATM   21  C10 UNL     1      21.827  13.041   8.755  1.00  0.00     0.039 A 
HETATM   22  C16 UNL     1      22.439  12.875   7.536  1.00  0.00     0.030 A 
HETATM   23  C17 UNL     1      21.796  12.248   6.495  1.00  0.00     0.011 A 
HETATM   24  C18 UNL     1      20.518  11.756   6.601  1.00  0.00    -0.035 A 
HETATM   25  C19 UNL     1      19.885  11.076   5.434  1.00  0.00     0.050 C 
BRANCH  21  26
HETATM   26  N4  UNL     1      22.459  13.713   9.861  1.00  0.00    -0.314 N 
HETATM   27  C11 UNL     1      23.036  12.897  10.883  1.00  0.00     0.220 C 
HETATM   28  C12 UNL     1      22.970  11.416  10.788  1.00  0.00     0.117 C 
HETATM   29  O3  UNL     1      23.607  13.405  11.876  1.00  0.00    -0.273 OA
BRANCH  26  30
HETATM   30  C13 UNL     1      22.505  15.153   9.939  1.00  0.00     0.085 C 
HETATM   31  C14 UNL     1      23.811  15.658   9.316  1.00  0.00     0.032 C 
HETATM   32  C15 UNL     1      21.327  15.812   9.265  1.00  0.00     0.032 C 
ENDBRANCH  26  30
ENDBRANCH  21  26
ENDBRANCH   5  19
TORSDOF 8
ENDMDL
MODEL 2
REMARK VINA RESULT: -6.620546333      2.916      6.966
REMARK  8 active torsions:
REMARK  status: ('A' for Active; 'I' for Inactive)
REMARK    1  A    between atoms: C2_2  and  N1_3 
REMARK    2  A    between atoms: N1_3  and  C3_4 
REMARK       I    between atoms: N1_3  and  C5_6 
REMARK    3  A    between atoms: C5_6  and  C6_8 
REMARK    4  A    between atoms: C6_8  and  N2_9 
REMARK    5  A    between atoms: C6_8  and  C20_29 
REMARK       I    between atoms: N2_9  and  C7_11 
REMARK       I    between atoms: C7_11  and  N3_13 
REMARK    6  A    between atoms: N3_13  and  C8_15 
REMARK    7  A    between atoms: C10_17  and  N4_18 
REMARK       I    between atoms: N4_18  and  C11_19 
REMARK    8  A    between atoms: N4_18  and  C13_22 
ROOT
HETATM    1  N2  UNL     1      20.460   9.392   9.039  1.00  0.00    -0.329 N 
ATOM      2  H2  UNL     1      20.944   8.573   8.673  1.00  0.00     0.165 HD
HETATM    3  C7  UNL     1      19.711  10.205   8.116  1.00  0.00     0.321 C 
HETATM    4  O2  UNL     1      19.090  11.207   8.511  1.00  0.00    -0.247 OA
HETATM    5  N3  UNL     1      19.670   9.874   6.746  1.00  0.00    -0.308 N 
ATOM      6  H3  UNL     1      20.233   9.063   6.489  1.00  0.00     0.170 HD
ENDROOT
BRANCH   1   7
HETATM    7  C6  UNL     1      20.564   9.666  10.435  1.00  0.00     0.183 C 
BRANCH   7   8
HETATM    8  C5  UNL     1      19.977   8.597  11.285  1.00  0.00     0.243 C 
HETATM    9  N1  UNL     1      18.641   8.567  11.627  1.00  0.00    -0.351 N 
HETATM   10  O1  UNL     1      20.750   7.697  11.695  1.00  0.00    -0.271 OA
BRANCH   9  11
HETATM   11  C2  UNL     1      18.144   7.498  12.519  1.00  0.00     0.121 C 
HETATM   12  C1  UNL     1      16.805   7.077  11.982  1.00  0.00     0.026 C 
ENDBRANCH   9  11
BRANCH   9  13
HETATM   13  C3  UNL     1      17.641   9.486  11.170  1.00  0.00     0.121 C 
HETATM   14  C4  UNL     1      17.549  10.739  12.059  1.00  0.00     0.026 C 
ENDBRANCH   9  13
ENDBRANCH   7   8
BRANCH   7  15
HETATM   15  C20 UNL     1      21.886  10.129  10.892  1.00  0.00     0.022 A 
HETATM   16  C21 UNL     1      21.904  11.613  11.301  1.00  0.00     0.012 A 
HETATM   17  C22 UNL     1      22.875  10.990  10.316  1.00  0.00    -0.012 A 
HETATM   18  C23 UNL     1      22.964  11.568   8.971  1.00  0.00     0.010 C 
ENDBRANCH   7  15
ENDBRANCH   1   7
BRANCH   5  19
HETATM   19  C8  UNL     1      18.991  10.464   5.684  1.00  0.00     0.044 A 
HETATM   20  C9  UNL     1      17.730  10.106   5.288  1.00  0.00     0.059 A 
HETATM   21  C10 UNL     1      17.072  10.678   4.186  1.00  0.00     0.039 A 
HETATM   22  C16 UNL     1      17.772  11.642   3.503  1.00  0.00     0.030 A 
HETATM   23  C17 UNL     1      19.039  12.012   3.889  1.00  0.00     0.011 A 
HETATM   24  C18 UNL     1      19.680  11.451   4.966  1.00  0.00    -0.035 A 
HETATM   25  C19 UNL     1      21.050  11.909   5.338  1.00  0.00     0.050 C 
BRANCH  21  26
HETATM   26  N4  UNL     1      15.754  10.247   3.798  1.00  0.00    -0.314 N 
HETATM   27  C11 UNL     1      15.654   9.372   2.671  1.00  0.00     0.220 C 
HETATM   28  C12 UNL     1      16.875   8.941   1.944  1.00  0.00     0.117 C 
HETATM   29  O3  UNL     1      14.544   8.951   2.272  1.00  0.00    -0.273 OA
BRANCH  26  30
HETATM   30  C13 UNL     1      14.580  10.685   4.512  1.00  0.00     0.085 C 
HETATM   31  C14 UNL     1      14.207   9.641   5.572  1.00  0.00     0.032 C 
HETATM   32  C15 UNL     1      14.760  12.034   5.162  1.00  0.00     0.032 C 
ENDBRANCH  26  30
ENDBRANCH  21  26
ENDBRANCH   5  19
TORSDOF 8
ENDMDL
MODEL 3
REMARK VINA RESULT: -6.476472824      2.121      7.895
REMARK  8 active torsions:
REMARK  status: ('A' for Active; 'I' for Inactive)
REMARK    1  A    between atoms: C2_2  and  N1_3 
REMARK    2  A    between atoms: N1_3  and  C3_4 
REMARK       I    between atoms: N1_3  and  C5_6 
REMARK    3  A    between atoms: C5_6  and  C6_8 
REMARK    4  A    between atoms: C6_8  and  N2_9 
REMARK    5  A    between atoms: C6_8  and  C20_29 
REMARK       I    between atoms: N2_9  and  C7_11 
REMARK       I    between atoms: C7_11  and  N3_13 
REMARK    6  A    between atoms: N3_13  and  C8_15 
REMARK    7  A    between atoms: C10_17  and  N4_18 
REMARK       I    between atoms: N4_18  and  C11_19 
REMARK    8  A    between atoms: N4_18  and  C13_22 
ROOT
HETATM    1  N2  UNL     1      19.423  10.020   6.271  1.00  0.00    -0.329 N 
ATOM      2  H2  UNL     1      19.731   9.156   5.827  1.00  0.00     0.165 HD
HETATM    3  C7  UNL     1      18.248   9.973   7.103  1.00  0.00     0.321 C 
HETATM    4  O2  UNL     1      17.838  10.995   7.679  1.00  0.00    -0.247 OA
HETATM    5  N3  UNL     1      17.546   8.763   7.277  1.00  0.00    -0.308 N 
ATOM      6  H3  UNL     1      17.918   7.977   6.744  1.00  0.00     0.170 HD
ENDROOT
BRANCH   1   7
HETATM    7  C6  UNL     1      20.180  11.205   6.031  1.00  0.00     0.183 C 
BRANCH   7   8
HETATM    8  C5  UNL     1      21.540  11.160   6.629  1.00  0.00     0.243 C 
HETATM    9  N1  UNL     1      22.022  12.151   7.458  1.00  0.00    -0.351 N 
HETATM   10  O1  UNL     1      22.258  10.167   6.354  1.00  0.00    -0.271 OA
BRANCH   9  11
HETATM   11  C2  UNL     1      23.405  12.057   7.972  1.00  0.00     0.121 C 
HETATM   12  C1  UNL     1      23.300  11.888   9.462  1.00  0.00     0.026 C 
ENDBRANCH   9  11
BRANCH   9  13
HETATM   13  C3  UNL     1      21.285  13.294   7.910  1.00  0.00     0.121 C 
HETATM   14  C4  UNL     1      21.617  14.560   7.098  1.00  0.00     0.026 C 
ENDBRANCH   9  13
ENDBRANCH   7   8
BRANCH   7  15
HETATM   15  C20 UNL     1      20.158  11.699   4.643  1.00  0.00     0.022 A 
HETATM   16  C21 UNL     1      19.360  13.005   4.474  1.00  0.00     0.012 A 
HETATM   17  C22 UNL     1      19.137  11.757   3.640  1.00  0.00    -0.012 A 
HETATM   18  C23 UNL     1      17.794  11.170   3.618  1.00  0.00     0.010 C 
ENDBRANCH   7  15
ENDBRANCH   1   7
BRANCH   5  19
HETATM   19  C8  UNL     1      16.432   8.458   8.054  1.00  0.00     0.044 A 
HETATM   20  C9  UNL     1      16.419   8.501   9.423  1.00  0.00     0.059 A 
HETATM   21  C10 UNL     1      15.302   8.147  10.198  1.00  0.00     0.039 A 
HETATM   22  C16 UNL     1      14.189   7.745   9.500  1.00  0.00     0.030 A 
HETATM   23  C17 UNL     1      14.188   7.697   8.126  1.00  0.00     0.011 A 
HETATM   24  C18 UNL     1      15.282   8.044   7.371  1.00  0.00    -0.035 A 
HETATM   25  C19 UNL     1      15.207   7.981   5.882  1.00  0.00     0.050 C 
BRANCH  21  26
HETATM   26  N4  UNL     1      15.349   8.187  11.637  1.00  0.00    -0.314 N 
HETATM   27  C11 UNL     1      15.161   9.457  12.266  1.00  0.00     0.220 C 
HETATM   28  C12 UNL     1      14.931  10.674  11.447  1.00  0.00     0.117 C 
HETATM   29  O3  UNL     1      15.185   9.574  13.513  1.00  0.00    -0.273 OA
BRANCH  26  30
HETATM   30  C13 UNL     1      15.583   6.994  12.414  1.00  0.00     0.085 C 
HETATM   31  C14 UNL     1      16.924   7.116  13.147  1.00  0.00     0.032 C 
HETATM   32  C15 UNL     1      14.480   6.717  13.406  1.00  0.00     0.032 C 
ENDBRANCH  26  30
ENDBRANCH  21  26
ENDBRANCH   5  19
TORSDOF 8
ENDMDL
MODEL 4
REMARK VINA RESULT: -6.459592043      2.308      4.161
REMARK  8 active torsions:
REMARK  status: ('A' for Active; 'I' for Inactive)
REMARK    1  A    between atoms: C2_2  and  N1_3 
REMARK    2  A    between atoms: N1_3  and  C3_4 
REMARK       I    between atoms: N1_3  and  C5_6 
REMARK    3  A    between atoms: C5_6  and  C6_8 
REMARK    4  A    between atoms: C6_8  and  N2_9 
REMARK    5  A    between atoms: C6_8  and  C20_29 
REMARK       I    between atoms: N2_9  and  C7_11 
REMARK       I    between atoms: C7_11  and  N3_13 
REMARK    6  A    between atoms: N3_13  and  C8_15 
REMARK    7  A    between atoms: C10_17  and  N4_18 
REMARK       I    between atoms: N4_18  and  C11_19 
REMARK    8  A    between atoms: N4_18  and  C13_22 
ROOT
HETATM    1  N2  UNL     1      16.855   8.381   9.831  1.00  0.00    -0.329 N 
ATOM      2  H2  UNL     1      17.094   7.609   9.208  1.00  0.00     0.165 HD
HETATM    3  C7  UNL     1      17.860   9.380  10.086  1.00  0.00     0.321 C 
HETATM    4  O2  UNL     1      17.618  10.349  10.826  1.00  0.00    -0.247 OA
HETATM    5  N3  UNL     1      19.137   9.274   9.498  1.00  0.00    -0.308 N 
ATOM      6  H3  UNL     1      19.276   8.434   8.936  1.00  0.00     0.170 HD
ENDROOT
BRANCH   1   7
HETATM    7  C6  UNL     1      15.546   8.407  10.396  1.00  0.00     0.183 C 
BRANCH   7   8
HETATM    8  C5  UNL     1      14.467   8.379   9.375  1.00  0.00     0.243 C 
HETATM    9  N1  UNL     1      13.477   9.337   9.311  1.00  0.00    -0.351 N 
HETATM   10  O1  UNL     1      14.482   7.435   8.547  1.00  0.00    -0.271 OA
BRANCH   9  11
HETATM   11  C2  UNL     1      12.410   9.210   8.296  1.00  0.00     0.121 C 
HETATM   12  C1  UNL     1      11.104   9.235   9.040  1.00  0.00     0.026 C 
ENDBRANCH   9  11
BRANCH   9  13
HETATM   13  C3  UNL     1      13.386  10.500  10.143  1.00  0.00     0.121 C 
HETATM   14  C4  UNL     1      14.137  11.704   9.547  1.00  0.00     0.026 C 
ENDBRANCH   9  13
ENDBRANCH   7   8
BRANCH   7  15
HETATM   15  C20 UNL     1      15.325   7.479  11.521  1.00  0.00     0.022 A 
HETATM   16  C21 UNL     1      15.032   8.194  12.852  1.00  0.00     0.012 A 
HETATM   17  C22 UNL     1      16.101   7.133  12.673  1.00  0.00    -0.012 A 
HETATM   18  C23 UNL     1      17.483   7.477  13.025  1.00  0.00     0.010 C 
ENDBRANCH   7  15
ENDBRANCH   1   7
BRANCH   5  19
HETATM   19  C8  UNL     1      20.241  10.120   9.554  1.00  0.00     0.044 A 
HETATM   20  C9  UNL     1      20.371  11.258   8.802  1.00  0.00     0.059 A 
HETATM   21  C10 UNL     1      21.510  12.080   8.833  1.00  0.00     0.039 A 
HETATM   22  C16 UNL     1      22.517  11.679   9.677  1.00  0.00     0.030 A 
HETATM   23  C17 UNL     1      22.400  10.540  10.437  1.00  0.00     0.011 A 
HETATM   24  C18 UNL     1      21.286   9.738  10.405  1.00  0.00    -0.035 A 
HETATM   25  C19 UNL     1      21.220   8.522  11.266  1.00  0.00     0.050 C 
BRANCH  21  26
HETATM   26  N4  UNL     1      21.606  13.253   8.003  1.00  0.00    -0.314 N 
HETATM   27  C11 UNL     1      21.080  14.474   8.529  1.00  0.00     0.220 C 
HETATM   28  C12 UNL     1      20.461  14.507   9.878  1.00  0.00     0.117 C 
HETATM   29  O3  UNL     1      21.129  15.539   7.870  1.00  0.00    -0.273 OA
BRANCH  26  30
HETATM   30  C13 UNL     1      22.203  13.199   6.691  1.00  0.00     0.085 C 
HETATM   31  C14 UNL     1      23.710  13.459   6.804  1.00  0.00     0.032 C 
HETATM   32  C15 UNL     1      21.962  11.884   5.993  1.00  0.00     0.032 C 
ENDBRANCH  26  30
ENDBRANCH  21  26
ENDBRANCH   5  19
TORSDOF 8
ENDMDL
MODEL 5
REMARK VINA RESULT: -6.449287455      2.303      8.293
REMARK  8 active torsions:
REMARK  status: ('A' for Active; 'I' for Inactive)
REMARK    1  A    between atoms: C2_2  and  N1_3 
REMARK    2  A    between atoms: N1_3  and  C3_4 
REMARK       I    between atoms: N1_3  and  C5_6 
REMARK    3  A    between atoms: C5_6  and  C6_8 
REMARK    4  A    between atoms: C6_8  and  N2_9 
REMARK    5  A    between atoms: C6_8  and  C20_29 
REMARK       I    between atoms: N2_9  and  C7_11 
REMARK       I    between atoms: C7_11  and  N3_13 
REMARK    6  A    between atoms: N3_13  and  C8_15 
REMARK    7  A    between atoms: C10_17  and  N4_18 
REMARK       I    between atoms: N4_18  and  C11_19 
REMARK    8  A    between atoms: N4_18  and  C13_22 
ROOT
HETATM    1  N2  UNL     1      19.673   9.913   7.484  1.00  0.00    -0.329 N 
ATOM      2  H2  UNL     1      20.002   8.965   7.302  1.00  0.00     0.165 HD
HETATM    3  C7  UNL     1      18.560  10.082   8.383  1.00  0.00     0.321 C 
HETATM    4  O2  UNL     1      18.129  11.217   8.652  1.00  0.00    -0.247 OA
HETATM    5  N3  UNL     1      17.945   8.960   8.976  1.00  0.00    -0.308 N 
ATOM      6  H3  UNL     1      18.327   8.062   8.680  1.00  0.00     0.170 HD
ENDROOT
BRANCH   1   7
HETATM    7  C6  UNL     1      20.341  10.992   6.834  1.00  0.00     0.183 C 
BRANCH   7   8
HETATM    8  C5  UNL     1      21.772  11.110   7.217  1.00  0.00     0.243 C 
HETATM    9  N1  UNL     1      22.191  11.828   8.318  1.00  0.00    -0.351 N 
HETATM   10  O1  UNL     1      22.613  10.521   6.494  1.00  0.00    -0.271 OA
BRANCH   9  11
HETATM   11  C2  UNL     1      23.637  11.939   8.603  1.00  0.00     0.121 C 
HETATM   12  C1  UNL     1      23.918  13.396   8.842  1.00  0.00     0.026 C 
ENDBRANCH   9  11
BRANCH   9  13
HETATM   13  C3  UNL     1      21.336  12.482   9.264  1.00  0.00     0.121 C 
HETATM   14  C4  UNL     1      21.141  11.652  10.545  1.00  0.00     0.026 C 
ENDBRANCH   9  13
ENDBRANCH   7   8
BRANCH   7  15
HETATM   15  C20 UNL     1      20.103  11.099   5.383  1.00  0.00     0.022 A 
HETATM   16  C21 UNL     1      19.672  12.509   4.939  1.00  0.00     0.012 A 
HETATM   17  C22 UNL     1      18.918  11.239   4.592  1.00  0.00    -0.012 A 
HETATM   18  C23 UNL     1      17.505  11.146   4.974  1.00  0.00     0.010 C 
ENDBRANCH   7  15
ENDBRANCH   1   7
BRANCH   5  19
HETATM   19  C8  UNL     1      16.905   8.870   9.896  1.00  0.00     0.044 A 
HETATM   20  C9  UNL     1      15.581   9.009   9.571  1.00  0.00     0.059 A 
HETATM   21  C10 UNL     1      14.543   8.961  10.516  1.00  0.00     0.039 A 
HETATM   22  C16 UNL     1      14.926   8.762  11.820  1.00  0.00     0.030 A 
HETATM   23  C17 UNL     1      16.250   8.620  12.160  1.00  0.00     0.011 A 
HETATM   24  C18 UNL     1      17.264   8.667  11.235  1.00  0.00    -0.035 A 
HETATM   25  C19 UNL     1      18.679   8.493  11.672  1.00  0.00     0.050 C 
BRANCH  21  26
HETATM   26  N4  UNL     1      13.169   9.138  10.124  1.00  0.00    -0.314 N 
HETATM   27  C11 UNL     1      12.681  10.478  10.023  1.00  0.00     0.220 C 
HETATM   28  C12 UNL     1      13.575  11.627  10.317  1.00  0.00     0.117 C 
HETATM   29  O3  UNL     1      11.499  10.716   9.685  1.00  0.00    -0.273 OA
BRANCH  26  30
HETATM   30  C13 UNL     1      12.314   8.008   9.850  1.00  0.00     0.085 C 
HETATM   31  C14 UNL     1      13.074   6.988   8.995  1.00  0.00     0.032 C 
HETATM   32  C15 UNL     1      11.801   7.346  11.105  1.00  0.00     0.032 C 
ENDBRANCH  26  30
ENDBRANCH  21  26
ENDBRANCH   5  19
TORSDOF 8
ENDMDL
