MODEL 1
REMARK VINA RESULT: -6.936923404      0.000      0.000
REMARK  13 active torsions:
REMARK  status: ('A' for Active; 'I' for Inactive)
REMARK    1  A    between atoms: C6_6  and  O1_7 
REMARK    2  A    between atoms: C6_6  and  C7_9 
REMARK    3  A    between atoms: C7_9  and  C8_11 
REMARK    4  A    between atoms: C8_11  and  C10_13 
REMARK    5  A    between atoms: C10_13  and  O3_14 
REMARK    6  A    between atoms: C10_13  and  C11_16 
REMARK    7  A    between atoms: C11_16  and  O4_18 
REMARK    8  A    between atoms: O4_18  and  C13_19 
REMARK    9  A    between atoms: C13_19  and  O6_21 
REMARK   10  A    between atoms: O6_21  and  C14_22 
REMARK   11  A    between atoms: C19_27  and  C20_28 
REMARK   12  A    between atoms: C20_28  and  C21_29 
REMARK   13  A    between atoms: C25_33  and  O7_34 
ROOT
HETATM    1  C1  UNL     1     -15.069 -31.999  28.389  1.00  0.00     0.017 C 
HETATM    2  C2  UNL     1     -16.284 -31.549  28.666  1.00  0.00    -0.057 C 
HETATM    3  C3  UNL     1     -16.320 -30.324  29.513  1.00  0.00     0.036 C 
HETATM    4  C4  UNL     1     -17.186 -30.556  30.752  1.00  0.00     0.008 C 
HETATM    5  C5  UNL     1     -17.187 -31.972  31.181  1.00  0.00     0.046 C 
HETATM    6  C6  UNL     1     -18.457 -32.736  31.031  1.00  0.00     0.122 C 
HETATM    7  C17 UNL     1     -19.357 -32.378  29.920  1.00  0.00     0.082 C 
HETATM    8  C18 UNL     1     -18.672 -31.982  28.632  1.00  0.00    -0.048 C 
HETATM    9  C19 UNL     1     -19.434 -31.145  27.962  1.00  0.00    -0.017 C 
HETATM   10  C25 UNL     1     -17.368 -32.372  28.060  1.00  0.00     0.175 C 
ENDROOT
BRANCH   6  11
HETATM   11  O1  UNL     1     -18.107 -34.081  30.900  1.00  0.00    -0.382 OA
ATOM     12  H1  UNL     1     -18.880 -34.589  31.118  1.00  0.00     0.211 HD
ENDBRANCH   6  11
BRANCH   6  13
HETATM   13  C7  UNL     1     -19.273 -32.654  32.314  1.00  0.00     0.168 C 
HETATM   14  O2  UNL     1     -19.564 -31.510  32.632  1.00  0.00    -0.294 OA
BRANCH  13  15
HETATM   15  C8  UNL     1     -19.663 -33.861  33.079  1.00  0.00     0.089 C 
HETATM   16  C9  UNL     1     -20.971 -34.473  32.624  1.00  0.00     0.021 C 
BRANCH  15  17
HETATM   17  C10 UNL     1     -19.525 -33.750  34.555  1.00  0.00     0.185 C 
BRANCH  17  18
HETATM   18  O3  UNL     1     -20.629 -33.042  35.042  1.00  0.00    -0.388 OA
ATOM     19  H3  UNL     1     -20.420 -32.734  35.915  1.00  0.00     0.210 HD
ENDBRANCH  17  18
BRANCH  17  20
HETATM   20  C11 UNL     1     -18.257 -33.110  34.933  1.00  0.00     0.079 C 
HETATM   21  C12 UNL     1     -17.118 -33.666  34.594  1.00  0.00     0.049 C 
BRANCH  20  22
HETATM   22  O4  UNL     1     -18.290 -31.926  35.647  1.00  0.00    -0.258 OA
BRANCH  22  23
HETATM   23  C13 UNL     1     -17.315 -30.933  35.514  1.00  0.00     0.411 C 
HETATM   24  O5  UNL     1     -16.679 -30.629  36.548  1.00  0.00    -0.229 OA
BRANCH  23  25
HETATM   25  O6  UNL     1     -17.051 -30.308  34.319  1.00  0.00    -0.293 OA
BRANCH  25  26
HETATM   26  C14 UNL     1     -16.263 -29.113  34.235  1.00  0.00     0.126 C 
HETATM   27  C15 UNL     1     -17.123 -28.079  33.561  1.00  0.00     0.040 C 
HETATM   28  C16 UNL     1     -15.030 -29.363  33.419  1.00  0.00     0.040 C 
ENDBRANCH  25  26
ENDBRANCH  23  25
ENDBRANCH  22  23
ENDBRANCH  20  22
ENDBRANCH  17  20
ENDBRANCH  15  17
ENDBRANCH  13  15
ENDBRANCH   6  13
BRANCH   9  29
HETATM   29  C20 UNL     1     -19.175 -30.505  26.665  1.00  0.00     0.054 C 
BRANCH  29  30
HETATM   30  C21 UNL     1     -18.579 -29.142  26.815  1.00  0.00    -0.021 C 
HETATM   31  C22 UNL     1     -17.420 -28.891  26.240  1.00  0.00    -0.091 C 
HETATM   32  C23 UNL     1     -16.858 -27.499  26.422  1.00  0.00     0.042 C 
HETATM   33  C24 UNL     1     -16.615 -29.810  25.427  1.00  0.00     0.042 C 
ENDBRANCH  29  30
ENDBRANCH   9  29
BRANCH  10  34
HETATM   34  O7  UNL     1     -17.113 -33.741  28.241  1.00  0.00    -0.387 OA
ATOM     35  H7  UNL     1     -17.676 -34.101  28.916  1.00  0.00     0.210 HD
ENDBRANCH  10  34
TORSDOF 13
ENDMDL
MODEL 2
REMARK VINA RESULT: -6.848354635      2.826      7.558
REMARK  13 active torsions:
REMARK  status: ('A' for Active; 'I' for Inactive)
REMARK    1  A    between atoms: C6_6  and  O1_7 
REMARK    2  A    between atoms: C6_6  and  C7_9 
REMARK    3  A    between atoms: C7_9  and  C8_11 
REMARK    4  A    between atoms: C8_11  and  C10_13 
REMARK    5  A    between atoms: C10_13  and  O3_14 
REMARK    6  A    between atoms: C10_13  and  C11_16 
REMARK    7  A    between atoms: C11_16  and  O4_18 
REMARK    8  A    between atoms: O4_18  and  C13_19 
REMARK    9  A    between atoms: C13_19  and  O6_21 
REMARK   10  A    between atoms: O6_21  and  C14_22 
REMARK   11  A    between atoms: C19_27  and  C20_28 
REMARK   12  A    between atoms: C20_28  and  C21_29 
REMARK   13  A    between atoms: C25_33  and  O7_34 
ROOT
HETATM    1  C1  UNL     1     -15.954 -32.016  35.584  1.00  0.00     0.017 C 
HETATM    2  C2  UNL     1     -16.304 -31.831  34.319  1.00  0.00    -0.057 C 
HETATM    3  C3  UNL     1     -15.296 -32.279  33.318  1.00  0.00     0.036 C 
HETATM    4  C4  UNL     1     -14.942 -31.136  32.367  1.00  0.00     0.008 C 
HETATM    5  C5  UNL     1     -15.075 -29.809  33.007  1.00  0.00     0.046 C 
HETATM    6  C6  UNL     1     -16.166 -28.917  32.525  1.00  0.00     0.122 C 
HETATM    7  C17 UNL     1     -17.406 -29.542  32.028  1.00  0.00     0.082 C 
HETATM    8  C18 UNL     1     -17.849 -30.783  32.768  1.00  0.00    -0.048 C 
HETATM    9  C19 UNL     1     -18.524 -31.567  31.957  1.00  0.00    -0.017 C 
HETATM   10  C25 UNL     1     -17.650 -31.208  34.168  1.00  0.00     0.175 C 
ENDROOT
BRANCH   6  11
HETATM   11  O1  UNL     1     -16.494 -28.069  33.585  1.00  0.00    -0.382 OA
ATOM     12  H1  UNL     1     -17.060 -28.563  34.167  1.00  0.00     0.211 HD
ENDBRANCH   6  11
BRANCH   6  13
HETATM   13  C7  UNL     1     -15.650 -28.005  31.421  1.00  0.00     0.168 C 
HETATM   14  O2  UNL     1     -16.161 -26.895  31.429  1.00  0.00    -0.294 OA
BRANCH  13  15
HETATM   15  C8  UNL     1     -14.624 -28.448  30.448  1.00  0.00     0.089 C 
HETATM   16  C9  UNL     1     -13.239 -27.910  30.738  1.00  0.00     0.021 C 
BRANCH  15  17
HETATM   17  C10 UNL     1     -15.024 -28.358  29.019  1.00  0.00     0.185 C 
BRANCH  17  18
HETATM   18  O3  UNL     1     -15.452 -27.051  28.770  1.00  0.00    -0.388 OA
ATOM     19  H3  UNL     1     -16.362 -27.085  28.498  1.00  0.00     0.210 HD
ENDBRANCH  17  18
BRANCH  17  20
HETATM   20  C11 UNL     1     -16.061 -29.345  28.684  1.00  0.00     0.079 C 
HETATM   21  C12 UNL     1     -15.806 -30.627  28.801  1.00  0.00     0.049 C 
BRANCH  20  22
HETATM   22  O4  UNL     1     -17.296 -28.899  28.247  1.00  0.00    -0.258 OA
BRANCH  22  23
HETATM   23  C13 UNL     1     -17.556 -28.574  26.913  1.00  0.00     0.411 C 
HETATM   24  O5  UNL     1     -17.662 -27.356  26.643  1.00  0.00    -0.229 OA
BRANCH  23  25
HETATM   25  O6  UNL     1     -17.691 -29.524  25.930  1.00  0.00    -0.293 OA
BRANCH  25  26
HETATM   26  C14 UNL     1     -18.932 -30.200  25.681  1.00  0.00     0.126 C 
HETATM   27  C15 UNL     1     -18.811 -31.562  26.307  1.00  0.00     0.040 C 
HETATM   28  C16 UNL     1     -19.160 -30.334  24.204  1.00  0.00     0.040 C 
ENDBRANCH  25  26
ENDBRANCH  23  25
ENDBRANCH  22  23
ENDBRANCH  20  22
ENDBRANCH  17  20
ENDBRANCH  15  17
ENDBRANCH  13  15
ENDBRANCH   6  13
BRANCH   9  29
HETATM   29  C20 UNL     1     -19.143 -32.870  32.242  1.00  0.00     0.054 C 
BRANCH  29  30
HETATM   30  C21 UNL     1     -18.225 -34.010  31.937  1.00  0.00    -0.021 C 
HETATM   31  C22 UNL     1     -17.950 -34.875  32.893  1.00  0.00    -0.091 C 
HETATM   32  C23 UNL     1     -17.017 -36.010  32.535  1.00  0.00     0.042 C 
HETATM   33  C24 UNL     1     -18.459 -34.868  34.269  1.00  0.00     0.042 C 
ENDBRANCH  29  30
ENDBRANCH   9  29
BRANCH  10  34
HETATM   34  O7  UNL     1     -17.805 -30.136  35.061  1.00  0.00    -0.387 OA
ATOM     35  H7  UNL     1     -18.716 -30.037  35.312  1.00  0.00     0.210 HD
ENDBRANCH  10  34
TORSDOF 13
ENDMDL
MODEL 3
REMARK VINA RESULT: -6.822758560      3.566      7.359
REMARK  13 active torsions:
REMARK  status: ('A' for Active; 'I' for Inactive)
REMARK    1  A    between atoms: C6_6  and  O1_7 
REMARK    2  A    between atoms: C6_6  and  C7_9 
REMARK    3  A    between atoms: C7_9  and  C8_11 
REMARK    4  A    between atoms: C8_11  and  C10_13 
REMARK    5  A    between atoms: C10_13  and  O3_14 
REMARK    6  A    between atoms: C10_13  and  C11_16 
REMARK    7  A    between atoms: C11_16  and  O4_18 
REMARK    8  A    between atoms: O4_18  and  C13_19 
REMARK    9  A    between atoms: C13_19  and  O6_21 
REMARK   10  A    between atoms: O6_21  and  C14_22 
REMARK   11  A    between atoms: C19_27  and  C20_28 
REMARK   12  A    between atoms: C20_28  and  C21_29 
REMARK   13  A    between atoms: C25_33  and  O7_34 
ROOT
HETATM    1  C1  UNL     1     -13.717 -33.784  29.579  1.00  0.00     0.017 C 
HETATM    2  C2  UNL     1     -15.002 -33.896  29.274  1.00  0.00    -0.057 C 
HETATM    3  C3  UNL     1     -15.379 -35.177  28.614  1.00  0.00     0.036 C 
HETATM    4  C4  UNL     1     -16.093 -34.906  27.289  1.00  0.00     0.008 C 
HETATM    5  C5  UNL     1     -15.651 -33.643  26.660  1.00  0.00     0.046 C 
HETATM    6  C6  UNL     1     -16.634 -32.525  26.594  1.00  0.00     0.122 C 
HETATM    7  C17 UNL     1     -17.635 -32.416  27.669  1.00  0.00     0.082 C 
HETATM    8  C18 UNL     1     -17.145 -32.781  29.052  1.00  0.00    -0.048 C 
HETATM    9  C19 UNL     1     -18.147 -33.234  29.774  1.00  0.00    -0.017 C 
HETATM   10  C25 UNL     1     -15.804 -32.703  29.664  1.00  0.00     0.175 C 
ENDROOT
BRANCH   6  11
HETATM   11  O1  UNL     1     -15.897 -31.340  26.555  1.00  0.00    -0.382 OA
ATOM     12  H1  UNL     1     -15.979 -30.993  25.675  1.00  0.00     0.211 HD
ENDBRANCH   6  11
BRANCH   6  13
HETATM   13  C7  UNL     1     -17.394 -32.571  25.275  1.00  0.00     0.168 C 
HETATM   14  O2  UNL     1     -16.774 -33.121  24.376  1.00  0.00    -0.294 OA
BRANCH  13  15
HETATM   15  C8  UNL     1     -18.753 -31.999  25.128  1.00  0.00     0.089 C 
HETATM   16  C9  UNL     1     -19.753 -32.959  24.521  1.00  0.00     0.021 C 
BRANCH  15  17
HETATM   17  C10 UNL     1     -18.805 -30.627  24.560  1.00  0.00     0.185 C 
BRANCH  17  18
HETATM   18  O3  UNL     1     -17.855 -30.544  23.537  1.00  0.00    -0.388 OA
ATOM     19  H3  UNL     1     -17.005 -30.753  23.907  1.00  0.00     0.210 HD
ENDBRANCH  17  18
BRANCH  17  20
HETATM   20  C11 UNL     1     -18.586 -29.604  25.593  1.00  0.00     0.079 C 
HETATM   21  C12 UNL     1     -19.503 -29.390  26.507  1.00  0.00     0.049 C 
BRANCH  20  22
HETATM   22  O4  UNL     1     -17.406 -28.881  25.581  1.00  0.00    -0.258 OA
BRANCH  22  23
HETATM   23  C13 UNL     1     -17.001 -28.074  26.648  1.00  0.00     0.411 C 
HETATM   24  O5  UNL     1     -17.303 -26.861  26.581  1.00  0.00    -0.229 OA
BRANCH  23  25
HETATM   25  O6  UNL     1     -16.305 -28.564  27.727  1.00  0.00    -0.293 OA
BRANCH  25  26
HETATM   26  C14 UNL     1     -15.141 -27.911  28.252  1.00  0.00     0.126 C 
HETATM   27  C15 UNL     1     -13.952 -28.601  27.644  1.00  0.00     0.040 C 
HETATM   28  C16 UNL     1     -15.102 -28.045  29.746  1.00  0.00     0.040 C 
ENDBRANCH  25  26
ENDBRANCH  23  25
ENDBRANCH  22  23
ENDBRANCH  20  22
ENDBRANCH  17  20
ENDBRANCH  15  17
ENDBRANCH  13  15
ENDBRANCH   6  13
BRANCH   9  29
HETATM   29  C20 UNL     1     -18.137 -33.702  31.167  1.00  0.00     0.054 C 
BRANCH  29  30
HETATM   30  C21 UNL     1     -19.505 -33.713  31.770  1.00  0.00    -0.021 C 
HETATM   31  C22 UNL     1     -19.756 -34.553  32.754  1.00  0.00    -0.091 C 
HETATM   32  C23 UNL     1     -21.154 -34.527  33.330  1.00  0.00     0.042 C 
HETATM   33  C24 UNL     1     -18.824 -35.507  33.367  1.00  0.00     0.042 C 
ENDBRANCH  29  30
ENDBRANCH   9  29
BRANCH  10  34
HETATM   34  O7  UNL     1     -15.140 -31.518  29.306  1.00  0.00    -0.387 OA
ATOM     35  H7  UNL     1     -15.132 -30.905  30.032  1.00  0.00     0.210 HD
ENDBRANCH  10  34
TORSDOF 13
ENDMDL
MODEL 4
REMARK VINA RESULT: -6.817169483      2.336      4.666
REMARK  13 active torsions:
REMARK  status: ('A' for Active; 'I' for Inactive)
REMARK    1  A    between atoms: C6_6  and  O1_7 
REMARK    2  A    between atoms: C6_6  and  C7_9 
REMARK    3  A    between atoms: C7_9  and  C8_11 
REMARK    4  A    between atoms: C8_11  and  C10_13 
REMARK    5  A    between atoms: C10_13  and  O3_14 
REMARK    6  A    between atoms: C10_13  and  C11_16 
REMARK    7  A    between atoms: C11_16  and  O4_18 
REMARK    8  A    between atoms: O4_18  and  C13_19 
REMARK    9  A    between atoms: C13_19  and  O6_21 
REMARK   10  A    between atoms: O6_21  and  C14_22 
REMARK   11  A    between atoms: C19_27  and  C20_28 
REMARK   12  A    between atoms: C20_28  and  C21_29 
REMARK   13  A    between atoms: C25_33  and  O7_34 
ROOT
HETATM    1  C1  UNL     1     -19.858 -29.068  27.062  1.00  0.00     0.017 C 
HETATM    2  C2  UNL     1     -18.864 -29.941  27.135  1.00  0.00    -0.057 C 
HETATM    3  C3  UNL     1     -19.207 -31.225  27.808  1.00  0.00     0.036 C 
HETATM    4  C4  UNL     1     -18.237 -31.503  28.956  1.00  0.00     0.008 C 
HETATM    5  C5  UNL     1     -17.709 -30.260  29.561  1.00  0.00     0.046 C 
HETATM    6  C6  UNL     1     -16.264 -29.957  29.363  1.00  0.00     0.122 C 
HETATM    7  C17 UNL     1     -15.622 -30.414  28.118  1.00  0.00     0.082 C 
HETATM    8  C18 UNL     1     -16.485 -30.342  26.879  1.00  0.00    -0.048 C 
HETATM    9  C19 UNL     1     -16.110 -31.267  26.022  1.00  0.00    -0.017 C 
HETATM   10  C25 UNL     1     -17.602 -29.447  26.518  1.00  0.00     0.175 C 
ENDROOT
BRANCH   6  11
HETATM   11  O1  UNL     1     -16.126 -28.570  29.448  1.00  0.00    -0.382 OA
ATOM     12  H1  UNL     1     -16.382 -28.321  30.328  1.00  0.00     0.211 HD
ENDBRANCH   6  11
BRANCH   6  13
HETATM   13  C7  UNL     1     -15.448 -30.516  30.520  1.00  0.00     0.168 C 
HETATM   14  O2  UNL     1     -14.398 -31.034  30.169  1.00  0.00    -0.294 OA
BRANCH  13  15
HETATM   15  C8  UNL     1     -15.907 -30.424  31.926  1.00  0.00     0.089 C 
HETATM   16  C9  UNL     1     -15.130 -29.423  32.754  1.00  0.00     0.021 C 
BRANCH  15  17
HETATM   17  C10 UNL     1     -16.139 -31.726  32.605  1.00  0.00     0.185 C 
BRANCH  17  18
HETATM   18  O3  UNL     1     -16.053 -32.738  31.643  1.00  0.00    -0.388 OA
ATOM     19  H3  UNL     1     -15.136 -32.957  31.527  1.00  0.00     0.210 HD
ENDBRANCH  17  18
BRANCH  17  20
HETATM   20  C11 UNL     1     -17.430 -31.748  33.307  1.00  0.00     0.079 C 
HETATM   21  C12 UNL     1     -18.497 -31.249  32.729  1.00  0.00     0.049 C 
BRANCH  20  22
HETATM   22  O4  UNL     1     -17.495 -32.299  34.575  1.00  0.00    -0.258 OA
BRANCH  22  23
HETATM   23  C13 UNL     1     -18.419 -31.882  35.536  1.00  0.00     0.411 C 
HETATM   24  O5  UNL     1     -18.085 -30.910  36.251  1.00  0.00    -0.229 OA
BRANCH  23  25
HETATM   25  O6  UNL     1     -19.639 -32.491  35.707  1.00  0.00    -0.293 OA
BRANCH  25  26
HETATM   26  C14 UNL     1     -19.877 -33.853  35.327  1.00  0.00     0.126 C 
HETATM   27  C15 UNL     1     -20.803 -33.812  34.143  1.00  0.00     0.040 C 
HETATM   28  C16 UNL     1     -20.524 -34.599  36.457  1.00  0.00     0.040 C 
ENDBRANCH  25  26
ENDBRANCH  23  25
ENDBRANCH  22  23
ENDBRANCH  20  22
ENDBRANCH  17  20
ENDBRANCH  15  17
ENDBRANCH  13  15
ENDBRANCH   6  13
BRANCH   9  29
HETATM   29  C20 UNL     1     -16.662 -31.564  24.692  1.00  0.00     0.054 C 
BRANCH  29  30
HETATM   30  C21 UNL     1     -17.765 -32.572  24.749  1.00  0.00    -0.021 C 
HETATM   31  C22 UNL     1     -18.944 -32.248  24.257  1.00  0.00    -0.091 C 
HETATM   32  C23 UNL     1     -20.027 -33.301  24.340  1.00  0.00     0.042 C 
HETATM   33  C24 UNL     1     -19.324 -30.981  23.624  1.00  0.00     0.042 C 
ENDBRANCH  29  30
ENDBRANCH   9  29
BRANCH  10  34
HETATM   34  O7  UNL     1     -17.346 -28.121  26.902  1.00  0.00    -0.387 OA
ATOM     35  H7  UNL     1     -16.560 -27.794  26.481  1.00  0.00     0.210 HD
ENDBRANCH  10  34
TORSDOF 13
ENDMDL
MODEL 5
REMARK VINA RESULT: -6.802354517      2.528      7.662
REMARK  13 active torsions:
REMARK  status: ('A' for Active; 'I' for Inactive)
REMARK    1  A    between atoms: C6_6  and  O1_7 
REMARK    2  A    between atoms: C6_6  and  C7_9 
REMARK    3  A    between atoms: C7_9  and  C8_11 
REMARK    4  A    between atoms: C8_11  and  C10_13 
REMARK    5  A    between atoms: C10_13  and  O3_14 
REMARK    6  A    between atoms: C10_13  and  C11_16 
REMARK    7  A    between atoms: C11_16  and  O4_18 
REMARK    8  A    between atoms: O4_18  and  C13_19 
REMARK    9  A    between atoms: C13_19  and  O6_21 
REMARK   10  A    between atoms: O6_21  and  C14_22 
REMARK   11  A    between atoms: C19_27  and  C20_28 
REMARK   12  A    between atoms: C20_28  and  C21_29 
REMARK   13  A    between atoms: C25_33  and  O7_34 
ROOT
HETATM    1  C1  UNL     1     -17.892 -30.733  34.459  1.00  0.00     0.017 C 
HETATM    2  C2  UNL     1     -17.904 -31.924  33.877  1.00  0.00    -0.057 C 
HETATM    3  C3  UNL     1     -17.008 -32.935  34.505  1.00  0.00     0.036 C 
HETATM    4  C4  UNL     1     -16.052 -33.521  33.466  1.00  0.00     0.008 C 
HETATM    5  C5  UNL     1     -15.740 -32.562  32.383  1.00  0.00     0.046 C 
HETATM    6  C6  UNL     1     -16.264 -32.864  31.022  1.00  0.00     0.122 C 
HETATM    7  C17 UNL     1     -17.539 -33.594  30.914  1.00  0.00     0.082 C 
HETATM    8  C18 UNL     1     -18.577 -33.244  31.956  1.00  0.00    -0.048 C 
HETATM    9  C19 UNL     1     -19.359 -34.280  32.171  1.00  0.00    -0.017 C 
HETATM   10  C25 UNL     1     -18.824 -31.998  32.708  1.00  0.00     0.175 C 
ENDROOT
BRANCH   6  11
HETATM   11  O1  UNL     1     -16.397 -31.642  30.359  1.00  0.00    -0.382 OA
ATOM     12  H1  UNL     1     -17.329 -31.470  30.285  1.00  0.00     0.211 HD
ENDBRANCH   6  11
BRANCH   6  13
HETATM   13  C7  UNL     1     -15.230 -33.646  30.224  1.00  0.00     0.168 C 
HETATM   14  O2  UNL     1     -14.083 -33.471  30.610  1.00  0.00    -0.294 OA
BRANCH  13  15
HETATM   15  C8  UNL     1     -15.608 -34.529  29.095  1.00  0.00     0.089 C 
HETATM   16  C9  UNL     1     -15.103 -35.948  29.238  1.00  0.00     0.021 C 
BRANCH  15  17
HETATM   17  C10 UNL     1     -15.411 -33.947  27.741  1.00  0.00     0.185 C 
BRANCH  17  18
HETATM   18  O3  UNL     1     -14.880 -32.662  27.894  1.00  0.00    -0.388 OA
ATOM     19  H3  UNL     1     -15.470 -32.163  28.447  1.00  0.00     0.210 HD
ENDBRANCH  17  18
BRANCH  17  20
HETATM   20  C11 UNL     1     -16.663 -33.932  26.971  1.00  0.00     0.079 C 
HETATM   21  C12 UNL     1     -16.719 -34.527  25.803  1.00  0.00     0.049 C 
BRANCH  20  22
HETATM   22  O4  UNL     1     -17.767 -33.284  27.497  1.00  0.00    -0.258 OA
BRANCH  22  23
HETATM   23  C13 UNL     1     -18.108 -31.971  27.157  1.00  0.00     0.411 C 
HETATM   24  O5  UNL     1     -17.452 -31.060  27.711  1.00  0.00    -0.229 OA
BRANCH  23  25
HETATM   25  O6  UNL     1     -19.108 -31.672  26.264  1.00  0.00    -0.293 OA
BRANCH  25  26
HETATM   26  C14 UNL     1     -18.924 -31.765  24.845  1.00  0.00     0.126 C 
HETATM   27  C15 UNL     1     -19.313 -30.430  24.274  1.00  0.00     0.040 C 
HETATM   28  C16 UNL     1     -19.804 -32.840  24.278  1.00  0.00     0.040 C 
ENDBRANCH  25  26
ENDBRANCH  23  25
ENDBRANCH  22  23
ENDBRANCH  20  22
ENDBRANCH  17  20
ENDBRANCH  15  17
ENDBRANCH  13  15
ENDBRANCH   6  13
BRANCH   9  29
HETATM   29  C20 UNL     1     -20.497 -34.395  33.093  1.00  0.00     0.054 C 
BRANCH  29  30
HETATM   30  C21 UNL     1     -20.216 -35.330  34.226  1.00  0.00    -0.021 C 
HETATM   31  C22 UNL     1     -20.196 -34.850  35.453  1.00  0.00    -0.091 C 
HETATM   32  C23 UNL     1     -19.905 -35.834  36.564  1.00  0.00     0.042 C 
HETATM   33  C24 UNL     1     -20.438 -33.463  35.868  1.00  0.00     0.042 C 
ENDBRANCH  29  30
ENDBRANCH   9  29
BRANCH  10  34
HETATM   34  O7  UNL     1     -18.682 -30.865  31.891  1.00  0.00    -0.387 OA
ATOM     35  H7  UNL     1     -18.849 -31.083  30.982  1.00  0.00     0.210 HD
ENDBRANCH  10  34
TORSDOF 13
ENDMDL
