MODEL 1
REMARK VINA RESULT: -7.685043581      0.000      0.000
REMARK  12 active torsions:
REMARK  status: ('A' for Active; 'I' for Inactive)
REMARK    1  A    between atoms: C2_2  and  C3_3 
REMARK    2  A    between atoms: C3_3  and  C4_4 
REMARK    3  A    between atoms: C4_4  and  C5_5 
REMARK    4  A    between atoms: C5_5  and  C6_6 
REMARK    5  A    between atoms: C7_7  and  O1_8 
REMARK    6  A    between atoms: C8_10  and  O2_11 
REMARK    7  A    between atoms: C9_13  and  O3_14 
REMARK    8  A    between atoms: C10_16  and  N1_17 
REMARK    9  A    between atoms: C12_19  and  C13_20 
REMARK   10  A    between atoms: C14_21  and  C15_22 
REMARK   11  A    between atoms: C15_22  and  O4_23 
REMARK   12  A    between atoms: N2_25  and  O5_27 
ROOT
HETATM    1  C6  UNL     1      12.211  18.577  12.356  1.00  0.00     0.044 C 
HETATM    2  C7  UNL     1      13.319  19.546  12.516  1.00  0.00     0.155 C 
HETATM    3  C8  UNL     1      14.095  19.163  13.749  1.00  0.00     0.178 C 
HETATM    4  C9  UNL     1      13.224  18.219  14.535  1.00  0.00     0.174 C 
HETATM    5  C10 UNL     1      12.015  17.890  13.690  1.00  0.00     0.147 C 
ENDROOT
BRANCH   5   6
HETATM    6  N1  UNL     1      10.805  18.343  14.344  1.00  0.00    -0.279 N 
HETATM    7  C11 UNL     1       9.525  18.209  13.996  1.00  0.00     0.143 A 
HETATM    8  C12 UNL     1       8.748  18.817  14.955  1.00  0.00     0.066 A 
HETATM    9  N3  UNL     1       9.591  19.305  15.865  1.00  0.00    -0.285 N 
HETATM   10  N4  UNL     1      10.820  19.011  15.483  1.00  0.00    -0.240 N 
ATOM     11  H3  UNL     1       9.332  19.815  16.709  1.00  0.00     0.188 HD
ATOM     12  H4  UNL     1      11.664  19.265  15.997  1.00  0.00     0.208 HD
BRANCH   8  13
HETATM   13  C13 UNL     1       7.283  18.920  14.988  1.00  0.00     0.037 C 
HETATM   14  C14 UNL     1       6.674  20.016  15.348  1.00  0.00     0.060 C 
BRANCH  14  15
HETATM   15  C15 UNL     1       5.273  20.308  15.443  1.00  0.00     0.159 C 
HETATM   16  N2  UNL     1       4.671  20.797  16.439  1.00  0.00    -0.248 N 
ATOM     17  H2  UNL     1       3.665  20.946  16.353  1.00  0.00     0.196 HD
BRANCH  15  18
HETATM   18  O4  UNL     1       4.414  20.041  14.332  1.00  0.00    -0.345 OA
ATOM     19  H4  UNL     1       3.514  20.345  14.348  1.00  0.00     0.219 HD
ENDBRANCH  15  18
BRANCH  16  20
HETATM   20  O5  UNL     1       5.247  21.134  17.598  1.00  0.00    -0.288 OA
ATOM     21  H5  UNL     1       5.379  22.024  17.906  1.00  0.00     0.244 HD
ENDBRANCH  16  20
ENDBRANCH  14  15
ENDBRANCH   8  13
ENDBRANCH   5   6
BRANCH   1  22
HETATM   22  C5  UNL     1      12.392  17.570  11.226  1.00  0.00     0.009 C 
BRANCH  22  23
HETATM   23  C4  UNL     1      11.825  18.016   9.949  1.00  0.00     0.001 C 
BRANCH  23  24
HETATM   24  C3  UNL     1      12.830  18.265   8.885  1.00  0.00    -0.000 C 
BRANCH  24  25
HETATM   25  C2  UNL     1      12.690  19.432   7.995  1.00  0.00    -0.005 C 
HETATM   26  C1  UNL     1      13.759  20.473   8.006  1.00  0.00     0.005 C 
ENDBRANCH  24  25
ENDBRANCH  23  24
ENDBRANCH  22  23
ENDBRANCH   1  22
BRANCH   4  27
HETATM   27  O3  UNL     1      13.906  17.100  14.974  1.00  0.00    -0.391 OA
ATOM     28  H3  UNL     1      13.609  16.299  14.556  1.00  0.00     0.210 HD
ENDBRANCH   4  27
BRANCH   2  29
HETATM   29  O1  UNL     1      14.173  19.694  11.457  1.00  0.00    -0.392 OA
ATOM     30  H1  UNL     1      14.683  18.933  11.204  1.00  0.00     0.210 HD
ENDBRANCH   2  29
BRANCH   3  31
HETATM   31  O2  UNL     1      14.410  20.287  14.547  1.00  0.00    -0.390 OA
ATOM     32  H2  UNL     1      15.257  20.199  14.967  1.00  0.00     0.210 HD
ENDBRANCH   3  31
TORSDOF 12
ENDMDL
MODEL 2
REMARK VINA RESULT: -7.667222533      1.003      1.510
REMARK  12 active torsions:
REMARK  status: ('A' for Active; 'I' for Inactive)
REMARK    1  A    between atoms: C2_2  and  C3_3 
REMARK    2  A    between atoms: C3_3  and  C4_4 
REMARK    3  A    between atoms: C4_4  and  C5_5 
REMARK    4  A    between atoms: C5_5  and  C6_6 
REMARK    5  A    between atoms: C7_7  and  O1_8 
REMARK    6  A    between atoms: C8_10  and  O2_11 
REMARK    7  A    between atoms: C9_13  and  O3_14 
REMARK    8  A    between atoms: C10_16  and  N1_17 
REMARK    9  A    between atoms: C12_19  and  C13_20 
REMARK   10  A    between atoms: C14_21  and  C15_22 
REMARK   11  A    between atoms: C15_22  and  O4_23 
REMARK   12  A    between atoms: N2_25  and  O5_27 
ROOT
HETATM    1  C6  UNL     1      12.873  19.188  12.468  1.00  0.00     0.044 C 
HETATM    2  C7  UNL     1      13.740  20.141  13.198  1.00  0.00     0.155 C 
HETATM    3  C8  UNL     1      14.229  19.457  14.448  1.00  0.00     0.178 C 
HETATM    4  C9  UNL     1      13.346  18.256  14.660  1.00  0.00     0.174 C 
HETATM    5  C10 UNL     1      12.457  18.112  13.448  1.00  0.00     0.147 C 
ENDROOT
BRANCH   5   6
HETATM    6  N1  UNL     1      11.066  18.252  13.825  1.00  0.00    -0.279 N 
HETATM    7  C11 UNL     1      10.505  18.853  14.876  1.00  0.00     0.143 A 
HETATM    8  C12 UNL     1       9.140  18.709  14.781  1.00  0.00     0.066 A 
HETATM    9  N3  UNL     1       8.914  18.018  13.664  1.00  0.00    -0.285 N 
HETATM   10  N4  UNL     1      10.079  17.753  13.104  1.00  0.00    -0.240 N 
ATOM     11  H3  UNL     1       8.000  17.743  13.304  1.00  0.00     0.188 HD
ATOM     12  H4  UNL     1      10.200  17.235  12.233  1.00  0.00     0.208 HD
BRANCH   8  13
HETATM   13  C13 UNL     1       8.120  19.208  15.713  1.00  0.00     0.037 C 
HETATM   14  C14 UNL     1       7.130  19.960  15.318  1.00  0.00     0.060 C 
BRANCH  14  15
HETATM   15  C15 UNL     1       6.050  20.537  16.065  1.00  0.00     0.159 C 
HETATM   16  N2  UNL     1       4.841  20.609  15.709  1.00  0.00    -0.248 N 
ATOM     17  H2  UNL     1       4.187  21.052  16.354  1.00  0.00     0.196 HD
BRANCH  15  18
HETATM   18  O4  UNL     1       6.300  21.107  17.352  1.00  0.00    -0.345 OA
ATOM     19  H4  UNL     1       5.572  21.335  17.917  1.00  0.00     0.219 HD
ENDBRANCH  15  18
BRANCH  16  20
HETATM   20  O5  UNL     1       4.349  20.149  14.553  1.00  0.00    -0.288 OA
ATOM     21  H5  UNL     1       3.907  19.316  14.438  1.00  0.00     0.244 HD
ENDBRANCH  16  20
ENDBRANCH  14  15
ENDBRANCH   8  13
ENDBRANCH   5   6
BRANCH   1  22
HETATM   22  C5  UNL     1      13.488  18.591  11.207  1.00  0.00     0.009 C 
BRANCH  22  23
HETATM   23  C4  UNL     1      12.499  18.257  10.176  1.00  0.00     0.001 C 
BRANCH  23  24
HETATM   24  C3  UNL     1      13.018  18.318   8.786  1.00  0.00    -0.000 C 
BRANCH  24  25
HETATM   25  C2  UNL     1      12.834  19.541   7.981  1.00  0.00    -0.005 C 
HETATM   26  C1  UNL     1      13.899  20.584   8.010  1.00  0.00     0.005 C 
ENDBRANCH  24  25
ENDBRANCH  23  24
ENDBRANCH  22  23
ENDBRANCH   1  22
BRANCH   4  27
HETATM   27  O3  UNL     1      14.062  17.109  14.953  1.00  0.00    -0.391 OA
ATOM     28  H3  UNL     1      13.507  16.388  15.225  1.00  0.00     0.210 HD
ENDBRANCH   4  27
BRANCH   2  29
HETATM   29  O1  UNL     1      14.799  20.669  12.512  1.00  0.00    -0.392 OA
ATOM     30  H1  UNL     1      15.232  21.421  12.898  1.00  0.00     0.210 HD
ENDBRANCH   2  29
BRANCH   3  31
HETATM   31  O2  UNL     1      14.154  20.303  15.579  1.00  0.00    -0.390 OA
ATOM     32  H2  UNL     1      14.757  20.037  16.263  1.00  0.00     0.210 HD
ENDBRANCH   3  31
TORSDOF 12
ENDMDL
MODEL 3
REMARK VINA RESULT: -7.485258470      1.733      2.346
REMARK  12 active torsions:
REMARK  status: ('A' for Active; 'I' for Inactive)
REMARK    1  A    between atoms: C2_2  and  C3_3 
REMARK    2  A    between atoms: C3_3  and  C4_4 
REMARK    3  A    between atoms: C4_4  and  C5_5 
REMARK    4  A    between atoms: C5_5  and  C6_6 
REMARK    5  A    between atoms: C7_7  and  O1_8 
REMARK    6  A    between atoms: C8_10  and  O2_11 
REMARK    7  A    between atoms: C9_13  and  O3_14 
REMARK    8  A    between atoms: C10_16  and  N1_17 
REMARK    9  A    between atoms: C12_19  and  C13_20 
REMARK   10  A    between atoms: C14_21  and  C15_22 
REMARK   11  A    between atoms: C15_22  and  O4_23 
REMARK   12  A    between atoms: N2_25  and  O5_27 
ROOT
HETATM    1  C6  UNL     1      13.470  20.050  13.633  1.00  0.00     0.044 C 
HETATM    2  C7  UNL     1      13.469  21.528  13.729  1.00  0.00     0.155 C 
HETATM    3  C8  UNL     1      13.428  21.896  15.190  1.00  0.00     0.178 C 
HETATM    4  C9  UNL     1      13.008  20.659  15.938  1.00  0.00     0.174 C 
HETATM    5  C10 UNL     1      12.980  19.509  14.958  1.00  0.00     0.147 C 
ENDROOT
BRANCH   5   6
HETATM    6  N1  UNL     1      11.638  18.976  14.846  1.00  0.00    -0.279 N 
HETATM    7  C11 UNL     1      10.485  19.407  15.359  1.00  0.00     0.143 A 
HETATM    8  C12 UNL     1       9.485  18.549  14.961  1.00  0.00     0.066 A 
HETATM    9  N3  UNL     1      10.070  17.616  14.211  1.00  0.00    -0.285 N 
HETATM   10  N4  UNL     1      11.361  17.887  14.153  1.00  0.00    -0.240 N 
ATOM     11  H3  UNL     1       9.602  16.829  13.761  1.00  0.00     0.188 HD
ATOM     12  H4  UNL     1      12.048  17.332  13.643  1.00  0.00     0.208 HD
BRANCH   8  13
HETATM   13  C13 UNL     1       8.055  18.629  15.287  1.00  0.00     0.037 C 
HETATM   14  C14 UNL     1       7.378  19.737  15.165  1.00  0.00     0.060 C 
BRANCH  14  15
HETATM   15  C15 UNL     1       5.995  20.012  15.429  1.00  0.00     0.159 C 
HETATM   16  N2  UNL     1       5.530  20.672  16.399  1.00  0.00    -0.248 N 
ATOM     17  H2  UNL     1       4.517  20.780  16.451  1.00  0.00     0.196 HD
BRANCH  15  18
HETATM   18  O4  UNL     1       4.990  19.516  14.542  1.00  0.00    -0.345 OA
ATOM     19  H4  UNL     1       5.113  19.586  13.602  1.00  0.00     0.219 HD
ENDBRANCH  15  18
BRANCH  16  20
HETATM   20  O5  UNL     1       6.259  21.240  17.366  1.00  0.00    -0.288 OA
ATOM     21  H5  UNL     1       6.048  22.056  17.804  1.00  0.00     0.244 HD
ENDBRANCH  16  20
ENDBRANCH  14  15
ENDBRANCH   8  13
ENDBRANCH   5   6
BRANCH   1  22
HETATM   22  C5  UNL     1      14.804  19.431  13.231  1.00  0.00     0.009 C 
BRANCH  22  23
HETATM   23  C4  UNL     1      14.914  19.162  11.793  1.00  0.00     0.001 C 
BRANCH  23  24
HETATM   24  C3  UNL     1      13.613  18.996  11.098  1.00  0.00    -0.000 C 
BRANCH  24  25
HETATM   25  C2  UNL     1      13.493  19.322   9.665  1.00  0.00    -0.005 C 
HETATM   26  C1  UNL     1      13.691  18.234   8.664  1.00  0.00     0.005 C 
ENDBRANCH  24  25
ENDBRANCH  23  24
ENDBRANCH  22  23
ENDBRANCH   1  22
BRANCH   4  27
HETATM   27  O3  UNL     1      13.794  20.411  17.049  1.00  0.00    -0.391 OA
ATOM     28  H3  UNL     1      14.623  20.001  16.830  1.00  0.00     0.210 HD
ENDBRANCH   4  27
BRANCH   2  29
HETATM   29  O1  UNL     1      14.492  22.192  13.110  1.00  0.00    -0.392 OA
ATOM     30  H1  UNL     1      14.692  23.067  13.425  1.00  0.00     0.210 HD
ENDBRANCH   2  29
BRANCH   3  31
HETATM   31  O2  UNL     1      12.508  22.938  15.448  1.00  0.00    -0.390 OA
ATOM     32  H2  UNL     1      12.002  22.778  16.236  1.00  0.00     0.210 HD
ENDBRANCH   3  31
TORSDOF 12
ENDMDL
MODEL 4
REMARK VINA RESULT: -7.464055252      0.638      1.179
REMARK  12 active torsions:
REMARK  status: ('A' for Active; 'I' for Inactive)
REMARK    1  A    between atoms: C2_2  and  C3_3 
REMARK    2  A    between atoms: C3_3  and  C4_4 
REMARK    3  A    between atoms: C4_4  and  C5_5 
REMARK    4  A    between atoms: C5_5  and  C6_6 
REMARK    5  A    between atoms: C7_7  and  O1_8 
REMARK    6  A    between atoms: C8_10  and  O2_11 
REMARK    7  A    between atoms: C9_13  and  O3_14 
REMARK    8  A    between atoms: C10_16  and  N1_17 
REMARK    9  A    between atoms: C12_19  and  C13_20 
REMARK   10  A    between atoms: C14_21  and  C15_22 
REMARK   11  A    between atoms: C15_22  and  O4_23 
REMARK   12  A    between atoms: N2_25  and  O5_27 
ROOT
HETATM    1  C6  UNL     1      12.208  18.588  12.353  1.00  0.00     0.044 C 
HETATM    2  C7  UNL     1      13.310  19.561  12.528  1.00  0.00     0.155 C 
HETATM    3  C8  UNL     1      14.080  19.171  13.763  1.00  0.00     0.178 C 
HETATM    4  C9  UNL     1      13.208  18.216  14.534  1.00  0.00     0.174 C 
HETATM    5  C10 UNL     1      12.007  17.888  13.678  1.00  0.00     0.147 C 
ENDROOT
BRANCH   5   6
HETATM    6  N1  UNL     1      10.790  18.329  14.329  1.00  0.00    -0.279 N 
HETATM    7  C11 UNL     1       9.513  18.194  13.969  1.00  0.00     0.143 A 
HETATM    8  C12 UNL     1       8.726  18.788  14.929  1.00  0.00     0.066 A 
HETATM    9  N3  UNL     1       9.561  19.268  15.851  1.00  0.00    -0.285 N 
HETATM   10  N4  UNL     1      10.793  18.984  15.475  1.00  0.00    -0.240 N 
ATOM     11  H3  UNL     1       9.293  19.768  16.698  1.00  0.00     0.188 HD
ATOM     12  H4  UNL     1      11.632  19.236  15.999  1.00  0.00     0.208 HD
BRANCH   8  13
HETATM   13  C13 UNL     1       7.261  18.884  14.952  1.00  0.00     0.037 C 
HETATM   14  C14 UNL     1       6.644  20.023  15.114  1.00  0.00     0.060 C 
BRANCH  14  15
HETATM   15  C15 UNL     1       5.242  20.317  15.163  1.00  0.00     0.159 C 
HETATM   16  N2  UNL     1       4.449  20.378  14.182  1.00  0.00    -0.248 N 
ATOM     17  H2  UNL     1       3.474  20.601  14.379  1.00  0.00     0.196 HD
BRANCH  15  18
HETATM   18  O4  UNL     1       4.614  20.579  16.420  1.00  0.00    -0.345 OA
ATOM     19  H4  UNL     1       4.514  19.877  17.053  1.00  0.00     0.219 HD
ENDBRANCH  15  18
BRANCH  16  20
HETATM   20  O5  UNL     1       4.788  20.173  12.904  1.00  0.00    -0.288 OA
ATOM     21  H5  UNL     1       5.053  19.339  12.534  1.00  0.00     0.244 HD
ENDBRANCH  16  20
ENDBRANCH  14  15
ENDBRANCH   8  13
ENDBRANCH   5   6
BRANCH   1  22
HETATM   22  C5  UNL     1      12.402  17.592  11.215  1.00  0.00     0.009 C 
BRANCH  22  23
HETATM   23  C4  UNL     1      11.838  18.046   9.938  1.00  0.00     0.001 C 
BRANCH  23  24
HETATM   24  C3  UNL     1      12.844  18.286   8.874  1.00  0.00    -0.000 C 
BRANCH  24  25
HETATM   25  C2  UNL     1      12.721  19.462   7.992  1.00  0.00    -0.005 C 
HETATM   26  C1  UNL     1      13.792  20.499   8.027  1.00  0.00     0.005 C 
ENDBRANCH  24  25
ENDBRANCH  23  24
ENDBRANCH  22  23
ENDBRANCH   1  22
BRANCH   4  27
HETATM   27  O3  UNL     1      13.893  17.096  14.968  1.00  0.00    -0.391 OA
ATOM     28  H3  UNL     1      13.363  16.529  15.517  1.00  0.00     0.210 HD
ENDBRANCH   4  27
BRANCH   2  29
HETATM   29  O1  UNL     1      14.170  19.724  11.476  1.00  0.00    -0.392 OA
ATOM     30  H1  UNL     1      15.075  19.469  11.616  1.00  0.00     0.210 HD
ENDBRANCH   2  29
BRANCH   3  31
HETATM   31  O2  UNL     1      14.383  20.290  14.573  1.00  0.00    -0.390 OA
ATOM     32  H2  UNL     1      13.730  20.428  15.249  1.00  0.00     0.210 HD
ENDBRANCH   3  31
TORSDOF 12
ENDMDL
MODEL 5
REMARK VINA RESULT: -7.383361112      4.920      8.052
REMARK  12 active torsions:
REMARK  status: ('A' for Active; 'I' for Inactive)
REMARK    1  A    between atoms: C2_2  and  C3_3 
REMARK    2  A    between atoms: C3_3  and  C4_4 
REMARK    3  A    between atoms: C4_4  and  C5_5 
REMARK    4  A    between atoms: C5_5  and  C6_6 
REMARK    5  A    between atoms: C7_7  and  O1_8 
REMARK    6  A    between atoms: C8_10  and  O2_11 
REMARK    7  A    between atoms: C9_13  and  O3_14 
REMARK    8  A    between atoms: C10_16  and  N1_17 
REMARK    9  A    between atoms: C12_19  and  C13_20 
REMARK   10  A    between atoms: C14_21  and  C15_22 
REMARK   11  A    between atoms: C15_22  and  O4_23 
REMARK   12  A    between atoms: N2_25  and  O5_27 
ROOT
HETATM    1  C6  UNL     1      13.338  22.403  15.210  1.00  0.00     0.044 C 
HETATM    2  C7  UNL     1      12.827  21.150  15.812  1.00  0.00     0.155 C 
HETATM    3  C8  UNL     1      13.957  20.154  15.837  1.00  0.00     0.178 C 
HETATM    4  C9  UNL     1      15.014  20.673  14.898  1.00  0.00     0.174 C 
HETATM    5  C10 UNL     1      14.606  22.060  14.460  1.00  0.00     0.147 C 
ENDROOT
BRANCH   5   6
HETATM    6  N1  UNL     1      14.397  22.094  13.027  1.00  0.00    -0.279 N 
HETATM    7  C11 UNL     1      14.274  21.103  12.142  1.00  0.00     0.143 A 
HETATM    8  C12 UNL     1      14.089  21.656  10.895  1.00  0.00     0.066 A 
HETATM    9  N3  UNL     1      14.104  22.977  11.066  1.00  0.00    -0.285 N 
HETATM   10  N4  UNL     1      14.290  23.222  12.350  1.00  0.00    -0.240 N 
ATOM     11  H3  UNL     1      13.992  23.677  10.333  1.00  0.00     0.188 HD
ATOM     12  H4  UNL     1      14.343  24.154  12.761  1.00  0.00     0.208 HD
BRANCH   8  13
HETATM   13  C13 UNL     1      13.908  20.948   9.620  1.00  0.00     0.037 C 
HETATM   14  C14 UNL     1      13.494  19.712   9.567  1.00  0.00     0.060 C 
BRANCH  14  15
HETATM   15  C15 UNL     1      13.259  18.863   8.436  1.00  0.00     0.159 C 
HETATM   16  N2  UNL     1      12.283  18.924   7.638  1.00  0.00    -0.248 N 
ATOM     17  H2  UNL     1      12.255  18.245   6.877  1.00  0.00     0.196 HD
BRANCH  15  18
HETATM   18  O4  UNL     1      14.185  17.819   8.126  1.00  0.00    -0.345 OA
ATOM     19  H4  UNL     1      14.975  18.019   7.638  1.00  0.00     0.219 HD
ENDBRANCH  15  18
BRANCH  16  20
HETATM   20  O5  UNL     1      11.283  19.810   7.710  1.00  0.00    -0.288 OA
ATOM     21  H5  UNL     1      10.601  19.920   7.057  1.00  0.00     0.244 HD
ENDBRANCH  16  20
ENDBRANCH  14  15
ENDBRANCH   8  13
ENDBRANCH   5   6
BRANCH   1  22
HETATM   22  C5  UNL     1      13.557  23.548  16.192  1.00  0.00     0.009 C 
BRANCH  22  23
HETATM   23  C4  UNL     1      14.963  23.953  16.313  1.00  0.00     0.001 C 
BRANCH  23  24
HETATM   24  C3  UNL     1      15.578  23.646  17.628  1.00  0.00    -0.000 C 
BRANCH  24  25
HETATM   25  C2  UNL     1      14.754  23.092  18.719  1.00  0.00    -0.005 C 
HETATM   26  C1  UNL     1      15.042  21.711  19.204  1.00  0.00     0.005 C 
ENDBRANCH  24  25
ENDBRANCH  23  24
ENDBRANCH  22  23
ENDBRANCH   1  22
BRANCH   4  27
HETATM   27  O3  UNL     1      16.285  20.623  15.442  1.00  0.00    -0.391 OA
ATOM     28  H3  UNL     1      16.313  20.926  16.342  1.00  0.00     0.210 HD
ENDBRANCH   4  27
BRANCH   2  29
HETATM   29  O1  UNL     1      12.261  21.243  17.054  1.00  0.00    -0.392 OA
ATOM     30  H1  UNL     1      11.312  21.267  17.096  1.00  0.00     0.210 HD
ENDBRANCH   2  29
BRANCH   3  31
HETATM   31  O2  UNL     1      13.541  18.871  15.413  1.00  0.00    -0.390 OA
ATOM     32  H2  UNL     1      14.257  18.370  15.041  1.00  0.00     0.210 HD
ENDBRANCH   3  31
TORSDOF 12
ENDMDL
